MODEL 1
REMARK VINA RESULT:      -9.1      0.000      0.000
REMARK SMILES CC[C@@H](C)CN(C)C(=O)NC(=O)CCC(=O)OCCOCCOCCOCCOC(=O)c1ccc(-c2c3nc(c(-c4cccc(S(=O)(=O)[O-])c4F)c4ccc([nH]4)c(-c4cccc(S(=O)(=O)[O-])c4F)c4nc(c(-c5cccc(S(=O)(=O)[O-])c5F)c5ccc2[nH]5)C=C4)C=C3)cc1
REMARK SMILES IDX 21 1 20 2 19 3 18 4 17 5 15 6 16 7 14 8 13 9 11 10 8 11 9 12
REMARK SMILES IDX 10 13 12 15 6 16 7 17 5 18 3 19 4 20 2 21 1 22 22 23 23 24
REMARK SMILES IDX 24 25 25 26 26 27 27 28 28 29 29 30 30 31 31 32 32 33 33 34
REMARK SMILES IDX 94 35 34 36 93 37 35 38 36 39 37 40 87 41 38 42 92 43 86 44
REMARK SMILES IDX 88 45 39 46 91 47 85 48 84 49 40 51 72 52 52 53 71 54 53 55
REMARK SMILES IDX 56 56 70 57 89 58 54 59 55 60 69 62 90 63 57 64 41 65 42 66
REMARK SMILES IDX 50 67 43 68 45 69 51 70 44 71 46 72 47 73 48 74 49 75 73 76
REMARK SMILES IDX 74 77 82 78 75 79 77 80 83 81 76 82 78 83 79 84 80 85 81 86
REMARK SMILES IDX 58 87 59 88 67 89 60 90 62 91 68 92 61 93 63 94 64 95 65 96
REMARK SMILES IDX 66 97
REMARK H PARENT 10 14 88 50 56 61
REMARK Flexibility Score: inf
ROOT
ATOM      1  C   UNL A   1      29.704  26.045  24.754  1.00  0.00     0.188 C 
ENDROOT
BRANCH   1   2
ATOM      2  O   UNL A   1      30.057  26.328  23.400  1.00  0.00    -0.376 OA
BRANCH   2   3
ATOM      3  C   UNL A   1      30.689  27.471  22.781  1.00  0.00     0.202 C 
BRANCH   3   4
ATOM      4  C   UNL A   1      32.259  27.151  22.382  1.00  0.00     0.261 C 
BRANCH   4   5
ATOM      5  O   UNL A   1      33.199  26.564  23.360  1.00  0.00    -0.463 OA
BRANCH   5   6
ATOM      6  C   UNL A   1      33.371  25.210  23.369  1.00  0.00     0.306 C 
ATOM      7  O   UNL A   1      32.746  24.426  22.651  1.00  0.00    -0.252 OA
BRANCH   6   8
ATOM      8  C   UNL A   1      34.369  24.644  24.383  1.00  0.00     0.132 C 
BRANCH   8   9
ATOM      9  C   UNL A   1      35.485  23.641  24.133  1.00  0.00     0.112 C 
BRANCH   9  10
ATOM     10  C   UNL A   1      36.484  23.324  25.191  1.00  0.00     0.228 C 
ATOM     11  C   UNL A   1      36.053  21.074  25.562  1.00  0.00     0.323 C 
ATOM     12  O   UNL A   1      37.178  20.608  25.601  1.00  0.00    -0.248 OA
ATOM     13  N   UNL A   1      36.129  22.333  26.053  1.00  0.00    -0.278 N 
ATOM     14  H   UNL A   1      35.933  22.524  26.999  1.00  0.00     0.174 HD
ATOM     15  O   UNL A   1      37.503  23.985  25.365  1.00  0.00    -0.275 OA
BRANCH  11  16
ATOM     16  N   UNL A   1      34.805  20.506  25.251  1.00  0.00    -0.327 N 
ATOM     17  C   UNL A   1      33.771  20.937  26.189  1.00  0.00     0.148 C 
BRANCH  16  18
ATOM     18  C   UNL A   1      34.238  19.299  24.385  1.00  0.00     0.124 C 
BRANCH  18  19
ATOM     19  C   UNL A   1      34.198  17.640  23.999  1.00  0.00     0.005 C 
ATOM     20  C   UNL A   1      32.797  17.470  23.314  1.00  0.00     0.009 C 
BRANCH  19  21
ATOM     21  C   UNL A   1      34.279  16.260  24.778  1.00  0.00     0.002 C 
ATOM     22  C   UNL A   1      35.641  15.980  25.445  1.00  0.00     0.004 C 
ENDBRANCH  19  21
ENDBRANCH  18  19
ENDBRANCH  16  18
ENDBRANCH  11  16
ENDBRANCH   9  10
ENDBRANCH   8   9
ENDBRANCH   6   8
ENDBRANCH   5   6
ENDBRANCH   4   5
ENDBRANCH   3   4
ENDBRANCH   2   3
ENDBRANCH   1   2
BRANCH   1  23
ATOM     23  C   UNL A   1      30.579  25.246  25.734  1.00  0.00     0.188 C 
BRANCH  23  24
ATOM     24  O   UNL A   1      31.358  25.988  26.644  1.00  0.00    -0.377 OA
BRANCH  24  25
ATOM     25  C   UNL A   1      31.017  27.353  26.712  1.00  0.00     0.188 C 
BRANCH  25  26
ATOM     26  C   UNL A   1      31.956  28.253  27.533  1.00  0.00     0.188 C 
BRANCH  26  27
ATOM     27  O   UNL A   1      31.875  29.660  27.429  1.00  0.00    -0.376 OA
BRANCH  27  28
ATOM     28  C   UNL A   1      32.844  30.472  26.788  1.00  0.00     0.202 C 
BRANCH  28  29
ATOM     29  C   UNL A   1      34.289  30.750  27.238  1.00  0.00     0.261 C 
BRANCH  29  30
ATOM     30  O   UNL A   1      34.594  32.010  27.819  1.00  0.00    -0.460 OA
BRANCH  30  31
ATOM     31  C   UNL A   1      34.909  31.999  29.132  1.00  0.00     0.338 C 
ATOM     32  O   UNL A   1      34.226  32.419  30.053  1.00  0.00    -0.246 OA
BRANCH  31  33
ATOM     33  C   UNL A   1      36.114  31.156  29.289  1.00  0.00     0.060 A 
ATOM     34  C   UNL A   1      36.045  30.067  30.174  1.00  0.00     0.016 A 
ATOM     35  C   UNL A   1      37.236  31.339  28.474  1.00  0.00     0.016 A 
ATOM     36  C   UNL A   1      37.095  29.155  30.240  1.00  0.00     0.010 A 
ATOM     37  C   UNL A   1      38.317  30.465  28.593  1.00  0.00     0.010 A 
ATOM     38  C   UNL A   1      38.259  29.390  29.498  1.00  0.00    -0.014 A 
BRANCH  38  39
ATOM     39  C   UNL A   1      39.511  28.737  29.934  1.00  0.00     0.031 A 
ATOM     40  C   UNL A   1      40.208  29.354  31.117  1.00  0.00     0.074 A 
ATOM     41  C   UNL A   1      40.018  27.654  29.322  1.00  0.00     0.049 A 
ATOM     42  N   UNL A   1      41.333  29.019  31.687  1.00  0.00    -0.248 NA
ATOM     43  C   UNL A   1      39.535  30.508  31.744  1.00  0.00     0.031 C 
ATOM     44  C   UNL A   1      39.418  26.956  28.188  1.00  0.00     0.029 A 
ATOM     45  N   UNL A   1      41.182  26.969  29.566  1.00  0.00    -0.354 N 
ATOM     46  C   UNL A   1      41.514  29.933  32.717  1.00  0.00     0.074 A 
ATOM     47  C   UNL A   1      40.387  30.835  32.699  1.00  0.00     0.031 C 
ATOM     48  C   UNL A   1      40.243  25.962  27.806  1.00  0.00     0.029 A 
ATOM     49  C   UNL A   1      41.437  25.975  28.650  1.00  0.00     0.049 A 
ATOM     50  H   UNL A   1      41.779  27.170  30.323  1.00  0.00     0.167 HD
ATOM     51  C   UNL A   1      42.527  30.017  33.606  1.00  0.00     0.034 A 
ATOM     52  C   UNL A   1      42.528  25.198  28.499  1.00  0.00     0.034 A 
ATOM     53  C   UNL A   1      43.655  29.132  33.611  1.00  0.00     0.049 A 
ATOM     54  C   UNL A   1      43.680  25.352  29.464  1.00  0.00     0.074 A 
ATOM     55  C   UNL A   1      44.726  29.111  34.483  1.00  0.00     0.029 A 
ATOM     56  N   UNL A   1      43.872  28.128  32.679  1.00  0.00    -0.354 N 
ATOM     57  N   UNL A   1      43.789  26.141  30.508  1.00  0.00    -0.248 NA
ATOM     58  C   UNL A   1      44.853  24.493  29.244  1.00  0.00     0.031 C 
ATOM     59  C   UNL A   1      45.614  28.119  34.055  1.00  0.00     0.029 A 
ATOM     60  C   UNL A   1      45.073  27.496  32.941  1.00  0.00     0.049 A 
ATOM     61  H   UNL A   1      43.261  27.900  31.942  1.00  0.00     0.167 HD
ATOM     62  C   UNL A   1      45.023  25.853  31.083  1.00  0.00     0.074 A 
ATOM     63  C   UNL A   1      45.616  24.799  30.285  1.00  0.00     0.031 C 
ATOM     64  C   UNL A   1      45.624  26.417  32.160  1.00  0.00     0.034 A 
BRANCH  51  65
ATOM     65  C   UNL A   1      42.458  31.113  34.631  1.00  0.00     0.023 A 
ATOM     66  C   UNL A   1      41.871  30.862  35.889  1.00  0.00     0.012 A 
ATOM     67  C   UNL A   1      42.992  32.385  34.357  1.00  0.00     0.148 A 
ATOM     68  C   UNL A   1      41.791  31.870  36.847  1.00  0.00     0.002 A 
ATOM     69  C   UNL A   1      42.953  33.371  35.333  1.00  0.00     0.091 A 
ATOM     70  F   UNL A   1      43.514  32.611  33.142  1.00  0.00    -0.205 F 
ATOM     71  C   UNL A   1      42.341  33.120  36.573  1.00  0.00     0.022 A 
BRANCH  69  72
ATOM     72  S   UNL A   1      43.699  34.987  35.107  1.00  0.00     0.127 S 
ATOM     73  O   UNL A   1      45.065  34.631  34.724  1.00  0.00    -0.237 OA
ATOM     74  O   UNL A   1      42.889  35.547  34.024  1.00  0.00    -0.237 OA
ATOM     75  O   UNL A   1      43.569  35.675  36.384  1.00  0.00    -0.744 OA
ENDBRANCH  69  72
ENDBRANCH  51  65
BRANCH  52  76
ATOM     76  C   UNL A   1      42.595  24.197  27.393  1.00  0.00     0.023 A 
ATOM     77  C   UNL A   1      43.200  24.549  26.171  1.00  0.00     0.012 A 
ATOM     78  C   UNL A   1      42.049  22.907  27.541  1.00  0.00     0.148 A 
ATOM     79  C   UNL A   1      43.232  23.646  25.106  1.00  0.00     0.002 A 
ATOM     80  C   UNL A   1      42.130  21.995  26.495  1.00  0.00     0.091 A 
ATOM     81  F   UNL A   1      41.457  22.599  28.703  1.00  0.00    -0.205 F 
ATOM     82  C   UNL A   1      42.706  22.368  25.271  1.00  0.00     0.022 A 
BRANCH  80  83
ATOM     83  S   UNL A   1      41.578  20.293  26.646  1.00  0.00     0.127 S 
ATOM     84  O   UNL A   1      42.360  19.823  27.787  1.00  0.00    -0.237 OA
ATOM     85  O   UNL A   1      40.149  20.466  26.909  1.00  0.00    -0.237 OA
ATOM     86  O   UNL A   1      41.888  19.662  25.369  1.00  0.00    -0.744 OA
ENDBRANCH  80  83
ENDBRANCH  52  76
BRANCH  64  87
ATOM     87  C   UNL A   1      46.978  25.894  32.568  1.00  0.00     0.023 A 
ATOM     88  C   UNL A   1      48.144  26.491  32.054  1.00  0.00     0.012 A 
ATOM     89  C   UNL A   1      47.091  24.872  33.533  1.00  0.00     0.148 A 
ATOM     90  C   UNL A   1      49.404  26.057  32.467  1.00  0.00     0.002 A 
ATOM     91  C   UNL A   1      48.347  24.481  33.979  1.00  0.00     0.091 A 
ATOM     92  F   UNL A   1      45.967  24.311  34.004  1.00  0.00    -0.205 F 
ATOM     93  C   UNL A   1      49.504  25.062  33.437  1.00  0.00     0.022 A 
BRANCH  91  94
ATOM     94  S   UNL A   1      48.574  23.282  35.298  1.00  0.00     0.127 S 
ATOM     95  O   UNL A   1      48.022  22.069  34.695  1.00  0.00    -0.237 OA
ATOM     96  O   UNL A   1      50.028  23.274  35.461  1.00  0.00    -0.237 OA
ATOM     97  O   UNL A   1      47.838  23.796  36.444  1.00  0.00    -0.744 OA
ENDBRANCH  91  94
ENDBRANCH  64  87
ENDBRANCH  38  39
ENDBRANCH  31  33
ENDBRANCH  30  31
ENDBRANCH  29  30
ENDBRANCH  28  29
ENDBRANCH  27  28
ENDBRANCH  26  27
ENDBRANCH  25  26
ENDBRANCH  24  25
ENDBRANCH  23  24
ENDBRANCH   1  23
TORSDOF 29
ENDMDL
MODEL 2
REMARK VINA RESULT:      -8.6      5.019     10.386
REMARK SMILES CC[C@@H](C)CN(C)C(=O)NC(=O)CCC(=O)OCCOCCOCCOCCOC(=O)c1ccc(-c2c3nc(c(-c4cccc(S(=O)(=O)[O-])c4F)c4ccc([nH]4)c(-c4cccc(S(=O)(=O)[O-])c4F)c4nc(c(-c5cccc(S(=O)(=O)[O-])c5F)c5ccc2[nH]5)C=C4)C=C3)cc1
REMARK SMILES IDX 21 1 20 2 19 3 18 4 17 5 15 6 16 7 14 8 13 9 11 10 8 11 9 12
REMARK SMILES IDX 10 13 12 15 6 16 7 17 5 18 3 19 4 20 2 21 1 22 22 23 23 24
REMARK SMILES IDX 24 25 25 26 26 27 27 28 28 29 29 30 30 31 31 32 32 33 33 34
REMARK SMILES IDX 94 35 34 36 93 37 35 38 36 39 37 40 87 41 38 42 92 43 86 44
REMARK SMILES IDX 88 45 39 46 91 47 85 48 84 49 40 51 72 52 52 53 71 54 53 55
REMARK SMILES IDX 56 56 70 57 89 58 54 59 55 60 69 62 90 63 57 64 41 65 42 66
REMARK SMILES IDX 50 67 43 68 45 69 51 70 44 71 46 72 47 73 48 74 49 75 73 76
REMARK SMILES IDX 74 77 82 78 75 79 77 80 83 81 76 82 78 83 79 84 80 85 81 86
REMARK SMILES IDX 58 87 59 88 67 89 60 90 62 91 68 92 61 93 63 94 64 95 65 96
REMARK SMILES IDX 66 97
REMARK H PARENT 10 14 88 50 56 61
REMARK Flexibility Score: inf
ROOT
ATOM      1  C   UNL A   1      40.479  20.529  26.316  1.00  0.00     0.188 C 
ENDROOT
BRANCH   1   2
ATOM      2  O   UNL A   1      39.765  21.655  25.807  1.00  0.00    -0.376 OA
BRANCH   2   3
ATOM      3  C   UNL A   1      38.427  22.146  26.048  1.00  0.00     0.202 C 
BRANCH   3   4
ATOM      4  C   UNL A   1      37.491  22.040  24.692  1.00  0.00     0.261 C 
BRANCH   4   5
ATOM      5  O   UNL A   1      36.976  23.248  24.013  1.00  0.00    -0.463 OA
BRANCH   5   6
ATOM      6  C   UNL A   1      35.670  23.596  24.199  1.00  0.00     0.306 C 
ATOM      7  O   UNL A   1      34.811  23.567  23.316  1.00  0.00    -0.252 OA
BRANCH   6   8
ATOM      8  C   UNL A   1      35.279  24.105  25.589  1.00  0.00     0.132 C 
BRANCH   8   9
ATOM      9  C   UNL A   1      34.168  23.592  26.493  1.00  0.00     0.112 C 
BRANCH   9  10
ATOM     10  C   UNL A   1      33.802  22.148  26.516  1.00  0.00     0.228 C 
ATOM     11  C   UNL A   1      31.906  22.139  25.177  1.00  0.00     0.323 C 
ATOM     12  O   UNL A   1      32.106  21.167  24.469  1.00  0.00    -0.248 OA
ATOM     13  N   UNL A   1      32.475  21.879  26.377  1.00  0.00    -0.278 N 
ATOM     14  H   UNL A   1      31.948  21.508  27.122  1.00  0.00     0.174 HD
ATOM     15  O   UNL A   1      34.610  21.260  26.769  1.00  0.00    -0.275 OA
BRANCH  11  16
ATOM     16  N   UNL A   1      31.133  23.299  24.994  1.00  0.00    -0.327 N 
ATOM     17  C   UNL A   1      30.864  23.548  23.580  1.00  0.00     0.148 C 
BRANCH  16  18
ATOM     18  C   UNL A   1      30.727  24.591  25.827  1.00  0.00     0.124 C 
BRANCH  18  19
ATOM     19  C   UNL A   1      30.605  26.285  25.975  1.00  0.00     0.005 C 
ATOM     20  C   UNL A   1      30.434  26.759  24.489  1.00  0.00     0.009 C 
BRANCH  19  21
ATOM     21  C   UNL A   1      31.498  27.473  26.528  1.00  0.00     0.002 C 
ATOM     22  C   UNL A   1      33.018  27.238  26.415  1.00  0.00     0.004 C 
ENDBRANCH  19  21
ENDBRANCH  18  19
ENDBRANCH  16  18
ENDBRANCH  11  16
ENDBRANCH   9  10
ENDBRANCH   8   9
ENDBRANCH   6   8
ENDBRANCH   5   6
ENDBRANCH   4   5
ENDBRANCH   3   4
ENDBRANCH   2   3
ENDBRANCH   1   2
BRANCH   1  23
ATOM     23  C   UNL A   1      41.986  20.293  26.123  1.00  0.00     0.188 C 
BRANCH  23  24
ATOM     24  O   UNL A   1      42.362  19.237  25.270  1.00  0.00    -0.377 OA
BRANCH  24  25
ATOM     25  C   UNL A   1      43.673  18.766  25.484  1.00  0.00     0.188 C 
BRANCH  25  26
ATOM     26  C   UNL A   1      44.694  19.059  24.372  1.00  0.00     0.188 C 
BRANCH  26  27
ATOM     27  O   UNL A   1      45.701  20.033  24.559  1.00  0.00    -0.376 OA
BRANCH  27  28
ATOM     28  C   UNL A   1      45.450  21.396  24.856  1.00  0.00     0.202 C 
BRANCH  28  29
ATOM     29  C   UNL A   1      45.422  22.585  23.880  1.00  0.00     0.261 C 
BRANCH  29  30
ATOM     30  O   UNL A   1      45.043  23.863  24.369  1.00  0.00    -0.460 OA
BRANCH  30  31
ATOM     31  C   UNL A   1      43.762  23.987  24.778  1.00  0.00     0.338 C 
ATOM     32  O   UNL A   1      42.865  23.169  24.637  1.00  0.00    -0.246 OA
BRANCH  31  33
ATOM     33  C   UNL A   1      43.690  25.176  25.653  1.00  0.00     0.060 A 
ATOM     34  C   UNL A   1      43.344  26.406  25.068  1.00  0.00     0.016 A 
ATOM     35  C   UNL A   1      43.811  25.060  27.042  1.00  0.00     0.016 A 
ATOM     36  C   UNL A   1      43.111  27.519  25.871  1.00  0.00     0.010 A 
ATOM     37  C   UNL A   1      43.647  26.193  27.840  1.00  0.00     0.010 A 
ATOM     38  C   UNL A   1      43.327  27.429  27.252  1.00  0.00    -0.014 A 
BRANCH  38  39
ATOM     39  C   UNL A   1      43.568  28.678  28.006  1.00  0.00     0.031 A 
ATOM     40  C   UNL A   1      42.367  29.302  28.663  1.00  0.00     0.074 A 
ATOM     41  C   UNL A   1      44.783  29.242  28.110  1.00  0.00     0.049 A 
ATOM     42  N   UNL A   1      42.276  30.408  29.349  1.00  0.00    -0.248 NA
ATOM     43  C   UNL A   1      41.094  28.570  28.528  1.00  0.00     0.031 C 
ATOM     44  C   UNL A   1      46.021  28.714  27.540  1.00  0.00     0.029 A 
ATOM     45  N   UNL A   1      45.162  30.412  28.719  1.00  0.00    -0.354 N 
ATOM     46  C   UNL A   1      40.936  30.517  29.702  1.00  0.00     0.074 A 
ATOM     47  C   UNL A   1      40.251  29.368  29.160  1.00  0.00     0.031 C 
ATOM     48  C   UNL A   1      47.018  29.583  27.793  1.00  0.00     0.029 A 
ATOM     49  C   UNL A   1      46.482  30.736  28.516  1.00  0.00     0.049 A 
ATOM     50  H   UNL A   1      44.546  30.967  29.252  1.00  0.00     0.167 HD
ATOM     51  C   UNL A   1      40.326  31.486  30.418  1.00  0.00     0.034 A 
ATOM     52  C   UNL A   1      47.159  31.854  28.847  1.00  0.00     0.034 A 
ATOM     53  C   UNL A   1      41.005  32.636  30.939  1.00  0.00     0.049 A 
ATOM     54  C   UNL A   1      46.441  32.955  29.590  1.00  0.00     0.074 A 
ATOM     55  C   UNL A   1      40.487  33.666  31.701  1.00  0.00     0.029 A 
ATOM     56  N   UNL A   1      42.344  32.923  30.726  1.00  0.00    -0.354 N 
ATOM     57  N   UNL A   1      45.202  32.994  30.022  1.00  0.00    -0.248 NA
ATOM     58  C   UNL A   1      47.221  34.161  29.910  1.00  0.00     0.031 C 
ATOM     59  C   UNL A   1      41.505  34.599  31.915  1.00  0.00     0.029 A 
ATOM     60  C   UNL A   1      42.667  34.128  31.322  1.00  0.00     0.049 A 
ATOM     61  H   UNL A   1      42.972  32.353  30.225  1.00  0.00     0.167 HD
ATOM     62  C   UNL A   1      45.064  34.209  30.688  1.00  0.00     0.074 A 
ATOM     63  C   UNL A   1      46.353  34.866  30.624  1.00  0.00     0.031 C 
ATOM     64  C   UNL A   1      43.969  34.743  31.285  1.00  0.00     0.034 A 
BRANCH  51  65
ATOM     65  C   UNL A   1      38.850  31.340  30.660  1.00  0.00     0.023 A 
ATOM     66  C   UNL A   1      38.390  30.547  31.732  1.00  0.00     0.012 A 
ATOM     67  C   UNL A   1      37.920  32.003  29.839  1.00  0.00     0.148 A 
ATOM     68  C   UNL A   1      37.025  30.394  31.964  1.00  0.00     0.002 A 
ATOM     69  C   UNL A   1      36.563  31.885  30.106  1.00  0.00     0.091 A 
ATOM     70  F   UNL A   1      38.380  32.722  28.804  1.00  0.00    -0.205 F 
ATOM     71  C   UNL A   1      36.113  31.071  31.159  1.00  0.00     0.022 A 
BRANCH  69  72
ATOM     72  S   UNL A   1      35.313  32.775  29.174  1.00  0.00     0.127 S 
ATOM     73  O   UNL A   1      34.108  32.491  29.951  1.00  0.00    -0.237 OA
ATOM     74  O   UNL A   1      35.789  34.156  29.271  1.00  0.00    -0.237 OA
ATOM     75  O   UNL A   1      35.336  32.215  27.830  1.00  0.00    -0.744 OA
ENDBRANCH  69  72
ENDBRANCH  51  65
BRANCH  52  76
ATOM     76  C   UNL A   1      48.600  31.999  28.484  1.00  0.00     0.023 A 
ATOM     77  C   UNL A   1      49.590  31.465  29.332  1.00  0.00     0.012 A 
ATOM     78  C   UNL A   1      48.994  32.677  27.314  1.00  0.00     0.148 A 
ATOM     79  C   UNL A   1      50.945  31.630  29.038  1.00  0.00     0.002 A 
ATOM     80  C   UNL A   1      50.344  32.793  26.999  1.00  0.00     0.091 A 
ATOM     81  F   UNL A   1      48.039  33.198  26.531  1.00  0.00    -0.205 F 
ATOM     82  C   UNL A   1      51.321  32.285  27.869  1.00  0.00     0.022 A 
BRANCH  80  83
ATOM     83  S   UNL A   1      50.924  33.524  25.466  1.00  0.00     0.127 S 
ATOM     84  O   UNL A   1      49.763  34.307  25.048  1.00  0.00    -0.237 OA
ATOM     85  O   UNL A   1      52.066  34.316  25.926  1.00  0.00    -0.237 OA
ATOM     86  O   UNL A   1      51.272  32.405  24.601  1.00  0.00    -0.744 OA
ENDBRANCH  80  83
ENDBRANCH  52  76
BRANCH  64  87
ATOM     87  C   UNL A   1      44.113  36.091  31.946  1.00  0.00     0.023 A 
ATOM     88  C   UNL A   1      44.481  36.171  33.302  1.00  0.00     0.012 A 
ATOM     89  C   UNL A   1      43.975  37.276  31.194  1.00  0.00     0.148 A 
ATOM     90  C   UNL A   1      44.676  37.410  33.912  1.00  0.00     0.002 A 
ATOM     91  C   UNL A   1      44.222  38.504  31.793  1.00  0.00     0.091 A 
ATOM     92  F   UNL A   1      43.616  37.177  29.906  1.00  0.00    -0.205 F 
ATOM     93  C   UNL A   1      44.559  38.575  33.155  1.00  0.00     0.022 A 
BRANCH  91  94
ATOM     94  S   UNL A   1      44.197  40.050  30.877  1.00  0.00     0.127 S 
ATOM     95  O   UNL A   1      44.505  41.022  31.924  1.00  0.00    -0.237 OA
ATOM     96  O   UNL A   1      45.266  39.847  29.899  1.00  0.00    -0.237 OA
ATOM     97  O   UNL A   1      42.863  40.157  30.303  1.00  0.00    -0.744 OA
ENDBRANCH  91  94
ENDBRANCH  64  87
ENDBRANCH  38  39
ENDBRANCH  31  33
ENDBRANCH  30  31
ENDBRANCH  29  30
ENDBRANCH  28  29
ENDBRANCH  27  28
ENDBRANCH  26  27
ENDBRANCH  25  26
ENDBRANCH  24  25
ENDBRANCH  23  24
ENDBRANCH   1  23
TORSDOF 29
ENDMDL
MODEL 3
REMARK VINA RESULT:      -8.6      3.568      9.538
REMARK SMILES CC[C@@H](C)CN(C)C(=O)NC(=O)CCC(=O)OCCOCCOCCOCCOC(=O)c1ccc(-c2c3nc(c(-c4cccc(S(=O)(=O)[O-])c4F)c4ccc([nH]4)c(-c4cccc(S(=O)(=O)[O-])c4F)c4nc(c(-c5cccc(S(=O)(=O)[O-])c5F)c5ccc2[nH]5)C=C4)C=C3)cc1
REMARK SMILES IDX 21 1 20 2 19 3 18 4 17 5 15 6 16 7 14 8 13 9 11 10 8 11 9 12
REMARK SMILES IDX 10 13 12 15 6 16 7 17 5 18 3 19 4 20 2 21 1 22 22 23 23 24
REMARK SMILES IDX 24 25 25 26 26 27 27 28 28 29 29 30 30 31 31 32 32 33 33 34
REMARK SMILES IDX 94 35 34 36 93 37 35 38 36 39 37 40 87 41 38 42 92 43 86 44
REMARK SMILES IDX 88 45 39 46 91 47 85 48 84 49 40 51 72 52 52 53 71 54 53 55
REMARK SMILES IDX 56 56 70 57 89 58 54 59 55 60 69 62 90 63 57 64 41 65 42 66
REMARK SMILES IDX 50 67 43 68 45 69 51 70 44 71 46 72 47 73 48 74 49 75 73 76
REMARK SMILES IDX 74 77 82 78 75 79 77 80 83 81 76 82 78 83 79 84 80 85 81 86
REMARK SMILES IDX 58 87 59 88 67 89 60 90 62 91 68 92 61 93 63 94 64 95 65 96
REMARK SMILES IDX 66 97
REMARK H PARENT 10 14 88 50 56 61
REMARK Flexibility Score: inf
ROOT
ATOM      1  C   UNL A   1      39.256  24.044  26.570  1.00  0.00     0.188 C 
ENDROOT
BRANCH   1   2
ATOM      2  O   UNL A   1      38.246  23.702  25.621  1.00  0.00    -0.376 OA
BRANCH   2   3
ATOM      3  C   UNL A   1      37.222  22.682  25.619  1.00  0.00     0.202 C 
BRANCH   3   4
ATOM      4  C   UNL A   1      36.430  22.625  24.172  1.00  0.00     0.261 C 
BRANCH   4   5
ATOM      5  O   UNL A   1      35.547  23.727  23.732  1.00  0.00    -0.463 OA
BRANCH   5   6
ATOM      6  C   UNL A   1      34.787  24.369  24.666  1.00  0.00     0.306 C 
ATOM      7  O   UNL A   1      35.092  24.473  25.856  1.00  0.00    -0.252 OA
BRANCH   6   8
ATOM      8  C   UNL A   1      33.446  24.940  24.197  1.00  0.00     0.132 C 
BRANCH   8   9
ATOM      9  C   UNL A   1      32.205  24.173  23.766  1.00  0.00     0.112 C 
BRANCH   9  10
ATOM     10  C   UNL A   1      30.890  24.408  24.425  1.00  0.00     0.228 C 
ATOM     11  C   UNL A   1      31.119  23.147  26.360  1.00  0.00     0.323 C 
ATOM     12  O   UNL A   1      30.680  23.905  27.205  1.00  0.00    -0.248 OA
ATOM     13  N   UNL A   1      30.442  23.394  25.214  1.00  0.00    -0.278 N 
ATOM     14  H   UNL A   1      29.653  22.860  24.962  1.00  0.00     0.174 HD
ATOM     15  O   UNL A   1      30.189  25.386  24.183  1.00  0.00    -0.275 OA
BRANCH  11  16
ATOM     16  N   UNL A   1      32.025  22.073  26.431  1.00  0.00    -0.327 N 
ATOM     17  C   UNL A   1      32.979  22.247  27.524  1.00  0.00     0.148 C 
BRANCH  16  18
ATOM     18  C   UNL A   1      32.526  20.887  25.499  1.00  0.00     0.124 C 
BRANCH  18  19
ATOM     19  C   UNL A   1      33.056  19.280  25.297  1.00  0.00     0.005 C 
ATOM     20  C   UNL A   1      34.451  19.451  24.600  1.00  0.00     0.009 C 
BRANCH  19  21
ATOM     21  C   UNL A   1      32.552  17.971  24.556  1.00  0.00     0.002 C 
ATOM     22  C   UNL A   1      33.444  17.514  23.384  1.00  0.00     0.004 C 
ENDBRANCH  19  21
ENDBRANCH  18  19
ENDBRANCH  16  18
ENDBRANCH  11  16
ENDBRANCH   9  10
ENDBRANCH   8   9
ENDBRANCH   6   8
ENDBRANCH   5   6
ENDBRANCH   4   5
ENDBRANCH   3   4
ENDBRANCH   2   3
ENDBRANCH   1   2
BRANCH   1  23
ATOM     23  C   UNL A   1      39.952  23.039  27.503  1.00  0.00     0.188 C 
BRANCH  23  24
ATOM     24  O   UNL A   1      41.327  22.819  27.292  1.00  0.00    -0.377 OA
BRANCH  24  25
ATOM     25  C   UNL A   1      41.635  22.284  26.026  1.00  0.00     0.188 C 
BRANCH  25  26
ATOM     26  C   UNL A   1      42.803  21.286  25.971  1.00  0.00     0.188 C 
BRANCH  26  27
ATOM     27  O   UNL A   1      43.594  21.168  24.805  1.00  0.00    -0.376 OA
BRANCH  27  28
ATOM     28  C   UNL A   1      44.273  22.248  24.187  1.00  0.00     0.202 C 
BRANCH  28  29
ATOM     29  C   UNL A   1      44.830  23.518  24.853  1.00  0.00     0.261 C 
BRANCH  29  30
ATOM     30  O   UNL A   1      44.046  24.702  24.835  1.00  0.00    -0.460 OA
BRANCH  30  31
ATOM     31  C   UNL A   1      44.675  25.837  25.206  1.00  0.00     0.338 C 
ATOM     32  O   UNL A   1      45.598  26.387  24.623  1.00  0.00    -0.246 OA
BRANCH  31  33
ATOM     33  C   UNL A   1      43.887  26.442  26.300  1.00  0.00     0.060 A 
ATOM     34  C   UNL A   1      44.096  27.801  26.590  1.00  0.00     0.016 A 
ATOM     35  C   UNL A   1      42.857  25.733  26.927  1.00  0.00     0.016 A 
ATOM     36  C   UNL A   1      43.272  28.454  27.502  1.00  0.00     0.010 A 
ATOM     37  C   UNL A   1      42.078  26.370  27.893  1.00  0.00     0.010 A 
ATOM     38  C   UNL A   1      42.305  27.723  28.203  1.00  0.00    -0.014 A 
BRANCH  38  39
ATOM     39  C   UNL A   1      41.800  28.273  29.479  1.00  0.00     0.031 A 
ATOM     40  C   UNL A   1      40.429  28.893  29.442  1.00  0.00     0.074 A 
ATOM     41  C   UNL A   1      42.509  28.233  30.620  1.00  0.00     0.049 A 
ATOM     42  N   UNL A   1      39.757  29.481  30.392  1.00  0.00    -0.248 NA
ATOM     43  C   UNL A   1      39.720  28.834  28.149  1.00  0.00     0.031 C 
ATOM     44  C   UNL A   1      43.832  27.635  30.781  1.00  0.00     0.029 A 
ATOM     45  N   UNL A   1      42.211  28.739  31.860  1.00  0.00    -0.354 N 
ATOM     46  C   UNL A   1      38.563  29.885  29.808  1.00  0.00     0.074 A 
ATOM     47  C   UNL A   1      38.597  29.474  28.424  1.00  0.00     0.031 C 
ATOM     48  C   UNL A   1      44.251  27.846  32.044  1.00  0.00     0.029 A 
ATOM     49  C   UNL A   1      43.238  28.617  32.765  1.00  0.00     0.049 A 
ATOM     50  H   UNL A   1      41.344  29.151  32.081  1.00  0.00     0.167 HD
ATOM     51  C   UNL A   1      37.524  30.538  30.371  1.00  0.00     0.034 A 
ATOM     52  C   UNL A   1      43.351  29.106  34.016  1.00  0.00     0.034 A 
ATOM     53  C   UNL A   1      37.499  30.962  31.740  1.00  0.00     0.049 A 
ATOM     54  C   UNL A   1      42.202  29.891  34.605  1.00  0.00     0.074 A 
ATOM     55  C   UNL A   1      36.485  31.608  32.421  1.00  0.00     0.029 A 
ATOM     56  N   UNL A   1      38.550  30.807  32.631  1.00  0.00    -0.354 N 
ATOM     57  N   UNL A   1      41.030  30.164  34.082  1.00  0.00    -0.248 NA
ATOM     58  C   UNL A   1      42.385  30.418  35.966  1.00  0.00     0.031 C 
ATOM     59  C   UNL A   1      36.938  31.882  33.714  1.00  0.00     0.029 A 
ATOM     60  C   UNL A   1      38.218  31.367  33.850  1.00  0.00     0.049 A 
ATOM     61  H   UNL A   1      39.405  30.363  32.425  1.00  0.00     0.167 HD
ATOM     62  C   UNL A   1      40.327  30.866  35.058  1.00  0.00     0.074 A 
ATOM     63  C   UNL A   1      41.197  30.955  36.212  1.00  0.00     0.031 C 
ATOM     64  C   UNL A   1      39.083  31.405  35.003  1.00  0.00     0.034 A 
BRANCH  51  65
ATOM     65  C   UNL A   1      36.341  30.840  29.494  1.00  0.00     0.023 A 
ATOM     66  C   UNL A   1      35.748  29.810  28.736  1.00  0.00     0.012 A 
ATOM     67  C   UNL A   1      35.805  32.140  29.437  1.00  0.00     0.148 A 
ATOM     68  C   UNL A   1      34.657  30.076  27.911  1.00  0.00     0.002 A 
ATOM     69  C   UNL A   1      34.689  32.387  28.651  1.00  0.00     0.091 A 
ATOM     70  F   UNL A   1      36.408  33.111  30.140  1.00  0.00    -0.205 F 
ATOM     71  C   UNL A   1      34.121  31.361  27.878  1.00  0.00     0.022 A 
BRANCH  69  72
ATOM     72  S   UNL A   1      33.879  33.989  28.598  1.00  0.00     0.127 S 
ATOM     73  O   UNL A   1      33.614  34.234  30.015  1.00  0.00    -0.237 OA
ATOM     74  O   UNL A   1      34.921  34.837  28.017  1.00  0.00    -0.237 OA
ATOM     75  O   UNL A   1      32.698  33.816  27.763  1.00  0.00    -0.744 OA
ENDBRANCH  69  72
ENDBRANCH  51  65
BRANCH  52  76
ATOM     76  C   UNL A   1      44.595  28.873  34.809  1.00  0.00     0.023 A 
ATOM     77  C   UNL A   1      45.742  29.648  34.549  1.00  0.00     0.012 A 
ATOM     78  C   UNL A   1      44.651  27.879  35.805  1.00  0.00     0.148 A 
ATOM     79  C   UNL A   1      46.931  29.416  35.244  1.00  0.00     0.002 A 
ATOM     80  C   UNL A   1      45.822  27.688  36.530  1.00  0.00     0.091 A 
ATOM     81  F   UNL A   1      43.556  27.137  36.023  1.00  0.00    -0.205 F 
ATOM     82  C   UNL A   1      46.968  28.444  36.239  1.00  0.00     0.022 A 
BRANCH  80  83
ATOM     83  S   UNL A   1      45.937  26.535  37.902  1.00  0.00     0.127 S 
ATOM     84  O   UNL A   1      44.889  25.572  37.574  1.00  0.00    -0.237 OA
ATOM     85  O   UNL A   1      47.303  26.032  37.755  1.00  0.00    -0.237 OA
ATOM     86  O   UNL A   1      45.709  27.327  39.104  1.00  0.00    -0.744 OA
ENDBRANCH  80  83
ENDBRANCH  52  76
BRANCH  64  87
ATOM     87  C   UNL A   1      38.566  32.113  36.229  1.00  0.00     0.023 A 
ATOM     88  C   UNL A   1      38.725  33.507  36.353  1.00  0.00     0.012 A 
ATOM     89  C   UNL A   1      37.839  31.409  37.211  1.00  0.00     0.148 A 
ATOM     90  C   UNL A   1      38.200  34.185  37.453  1.00  0.00     0.002 A 
ATOM     91  C   UNL A   1      37.274  32.098  38.276  1.00  0.00     0.091 A 
ATOM     92  F   UNL A   1      37.707  30.081  37.078  1.00  0.00    -0.205 F 
ATOM     93  C   UNL A   1      37.465  33.483  38.407  1.00  0.00     0.022 A 
BRANCH  91  94
ATOM     94  S   UNL A   1      36.227  31.299  39.498  1.00  0.00     0.127 S 
ATOM     95  O   UNL A   1      36.039  29.974  38.907  1.00  0.00    -0.237 OA
ATOM     96  O   UNL A   1      37.072  31.321  40.692  1.00  0.00    -0.237 OA
ATOM     97  O   UNL A   1      35.023  32.113  39.593  1.00  0.00    -0.744 OA
ENDBRANCH  91  94
ENDBRANCH  64  87
ENDBRANCH  38  39
ENDBRANCH  31  33
ENDBRANCH  30  31
ENDBRANCH  29  30
ENDBRANCH  28  29
ENDBRANCH  27  28
ENDBRANCH  26  27
ENDBRANCH  25  26
ENDBRANCH  24  25
ENDBRANCH  23  24
ENDBRANCH   1  23
TORSDOF 29
ENDMDL
