MODEL 1
REMARK VINA RESULT:      -8.4      0.000      0.000
REMARK SMILES O=C(Cc1ccccc1)Nc1ccc(C(=O)NCc2ccc(C(=O)OCCOCCOCCOCCOC(=O)c3ccc(-c4c5nc(c(-c6cccc(S(=O)(=O)[O-])c6F)c6ccc([nH]6)c(-c6cccc(S(=O)(=O)[O-])c6F)c6nc(c(-c7cccc(S(=O)(=O)[O-])c7F)c7ccc4[nH]7)C=C6)C=C5)cc3)cc2)cc1
REMARK SMILES IDX 29 1 28 2 27 3 26 4 25 5 23 6 24 7 22 8 19 9 20 10 104 11
REMARK SMILES IDX 21 12 103 13 18 14 17 15 15 16 16 17 14 19 11 20 12 21
REMARK SMILES IDX 106 22 13 23 105 24 10 25 1 26 2 27 3 29 4 30 5 31 9 32 6 33
REMARK SMILES IDX 8 34 7 35 30 36 31 37 32 38 33 39 34 40 35 41 36 42 37 43
REMARK SMILES IDX 38 44 39 45 40 46 41 47 102 48 42 49 101 50 43 51 44 52
REMARK SMILES IDX 45 53 95 54 46 55 100 56 94 57 96 58 47 59 99 60 93 61 92 62
REMARK SMILES IDX 48 64 80 65 60 66 79 67 61 68 64 69 78 70 97 71 62 72 63 73
REMARK SMILES IDX 77 75 98 76 65 77 49 78 50 79 58 80 51 81 53 82 59 83 52 84
REMARK SMILES IDX 54 85 55 86 56 87 57 88 81 89 82 90 90 91 83 92 85 93 91 94
REMARK SMILES IDX 84 95 86 96 87 97 88 98 89 99 66 100 67 101 75 102 68 103
REMARK SMILES IDX 70 104 76 105 69 106 71 107 72 108 73 109 74 110
REMARK H PARENT 17 18 10 28 96 63 64 74
REMARK Flexibility Score: inf
ROOT
ATOM      1  C   UNL A   1      31.754  29.586  26.522  1.00  0.00     0.188 C 
ENDROOT
BRANCH   1   2
ATOM      2  O   UNL A   1      31.908  28.737  27.646  1.00  0.00    -0.376 OA
BRANCH   2   3
ATOM      3  C   UNL A   1      32.165  27.359  27.437  1.00  0.00     0.202 C 
BRANCH   3   4
ATOM      4  C   UNL A   1      31.836  26.721  26.078  1.00  0.00     0.261 C 
BRANCH   4   5
ATOM      5  O   UNL A   1      32.936  26.560  25.176  1.00  0.00    -0.460 OA
BRANCH   5   6
ATOM      6  C   UNL A   1      32.651  26.487  23.858  1.00  0.00     0.338 C 
ATOM      7  O   UNL A   1      32.601  27.415  23.070  1.00  0.00    -0.246 OA
BRANCH   6   8
ATOM      8  C   UNL A   1      32.653  25.054  23.467  1.00  0.00     0.060 A 
ATOM      9  C   UNL A   1      32.532  22.365  22.623  1.00  0.00    -0.029 A 
ATOM     10  C   UNL A   1      31.364  23.061  22.975  1.00  0.00     0.006 A 
ATOM     11  C   UNL A   1      33.758  23.051  22.676  1.00  0.00     0.006 A 
ATOM     12  C   UNL A   1      31.423  24.393  23.394  1.00  0.00     0.016 A 
ATOM     13  C   UNL A   1      33.822  24.386  23.094  1.00  0.00     0.016 A 
BRANCH   9  14
ATOM     14  C   UNL A   1      32.428  20.891  22.292  1.00  0.00     0.152 C 
BRANCH  14  15
ATOM     15  N   UNL A   1      32.091  20.052  23.421  1.00  0.00    -0.348 N 
ATOM     16  C   UNL A   1      32.672  19.831  24.640  1.00  0.00     0.251 C 
ATOM     17  O   UNL A   1      32.012  19.179  25.452  1.00  0.00    -0.269 OA
ATOM     18  H   UNL A   1      31.269  19.530  23.283  1.00  0.00     0.164 HD
BRANCH  16  19
ATOM     19  C   UNL A   1      34.019  20.335  25.049  1.00  0.00     0.039 A 
ATOM     20  C   UNL A   1      36.473  21.467  25.899  1.00  0.00     0.041 A 
ATOM     21  C   UNL A   1      35.266  21.945  26.409  1.00  0.00     0.027 A 
ATOM     22  C   UNL A   1      36.451  20.381  25.028  1.00  0.00     0.027 A 
ATOM     23  C   UNL A   1      34.053  21.398  25.972  1.00  0.00     0.016 A 
ATOM     24  C   UNL A   1      35.240  19.809  24.628  1.00  0.00     0.016 A 
BRANCH  20  25
ATOM     25  N   UNL A   1      37.671  22.067  26.322  1.00  0.00    -0.326 N 
ATOM     26  O   UNL A   1      37.325  24.255  25.616  1.00  0.00    -0.274 OA
ATOM     27  C   UNL A   1      38.057  23.373  26.065  1.00  0.00     0.228 C 
ATOM     28  H   UNL A   1      38.289  21.512  26.849  1.00  0.00     0.169 HD
BRANCH  27  29
ATOM     29  C   UNL A   1      39.529  23.657  26.319  1.00  0.00     0.135 C 
BRANCH  29  30
ATOM     30  C   UNL A   1      39.814  25.020  26.898  1.00  0.00    -0.039 A 
ATOM     31  C   UNL A   1      40.674  25.906  26.234  1.00  0.00     0.004 A 
ATOM     32  C   UNL A   1      39.253  25.402  28.124  1.00  0.00     0.004 A 
ATOM     33  C   UNL A   1      40.993  27.139  26.802  1.00  0.00     0.000 A 
ATOM     34  C   UNL A   1      39.556  26.645  28.679  1.00  0.00     0.000 A 
ATOM     35  C   UNL A   1      40.434  27.508  28.023  1.00  0.00     0.000 A 
ENDBRANCH  29  30
ENDBRANCH  27  29
ENDBRANCH  20  25
ENDBRANCH  16  19
ENDBRANCH  14  15
ENDBRANCH   9  14
ENDBRANCH   6   8
ENDBRANCH   5   6
ENDBRANCH   4   5
ENDBRANCH   3   4
ENDBRANCH   2   3
ENDBRANCH   1   2
BRANCH   1  36
ATOM     36  C   UNL A   1      32.600  30.874  26.584  1.00  0.00     0.188 C 
BRANCH  36  37
ATOM     37  O   UNL A   1      33.813  30.857  27.317  1.00  0.00    -0.377 OA
BRANCH  37  38
ATOM     38  C   UNL A   1      34.138  31.929  28.196  1.00  0.00     0.188 C 
BRANCH  38  39
ATOM     39  C   UNL A   1      35.092  33.074  27.782  1.00  0.00     0.188 C 
BRANCH  39  40
ATOM     40  O   UNL A   1      35.147  34.166  28.686  1.00  0.00    -0.376 OA
BRANCH  40  41
ATOM     41  C   UNL A   1      33.927  34.611  29.249  1.00  0.00     0.202 C 
BRANCH  41  42
ATOM     42  C   UNL A   1      33.801  34.533  30.775  1.00  0.00     0.261 C 
BRANCH  42  43
ATOM     43  O   UNL A   1      35.020  34.315  31.499  1.00  0.00    -0.460 OA
BRANCH  43  44
ATOM     44  C   UNL A   1      35.182  33.110  32.095  1.00  0.00     0.338 C 
ATOM     45  O   UNL A   1      34.317  32.413  32.584  1.00  0.00    -0.246 OA
BRANCH  44  46
ATOM     46  C   UNL A   1      36.584  32.697  31.876  1.00  0.00     0.060 A 
ATOM     47  C   UNL A   1      37.450  32.607  32.974  1.00  0.00     0.016 A 
ATOM     48  C   UNL A   1      37.032  32.378  30.592  1.00  0.00     0.016 A 
ATOM     49  C   UNL A   1      38.781  32.232  32.783  1.00  0.00     0.010 A 
ATOM     50  C   UNL A   1      38.367  32.022  30.400  1.00  0.00     0.010 A 
ATOM     51  C   UNL A   1      39.256  31.980  31.490  1.00  0.00    -0.014 A 
BRANCH  51  52
ATOM     52  C   UNL A   1      40.713  31.866  31.245  1.00  0.00     0.031 A 
ATOM     53  C   UNL A   1      41.489  33.125  30.969  1.00  0.00     0.074 A 
ATOM     54  C   UNL A   1      41.336  30.674  31.253  1.00  0.00     0.049 A 
ATOM     55  N   UNL A   1      42.754  33.274  30.680  1.00  0.00    -0.248 NA
ATOM     56  C   UNL A   1      40.731  34.387  31.024  1.00  0.00     0.031 C 
ATOM     57  C   UNL A   1      40.698  29.387  31.517  1.00  0.00     0.029 A 
ATOM     58  N   UNL A   1      42.648  30.356  31.003  1.00  0.00    -0.354 N 
ATOM     59  C   UNL A   1      42.937  34.638  30.482  1.00  0.00     0.074 A 
ATOM     60  C   UNL A   1      41.654  35.272  30.677  1.00  0.00     0.031 C 
ATOM     61  C   UNL A   1      41.615  28.412  31.388  1.00  0.00     0.029 A 
ATOM     62  C   UNL A   1      42.895  29.003  31.003  1.00  0.00     0.049 A 
ATOM     63  H   UNL A   1      43.346  31.032  30.842  1.00  0.00     0.167 HD
ATOM     64  C   UNL A   1      44.075  35.304  30.174  1.00  0.00     0.034 A 
ATOM     65  C   UNL A   1      44.019  28.323  30.699  1.00  0.00     0.034 A 
ATOM     66  C   UNL A   1      45.352  34.672  29.992  1.00  0.00     0.049 A 
ATOM     67  C   UNL A   1      45.265  29.087  30.323  1.00  0.00     0.074 A 
ATOM     68  C   UNL A   1      46.574  35.264  29.728  1.00  0.00     0.029 A 
ATOM     69  N   UNL A   1      45.571  33.304  30.030  1.00  0.00    -0.354 N 
ATOM     70  N   UNL A   1      45.452  30.383  30.255  1.00  0.00    -0.248 NA
ATOM     71  C   UNL A   1      46.464  28.293  30.015  1.00  0.00     0.031 C 
ATOM     72  C   UNL A   1      47.524  34.251  29.564  1.00  0.00     0.029 A 
ATOM     73  C   UNL A   1      46.904  33.030  29.776  1.00  0.00     0.049 A 
ATOM     74  H   UNL A   1      44.880  32.626  30.211  1.00  0.00     0.167 HD
ATOM     75  C   UNL A   1      46.796  30.560  29.938  1.00  0.00     0.074 A 
ATOM     76  C   UNL A   1      47.379  29.238  29.844  1.00  0.00     0.031 C 
ATOM     77  C   UNL A   1      47.483  31.712  29.734  1.00  0.00     0.034 A 
BRANCH  64  78
ATOM     78  C   UNL A   1      43.988  36.799  30.019  1.00  0.00     0.023 A 
ATOM     79  C   UNL A   1      44.282  37.641  31.110  1.00  0.00     0.012 A 
ATOM     80  C   UNL A   1      43.662  37.371  28.772  1.00  0.00     0.148 A 
ATOM     81  C   UNL A   1      44.218  39.027  30.975  1.00  0.00     0.002 A 
ATOM     82  C   UNL A   1      43.650  38.752  28.632  1.00  0.00     0.091 A 
ATOM     83  F   UNL A   1      43.363  36.553  27.753  1.00  0.00    -0.205 F 
ATOM     84  C   UNL A   1      43.914  39.583  29.734  1.00  0.00     0.022 A 
BRANCH  82  85
ATOM     85  S   UNL A   1      43.350  39.564  27.059  1.00  0.00     0.127 S 
ATOM     86  O   UNL A   1      43.353  40.973  27.447  1.00  0.00    -0.237 OA
ATOM     87  O   UNL A   1      44.511  39.145  26.273  1.00  0.00    -0.237 OA
ATOM     88  O   UNL A   1      42.074  39.053  26.578  1.00  0.00    -0.744 OA
ENDBRANCH  82  85
ENDBRANCH  64  78
BRANCH  65  89
ATOM     89  C   UNL A   1      44.033  26.833  30.757  1.00  0.00     0.023 A 
ATOM     90  C   UNL A   1      43.792  26.088  29.586  1.00  0.00     0.012 A 
ATOM     91  C   UNL A   1      44.283  26.150  31.964  1.00  0.00     0.148 A 
ATOM     92  C   UNL A   1      43.764  24.693  29.622  1.00  0.00     0.002 A 
ATOM     93  C   UNL A   1      44.310  24.760  31.981  1.00  0.00     0.091 A 
ATOM     94  F   UNL A   1      44.495  26.876  33.070  1.00  0.00    -0.205 F 
ATOM     95  C   UNL A   1      44.031  24.030  30.816  1.00  0.00     0.022 A 
BRANCH  93  96
ATOM     96  S   UNL A   1      44.764  23.820  33.443  1.00  0.00     0.127 S 
ATOM     97  O   UNL A   1      44.585  22.445  32.983  1.00  0.00    -0.237 OA
ATOM     98  O   UNL A   1      46.156  24.228  33.639  1.00  0.00    -0.237 OA
ATOM     99  O   UNL A   1      43.854  24.256  34.494  1.00  0.00    -0.744 OA
ENDBRANCH  93  96
ENDBRANCH  65  89
BRANCH  77 100
ATOM    100  C   UNL A   1      48.960  31.611  29.443  1.00  0.00     0.023 A 
ATOM    101  C   UNL A   1      49.891  31.578  30.500  1.00  0.00     0.012 A 
ATOM    102  C   UNL A   1      49.416  31.469  28.116  1.00  0.00     0.148 A 
ATOM    103  C   UNL A   1      51.255  31.442  30.239  1.00  0.00     0.002 A 
ATOM    104  C   UNL A   1      50.769  31.279  27.867  1.00  0.00     0.091 A 
ATOM    105  F   UNL A   1      48.516  31.516  27.122  1.00  0.00    -0.205 F 
ATOM    106  C   UNL A   1      51.692  31.281  28.926  1.00  0.00     0.022 A 
BRANCH 104 107
ATOM    107  S   UNL A   1      51.412  30.961  26.220  1.00  0.00     0.127 S 
ATOM    108  O   UNL A   1      50.968  32.149  25.493  1.00  0.00    -0.237 OA
ATOM    109  O   UNL A   1      52.855  30.897  26.460  1.00  0.00    -0.237 OA
ATOM    110  O   UNL A   1      50.814  29.706  25.788  1.00  0.00    -0.744 OA
ENDBRANCH 104 107
ENDBRANCH  77 100
ENDBRANCH  51  52
ENDBRANCH  44  46
ENDBRANCH  43  44
ENDBRANCH  42  43
ENDBRANCH  41  42
ENDBRANCH  40  41
ENDBRANCH  39  40
ENDBRANCH  38  39
ENDBRANCH  37  38
ENDBRANCH  36  37
ENDBRANCH   1  36
TORSDOF 29
ENDMDL
MODEL 2
REMARK VINA RESULT:      -7.9      4.465      7.130
REMARK SMILES O=C(Cc1ccccc1)Nc1ccc(C(=O)NCc2ccc(C(=O)OCCOCCOCCOCCOC(=O)c3ccc(-c4c5nc(c(-c6cccc(S(=O)(=O)[O-])c6F)c6ccc([nH]6)c(-c6cccc(S(=O)(=O)[O-])c6F)c6nc(c(-c7cccc(S(=O)(=O)[O-])c7F)c7ccc4[nH]7)C=C6)C=C5)cc3)cc2)cc1
REMARK SMILES IDX 29 1 28 2 27 3 26 4 25 5 23 6 24 7 22 8 19 9 20 10 104 11
REMARK SMILES IDX 21 12 103 13 18 14 17 15 15 16 16 17 14 19 11 20 12 21
REMARK SMILES IDX 106 22 13 23 105 24 10 25 1 26 2 27 3 29 4 30 5 31 9 32 6 33
REMARK SMILES IDX 8 34 7 35 30 36 31 37 32 38 33 39 34 40 35 41 36 42 37 43
REMARK SMILES IDX 38 44 39 45 40 46 41 47 102 48 42 49 101 50 43 51 44 52
REMARK SMILES IDX 45 53 95 54 46 55 100 56 94 57 96 58 47 59 99 60 93 61 92 62
REMARK SMILES IDX 48 64 80 65 60 66 79 67 61 68 64 69 78 70 97 71 62 72 63 73
REMARK SMILES IDX 77 75 98 76 65 77 49 78 50 79 58 80 51 81 53 82 59 83 52 84
REMARK SMILES IDX 54 85 55 86 56 87 57 88 81 89 82 90 90 91 83 92 85 93 91 94
REMARK SMILES IDX 84 95 86 96 87 97 88 98 89 99 66 100 67 101 75 102 68 103
REMARK SMILES IDX 70 104 76 105 69 106 71 107 72 108 73 109 74 110
REMARK H PARENT 17 18 10 28 96 63 64 74
REMARK Flexibility Score: inf
ROOT
ATOM      1  C   UNL A   1      31.394  29.091  25.650  1.00  0.00     0.188 C 
ENDROOT
BRANCH   1   2
ATOM      2  O   UNL A   1      31.545  27.828  26.276  1.00  0.00    -0.376 OA
BRANCH   2   3
ATOM      3  C   UNL A   1      31.843  26.696  25.478  1.00  0.00     0.202 C 
BRANCH   3   4
ATOM      4  C   UNL A   1      31.558  26.732  23.968  1.00  0.00     0.261 C 
BRANCH   4   5
ATOM      5  O   UNL A   1      32.662  27.087  23.128  1.00  0.00    -0.460 OA
BRANCH   5   6
ATOM      6  C   UNL A   1      32.918  26.288  22.071  1.00  0.00     0.338 C 
ATOM      7  O   UNL A   1      33.205  26.643  20.941  1.00  0.00    -0.246 OA
BRANCH   6   8
ATOM      8  C   UNL A   1      33.041  24.894  22.568  1.00  0.00     0.060 A 
ATOM      9  C   UNL A   1      33.184  22.198  23.386  1.00  0.00    -0.029 A 
ATOM     10  C   UNL A   1      31.961  22.766  22.993  1.00  0.00     0.006 A 
ATOM     11  C   UNL A   1      34.339  22.999  23.334  1.00  0.00     0.006 A 
ATOM     12  C   UNL A   1      31.889  24.101  22.590  1.00  0.00     0.016 A 
ATOM     13  C   UNL A   1      34.271  24.337  22.928  1.00  0.00     0.016 A 
BRANCH   9  14
ATOM     14  C   UNL A   1      33.188  20.784  23.929  1.00  0.00     0.152 C 
BRANCH  14  15
ATOM     15  N   UNL A   1      33.102  20.702  25.370  1.00  0.00    -0.348 N 
ATOM     16  C   UNL A   1      33.871  21.190  26.392  1.00  0.00     0.251 C 
ATOM     17  O   UNL A   1      33.402  21.089  27.528  1.00  0.00    -0.269 OA
ATOM     18  H   UNL A   1      32.324  20.187  25.682  1.00  0.00     0.164 HD
BRANCH  16  19
ATOM     19  C   UNL A   1      35.206  21.840  26.221  1.00  0.00     0.039 A 
ATOM     20  C   UNL A   1      37.638  23.263  25.923  1.00  0.00     0.041 A 
ATOM     21  C   UNL A   1      36.530  23.881  26.503  1.00  0.00     0.027 A 
ATOM     22  C   UNL A   1      37.548  21.921  25.565  1.00  0.00     0.027 A 
ATOM     23  C   UNL A   1      35.323  23.182  26.631  1.00  0.00     0.016 A 
ATOM     24  C   UNL A   1      36.353  21.214  25.735  1.00  0.00     0.016 A 
BRANCH  20  25
ATOM     25  N   UNL A   1      38.821  24.005  25.766  1.00  0.00    -0.326 N 
ATOM     26  O   UNL A   1      40.017  23.301  27.630  1.00  0.00    -0.274 OA
ATOM     27  C   UNL A   1      39.871  24.055  26.668  1.00  0.00     0.228 C 
ATOM     28  H   UNL A   1      38.912  24.534  24.941  1.00  0.00     0.169 HD
BRANCH  27  29
ATOM     29  C   UNL A   1      40.851  25.193  26.432  1.00  0.00     0.135 C 
BRANCH  29  30
ATOM     30  C   UNL A   1      40.425  26.518  27.012  1.00  0.00    -0.039 A 
ATOM     31  C   UNL A   1      39.635  26.563  28.170  1.00  0.00     0.004 A 
ATOM     32  C   UNL A   1      40.780  27.718  26.380  1.00  0.00     0.004 A 
ATOM     33  C   UNL A   1      39.183  27.784  28.669  1.00  0.00     0.000 A 
ATOM     34  C   UNL A   1      40.344  28.939  26.894  1.00  0.00     0.000 A 
ATOM     35  C   UNL A   1      39.537  28.971  28.031  1.00  0.00     0.000 A 
ENDBRANCH  29  30
ENDBRANCH  27  29
ENDBRANCH  20  25
ENDBRANCH  16  19
ENDBRANCH  14  15
ENDBRANCH   9  14
ENDBRANCH   6   8
ENDBRANCH   5   6
ENDBRANCH   4   5
ENDBRANCH   3   4
ENDBRANCH   2   3
ENDBRANCH   1   2
BRANCH   1  36
ATOM     36  C   UNL A   1      32.591  30.042  25.850  1.00  0.00     0.188 C 
BRANCH  36  37
ATOM     37  O   UNL A   1      33.886  29.483  25.999  1.00  0.00    -0.377 OA
BRANCH  37  38
ATOM     38  C   UNL A   1      34.469  29.355  27.292  1.00  0.00     0.188 C 
BRANCH  38  39
ATOM     39  C   UNL A   1      35.971  29.625  27.548  1.00  0.00     0.188 C 
BRANCH  39  40
ATOM     40  O   UNL A   1      36.277  30.140  28.835  1.00  0.00    -0.376 OA
BRANCH  40  41
ATOM     41  C   UNL A   1      35.540  31.263  29.281  1.00  0.00     0.202 C 
BRANCH  41  42
ATOM     42  C   UNL A   1      35.810  31.740  30.714  1.00  0.00     0.261 C 
BRANCH  42  43
ATOM     43  O   UNL A   1      37.122  31.480  31.230  1.00  0.00    -0.460 OA
BRANCH  43  44
ATOM     44  C   UNL A   1      38.080  32.407  30.988  1.00  0.00     0.338 C 
ATOM     45  O   UNL A   1      37.913  33.566  30.670  1.00  0.00    -0.246 OA
BRANCH  44  46
ATOM     46  C   UNL A   1      39.376  31.808  31.369  1.00  0.00     0.060 A 
ATOM     47  C   UNL A   1      40.554  32.537  31.160  1.00  0.00     0.016 A 
ATOM     48  C   UNL A   1      39.421  30.539  31.951  1.00  0.00     0.016 A 
ATOM     49  C   UNL A   1      41.788  31.980  31.501  1.00  0.00     0.010 A 
ATOM     50  C   UNL A   1      40.657  29.977  32.275  1.00  0.00     0.010 A 
ATOM     51  C   UNL A   1      41.847  30.681  32.019  1.00  0.00    -0.014 A 
BRANCH  51  52
ATOM     52  C   UNL A   1      43.150  29.979  32.113  1.00  0.00     0.031 A 
ATOM     53  C   UNL A   1      43.572  29.106  30.963  1.00  0.00     0.074 A 
ATOM     54  C   UNL A   1      43.938  30.102  33.196  1.00  0.00     0.049 A 
ATOM     55  N   UNL A   1      44.636  28.359  30.834  1.00  0.00    -0.248 NA
ATOM     56  C   UNL A   1      42.667  29.069  29.802  1.00  0.00     0.031 C 
ATOM     57  C   UNL A   1      43.645  30.923  34.368  1.00  0.00     0.029 A 
ATOM     58  N   UNL A   1      45.138  29.504  33.494  1.00  0.00    -0.354 N 
ATOM     59  C   UNL A   1      44.512  27.735  29.599  1.00  0.00     0.074 A 
ATOM     60  C   UNL A   1      43.267  28.185  29.019  1.00  0.00     0.031 C 
ATOM     61  C   UNL A   1      44.627  30.758  35.272  1.00  0.00     0.029 A 
ATOM     62  C   UNL A   1      45.600  29.797  34.756  1.00  0.00     0.049 A 
ATOM     63  H   UNL A   1      45.622  28.924  32.863  1.00  0.00     0.167 HD
ATOM     64  C   UNL A   1      45.362  26.871  28.996  1.00  0.00     0.034 A 
ATOM     65  C   UNL A   1      46.669  29.319  35.424  1.00  0.00     0.034 A 
ATOM     66  C   UNL A   1      46.605  26.434  29.570  1.00  0.00     0.049 A 
ATOM     67  C   UNL A   1      47.583  28.329  34.744  1.00  0.00     0.074 A 
ATOM     68  C   UNL A   1      47.560  25.601  29.018  1.00  0.00     0.029 A 
ATOM     69  N   UNL A   1      47.055  26.775  30.836  1.00  0.00    -0.354 N 
ATOM     70  N   UNL A   1      47.514  27.838  33.530  1.00  0.00    -0.248 NA
ATOM     71  C   UNL A   1      48.741  27.854  35.516  1.00  0.00     0.031 C 
ATOM     72  C   UNL A   1      48.568  25.404  29.967  1.00  0.00     0.029 A 
ATOM     73  C   UNL A   1      48.265  26.154  31.091  1.00  0.00     0.049 A 
ATOM     74  H   UNL A   1      46.583  27.371  31.462  1.00  0.00     0.167 HD
ATOM     75  C   UNL A   1      48.638  27.031  33.379  1.00  0.00     0.074 A 
ATOM     76  C   UNL A   1      49.379  27.112  34.620  1.00  0.00     0.031 C 
ATOM     77  C   UNL A   1      49.018  26.283  32.312  1.00  0.00     0.034 A 
BRANCH  64  78
ATOM     78  C   UNL A   1      44.977  26.343  27.640  1.00  0.00     0.023 A 
ATOM     79  C   UNL A   1      44.953  27.208  26.526  1.00  0.00     0.012 A 
ATOM     80  C   UNL A   1      44.685  24.976  27.461  1.00  0.00     0.148 A 
ATOM     81  C   UNL A   1      44.610  26.727  25.263  1.00  0.00     0.002 A 
ATOM     82  C   UNL A   1      44.394  24.496  26.191  1.00  0.00     0.091 A 
ATOM     83  F   UNL A   1      44.690  24.176  28.536  1.00  0.00    -0.205 F 
ATOM     84  C   UNL A   1      44.342  25.371  25.093  1.00  0.00     0.022 A 
BRANCH  82  85
ATOM     85  S   UNL A   1      44.116  22.755  25.854  1.00  0.00     0.127 S 
ATOM     86  O   UNL A   1      43.739  22.783  24.441  1.00  0.00    -0.237 OA
ATOM     87  O   UNL A   1      45.432  22.177  26.123  1.00  0.00    -0.237 OA
ATOM     88  O   UNL A   1      43.066  22.329  26.769  1.00  0.00    -0.744 OA
ENDBRANCH  82  85
ENDBRANCH  64  78
BRANCH  65  89
ATOM     89  C   UNL A   1      46.955  29.784  36.812  1.00  0.00     0.023 A 
ATOM     90  C   UNL A   1      46.401  29.091  37.906  1.00  0.00     0.012 A 
ATOM     91  C   UNL A   1      47.771  30.907  37.053  1.00  0.00     0.148 A 
ATOM     92  C   UNL A   1      46.625  29.529  39.212  1.00  0.00     0.002 A 
ATOM     93  C   UNL A   1      48.035  31.304  38.359  1.00  0.00     0.091 A 
ATOM     94  F   UNL A   1      48.275  31.562  35.999  1.00  0.00    -0.205 F 
ATOM     95  C   UNL A   1      47.448  30.628  39.439  1.00  0.00     0.022 A 
BRANCH  93  96
ATOM     96  S   UNL A   1      49.179  32.632  38.753  1.00  0.00     0.127 S 
ATOM     97  O   UNL A   1      48.411  33.412  39.720  1.00  0.00    -0.237 OA
ATOM     98  O   UNL A   1      50.310  31.893  39.317  1.00  0.00    -0.237 OA
ATOM     99  O   UNL A   1      49.463  33.299  37.490  1.00  0.00    -0.744 OA
ENDBRANCH  93  96
ENDBRANCH  65  89
BRANCH  77 100
ATOM    100  C   UNL A   1      50.322  25.530  32.408  1.00  0.00     0.023 A 
ATOM    101  C   UNL A   1      50.345  24.212  32.906  1.00  0.00     0.012 A 
ATOM    102  C   UNL A   1      51.515  26.107  31.927  1.00  0.00     0.148 A 
ATOM    103  C   UNL A   1      51.540  23.494  32.958  1.00  0.00     0.002 A 
ATOM    104  C   UNL A   1      52.691  25.367  31.931  1.00  0.00     0.091 A 
ATOM    105  F   UNL A   1      51.477  27.367  31.469  1.00  0.00    -0.205 F 
ATOM    106  C   UNL A   1      52.708  24.067  32.460  1.00  0.00     0.022 A 
BRANCH 104 107
ATOM    107  S   UNL A   1      54.220  25.983  31.218  1.00  0.00     0.127 S 
ATOM    108  O   UNL A   1      55.118  24.844  31.411  1.00  0.00    -0.237 OA
ATOM    109  O   UNL A   1      53.836  26.227  29.827  1.00  0.00    -0.237 OA
ATOM    110  O   UNL A   1      54.564  27.180  31.971  1.00  0.00    -0.744 OA
ENDBRANCH 104 107
ENDBRANCH  77 100
ENDBRANCH  51  52
ENDBRANCH  44  46
ENDBRANCH  43  44
ENDBRANCH  42  43
ENDBRANCH  41  42
ENDBRANCH  40  41
ENDBRANCH  39  40
ENDBRANCH  38  39
ENDBRANCH  37  38
ENDBRANCH  36  37
ENDBRANCH   1  36
TORSDOF 29
ENDMDL
MODEL 3
REMARK VINA RESULT:      -7.9      2.438      3.233
REMARK SMILES O=C(Cc1ccccc1)Nc1ccc(C(=O)NCc2ccc(C(=O)OCCOCCOCCOCCOC(=O)c3ccc(-c4c5nc(c(-c6cccc(S(=O)(=O)[O-])c6F)c6ccc([nH]6)c(-c6cccc(S(=O)(=O)[O-])c6F)c6nc(c(-c7cccc(S(=O)(=O)[O-])c7F)c7ccc4[nH]7)C=C6)C=C5)cc3)cc2)cc1
REMARK SMILES IDX 29 1 28 2 27 3 26 4 25 5 23 6 24 7 22 8 19 9 20 10 104 11
REMARK SMILES IDX 21 12 103 13 18 14 17 15 15 16 16 17 14 19 11 20 12 21
REMARK SMILES IDX 106 22 13 23 105 24 10 25 1 26 2 27 3 29 4 30 5 31 9 32 6 33
REMARK SMILES IDX 8 34 7 35 30 36 31 37 32 38 33 39 34 40 35 41 36 42 37 43
REMARK SMILES IDX 38 44 39 45 40 46 41 47 102 48 42 49 101 50 43 51 44 52
REMARK SMILES IDX 45 53 95 54 46 55 100 56 94 57 96 58 47 59 99 60 93 61 92 62
REMARK SMILES IDX 48 64 80 65 60 66 79 67 61 68 64 69 78 70 97 71 62 72 63 73
REMARK SMILES IDX 77 75 98 76 65 77 49 78 50 79 58 80 51 81 53 82 59 83 52 84
REMARK SMILES IDX 54 85 55 86 56 87 57 88 81 89 82 90 90 91 83 92 85 93 91 94
REMARK SMILES IDX 84 95 86 96 87 97 88 98 89 99 66 100 67 101 75 102 68 103
REMARK SMILES IDX 70 104 76 105 69 106 71 107 72 108 73 109 74 110
REMARK H PARENT 17 18 10 28 96 63 64 74
REMARK Flexibility Score: inf
ROOT
ATOM      1  C   UNL A   1      31.807  29.964  26.735  1.00  0.00     0.188 C 
ENDROOT
BRANCH   1   2
ATOM      2  O   UNL A   1      32.122  28.879  27.590  1.00  0.00    -0.376 OA
BRANCH   2   3
ATOM      3  C   UNL A   1      32.454  27.625  27.019  1.00  0.00     0.202 C 
BRANCH   3   4
ATOM      4  C   UNL A   1      32.318  27.421  25.501  1.00  0.00     0.261 C 
BRANCH   4   5
ATOM      5  O   UNL A   1      33.497  27.668  24.726  1.00  0.00    -0.460 OA
BRANCH   5   6
ATOM      6  C   UNL A   1      33.405  27.503  23.390  1.00  0.00     0.338 C 
ATOM      7  O   UNL A   1      33.642  28.337  22.533  1.00  0.00    -0.246 OA
BRANCH   6   8
ATOM      8  C   UNL A   1      33.208  26.056  23.118  1.00  0.00     0.060 A 
ATOM      9  C   UNL A   1      32.760  23.348  22.463  1.00  0.00    -0.029 A 
ATOM     10  C   UNL A   1      31.733  24.299  22.336  1.00  0.00     0.006 A 
ATOM     11  C   UNL A   1      34.023  23.787  22.898  1.00  0.00     0.006 A 
ATOM     12  C   UNL A   1      31.953  25.639  22.661  1.00  0.00     0.016 A 
ATOM     13  C   UNL A   1      34.249  25.130  23.224  1.00  0.00     0.016 A 
BRANCH   9  14
ATOM     14  C   UNL A   1      32.437  21.890  22.213  1.00  0.00     0.152 C 
BRANCH  14  15
ATOM     15  N   UNL A   1      31.913  21.193  23.367  1.00  0.00    -0.348 N 
ATOM     16  C   UNL A   1      32.390  20.963  24.629  1.00  0.00     0.251 C 
ATOM     17  O   UNL A   1      31.593  20.481  25.437  1.00  0.00    -0.269 OA
ATOM     18  H   UNL A   1      31.023  20.802  23.211  1.00  0.00     0.164 HD
BRANCH  16  19
ATOM     19  C   UNL A   1      33.780  21.270  25.086  1.00  0.00     0.039 A 
ATOM     20  C   UNL A   1      36.337  22.036  26.035  1.00  0.00     0.041 A 
ATOM     21  C   UNL A   1      35.189  22.638  26.549  1.00  0.00     0.027 A 
ATOM     22  C   UNL A   1      36.198  21.006  25.109  1.00  0.00     0.027 A 
ATOM     23  C   UNL A   1      33.927  22.273  26.063  1.00  0.00     0.016 A 
ATOM     24  C   UNL A   1      34.934  20.614  24.659  1.00  0.00     0.016 A 
BRANCH  20  25
ATOM     25  N   UNL A   1      37.591  22.457  26.509  1.00  0.00    -0.326 N 
ATOM     26  O   UNL A   1      37.642  24.637  25.705  1.00  0.00    -0.274 OA
ATOM     27  C   UNL A   1      38.197  23.672  26.229  1.00  0.00     0.228 C 
ATOM     28  H   UNL A   1      38.082  21.835  27.093  1.00  0.00     0.169 HD
BRANCH  27  29
ATOM     29  C   UNL A   1      39.679  23.729  26.563  1.00  0.00     0.135 C 
BRANCH  29  30
ATOM     30  C   UNL A   1      40.149  25.056  27.103  1.00  0.00    -0.039 A 
ATOM     31  C   UNL A   1      39.706  25.508  28.355  1.00  0.00     0.004 A 
ATOM     32  C   UNL A   1      41.001  25.870  26.345  1.00  0.00     0.004 A 
ATOM     33  C   UNL A   1      40.085  26.764  28.827  1.00  0.00     0.000 A 
ATOM     34  C   UNL A   1      41.395  27.118  26.829  1.00  0.00     0.000 A 
ATOM     35  C   UNL A   1      40.928  27.568  28.063  1.00  0.00     0.000 A 
ENDBRANCH  29  30
ENDBRANCH  27  29
ENDBRANCH  20  25
ENDBRANCH  16  19
ENDBRANCH  14  15
ENDBRANCH   9  14
ENDBRANCH   6   8
ENDBRANCH   5   6
ENDBRANCH   4   5
ENDBRANCH   3   4
ENDBRANCH   2   3
ENDBRANCH   1   2
BRANCH   1  36
ATOM     36  C   UNL A   1      32.716  31.197  26.919  1.00  0.00     0.188 C 
BRANCH  36  37
ATOM     37  O   UNL A   1      34.093  30.993  27.187  1.00  0.00    -0.377 OA
BRANCH  37  38
ATOM     38  C   UNL A   1      34.686  31.543  28.359  1.00  0.00     0.188 C 
BRANCH  38  39
ATOM     39  C   UNL A   1      35.591  32.798  28.313  1.00  0.00     0.188 C 
BRANCH  39  40
ATOM     40  O   UNL A   1      35.998  33.291  29.579  1.00  0.00    -0.376 OA
BRANCH  40  41
ATOM     41  C   UNL A   1      35.026  33.331  30.607  1.00  0.00     0.202 C 
BRANCH  41  42
ATOM     42  C   UNL A   1      35.308  32.489  31.858  1.00  0.00     0.261 C 
BRANCH  42  43
ATOM     43  O   UNL A   1      36.690  32.277  32.177  1.00  0.00    -0.460 OA
BRANCH  43  44
ATOM     44  C   UNL A   1      37.181  31.026  32.009  1.00  0.00     0.338 C 
ATOM     45  O   UNL A   1      36.576  29.980  32.117  1.00  0.00    -0.246 OA
BRANCH  44  46
ATOM     46  C   UNL A   1      38.554  31.163  31.477  1.00  0.00     0.060 A 
ATOM     47  C   UNL A   1      39.619  31.341  32.370  1.00  0.00     0.016 A 
ATOM     48  C   UNL A   1      38.786  31.091  30.102  1.00  0.00     0.016 A 
ATOM     49  C   UNL A   1      40.919  31.485  31.884  1.00  0.00     0.010 A 
ATOM     50  C   UNL A   1      40.084  31.254  29.617  1.00  0.00     0.010 A 
ATOM     51  C   UNL A   1      41.151  31.486  30.503  1.00  0.00    -0.014 A 
BRANCH  51  52
ATOM     52  C   UNL A   1      42.466  31.922  29.973  1.00  0.00     0.031 A 
ATOM     53  C   UNL A   1      42.694  33.394  29.761  1.00  0.00     0.074 A 
ATOM     54  C   UNL A   1      43.431  31.035  29.673  1.00  0.00     0.049 A 
ATOM     55  N   UNL A   1      43.735  34.009  29.266  1.00  0.00    -0.248 NA
ATOM     56  C   UNL A   1      41.596  34.292  30.158  1.00  0.00     0.031 C 
ATOM     57  C   UNL A   1      43.335  29.588  29.843  1.00  0.00     0.029 A 
ATOM     58  N   UNL A   1      44.679  31.230  29.133  1.00  0.00    -0.354 N 
ATOM     59  C   UNL A   1      43.405  35.359  29.257  1.00  0.00     0.074 A 
ATOM     60  C   UNL A   1      42.067  35.474  29.790  1.00  0.00     0.031 C 
ATOM     61  C   UNL A   1      44.466  29.020  29.390  1.00  0.00     0.029 A 
ATOM     62  C   UNL A   1      45.353  30.060  28.870  1.00  0.00     0.049 A 
ATOM     63  H   UNL A   1      45.055  32.121  28.953  1.00  0.00     0.167 HD
ATOM     64  C   UNL A   1      44.154  36.412  28.851  1.00  0.00     0.034 A 
ATOM     65  C   UNL A   1      46.535  29.855  28.255  1.00  0.00     0.034 A 
ATOM     66  C   UNL A   1      45.489  36.297  28.332  1.00  0.00     0.049 A 
ATOM     67  C   UNL A   1      47.334  31.043  27.779  1.00  0.00     0.074 A 
ATOM     68  C   UNL A   1      46.348  37.306  27.941  1.00  0.00     0.029 A 
ATOM     69  N   UNL A   1      46.150  35.099  28.110  1.00  0.00    -0.354 N 
ATOM     70  N   UNL A   1      47.060  32.321  27.884  1.00  0.00    -0.248 NA
ATOM     71  C   UNL A   1      48.622  30.759  27.127  1.00  0.00     0.031 C 
ATOM     72  C   UNL A   1      47.514  36.718  27.442  1.00  0.00     0.029 A 
ATOM     73  C   UNL A   1      47.401  35.343  27.569  1.00  0.00     0.049 A 
ATOM     74  H   UNL A   1      45.785  34.206  28.307  1.00  0.00     0.167 HD
ATOM     75  C   UNL A   1      48.158  32.993  27.352  1.00  0.00     0.074 A 
ATOM     76  C   UNL A   1      49.106  31.980  26.940  1.00  0.00     0.031 C 
ATOM     77  C   UNL A   1      48.357  34.327  27.209  1.00  0.00     0.034 A 
BRANCH  64  78
ATOM     78  C   UNL A   1      43.543  37.784  28.955  1.00  0.00     0.023 A 
ATOM     79  C   UNL A   1      43.777  38.576  30.098  1.00  0.00     0.012 A 
ATOM     80  C   UNL A   1      42.777  38.309  27.895  1.00  0.00     0.148 A 
ATOM     81  C   UNL A   1      43.229  39.854  30.200  1.00  0.00     0.002 A 
ATOM     82  C   UNL A   1      42.276  39.601  27.983  1.00  0.00     0.091 A 
ATOM     83  F   UNL A   1      42.546  37.531  26.828  1.00  0.00    -0.205 F 
ATOM     84  C   UNL A   1      42.488  40.370  29.139  1.00  0.00     0.022 A 
BRANCH  82  85
ATOM     85  S   UNL A   1      41.381  40.386  26.639  1.00  0.00     0.127 S 
ATOM     86  O   UNL A   1      40.499  41.300  27.364  1.00  0.00    -0.237 OA
ATOM     87  O   UNL A   1      42.458  41.039  25.895  1.00  0.00    -0.237 OA
ATOM     88  O   UNL A   1      40.709  39.312  25.920  1.00  0.00    -0.744 OA
ENDBRANCH  82  85
ENDBRANCH  64  78
BRANCH  65  89
ATOM     89  C   UNL A   1      47.054  28.469  28.071  1.00  0.00     0.023 A 
ATOM     90  C   UNL A   1      46.568  27.679  27.011  1.00  0.00     0.012 A 
ATOM     91  C   UNL A   1      48.025  27.931  28.938  1.00  0.00     0.148 A 
ATOM     92  C   UNL A   1      47.012  26.367  26.840  1.00  0.00     0.002 A 
ATOM     93  C   UNL A   1      48.504  26.643  28.728  1.00  0.00     0.091 A 
ATOM     94  F   UNL A   1      48.463  28.692  29.950  1.00  0.00    -0.205 F 
ATOM     95  C   UNL A   1      47.985  25.853  27.691  1.00  0.00     0.022 A 
BRANCH  93  96
ATOM     96  S   UNL A   1      49.843  25.939  29.697  1.00  0.00     0.127 S 
ATOM     97  O   UNL A   1      50.550  27.136  30.146  1.00  0.00    -0.237 OA
ATOM     98  O   UNL A   1      49.110  25.227  30.745  1.00  0.00    -0.237 OA
ATOM     99  O   UNL A   1      50.582  25.076  28.785  1.00  0.00    -0.744 OA
ENDBRANCH  93  96
ENDBRANCH  65  89
BRANCH  77 100
ATOM    100  C   UNL A   1      49.673  34.786  26.632  1.00  0.00     0.023 A 
ATOM    101  C   UNL A   1      49.796  35.030  25.250  1.00  0.00     0.012 A 
ATOM    102  C   UNL A   1      50.769  35.049  27.480  1.00  0.00     0.148 A 
ATOM    103  C   UNL A   1      50.998  35.495  24.716  1.00  0.00     0.002 A 
ATOM    104  C   UNL A   1      51.945  35.564  26.948  1.00  0.00     0.091 A 
ATOM    105  F   UNL A   1      50.639  34.798  28.790  1.00  0.00    -0.205 F 
ATOM    106  C   UNL A   1      52.067  35.772  25.565  1.00  0.00     0.022 A 
BRANCH 104 107
ATOM    107  S   UNL A   1      53.338  36.047  27.975  1.00  0.00     0.127 S 
ATOM    108  O   UNL A   1      52.665  36.646  29.126  1.00  0.00    -0.237 OA
ATOM    109  O   UNL A   1      53.982  34.761  28.247  1.00  0.00    -0.237 OA
ATOM    110  O   UNL A   1      54.133  36.965  27.172  1.00  0.00    -0.744 OA
ENDBRANCH 104 107
ENDBRANCH  77 100
ENDBRANCH  51  52
ENDBRANCH  44  46
ENDBRANCH  43  44
ENDBRANCH  42  43
ENDBRANCH  41  42
ENDBRANCH  40  41
ENDBRANCH  39  40
ENDBRANCH  38  39
ENDBRANCH  37  38
ENDBRANCH  36  37
ENDBRANCH   1  36
TORSDOF 29
ENDMDL
