MODEL 1
REMARK VINA RESULT:      -9.7      0.000      0.000
REMARK SMILES O=C(OCCOCCOCCOCCOC(=O)c1ccc([C@H]2Nc3ccc(Cl)cc3[C@@H]3C=CC[C@@H]23)cc1)c1ccc(-c2c3nc(c(-c4cccc(S(=O)(=O)[O-])c4F)c4ccc([nH]4)c(-c4cccc(S(=O)(=O)[O-])c4F)c4nc(c(-c5cccc(S(=O)(=O)[O-])c5F)c5ccc2[nH]5)C=C4)C=C3)cc1
REMARK SMILES IDX 8 1 7 2 6 3 5 4 4 5 3 6 2 7 1 8 38 9 39 10 100 11 40 12
REMARK SMILES IDX 99 13 41 14 42 15 43 16 93 17 44 18 98 19 92 20 94 21 45 22
REMARK SMILES IDX 97 23 91 24 90 25 46 27 78 28 58 29 77 30 59 31 62 32 76 33
REMARK SMILES IDX 95 34 60 35 61 36 75 38 96 39 63 40 47 41 48 42 56 43 49 44
REMARK SMILES IDX 51 45 57 46 50 47 52 48 53 49 54 50 55 51 79 52 80 53 88 54
REMARK SMILES IDX 81 55 83 56 89 57 82 58 84 59 85 60 86 61 87 62 64 63 65 64
REMARK SMILES IDX 73 65 66 66 68 67 74 68 67 69 69 70 70 71 71 72 72 73 9 74
REMARK SMILES IDX 10 75 11 76 12 77 13 78 14 79 15 80 16 81 17 82 18 83 19 84
REMARK SMILES IDX 37 85 20 86 36 87 21 88 22 89 23 90 35 91 24 92 31 94 34 95
REMARK SMILES IDX 25 96 30 97 32 98 33 99 26 100 29 101 27 102 28 103
REMARK H PARENT 94 26 62 37 23 93
REMARK Flexibility Score: inf
ROOT
ATOM      1  C   UNL A   1      39.317  24.604  27.144  1.00  0.00     0.188 C 
ENDROOT
BRANCH   1   2
ATOM      2  C   UNL A   1      40.375  25.700  27.033  1.00  0.00     0.188 C 
BRANCH   2   3
ATOM      3  O   UNL A   1      40.498  26.457  28.228  1.00  0.00    -0.376 OA
BRANCH   3   4
ATOM      4  C   UNL A   1      39.403  26.545  29.128  1.00  0.00     0.202 C 
BRANCH   4   5
ATOM      5  C   UNL A   1      38.928  27.919  29.610  1.00  0.00     0.261 C 
BRANCH   5   6
ATOM      6  O   UNL A   1      38.109  27.955  30.796  1.00  0.00    -0.460 OA
BRANCH   6   7
ATOM      7  C   UNL A   1      38.428  28.079  32.105  1.00  0.00     0.338 C 
ATOM      8  O   UNL A   1      38.153  27.157  32.870  1.00  0.00    -0.246 OA
BRANCH   7   9
ATOM      9  C   UNL A   1      39.086  29.286  32.666  1.00  0.00     0.060 A 
ATOM     10  C   UNL A   1      38.410  30.440  33.038  1.00  0.00     0.016 A 
ATOM     11  C   UNL A   1      40.458  29.219  32.937  1.00  0.00     0.016 A 
ATOM     12  C   UNL A   1      39.079  31.586  33.429  1.00  0.00     0.010 A 
ATOM     13  C   UNL A   1      41.135  30.334  33.441  1.00  0.00     0.010 A 
ATOM     14  C   UNL A   1      40.456  31.550  33.598  1.00  0.00    -0.014 A 
BRANCH  14  15
ATOM     15  C   UNL A   1      41.172  32.834  33.725  1.00  0.00     0.031 A 
ATOM     16  C   UNL A   1      41.575  33.528  32.455  1.00  0.00     0.074 A 
ATOM     17  C   UNL A   1      41.324  33.420  34.927  1.00  0.00     0.049 A 
ATOM     18  N   UNL A   1      42.263  34.622  32.290  1.00  0.00    -0.248 NA
ATOM     19  C   UNL A   1      41.140  32.902  31.191  1.00  0.00     0.031 C 
ATOM     20  C   UNL A   1      40.854  32.871  36.203  1.00  0.00     0.029 A 
ATOM     21  N   UNL A   1      41.890  34.618  35.270  1.00  0.00    -0.354 N 
ATOM     22  C   UNL A   1      42.419  34.762  30.916  1.00  0.00     0.074 A 
ATOM     23  C   UNL A   1      41.740  33.656  30.287  1.00  0.00     0.031 C 
ATOM     24  C   UNL A   1      41.126  33.745  37.185  1.00  0.00     0.029 A 
ATOM     25  C   UNL A   1      41.861  34.871  36.622  1.00  0.00     0.049 A 
ATOM     26  H   UNL A   1      42.281  35.238  34.613  1.00  0.00     0.167 HD
ATOM     27  C   UNL A   1      43.078  35.730  30.244  1.00  0.00     0.034 A 
ATOM     28  C   UNL A   1      42.402  35.888  37.320  1.00  0.00     0.034 A 
ATOM     29  C   UNL A   1      43.698  36.846  30.896  1.00  0.00     0.049 A 
ATOM     30  C   UNL A   1      43.148  36.944  36.548  1.00  0.00     0.074 A 
ATOM     31  C   UNL A   1      44.421  37.882  30.340  1.00  0.00     0.029 A 
ATOM     32  N   UNL A   1      43.653  37.069  32.266  1.00  0.00    -0.354 N 
ATOM     33  N   UNL A   1      43.308  37.058  35.249  1.00  0.00    -0.248 NA
ATOM     34  C   UNL A   1      43.778  38.014  37.329  1.00  0.00     0.031 C 
ATOM     35  C   UNL A   1      44.836  38.721  31.381  1.00  0.00     0.029 A 
ATOM     36  C   UNL A   1      44.338  38.226  32.579  1.00  0.00     0.049 A 
ATOM     37  H   UNL A   1      43.199  36.489  32.919  1.00  0.00     0.167 HD
ATOM     38  C   UNL A   1      44.029  38.228  35.054  1.00  0.00     0.074 A 
ATOM     39  C   UNL A   1      44.255  38.796  36.370  1.00  0.00     0.031 C 
ATOM     40  C   UNL A   1      44.482  38.780  33.901  1.00  0.00     0.034 A 
BRANCH  27  41
ATOM     41  C   UNL A   1      43.189  35.578  28.751  1.00  0.00     0.023 A 
ATOM     42  C   UNL A   1      42.237  36.170  27.895  1.00  0.00     0.012 A 
ATOM     43  C   UNL A   1      44.228  34.805  28.198  1.00  0.00     0.148 A 
ATOM     44  C   UNL A   1      42.294  35.958  26.517  1.00  0.00     0.002 A 
ATOM     45  C   UNL A   1      44.305  34.636  26.821  1.00  0.00     0.091 A 
ATOM     46  F   UNL A   1      45.103  34.223  29.030  1.00  0.00    -0.205 F 
ATOM     47  C   UNL A   1      43.330  35.197  25.980  1.00  0.00     0.022 A 
BRANCH  45  48
ATOM     48  S   UNL A   1      45.636  33.724  26.032  1.00  0.00     0.127 S 
ATOM     49  O   UNL A   1      45.378  32.363  26.498  1.00  0.00    -0.237 OA
ATOM     50  O   UNL A   1      45.356  33.946  24.612  1.00  0.00    -0.237 OA
ATOM     51  O   UNL A   1      46.873  34.323  26.509  1.00  0.00    -0.744 OA
ENDBRANCH  45  48
ENDBRANCH  27  41
BRANCH  28  52
ATOM     52  C   UNL A   1      42.259  35.954  38.805  1.00  0.00     0.023 A 
ATOM     53  C   UNL A   1      43.276  35.435  39.629  1.00  0.00     0.012 A 
ATOM     54  C   UNL A   1      41.130  36.546  39.406  1.00  0.00     0.148 A 
ATOM     55  C   UNL A   1      43.158  35.477  41.021  1.00  0.00     0.002 A 
ATOM     56  C   UNL A   1      41.045  36.638  40.791  1.00  0.00     0.091 A 
ATOM     57  F   UNL A   1      40.159  37.016  38.611  1.00  0.00    -0.205 F 
ATOM     58  C   UNL A   1      42.050  36.089  41.601  1.00  0.00     0.022 A 
BRANCH  56  59
ATOM     59  S   UNL A   1      39.716  37.523  41.616  1.00  0.00     0.127 S 
ATOM     60  O   UNL A   1      38.537  36.810  41.133  1.00  0.00    -0.237 OA
ATOM     61  O   UNL A   1      40.035  37.303  43.027  1.00  0.00    -0.237 OA
ATOM     62  O   UNL A   1      39.842  38.908  41.184  1.00  0.00    -0.744 OA
ENDBRANCH  56  59
ENDBRANCH  28  52
BRANCH  40  63
ATOM     63  C   UNL A   1      45.214  40.087  34.010  1.00  0.00     0.023 A 
ATOM     64  C   UNL A   1      46.614  40.101  34.152  1.00  0.00     0.012 A 
ATOM     65  C   UNL A   1      44.512  41.300  33.878  1.00  0.00     0.148 A 
ATOM     66  C   UNL A   1      47.303  41.311  34.195  1.00  0.00     0.002 A 
ATOM     67  C   UNL A   1      45.212  42.498  33.866  1.00  0.00     0.091 A 
ATOM     68  F   UNL A   1      43.176  41.259  33.764  1.00  0.00    -0.205 F 
ATOM     69  C   UNL A   1      46.605  42.507  34.037  1.00  0.00     0.022 A 
BRANCH  67  70
ATOM     70  S   UNL A   1      44.398  44.068  33.553  1.00  0.00     0.127 S 
ATOM     71  O   UNL A   1      43.994  43.920  32.156  1.00  0.00    -0.237 OA
ATOM     72  O   UNL A   1      43.295  44.044  34.514  1.00  0.00    -0.237 OA
ATOM     73  O   UNL A   1      45.399  45.094  33.814  1.00  0.00    -0.744 OA
ENDBRANCH  67  70
ENDBRANCH  40  63
ENDBRANCH  14  15
ENDBRANCH   7   9
ENDBRANCH   6   7
ENDBRANCH   5   6
ENDBRANCH   4   5
ENDBRANCH   3   4
ENDBRANCH   2   3
ENDBRANCH   1   2
BRANCH   1  74
ATOM     74  O   UNL A   1      39.134  23.802  25.982  1.00  0.00    -0.377 OA
BRANCH  74  75
ATOM     75  C   UNL A   1      37.947  23.010  25.933  1.00  0.00     0.188 C 
BRANCH  75  76
ATOM     76  C   UNL A   1      36.565  23.706  26.034  1.00  0.00     0.188 C 
BRANCH  76  77
ATOM     77  O   UNL A   1      35.460  22.818  26.000  1.00  0.00    -0.376 OA
BRANCH  77  78
ATOM     78  C   UNL A   1      35.329  22.037  24.818  1.00  0.00     0.202 C 
BRANCH  78  79
ATOM     79  C   UNL A   1      35.175  20.520  25.014  1.00  0.00     0.261 C 
BRANCH  79  80
ATOM     80  O   UNL A   1      33.833  20.047  25.260  1.00  0.00    -0.460 OA
BRANCH  80  81
ATOM     81  C   UNL A   1      32.964  19.951  24.221  1.00  0.00     0.338 C 
ATOM     82  O   UNL A   1      32.780  18.996  23.506  1.00  0.00    -0.246 OA
BRANCH  81  83
ATOM     83  C   UNL A   1      32.112  21.179  24.259  1.00  0.00     0.060 A 
ATOM     84  C   UNL A   1      31.644  21.645  25.495  1.00  0.00     0.016 A 
ATOM     85  C   UNL A   1      31.934  21.961  23.119  1.00  0.00     0.016 A 
ATOM     86  C   UNL A   1      31.125  22.948  25.610  1.00  0.00     0.007 A 
ATOM     87  C   UNL A   1      31.355  23.233  23.232  1.00  0.00     0.007 A 
ATOM     88  C   UNL A   1      31.026  23.785  24.487  1.00  0.00    -0.025 A 
BRANCH  88  89
ATOM     89  C   UNL A   1      30.727  25.288  24.573  1.00  0.00     0.114 C 
ATOM     90  N   UNL A   1      30.811  25.827  25.954  1.00  0.00    -0.378 N 
ATOM     91  C   UNL A   1      31.629  26.151  23.668  1.00  0.00     0.031 C 
ATOM     92  C   UNL A   1      31.672  26.880  26.283  1.00  0.00     0.038 A 
ATOM     93  H   UNL A   1      30.244  25.434  26.657  1.00  0.00     0.161 HD
ATOM     94  C   UNL A   1      33.019  26.222  24.321  1.00  0.00     0.049 C 
ATOM     95  C   UNL A   1      31.862  25.883  22.184  1.00  0.00     0.034 C 
ATOM     96  C   UNL A   1      31.364  27.763  27.320  1.00  0.00     0.027 A 
ATOM     97  C   UNL A   1      32.810  27.156  25.481  1.00  0.00    -0.016 A 
ATOM     98  C   UNL A   1      33.891  26.584  23.168  1.00  0.00    -0.023 C 
ATOM     99  C   UNL A   1      33.274  26.356  22.001  1.00  0.00    -0.030 C 
ATOM    100  C   UNL A   1      32.152  28.901  27.547  1.00  0.00     0.022 A 
ATOM    101  C   UNL A   1      33.619  28.272  25.730  1.00  0.00     0.027 A 
ATOM    102  C   UNL A   1      33.272  29.147  26.754  1.00  0.00     0.041 A 
ATOM    103  Cl  UNL A   1      34.208  30.570  27.008  1.00  0.00    -0.084 Cl
ENDBRANCH  88  89
ENDBRANCH  81  83
ENDBRANCH  80  81
ENDBRANCH  79  80
ENDBRANCH  78  79
ENDBRANCH  77  78
ENDBRANCH  76  77
ENDBRANCH  75  76
ENDBRANCH  74  75
ENDBRANCH   1  74
TORSDOF 24
ENDMDL
MODEL 2
REMARK VINA RESULT:      -9.2      5.456      9.329
REMARK SMILES O=C(OCCOCCOCCOCCOC(=O)c1ccc([C@H]2Nc3ccc(Cl)cc3[C@@H]3C=CC[C@@H]23)cc1)c1ccc(-c2c3nc(c(-c4cccc(S(=O)(=O)[O-])c4F)c4ccc([nH]4)c(-c4cccc(S(=O)(=O)[O-])c4F)c4nc(c(-c5cccc(S(=O)(=O)[O-])c5F)c5ccc2[nH]5)C=C4)C=C3)cc1
REMARK SMILES IDX 8 1 7 2 6 3 5 4 4 5 3 6 2 7 1 8 38 9 39 10 100 11 40 12
REMARK SMILES IDX 99 13 41 14 42 15 43 16 93 17 44 18 98 19 92 20 94 21 45 22
REMARK SMILES IDX 97 23 91 24 90 25 46 27 78 28 58 29 77 30 59 31 62 32 76 33
REMARK SMILES IDX 95 34 60 35 61 36 75 38 96 39 63 40 47 41 48 42 56 43 49 44
REMARK SMILES IDX 51 45 57 46 50 47 52 48 53 49 54 50 55 51 79 52 80 53 88 54
REMARK SMILES IDX 81 55 83 56 89 57 82 58 84 59 85 60 86 61 87 62 64 63 65 64
REMARK SMILES IDX 73 65 66 66 68 67 74 68 67 69 69 70 70 71 71 72 72 73 9 74
REMARK SMILES IDX 10 75 11 76 12 77 13 78 14 79 15 80 16 81 17 82 18 83 19 84
REMARK SMILES IDX 37 85 20 86 36 87 21 88 22 89 23 90 35 91 24 92 31 94 34 95
REMARK SMILES IDX 25 96 30 97 32 98 33 99 26 100 29 101 27 102 28 103
REMARK H PARENT 94 26 62 37 23 93
REMARK Flexibility Score: inf
ROOT
ATOM      1  C   UNL A   1      34.047  29.910  27.280  1.00  0.00     0.188 C 
ENDROOT
BRANCH   1   2
ATOM      2  C   UNL A   1      34.940  31.028  27.816  1.00  0.00     0.188 C 
BRANCH   2   3
ATOM      3  O   UNL A   1      34.300  31.791  28.828  1.00  0.00    -0.376 OA
BRANCH   3   4
ATOM      4  C   UNL A   1      34.988  32.870  29.446  1.00  0.00     0.202 C 
BRANCH   4   5
ATOM      5  C   UNL A   1      34.952  33.016  30.970  1.00  0.00     0.261 C 
BRANCH   5   6
ATOM      6  O   UNL A   1      35.961  32.313  31.724  1.00  0.00    -0.460 OA
BRANCH   6   7
ATOM      7  C   UNL A   1      36.655  31.183  31.459  1.00  0.00     0.338 C 
ATOM      8  O   UNL A   1      36.072  30.102  31.527  1.00  0.00    -0.246 OA
BRANCH   7   9
ATOM      9  C   UNL A   1      38.096  31.183  31.101  1.00  0.00     0.060 A 
ATOM     10  C   UNL A   1      39.114  31.553  31.969  1.00  0.00     0.016 A 
ATOM     11  C   UNL A   1      38.460  30.678  29.846  1.00  0.00     0.016 A 
ATOM     12  C   UNL A   1      40.427  31.667  31.549  1.00  0.00     0.010 A 
ATOM     13  C   UNL A   1      39.800  30.679  29.446  1.00  0.00     0.010 A 
ATOM     14  C   UNL A   1      40.773  31.263  30.268  1.00  0.00    -0.014 A 
BRANCH  14  15
ATOM     15  C   UNL A   1      42.096  31.662  29.749  1.00  0.00     0.031 A 
ATOM     16  C   UNL A   1      42.305  33.116  29.436  1.00  0.00     0.074 A 
ATOM     17  C   UNL A   1      43.110  30.778  29.702  1.00  0.00     0.049 A 
ATOM     18  N   UNL A   1      43.340  33.712  28.914  1.00  0.00    -0.248 NA
ATOM     19  C   UNL A   1      41.191  34.030  29.757  1.00  0.00     0.031 C 
ATOM     20  C   UNL A   1      43.027  29.371  30.103  1.00  0.00     0.029 A 
ATOM     21  N   UNL A   1      44.415  30.938  29.322  1.00  0.00    -0.354 N 
ATOM     22  C   UNL A   1      42.967  35.042  28.761  1.00  0.00     0.074 A 
ATOM     23  C   UNL A   1      41.621  35.177  29.262  1.00  0.00     0.031 C 
ATOM     24  C   UNL A   1      44.237  28.805  29.975  1.00  0.00     0.029 A 
ATOM     25  C   UNL A   1      45.157  29.782  29.406  1.00  0.00     0.049 A 
ATOM     26  H   UNL A   1      44.788  31.797  29.018  1.00  0.00     0.167 HD
ATOM     27  C   UNL A   1      43.690  36.058  28.242  1.00  0.00     0.034 A 
ATOM     28  C   UNL A   1      46.427  29.544  29.030  1.00  0.00     0.034 A 
ATOM     29  C   UNL A   1      45.045  35.904  27.802  1.00  0.00     0.049 A 
ATOM     30  C   UNL A   1      47.205  30.689  28.436  1.00  0.00     0.074 A 
ATOM     31  C   UNL A   1      45.882  36.840  27.231  1.00  0.00     0.029 A 
ATOM     32  N   UNL A   1      45.763  34.719  27.897  1.00  0.00    -0.354 N 
ATOM     33  N   UNL A   1      46.838  31.941  28.277  1.00  0.00    -0.248 NA
ATOM     34  C   UNL A   1      48.568  30.399  27.981  1.00  0.00     0.031 C 
ATOM     35  C   UNL A   1      47.103  36.213  26.957  1.00  0.00     0.029 A 
ATOM     36  C   UNL A   1      47.036  34.897  27.394  1.00  0.00     0.049 A 
ATOM     37  H   UNL A   1      45.416  33.876  28.270  1.00  0.00     0.167 HD
ATOM     38  C   UNL A   1      47.935  32.594  27.733  1.00  0.00     0.074 A 
ATOM     39  C   UNL A   1      48.986  31.602  27.610  1.00  0.00     0.031 C 
ATOM     40  C   UNL A   1      48.065  33.889  27.350  1.00  0.00     0.034 A 
BRANCH  27  41
ATOM     41  C   UNL A   1      42.999  37.387  28.090  1.00  0.00     0.023 A 
ATOM     42  C   UNL A   1      42.303  37.702  26.905  1.00  0.00     0.012 A 
ATOM     43  C   UNL A   1      43.079  38.344  29.119  1.00  0.00     0.148 A 
ATOM     44  C   UNL A   1      41.734  38.966  26.732  1.00  0.00     0.002 A 
ATOM     45  C   UNL A   1      42.472  39.584  28.958  1.00  0.00     0.091 A 
ATOM     46  F   UNL A   1      43.775  38.037  30.223  1.00  0.00    -0.205 F 
ATOM     47  C   UNL A   1      41.814  39.902  27.760  1.00  0.00     0.022 A 
BRANCH  45  48
ATOM     48  S   UNL A   1      42.468  40.833  30.248  1.00  0.00     0.127 S 
ATOM     49  O   UNL A   1      43.536  41.725  29.799  1.00  0.00    -0.237 OA
ATOM     50  O   UNL A   1      41.119  41.388  30.129  1.00  0.00    -0.237 OA
ATOM     51  O   UNL A   1      42.728  40.127  31.494  1.00  0.00    -0.744 OA
ENDBRANCH  45  48
ENDBRANCH  27  41
BRANCH  28  52
ATOM     52  C   UNL A   1      47.032  28.190  29.201  1.00  0.00     0.023 A 
ATOM     53  C   UNL A   1      46.872  27.220  28.193  1.00  0.00     0.012 A 
ATOM     54  C   UNL A   1      47.782  27.862  30.348  1.00  0.00     0.148 A 
ATOM     55  C   UNL A   1      47.420  25.943  28.337  1.00  0.00     0.002 A 
ATOM     56  C   UNL A   1      48.375  26.610  30.461  1.00  0.00     0.091 A 
ATOM     57  F   UNL A   1      47.908  28.786  31.311  1.00  0.00    -0.205 F 
ATOM     58  C   UNL A   1      48.181  25.642  29.464  1.00  0.00     0.022 A 
BRANCH  56  59
ATOM     59  S   UNL A   1      49.476  26.184  31.816  1.00  0.00     0.127 S 
ATOM     60  O   UNL A   1      48.548  26.109  32.941  1.00  0.00    -0.237 OA
ATOM     61  O   UNL A   1      50.017  24.898  31.376  1.00  0.00    -0.237 OA
ATOM     62  O   UNL A   1      50.458  27.258  31.873  1.00  0.00    -0.744 OA
ENDBRANCH  56  59
ENDBRANCH  28  52
BRANCH  40  63
ATOM     63  C   UNL A   1      49.405  34.314  26.819  1.00  0.00     0.023 A 
ATOM     64  C   UNL A   1      49.679  34.219  25.443  1.00  0.00     0.012 A 
ATOM     65  C   UNL A   1      50.353  34.892  27.684  1.00  0.00     0.148 A 
ATOM     66  C   UNL A   1      50.898  34.666  24.937  1.00  0.00     0.002 A 
ATOM     67  C   UNL A   1      51.541  35.385  27.165  1.00  0.00     0.091 A 
ATOM     68  F   UNL A   1      50.074  34.951  28.995  1.00  0.00    -0.205 F 
ATOM     69  C   UNL A   1      51.822  35.261  25.795  1.00  0.00     0.022 A 
BRANCH  67  70
ATOM     70  S   UNL A   1      52.728  36.266  28.184  1.00  0.00     0.127 S 
ATOM     71  O   UNL A   1      51.875  37.247  28.853  1.00  0.00    -0.237 OA
ATOM     72  O   UNL A   1      53.238  35.206  29.055  1.00  0.00    -0.237 OA
ATOM     73  O   UNL A   1      53.715  36.814  27.264  1.00  0.00    -0.744 OA
ENDBRANCH  67  70
ENDBRANCH  40  63
ENDBRANCH  14  15
ENDBRANCH   7   9
ENDBRANCH   6   7
ENDBRANCH   5   6
ENDBRANCH   4   5
ENDBRANCH   3   4
ENDBRANCH   2   3
ENDBRANCH   1   2
BRANCH   1  74
ATOM     74  O   UNL A   1      34.716  28.871  26.572  1.00  0.00    -0.377 OA
BRANCH  74  75
ATOM     75  C   UNL A   1      34.002  27.646  26.411  1.00  0.00     0.188 C 
BRANCH  75  76
ATOM     76  C   UNL A   1      32.515  27.686  25.975  1.00  0.00     0.188 C 
BRANCH  76  77
ATOM     77  O   UNL A   1      31.994  26.434  25.560  1.00  0.00    -0.376 OA
BRANCH  77  78
ATOM     78  C   UNL A   1      32.772  25.294  25.904  1.00  0.00     0.202 C 
BRANCH  78  79
ATOM     79  C   UNL A   1      32.701  24.100  24.938  1.00  0.00     0.261 C 
BRANCH  79  80
ATOM     80  O   UNL A   1      33.950  23.428  24.670  1.00  0.00    -0.460 OA
BRANCH  80  81
ATOM     81  C   UNL A   1      34.460  22.581  25.602  1.00  0.00     0.338 C 
ATOM     82  O   UNL A   1      33.874  21.708  26.197  1.00  0.00    -0.246 OA
BRANCH  81  83
ATOM     83  C   UNL A   1      35.940  22.781  25.600  1.00  0.00     0.060 A 
ATOM     84  C   UNL A   1      36.457  24.056  25.863  1.00  0.00     0.016 A 
ATOM     85  C   UNL A   1      36.809  21.692  25.523  1.00  0.00     0.016 A 
ATOM     86  C   UNL A   1      37.817  24.218  26.186  1.00  0.00     0.007 A 
ATOM     87  C   UNL A   1      38.175  21.872  25.782  1.00  0.00     0.007 A 
ATOM     88  C   UNL A   1      38.687  23.116  26.208  1.00  0.00    -0.025 A 
BRANCH  88  89
ATOM     89  C   UNL A   1      40.101  23.163  26.802  1.00  0.00     0.114 C 
ATOM     90  N   UNL A   1      41.157  22.749  25.844  1.00  0.00    -0.378 N 
ATOM     91  C   UNL A   1      40.487  24.544  27.371  1.00  0.00     0.031 C 
ATOM     92  C   UNL A   1      42.224  23.593  25.514  1.00  0.00     0.038 A 
ATOM     93  H   UNL A   1      41.106  21.857  25.430  1.00  0.00     0.161 HD
ATOM     94  C   UNL A   1      40.776  25.476  26.184  1.00  0.00     0.049 C 
ATOM     95  C   UNL A   1      39.625  25.340  28.346  1.00  0.00     0.034 C 
ATOM     96  C   UNL A   1      43.465  23.070  25.142  1.00  0.00     0.027 A 
ATOM     97  C   UNL A   1      42.110  24.998  25.683  1.00  0.00    -0.016 A 
ATOM     98  C   UNL A   1      40.603  26.826  26.793  1.00  0.00    -0.023 C 
ATOM     99  C   UNL A   1      39.937  26.754  27.953  1.00  0.00    -0.030 C 
ATOM    100  C   UNL A   1      44.569  23.915  24.959  1.00  0.00     0.022 A 
ATOM    101  C   UNL A   1      43.203  25.844  25.463  1.00  0.00     0.027 A 
ATOM    102  C   UNL A   1      44.433  25.293  25.119  1.00  0.00     0.041 A 
ATOM    103  Cl  UNL A   1      45.803  26.319  24.938  1.00  0.00    -0.084 Cl
ENDBRANCH  88  89
ENDBRANCH  81  83
ENDBRANCH  80  81
ENDBRANCH  79  80
ENDBRANCH  78  79
ENDBRANCH  77  78
ENDBRANCH  76  77
ENDBRANCH  75  76
ENDBRANCH  74  75
ENDBRANCH   1  74
TORSDOF 24
ENDMDL
MODEL 3
REMARK VINA RESULT:      -8.7      5.855     13.654
REMARK SMILES O=C(OCCOCCOCCOCCOC(=O)c1ccc([C@H]2Nc3ccc(Cl)cc3[C@@H]3C=CC[C@@H]23)cc1)c1ccc(-c2c3nc(c(-c4cccc(S(=O)(=O)[O-])c4F)c4ccc([nH]4)c(-c4cccc(S(=O)(=O)[O-])c4F)c4nc(c(-c5cccc(S(=O)(=O)[O-])c5F)c5ccc2[nH]5)C=C4)C=C3)cc1
REMARK SMILES IDX 8 1 7 2 6 3 5 4 4 5 3 6 2 7 1 8 38 9 39 10 100 11 40 12
REMARK SMILES IDX 99 13 41 14 42 15 43 16 93 17 44 18 98 19 92 20 94 21 45 22
REMARK SMILES IDX 97 23 91 24 90 25 46 27 78 28 58 29 77 30 59 31 62 32 76 33
REMARK SMILES IDX 95 34 60 35 61 36 75 38 96 39 63 40 47 41 48 42 56 43 49 44
REMARK SMILES IDX 51 45 57 46 50 47 52 48 53 49 54 50 55 51 79 52 80 53 88 54
REMARK SMILES IDX 81 55 83 56 89 57 82 58 84 59 85 60 86 61 87 62 64 63 65 64
REMARK SMILES IDX 73 65 66 66 68 67 74 68 67 69 69 70 70 71 71 72 72 73 9 74
REMARK SMILES IDX 10 75 11 76 12 77 13 78 14 79 15 80 16 81 17 82 18 83 19 84
REMARK SMILES IDX 37 85 20 86 36 87 21 88 22 89 23 90 35 91 24 92 31 94 34 95
REMARK SMILES IDX 25 96 30 97 32 98 33 99 26 100 29 101 27 102 28 103
REMARK H PARENT 94 26 62 37 23 93
REMARK Flexibility Score: inf
ROOT
ATOM      1  C   UNL A   1      31.014  32.130  26.126  1.00  0.00     0.188 C 
ENDROOT
BRANCH   1   2
ATOM      2  C   UNL A   1      31.609  30.820  26.639  1.00  0.00     0.188 C 
BRANCH   2   3
ATOM      3  O   UNL A   1      31.834  29.884  25.595  1.00  0.00    -0.376 OA
BRANCH   3   4
ATOM      4  C   UNL A   1      33.161  29.554  25.210  1.00  0.00     0.202 C 
BRANCH   4   5
ATOM      5  C   UNL A   1      33.919  28.462  25.970  1.00  0.00     0.261 C 
BRANCH   5   6
ATOM      6  O   UNL A   1      34.448  28.805  27.266  1.00  0.00    -0.460 OA
BRANCH   6   7
ATOM      7  C   UNL A   1      35.119  29.896  27.702  1.00  0.00     0.338 C 
ATOM      8  O   UNL A   1      34.632  31.007  27.505  1.00  0.00    -0.246 OA
BRANCH   7   9
ATOM      9  C   UNL A   1      36.428  29.816  28.400  1.00  0.00     0.060 A 
ATOM     10  C   UNL A   1      37.621  30.296  27.876  1.00  0.00     0.016 A 
ATOM     11  C   UNL A   1      36.443  29.322  29.711  1.00  0.00     0.016 A 
ATOM     12  C   UNL A   1      38.834  30.077  28.503  1.00  0.00     0.010 A 
ATOM     13  C   UNL A   1      37.650  29.200  30.406  1.00  0.00     0.010 A 
ATOM     14  C   UNL A   1      38.859  29.493  29.761  1.00  0.00    -0.014 A 
BRANCH  14  15
ATOM     15  C   UNL A   1      40.156  29.008  30.273  1.00  0.00     0.031 A 
ATOM     16  C   UNL A   1      40.732  29.711  31.469  1.00  0.00     0.074 A 
ATOM     17  C   UNL A   1      40.717  27.891  29.775  1.00  0.00     0.049 A 
ATOM     18  N   UNL A   1      41.874  29.527  32.069  1.00  0.00    -0.248 NA
ATOM     19  C   UNL A   1      39.904  30.773  32.076  1.00  0.00     0.031 C 
ATOM     20  C   UNL A   1      40.162  27.074  28.691  1.00  0.00     0.029 A 
ATOM     21  N   UNL A   1      41.864  27.234  30.130  1.00  0.00    -0.354 N 
ATOM     22  C   UNL A   1      41.938  30.503  33.057  1.00  0.00     0.074 A 
ATOM     23  C   UNL A   1      40.716  31.266  32.994  1.00  0.00     0.031 C 
ATOM     24  C   UNL A   1      40.954  26.010  28.491  1.00  0.00     0.029 A 
ATOM     25  C   UNL A   1      42.112  26.114  29.371  1.00  0.00     0.049 A 
ATOM     26  H   UNL A   1      42.453  27.533  30.859  1.00  0.00     0.167 HD
ATOM     27  C   UNL A   1      42.937  30.739  33.935  1.00  0.00     0.034 A 
ATOM     28  C   UNL A   1      43.177  25.290  29.373  1.00  0.00     0.034 A 
ATOM     29  C   UNL A   1      44.117  29.928  34.007  1.00  0.00     0.049 A 
ATOM     30  C   UNL A   1      44.286  25.587  30.348  1.00  0.00     0.074 A 
ATOM     31  C   UNL A   1      45.218  30.071  34.827  1.00  0.00     0.029 A 
ATOM     32  N   UNL A   1      44.338  28.805  33.221  1.00  0.00    -0.354 N 
ATOM     33  N   UNL A   1      44.348  26.524  31.266  1.00  0.00    -0.248 NA
ATOM     34  C   UNL A   1      45.463  24.714  30.299  1.00  0.00     0.031 C 
ATOM     35  C   UNL A   1      46.118  29.046  34.518  1.00  0.00     0.029 A 
ATOM     36  C   UNL A   1      45.560  28.243  33.533  1.00  0.00     0.049 A 
ATOM     37  H   UNL A   1      43.716  28.459  32.541  1.00  0.00     0.167 HD
ATOM     38  C   UNL A   1      45.554  26.335  31.925  1.00  0.00     0.074 A 
ATOM     39  C   UNL A   1      46.181  25.179  31.312  1.00  0.00     0.031 C 
ATOM     40  C   UNL A   1      46.110  27.055  32.932  1.00  0.00     0.034 A 
BRANCH  27  41
ATOM     41  C   UNL A   1      42.797  31.940  34.831  1.00  0.00     0.023 A 
ATOM     42  C   UNL A   1      43.290  33.198  34.428  1.00  0.00     0.012 A 
ATOM     43  C   UNL A   1      42.206  31.805  36.102  1.00  0.00     0.148 A 
ATOM     44  C   UNL A   1      43.235  34.292  35.294  1.00  0.00     0.002 A 
ATOM     45  C   UNL A   1      42.113  32.909  36.941  1.00  0.00     0.091 A 
ATOM     46  F   UNL A   1      41.774  30.593  36.479  1.00  0.00    -0.205 F 
ATOM     47  C   UNL A   1      42.641  34.148  36.545  1.00  0.00     0.022 A 
BRANCH  45  48
ATOM     48  S   UNL A   1      41.313  32.838  38.547  1.00  0.00     0.127 S 
ATOM     49  O   UNL A   1      39.960  32.418  38.184  1.00  0.00    -0.237 OA
ATOM     50  O   UNL A   1      42.104  31.818  39.236  1.00  0.00    -0.237 OA
ATOM     51  O   UNL A   1      41.422  34.175  39.111  1.00  0.00    -0.744 OA
ENDBRANCH  45  48
ENDBRANCH  27  41
BRANCH  28  52
ATOM     52  C   UNL A   1      43.245  24.129  28.438  1.00  0.00     0.023 A 
ATOM     53  C   UNL A   1      42.465  22.983  28.687  1.00  0.00     0.012 A 
ATOM     54  C   UNL A   1      44.065  24.158  27.292  1.00  0.00     0.148 A 
ATOM     55  C   UNL A   1      42.522  21.881  27.830  1.00  0.00     0.002 A 
ATOM     56  C   UNL A   1      44.073  23.082  26.411  1.00  0.00     0.091 A 
ATOM     57  F   UNL A   1      44.821  25.245  27.078  1.00  0.00    -0.205 F 
ATOM     58  C   UNL A   1      43.315  21.935  26.687  1.00  0.00     0.022 A 
BRANCH  56  59
ATOM     59  S   UNL A   1      44.967  23.122  24.852  1.00  0.00     0.127 S 
ATOM     60  O   UNL A   1      44.403  21.969  24.156  1.00  0.00    -0.237 OA
ATOM     61  O   UNL A   1      44.574  24.423  24.309  1.00  0.00    -0.237 OA
ATOM     62  O   UNL A   1      46.376  23.024  25.207  1.00  0.00    -0.744 OA
ENDBRANCH  56  59
ENDBRANCH  28  52
BRANCH  40  63
ATOM     63  C   UNL A   1      47.430  26.577  33.467  1.00  0.00     0.023 A 
ATOM     64  C   UNL A   1      48.631  27.090  32.942  1.00  0.00     0.012 A 
ATOM     65  C   UNL A   1      47.467  25.684  34.554  1.00  0.00     0.148 A 
ATOM     66  C   UNL A   1      49.856  26.694  33.474  1.00  0.00     0.002 A 
ATOM     67  C   UNL A   1      48.689  25.338  35.114  1.00  0.00     0.091 A 
ATOM     68  F   UNL A   1      46.310  25.194  35.022  1.00  0.00    -0.205 F 
ATOM     69  C   UNL A   1      49.884  25.830  34.568  1.00  0.00     0.022 A 
BRANCH  67  70
ATOM     70  S   UNL A   1      48.801  24.324  36.592  1.00  0.00     0.127 S 
ATOM     71  O   UNL A   1      48.047  25.122  37.557  1.00  0.00    -0.237 OA
ATOM     72  O   UNL A   1      48.140  23.088  36.172  1.00  0.00    -0.237 OA
ATOM     73  O   UNL A   1      50.224  24.179  36.868  1.00  0.00    -0.744 OA
ENDBRANCH  67  70
ENDBRANCH  40  63
ENDBRANCH  14  15
ENDBRANCH   7   9
ENDBRANCH   6   7
ENDBRANCH   5   6
ENDBRANCH   4   5
ENDBRANCH   3   4
ENDBRANCH   2   3
ENDBRANCH   1   2
BRANCH   1  74
ATOM     74  O   UNL A   1      31.515  33.316  26.734  1.00  0.00    -0.377 OA
BRANCH  74  75
ATOM     75  C   UNL A   1      32.703  33.183  27.513  1.00  0.00     0.188 C 
BRANCH  75  76
ATOM     76  C   UNL A   1      33.115  34.330  28.471  1.00  0.00     0.188 C 
BRANCH  76  77
ATOM     77  O   UNL A   1      34.256  35.061  28.051  1.00  0.00    -0.376 OA
BRANCH  77  78
ATOM     78  C   UNL A   1      35.424  34.897  28.845  1.00  0.00     0.202 C 
BRANCH  78  79
ATOM     79  C   UNL A   1      35.558  33.564  29.599  1.00  0.00     0.261 C 
BRANCH  79  80
ATOM     80  O   UNL A   1      36.863  33.276  30.147  1.00  0.00    -0.460 OA
BRANCH  80  81
ATOM     81  C   UNL A   1      37.280  33.948  31.252  1.00  0.00     0.338 C 
ATOM     82  O   UNL A   1      36.602  34.337  32.172  1.00  0.00    -0.246 OA
BRANCH  81  83
ATOM     83  C   UNL A   1      38.774  33.928  31.227  1.00  0.00     0.060 A 
ATOM     84  C   UNL A   1      39.431  33.480  30.074  1.00  0.00     0.016 A 
ATOM     85  C   UNL A   1      39.514  34.516  32.253  1.00  0.00     0.016 A 
ATOM     86  C   UNL A   1      40.801  33.744  29.890  1.00  0.00     0.007 A 
ATOM     87  C   UNL A   1      40.891  34.717  32.089  1.00  0.00     0.007 A 
ATOM     88  C   UNL A   1      41.541  34.421  30.873  1.00  0.00    -0.025 A 
BRANCH  88  89
ATOM     89  C   UNL A   1      42.952  34.977  30.639  1.00  0.00     0.114 C 
ATOM     90  N   UNL A   1      44.021  33.960  30.799  1.00  0.00    -0.378 N 
ATOM     91  C   UNL A   1      43.131  35.648  29.262  1.00  0.00     0.031 C 
ATOM     92  C   UNL A   1      44.922  33.671  29.768  1.00  0.00     0.038 A 
ATOM     93  H   UNL A   1      44.098  33.475  31.652  1.00  0.00     0.161 HD
ATOM     94  C   UNL A   1      43.217  34.534  28.206  1.00  0.00     0.049 C 
ATOM     95  C   UNL A   1      42.193  36.709  28.696  1.00  0.00     0.034 C 
ATOM     96  C   UNL A   1      46.215  33.223  30.049  1.00  0.00     0.027 A 
ATOM     97  C   UNL A   1      44.589  33.959  28.418  1.00  0.00    -0.016 A 
ATOM     98  C   UNL A   1      42.853  35.258  26.954  1.00  0.00    -0.023 C 
ATOM     99  C   UNL A   1      42.255  36.426  27.225  1.00  0.00    -0.030 C 
ATOM    100  C   UNL A   1      47.160  33.079  29.022  1.00  0.00     0.022 A 
ATOM    101  C   UNL A   1      45.521  33.780  27.388  1.00  0.00     0.027 A 
ATOM    102  C   UNL A   1      46.808  33.357  27.701  1.00  0.00     0.041 A 
ATOM    103  Cl  UNL A   1      47.986  33.224  26.453  1.00  0.00    -0.084 Cl
ENDBRANCH  88  89
ENDBRANCH  81  83
ENDBRANCH  80  81
ENDBRANCH  79  80
ENDBRANCH  78  79
ENDBRANCH  77  78
ENDBRANCH  76  77
ENDBRANCH  75  76
ENDBRANCH  74  75
ENDBRANCH   1  74
TORSDOF 24
ENDMDL
