MODEL 1
REMARK VINA RESULT:     -10.2      0.000      0.000
REMARK SMILES O=C(OCCOCCOCCOCCOC(=O)[C@@H]1CC[C@@H](CNC(=O)c2cc(Cl)ccc2Cl)O1)c1ccc(-c2c3nc(c(-c4cccc(S(=O)(=O)[O-])c4F)c4ccc([nH]4)c(-c4cccc(S(=O)(=O)[O-])c4F)c4nc(c(-c5cccc(S(=O)(=O)[O-])c5F)c5ccc2[nH]5)C=C4)C=C3)cc1
REMARK SMILES IDX 9 1 8 2 7 3 6 4 5 5 4 6 3 7 2 8 1 9 35 10 36 11 97 12 37 13
REMARK SMILES IDX 96 14 38 15 39 16 40 17 90 18 41 19 95 20 89 21 91 22 42 23
REMARK SMILES IDX 94 24 88 25 87 26 43 28 75 29 55 30 74 31 56 32 59 33 73 34
REMARK SMILES IDX 92 35 57 36 58 37 72 39 93 40 60 41 44 42 45 43 53 44 46 45
REMARK SMILES IDX 48 46 54 47 47 48 49 49 50 50 51 51 52 52 76 53 77 54 85 55
REMARK SMILES IDX 78 56 80 57 86 58 79 59 81 60 82 61 83 62 84 63 61 64 62 65
REMARK SMILES IDX 70 66 63 67 65 68 71 69 64 70 66 71 67 72 68 73 69 74 10 75
REMARK SMILES IDX 11 76 12 77 13 78 14 79 15 80 16 81 17 82 18 83 19 84 34 85
REMARK SMILES IDX 20 86 21 87 22 88 23 89 24 90 25 92 26 93 27 94 32 95 28 96
REMARK SMILES IDX 31 97 33 98 29 99 30 100
REMARK H PARENT 91 27 59 38 23 91
REMARK Flexibility Score: inf
ROOT
ATOM      1  O   UNL A   1      33.036  29.570  25.675  1.00  0.00    -0.377 OA
ENDROOT
BRANCH   1   2
ATOM      2  C   UNL A   1      33.822  29.891  26.829  1.00  0.00     0.188 C 
BRANCH   2   3
ATOM      3  C   UNL A   1      33.388  31.187  27.529  1.00  0.00     0.188 C 
BRANCH   3   4
ATOM      4  O   UNL A   1      34.539  32.012  27.696  1.00  0.00    -0.376 OA
BRANCH   4   5
ATOM      5  C   UNL A   1      34.402  33.393  27.994  1.00  0.00     0.202 C 
BRANCH   5   6
ATOM      6  C   UNL A   1      33.818  33.762  29.353  1.00  0.00     0.261 C 
BRANCH   6   7
ATOM      7  O   UNL A   1      34.771  33.772  30.426  1.00  0.00    -0.460 OA
BRANCH   7   8
ATOM      8  C   UNL A   1      35.253  32.695  31.099  1.00  0.00     0.338 C 
ATOM      9  O   UNL A   1      34.590  32.209  32.009  1.00  0.00    -0.246 OA
BRANCH   8  10
ATOM     10  C   UNL A   1      36.553  32.071  30.746  1.00  0.00     0.060 A 
ATOM     11  C   UNL A   1      37.283  32.410  29.612  1.00  0.00     0.016 A 
ATOM     12  C   UNL A   1      37.132  31.186  31.656  1.00  0.00     0.016 A 
ATOM     13  C   UNL A   1      38.445  31.758  29.259  1.00  0.00     0.010 A 
ATOM     14  C   UNL A   1      38.380  30.618  31.380  1.00  0.00     0.010 A 
ATOM     15  C   UNL A   1      39.018  30.873  30.154  1.00  0.00    -0.014 A 
BRANCH  15  16
ATOM     16  C   UNL A   1      40.233  30.156  29.739  1.00  0.00     0.031 A 
ATOM     17  C   UNL A   1      41.537  30.865  29.910  1.00  0.00     0.074 A 
ATOM     18  C   UNL A   1      40.160  28.886  29.299  1.00  0.00     0.049 A 
ATOM     19  N   UNL A   1      42.706  30.565  29.425  1.00  0.00    -0.248 NA
ATOM     20  C   UNL A   1      41.518  32.091  30.731  1.00  0.00     0.031 C 
ATOM     21  C   UNL A   1      38.937  28.078  29.232  1.00  0.00     0.029 A 
ATOM     22  N   UNL A   1      41.133  28.047  28.827  1.00  0.00    -0.354 N 
ATOM     23  C   UNL A   1      43.531  31.621  29.778  1.00  0.00     0.074 A 
ATOM     24  C   UNL A   1      42.752  32.543  30.569  1.00  0.00     0.031 C 
ATOM     25  C   UNL A   1      39.236  26.859  28.755  1.00  0.00     0.029 A 
ATOM     26  C   UNL A   1      40.641  26.842  28.376  1.00  0.00     0.049 A 
ATOM     27  H   UNL A   1      42.090  28.280  28.812  1.00  0.00     0.167 HD
ATOM     28  C   UNL A   1      44.824  31.805  29.433  1.00  0.00     0.034 A 
ATOM     29  C   UNL A   1      41.248  25.875  27.663  1.00  0.00     0.034 A 
ATOM     30  C   UNL A   1      45.567  30.831  28.688  1.00  0.00     0.049 A 
ATOM     31  C   UNL A   1      42.683  26.111  27.277  1.00  0.00     0.074 A 
ATOM     32  C   UNL A   1      46.878  30.883  28.261  1.00  0.00     0.029 A 
ATOM     33  N   UNL A   1      45.045  29.615  28.265  1.00  0.00    -0.354 N 
ATOM     34  N   UNL A   1      43.466  27.116  27.597  1.00  0.00    -0.248 NA
ATOM     35  C   UNL A   1      43.316  25.100  26.424  1.00  0.00     0.031 C 
ATOM     36  C   UNL A   1      47.141  29.702  27.557  1.00  0.00     0.029 A 
ATOM     37  C   UNL A   1      46.002  28.908  27.567  1.00  0.00     0.049 A 
ATOM     38  H   UNL A   1      44.128  29.303  28.438  1.00  0.00     0.167 HD
ATOM     39  C   UNL A   1      44.686  26.860  26.990  1.00  0.00     0.074 A 
ATOM     40  C   UNL A   1      44.547  25.583  26.312  1.00  0.00     0.031 C 
ATOM     41  C   UNL A   1      45.812  27.614  26.961  1.00  0.00     0.034 A 
BRANCH  28  42
ATOM     42  C   UNL A   1      45.456  33.115  29.803  1.00  0.00     0.023 A 
ATOM     43  C   UNL A   1      46.130  33.264  31.031  1.00  0.00     0.012 A 
ATOM     44  C   UNL A   1      45.345  34.218  28.934  1.00  0.00     0.148 A 
ATOM     45  C   UNL A   1      46.655  34.503  31.403  1.00  0.00     0.002 A 
ATOM     46  C   UNL A   1      45.902  35.439  29.294  1.00  0.00     0.091 A 
ATOM     47  F   UNL A   1      44.669  34.061  27.787  1.00  0.00    -0.205 F 
ATOM     48  C   UNL A   1      46.548  35.586  30.533  1.00  0.00     0.022 A 
BRANCH  46  49
ATOM     49  S   UNL A   1      45.853  36.881  28.226  1.00  0.00     0.127 S 
ATOM     50  O   UNL A   1      46.814  37.766  28.884  1.00  0.00    -0.237 OA
ATOM     51  O   UNL A   1      46.306  36.329  26.950  1.00  0.00    -0.237 OA
ATOM     52  O   UNL A   1      44.473  37.346  28.237  1.00  0.00    -0.744 OA
ENDBRANCH  46  49
ENDBRANCH  28  42
BRANCH  29  53
ATOM     53  C   UNL A   1      40.498  24.659  27.232  1.00  0.00     0.023 A 
ATOM     54  C   UNL A   1      39.270  24.799  26.557  1.00  0.00     0.012 A 
ATOM     55  C   UNL A   1      41.004  23.361  27.456  1.00  0.00     0.148 A 
ATOM     56  C   UNL A   1      38.554  23.675  26.136  1.00  0.00     0.002 A 
ATOM     57  C   UNL A   1      40.318  22.249  26.978  1.00  0.00     0.091 A 
ATOM     58  F   UNL A   1      42.157  23.233  28.128  1.00  0.00    -0.205 F 
ATOM     59  C   UNL A   1      39.083  22.402  26.333  1.00  0.00     0.022 A 
BRANCH  57  60
ATOM     60  S   UNL A   1      41.016  20.594  27.065  1.00  0.00     0.127 S 
ATOM     61  O   UNL A   1      40.728  20.218  28.445  1.00  0.00    -0.237 OA
ATOM     62  O   UNL A   1      40.237  19.875  26.055  1.00  0.00    -0.237 OA
ATOM     63  O   UNL A   1      42.424  20.756  26.722  1.00  0.00    -0.744 OA
ENDBRANCH  57  60
ENDBRANCH  29  53
BRANCH  41  64
ATOM     64  C   UNL A   1      46.978  27.066  26.191  1.00  0.00     0.023 A 
ATOM     65  C   UNL A   1      47.054  27.285  24.803  1.00  0.00     0.012 A 
ATOM     66  C   UNL A   1      48.046  26.450  26.867  1.00  0.00     0.148 A 
ATOM     67  C   UNL A   1      48.182  26.883  24.093  1.00  0.00     0.002 A 
ATOM     68  C   UNL A   1      49.187  26.100  26.162  1.00  0.00     0.091 A 
ATOM     69  F   UNL A   1      47.931  26.239  28.187  1.00  0.00    -0.205 F 
ATOM     70  C   UNL A   1      49.254  26.308  24.773  1.00  0.00     0.022 A 
BRANCH  68  71
ATOM     71  S   UNL A   1      50.653  25.462  26.976  1.00  0.00     0.127 S 
ATOM     72  O   UNL A   1      51.056  26.600  27.798  1.00  0.00    -0.237 OA
ATOM     73  O   UNL A   1      50.121  24.323  27.724  1.00  0.00    -0.237 OA
ATOM     74  O   UNL A   1      51.580  25.102  25.910  1.00  0.00    -0.744 OA
ENDBRANCH  68  71
ENDBRANCH  41  64
ENDBRANCH  15  16
ENDBRANCH   8  10
ENDBRANCH   7   8
ENDBRANCH   6   7
ENDBRANCH   5   6
ENDBRANCH   4   5
ENDBRANCH   3   4
ENDBRANCH   2   3
ENDBRANCH   1   2
BRANCH   1  75
ATOM     75  C   UNL A   1      33.612  28.578  24.835  1.00  0.00     0.188 C 
BRANCH  75  76
ATOM     76  C   UNL A   1      33.336  28.689  23.314  1.00  0.00     0.188 C 
BRANCH  76  77
ATOM     77  O   UNL A   1      32.687  27.539  22.800  1.00  0.00    -0.376 OA
BRANCH  77  78
ATOM     78  C   UNL A   1      31.268  27.581  22.698  1.00  0.00     0.202 C 
BRANCH  78  79
ATOM     79  C   UNL A   1      30.438  26.542  23.477  1.00  0.00     0.261 C 
BRANCH  79  80
ATOM     80  O   UNL A   1      30.078  26.888  24.834  1.00  0.00    -0.461 OA
BRANCH  80  81
ATOM     81  C   UNL A   1      30.831  26.417  25.876  1.00  0.00     0.335 C 
ATOM     82  O   UNL A   1      31.014  26.997  26.917  1.00  0.00    -0.249 OA
BRANCH  81  83
ATOM     83  C   UNL A   1      31.429  25.016  25.503  1.00  0.00     0.228 C 
ATOM     84  C   UNL A   1      30.662  23.899  26.171  1.00  0.00     0.047 C 
ATOM     85  O   UNL A   1      32.801  24.797  25.897  1.00  0.00    -0.361 OA
ATOM     86  C   UNL A   1      31.652  22.848  26.547  1.00  0.00     0.037 C 
ATOM     87  C   UNL A   1      32.829  23.739  26.881  1.00  0.00     0.138 C 
BRANCH  87  88
ATOM     88  C   UNL A   1      34.162  22.991  26.943  1.00  0.00     0.148 C 
BRANCH  88  89
ATOM     89  N   UNL A   1      35.066  23.316  25.844  1.00  0.00    -0.349 N 
ATOM     90  C   UNL A   1      35.183  22.712  24.615  1.00  0.00     0.252 C 
ATOM     91  H   UNL A   1      35.675  24.072  26.004  1.00  0.00     0.163 HD
ATOM     92  O   UNL A   1      36.151  22.957  23.904  1.00  0.00    -0.269 OA
BRANCH  90  93
ATOM     93  C   UNL A   1      34.116  21.809  24.145  1.00  0.00     0.059 A 
ATOM     94  C   UNL A   1      34.076  20.516  24.683  1.00  0.00     0.036 A 
ATOM     95  C   UNL A   1      33.147  22.217  23.219  1.00  0.00     0.053 A 
ATOM     96  C   UNL A   1      33.116  19.613  24.242  1.00  0.00     0.041 A 
ATOM     97  C   UNL A   1      32.185  21.298  22.784  1.00  0.00     0.023 A 
ATOM     98  Cl  UNL A   1      33.097  23.807  22.546  1.00  0.00    -0.083 Cl
ATOM     99  Cl  UNL A   1      33.098  18.019  24.884  1.00  0.00    -0.084 Cl
ATOM    100  C   UNL A   1      32.175  19.995  23.290  1.00  0.00     0.022 A 
ENDBRANCH  90  93
ENDBRANCH  88  89
ENDBRANCH  87  88
ENDBRANCH  81  83
ENDBRANCH  80  81
ENDBRANCH  79  80
ENDBRANCH  78  79
ENDBRANCH  77  78
ENDBRANCH  76  77
ENDBRANCH  75  76
ENDBRANCH   1  75
TORSDOF 26
ENDMDL
MODEL 2
REMARK VINA RESULT:      -8.3      2.613      3.393
REMARK SMILES O=C(OCCOCCOCCOCCOC(=O)[C@@H]1CC[C@@H](CNC(=O)c2cc(Cl)ccc2Cl)O1)c1ccc(-c2c3nc(c(-c4cccc(S(=O)(=O)[O-])c4F)c4ccc([nH]4)c(-c4cccc(S(=O)(=O)[O-])c4F)c4nc(c(-c5cccc(S(=O)(=O)[O-])c5F)c5ccc2[nH]5)C=C4)C=C3)cc1
REMARK SMILES IDX 9 1 8 2 7 3 6 4 5 5 4 6 3 7 2 8 1 9 35 10 36 11 97 12 37 13
REMARK SMILES IDX 96 14 38 15 39 16 40 17 90 18 41 19 95 20 89 21 91 22 42 23
REMARK SMILES IDX 94 24 88 25 87 26 43 28 75 29 55 30 74 31 56 32 59 33 73 34
REMARK SMILES IDX 92 35 57 36 58 37 72 39 93 40 60 41 44 42 45 43 53 44 46 45
REMARK SMILES IDX 48 46 54 47 47 48 49 49 50 50 51 51 52 52 76 53 77 54 85 55
REMARK SMILES IDX 78 56 80 57 86 58 79 59 81 60 82 61 83 62 84 63 61 64 62 65
REMARK SMILES IDX 70 66 63 67 65 68 71 69 64 70 66 71 67 72 68 73 69 74 10 75
REMARK SMILES IDX 11 76 12 77 13 78 14 79 15 80 16 81 17 82 18 83 19 84 34 85
REMARK SMILES IDX 20 86 21 87 22 88 23 89 24 90 25 92 26 93 27 94 32 95 28 96
REMARK SMILES IDX 31 97 33 98 29 99 30 100
REMARK H PARENT 91 27 59 38 23 91
REMARK Flexibility Score: inf
ROOT
ATOM      1  O   UNL A   1      32.988  29.395  25.234  1.00  0.00    -0.377 OA
ENDROOT
BRANCH   1   2
ATOM      2  C   UNL A   1      33.502  29.848  26.492  1.00  0.00     0.188 C 
BRANCH   2   3
ATOM      3  C   UNL A   1      32.716  31.021  27.094  1.00  0.00     0.188 C 
BRANCH   3   4
ATOM      4  O   UNL A   1      33.593  31.761  27.941  1.00  0.00    -0.376 OA
BRANCH   4   5
ATOM      5  C   UNL A   1      33.837  33.138  27.703  1.00  0.00     0.202 C 
BRANCH   5   6
ATOM      6  C   UNL A   1      33.263  34.134  28.704  1.00  0.00     0.261 C 
BRANCH   6   7
ATOM      7  O   UNL A   1      34.156  34.490  29.769  1.00  0.00    -0.460 OA
BRANCH   7   8
ATOM      8  C   UNL A   1      34.706  33.652  30.687  1.00  0.00     0.338 C 
ATOM      9  O   UNL A   1      33.997  33.180  31.570  1.00  0.00    -0.246 OA
BRANCH   8  10
ATOM     10  C   UNL A   1      36.139  33.269  30.636  1.00  0.00     0.060 A 
ATOM     11  C   UNL A   1      37.021  33.730  29.664  1.00  0.00     0.016 A 
ATOM     12  C   UNL A   1      36.658  32.504  31.680  1.00  0.00     0.016 A 
ATOM     13  C   UNL A   1      38.327  33.295  29.586  1.00  0.00     0.010 A 
ATOM     14  C   UNL A   1      38.016  32.168  31.692  1.00  0.00     0.010 A 
ATOM     15  C   UNL A   1      38.843  32.528  30.615  1.00  0.00    -0.014 A 
BRANCH  15  16
ATOM     16  C   UNL A   1      40.224  32.039  30.490  1.00  0.00     0.031 A 
ATOM     17  C   UNL A   1      41.309  32.903  31.045  1.00  0.00     0.074 A 
ATOM     18  C   UNL A   1      40.473  30.825  29.963  1.00  0.00     0.049 A 
ATOM     19  N   UNL A   1      42.596  32.824  30.867  1.00  0.00    -0.248 NA
ATOM     20  C   UNL A   1      40.884  34.019  31.911  1.00  0.00     0.031 C 
ATOM     21  C   UNL A   1      39.456  29.864  29.522  1.00  0.00     0.029 A 
ATOM     22  N   UNL A   1      41.658  30.187  29.711  1.00  0.00    -0.354 N 
ATOM     23  C   UNL A   1      43.121  33.944  31.495  1.00  0.00     0.074 A 
ATOM     24  C   UNL A   1      42.027  34.656  32.111  1.00  0.00     0.031 C 
ATOM     25  C   UNL A   1      40.061  28.758  29.062  1.00  0.00     0.029 A 
ATOM     26  C   UNL A   1      41.499  28.980  29.068  1.00  0.00     0.049 A 
ATOM     27  H   UNL A   1      42.536  30.554  29.964  1.00  0.00     0.167 HD
ATOM     28  C   UNL A   1      44.410  34.344  31.517  1.00  0.00     0.034 A 
ATOM     29  C   UNL A   1      42.416  28.190  28.479  1.00  0.00     0.034 A 
ATOM     30  C   UNL A   1      45.466  33.569  30.932  1.00  0.00     0.049 A 
ATOM     31  C   UNL A   1      43.843  28.666  28.501  1.00  0.00     0.074 A 
ATOM     32  C   UNL A   1      46.815  33.851  30.870  1.00  0.00     0.029 A 
ATOM     33  N   UNL A   1      45.274  32.343  30.307  1.00  0.00    -0.354 N 
ATOM     34  N   UNL A   1      44.344  29.732  29.082  1.00  0.00    -0.248 NA
ATOM     35  C   UNL A   1      44.827  27.851  27.781  1.00  0.00     0.031 C 
ATOM     36  C   UNL A   1      47.436  32.801  30.185  1.00  0.00     0.029 A 
ATOM     37  C   UNL A   1      46.478  31.858  29.841  1.00  0.00     0.049 A 
ATOM     38  H   UNL A   1      44.406  31.888  30.210  1.00  0.00     0.167 HD
ATOM     39  C   UNL A   1      45.703  29.717  28.803  1.00  0.00     0.074 A 
ATOM     40  C   UNL A   1      45.950  28.512  28.031  1.00  0.00     0.031 C 
ATOM     41  C   UNL A   1      46.661  30.621  29.122  1.00  0.00     0.034 A 
BRANCH  28  42
ATOM     42  C   UNL A   1      44.706  35.683  32.126  1.00  0.00     0.023 A 
ATOM     43  C   UNL A   1      44.670  36.852  31.341  1.00  0.00     0.012 A 
ATOM     44  C   UNL A   1      45.059  35.772  33.487  1.00  0.00     0.148 A 
ATOM     45  C   UNL A   1      45.014  38.086  31.895  1.00  0.00     0.002 A 
ATOM     46  C   UNL A   1      45.364  37.009  34.041  1.00  0.00     0.091 A 
ATOM     47  F   UNL A   1      45.120  34.642  34.205  1.00  0.00    -0.205 F 
ATOM     48  C   UNL A   1      45.353  38.166  33.244  1.00  0.00     0.022 A 
BRANCH  46  49
ATOM     49  S   UNL A   1      45.773  37.221  35.776  1.00  0.00     0.127 S 
ATOM     50  O   UNL A   1      44.640  36.566  36.428  1.00  0.00    -0.237 OA
ATOM     51  O   UNL A   1      47.039  36.496  35.880  1.00  0.00    -0.237 OA
ATOM     52  O   UNL A   1      45.870  38.657  35.996  1.00  0.00    -0.744 OA
ENDBRANCH  46  49
ENDBRANCH  28  42
BRANCH  29  53
ATOM     53  C   UNL A   1      42.008  26.932  27.785  1.00  0.00     0.023 A 
ATOM     54  C   UNL A   1      41.386  27.001  26.524  1.00  0.00     0.012 A 
ATOM     55  C   UNL A   1      42.259  25.663  28.349  1.00  0.00     0.148 A 
ATOM     56  C   UNL A   1      41.003  25.837  25.852  1.00  0.00     0.002 A 
ATOM     57  C   UNL A   1      41.933  24.508  27.647  1.00  0.00     0.091 A 
ATOM     58  F   UNL A   1      42.821  25.605  29.565  1.00  0.00    -0.205 F 
ATOM     59  C   UNL A   1      41.289  24.591  26.405  1.00  0.00     0.022 A 
BRANCH  57  60
ATOM     60  S   UNL A   1      42.409  22.875  28.233  1.00  0.00     0.127 S 
ATOM     61  O   UNL A   1      42.768  23.146  29.621  1.00  0.00    -0.237 OA
ATOM     62  O   UNL A   1      41.175  22.109  28.053  1.00  0.00    -0.237 OA
ATOM     63  O   UNL A   1      43.497  22.459  27.356  1.00  0.00    -0.744 OA
ENDBRANCH  57  60
ENDBRANCH  29  53
BRANCH  41  64
ATOM     64  C   UNL A   1      48.056  30.329  28.654  1.00  0.00     0.023 A 
ATOM     65  C   UNL A   1      48.530  30.934  27.475  1.00  0.00     0.012 A 
ATOM     66  C   UNL A   1      48.923  29.559  29.449  1.00  0.00     0.148 A 
ATOM     67  C   UNL A   1      49.857  30.764  27.087  1.00  0.00     0.002 A 
ATOM     68  C   UNL A   1      50.255  29.438  29.083  1.00  0.00     0.091 A 
ATOM     69  F   UNL A   1      48.433  28.980  30.555  1.00  0.00    -0.205 F 
ATOM     70  C   UNL A   1      50.722  30.032  27.898  1.00  0.00     0.022 A 
BRANCH  68  71
ATOM     71  S   UNL A   1      51.459  28.612  30.126  1.00  0.00     0.127 S 
ATOM     72  O   UNL A   1      52.685  28.769  29.346  1.00  0.00    -0.237 OA
ATOM     73  O   UNL A   1      51.406  29.409  31.352  1.00  0.00    -0.237 OA
ATOM     74  O   UNL A   1      50.987  27.242  30.278  1.00  0.00    -0.744 OA
ENDBRANCH  68  71
ENDBRANCH  41  64
ENDBRANCH  15  16
ENDBRANCH   8  10
ENDBRANCH   7   8
ENDBRANCH   6   7
ENDBRANCH   5   6
ENDBRANCH   4   5
ENDBRANCH   3   4
ENDBRANCH   2   3
ENDBRANCH   1   2
BRANCH   1  75
ATOM     75  C   UNL A   1      33.969  28.842  24.367  1.00  0.00     0.188 C 
BRANCH  75  76
ATOM     76  C   UNL A   1      33.640  28.809  22.853  1.00  0.00     0.188 C 
BRANCH  76  77
ATOM     77  O   UNL A   1      32.898  27.658  22.489  1.00  0.00    -0.376 OA
BRANCH  77  78
ATOM     78  C   UNL A   1      31.500  27.671  22.755  1.00  0.00     0.202 C 
BRANCH  78  79
ATOM     79  C   UNL A   1      30.927  26.654  23.760  1.00  0.00     0.261 C 
BRANCH  79  80
ATOM     80  O   UNL A   1      30.701  27.131  25.105  1.00  0.00    -0.461 OA
BRANCH  80  81
ATOM     81  C   UNL A   1      31.288  26.485  26.161  1.00  0.00     0.335 C 
ATOM     82  O   UNL A   1      31.514  26.980  27.237  1.00  0.00    -0.249 OA
BRANCH  81  83
ATOM     83  C   UNL A   1      31.632  25.011  25.751  1.00  0.00     0.228 C 
ATOM     84  C   UNL A   1      30.446  24.097  25.953  1.00  0.00     0.047 C 
ATOM     85  O   UNL A   1      32.699  24.388  26.498  1.00  0.00    -0.361 OA
ATOM     86  C   UNL A   1      30.978  22.784  26.424  1.00  0.00     0.037 C 
ATOM     87  C   UNL A   1      32.146  23.283  27.248  1.00  0.00     0.138 C 
BRANCH  87  88
ATOM     88  C   UNL A   1      33.166  22.193  27.581  1.00  0.00     0.148 C 
BRANCH  88  89
ATOM     89  N   UNL A   1      34.507  22.475  27.078  1.00  0.00    -0.349 N 
ATOM     90  C   UNL A   1      35.008  22.305  25.809  1.00  0.00     0.252 C 
ATOM     91  H   UNL A   1      35.141  22.837  27.738  1.00  0.00     0.163 HD
ATOM     92  O   UNL A   1      36.216  22.367  25.616  1.00  0.00    -0.269 OA
BRANCH  90  93
ATOM     93  C   UNL A   1      34.078  22.095  24.684  1.00  0.00     0.059 A 
ATOM     94  C   UNL A   1      33.917  23.145  23.770  1.00  0.00     0.036 A 
ATOM     95  C   UNL A   1      33.393  20.887  24.497  1.00  0.00     0.053 A 
ATOM     96  C   UNL A   1      33.020  23.013  22.717  1.00  0.00     0.041 A 
ATOM     97  C   UNL A   1      32.493  20.767  23.432  1.00  0.00     0.023 A 
ATOM     98  Cl  UNL A   1      33.573  19.529  25.550  1.00  0.00    -0.083 Cl
ATOM     99  Cl  UNL A   1      32.806  24.320  21.621  1.00  0.00    -0.084 Cl
ATOM    100  C   UNL A   1      32.301  21.833  22.547  1.00  0.00     0.022 A 
ENDBRANCH  90  93
ENDBRANCH  88  89
ENDBRANCH  87  88
ENDBRANCH  81  83
ENDBRANCH  80  81
ENDBRANCH  79  80
ENDBRANCH  78  79
ENDBRANCH  77  78
ENDBRANCH  76  77
ENDBRANCH  75  76
ENDBRANCH   1  75
TORSDOF 26
ENDMDL
MODEL 3
REMARK VINA RESULT:      -7.9      7.681     13.886
REMARK SMILES O=C(OCCOCCOCCOCCOC(=O)[C@@H]1CC[C@@H](CNC(=O)c2cc(Cl)ccc2Cl)O1)c1ccc(-c2c3nc(c(-c4cccc(S(=O)(=O)[O-])c4F)c4ccc([nH]4)c(-c4cccc(S(=O)(=O)[O-])c4F)c4nc(c(-c5cccc(S(=O)(=O)[O-])c5F)c5ccc2[nH]5)C=C4)C=C3)cc1
REMARK SMILES IDX 9 1 8 2 7 3 6 4 5 5 4 6 3 7 2 8 1 9 35 10 36 11 97 12 37 13
REMARK SMILES IDX 96 14 38 15 39 16 40 17 90 18 41 19 95 20 89 21 91 22 42 23
REMARK SMILES IDX 94 24 88 25 87 26 43 28 75 29 55 30 74 31 56 32 59 33 73 34
REMARK SMILES IDX 92 35 57 36 58 37 72 39 93 40 60 41 44 42 45 43 53 44 46 45
REMARK SMILES IDX 48 46 54 47 47 48 49 49 50 50 51 51 52 52 76 53 77 54 85 55
REMARK SMILES IDX 78 56 80 57 86 58 79 59 81 60 82 61 83 62 84 63 61 64 62 65
REMARK SMILES IDX 70 66 63 67 65 68 71 69 64 70 66 71 67 72 68 73 69 74 10 75
REMARK SMILES IDX 11 76 12 77 13 78 14 79 15 80 16 81 17 82 18 83 19 84 34 85
REMARK SMILES IDX 20 86 21 87 22 88 23 89 24 90 25 92 26 93 27 94 32 95 28 96
REMARK SMILES IDX 31 97 33 98 29 99 30 100
REMARK H PARENT 91 27 59 38 23 91
REMARK Flexibility Score: inf
ROOT
ATOM      1  O   UNL A   1      40.167  34.863  29.378  1.00  0.00    -0.377 OA
ENDROOT
BRANCH   1   2
ATOM      2  C   UNL A   1      41.503  34.345  29.371  1.00  0.00     0.188 C 
BRANCH   2   3
ATOM      3  C   UNL A   1      42.542  35.313  29.952  1.00  0.00     0.188 C 
BRANCH   3   4
ATOM      4  O   UNL A   1      42.529  36.506  29.172  1.00  0.00    -0.376 OA
BRANCH   4   5
ATOM      5  C   UNL A   1      43.510  36.727  28.171  1.00  0.00     0.202 C 
BRANCH   5   6
ATOM      6  C   UNL A   1      44.917  37.087  28.636  1.00  0.00     0.261 C 
BRANCH   6   7
ATOM      7  O   UNL A   1      44.989  38.259  29.460  1.00  0.00    -0.460 OA
BRANCH   7   8
ATOM      8  C   UNL A   1      45.456  38.334  30.733  1.00  0.00     0.338 C 
ATOM      9  O   UNL A   1      46.470  38.985  30.965  1.00  0.00    -0.246 OA
BRANCH   8  10
ATOM     10  C   UNL A   1      44.758  37.670  31.862  1.00  0.00     0.060 A 
ATOM     11  C   UNL A   1      43.673  38.231  32.529  1.00  0.00     0.016 A 
ATOM     12  C   UNL A   1      45.127  36.367  32.197  1.00  0.00     0.016 A 
ATOM     13  C   UNL A   1      43.093  37.636  33.629  1.00  0.00     0.010 A 
ATOM     14  C   UNL A   1      44.456  35.692  33.221  1.00  0.00     0.010 A 
ATOM     15  C   UNL A   1      43.464  36.348  33.969  1.00  0.00    -0.014 A 
BRANCH  15  16
ATOM     16  C   UNL A   1      42.865  35.749  35.172  1.00  0.00     0.031 A 
ATOM     17  C   UNL A   1      41.729  34.801  34.970  1.00  0.00     0.074 A 
ATOM     18  C   UNL A   1      43.384  35.997  36.389  1.00  0.00     0.049 A 
ATOM     19  N   UNL A   1      40.890  34.324  35.843  1.00  0.00    -0.248 NA
ATOM     20  C   UNL A   1      41.496  34.335  33.589  1.00  0.00     0.031 C 
ATOM     21  C   UNL A   1      44.579  36.806  36.656  1.00  0.00     0.029 A 
ATOM     22  N   UNL A   1      42.977  35.594  37.632  1.00  0.00    -0.354 N 
ATOM     23  C   UNL A   1      39.963  33.604  35.105  1.00  0.00     0.074 A 
ATOM     24  C   UNL A   1      40.370  33.652  33.721  1.00  0.00     0.031 C 
ATOM     25  C   UNL A   1      44.812  36.831  37.977  1.00  0.00     0.029 A 
ATOM     26  C   UNL A   1      43.722  36.143  38.652  1.00  0.00     0.049 A 
ATOM     27  H   UNL A   1      42.228  34.973  37.783  1.00  0.00     0.167 HD
ATOM     28  C   UNL A   1      38.851  32.987  35.560  1.00  0.00     0.034 A 
ATOM     29  C   UNL A   1      43.492  36.152  39.979  1.00  0.00     0.034 A 
ATOM     30  C   UNL A   1      38.522  32.925  36.954  1.00  0.00     0.049 A 
ATOM     31  C   UNL A   1      42.238  35.473  40.459  1.00  0.00     0.074 A 
ATOM     32  C   UNL A   1      37.428  32.343  37.561  1.00  0.00     0.029 A 
ATOM     33  N   UNL A   1      39.307  33.474  37.961  1.00  0.00    -0.354 N 
ATOM     34  N   UNL A   1      41.350  34.801  39.764  1.00  0.00    -0.248 NA
ATOM     35  C   UNL A   1      41.942  35.562  41.893  1.00  0.00     0.031 C 
ATOM     36  C   UNL A   1      37.542  32.561  38.938  1.00  0.00     0.029 A 
ATOM     37  C   UNL A   1      38.716  33.258  39.189  1.00  0.00     0.049 A 
ATOM     38  H   UNL A   1      40.158  33.947  37.820  1.00  0.00     0.167 HD
ATOM     39  C   UNL A   1      40.389  34.381  40.672  1.00  0.00     0.074 A 
ATOM     40  C   UNL A   1      40.828  34.846  41.977  1.00  0.00     0.031 C 
ATOM     41  C   UNL A   1      39.235  33.704  40.458  1.00  0.00     0.034 A 
BRANCH  28  42
ATOM     42  C   UNL A   1      37.916  32.410  34.537  1.00  0.00     0.023 A 
ATOM     43  C   UNL A   1      38.148  31.133  33.993  1.00  0.00     0.012 A 
ATOM     44  C   UNL A   1      36.815  33.166  34.088  1.00  0.00     0.148 A 
ATOM     45  C   UNL A   1      37.316  30.629  32.992  1.00  0.00     0.002 A 
ATOM     46  C   UNL A   1      35.970  32.644  33.117  1.00  0.00     0.091 A 
ATOM     47  F   UNL A   1      36.635  34.394  34.595  1.00  0.00    -0.205 F 
ATOM     48  C   UNL A   1      36.225  31.381  32.560  1.00  0.00     0.022 A 
BRANCH  46  49
ATOM     49  S   UNL A   1      34.517  33.516  32.524  1.00  0.00     0.127 S 
ATOM     50  O   UNL A   1      34.906  34.911  32.733  1.00  0.00    -0.237 OA
ATOM     51  O   UNL A   1      34.465  33.100  31.124  1.00  0.00    -0.237 OA
ATOM     52  O   UNL A   1      33.406  33.053  33.343  1.00  0.00    -0.744 OA
ENDBRANCH  46  49
ENDBRANCH  28  42
BRANCH  29  53
ATOM     53  C   UNL A   1      44.419  36.863  40.909  1.00  0.00     0.023 A 
ATOM     54  C   UNL A   1      45.473  36.156  41.518  1.00  0.00     0.012 A 
ATOM     55  C   UNL A   1      44.285  38.242  41.174  1.00  0.00     0.148 A 
ATOM     56  C   UNL A   1      46.358  36.802  42.386  1.00  0.00     0.002 A 
ATOM     57  C   UNL A   1      45.207  38.892  41.987  1.00  0.00     0.091 A 
ATOM     58  F   UNL A   1      43.260  38.902  40.617  1.00  0.00    -0.205 F 
ATOM     59  C   UNL A   1      46.236  38.170  42.609  1.00  0.00     0.022 A 
BRANCH  57  60
ATOM     60  S   UNL A   1      45.196  40.678  42.196  1.00  0.00     0.127 S 
ATOM     61  O   UNL A   1      45.059  41.142  40.819  1.00  0.00    -0.237 OA
ATOM     62  O   UNL A   1      44.015  40.885  43.036  1.00  0.00    -0.237 OA
ATOM     63  O   UNL A   1      46.456  40.992  42.859  1.00  0.00    -0.744 OA
ENDBRANCH  57  60
ENDBRANCH  29  53
BRANCH  41  64
ATOM     64  C   UNL A   1      38.385  33.411  41.660  1.00  0.00     0.023 A 
ATOM     65  C   UNL A   1      37.293  34.248  41.954  1.00  0.00     0.012 A 
ATOM     66  C   UNL A   1      38.601  32.243  42.412  1.00  0.00     0.148 A 
ATOM     67  C   UNL A   1      36.427  33.928  42.997  1.00  0.00     0.002 A 
ATOM     68  C   UNL A   1      37.704  31.904  43.415  1.00  0.00     0.091 A 
ATOM     69  F   UNL A   1      39.662  31.479  42.118  1.00  0.00    -0.205 F 
ATOM     70  C   UNL A   1      36.622  32.750  43.714  1.00  0.00     0.022 A 
BRANCH  68  71
ATOM     71  S   UNL A   1      37.816  30.352  44.308  1.00  0.00     0.127 S 
ATOM     72  O   UNL A   1      38.967  30.591  45.176  1.00  0.00    -0.237 OA
ATOM     73  O   UNL A   1      36.527  30.299  44.999  1.00  0.00    -0.237 OA
ATOM     74  O   UNL A   1      38.000  29.319  43.298  1.00  0.00    -0.744 OA
ENDBRANCH  68  71
ENDBRANCH  41  64
ENDBRANCH  15  16
ENDBRANCH   8  10
ENDBRANCH   7   8
ENDBRANCH   6   7
ENDBRANCH   5   6
ENDBRANCH   4   5
ENDBRANCH   3   4
ENDBRANCH   2   3
ENDBRANCH   1   2
BRANCH   1  75
ATOM     75  C   UNL A   1      39.197  33.970  29.911  1.00  0.00     0.188 C 
BRANCH  75  76
ATOM     76  C   UNL A   1      37.995  33.604  29.004  1.00  0.00     0.188 C 
BRANCH  76  77
ATOM     77  O   UNL A   1      37.376  32.391  29.393  1.00  0.00    -0.376 OA
BRANCH  77  78
ATOM     78  C   UNL A   1      36.861  31.560  28.358  1.00  0.00     0.202 C 
BRANCH  78  79
ATOM     79  C   UNL A   1      35.527  30.826  28.592  1.00  0.00     0.261 C 
BRANCH  79  80
ATOM     80  O   UNL A   1      34.326  31.524  28.193  1.00  0.00    -0.461 OA
BRANCH  80  81
ATOM     81  C   UNL A   1      33.384  30.875  27.441  1.00  0.00     0.335 C 
ATOM     82  O   UNL A   1      32.389  31.383  26.987  1.00  0.00    -0.249 OA
BRANCH  81  83
ATOM     83  C   UNL A   1      33.787  29.368  27.276  1.00  0.00     0.228 C 
ATOM     84  C   UNL A   1      34.179  29.062  25.849  1.00  0.00     0.047 C 
ATOM     85  O   UNL A   1      32.753  28.407  27.580  1.00  0.00    -0.361 OA
ATOM     86  C   UNL A   1      33.689  27.686  25.543  1.00  0.00     0.037 C 
ATOM     87  C   UNL A   1      32.417  27.700  26.365  1.00  0.00     0.138 C 
BRANCH  87  88
ATOM     88  C   UNL A   1      31.832  26.308  26.606  1.00  0.00     0.148 C 
BRANCH  88  89
ATOM     89  N   UNL A   1      30.460  26.160  26.128  1.00  0.00    -0.349 N 
ATOM     90  C   UNL A   1      30.002  26.038  24.838  1.00  0.00     0.252 C 
ATOM     91  H   UNL A   1      29.767  26.145  26.827  1.00  0.00     0.163 HD
ATOM     92  O   UNL A   1      28.807  26.162  24.600  1.00  0.00    -0.269 OA
BRANCH  90  93
ATOM     93  C   UNL A   1      30.953  25.713  23.759  1.00  0.00     0.059 A 
ATOM     94  C   UNL A   1      31.354  24.377  23.627  1.00  0.00     0.036 A 
ATOM     95  C   UNL A   1      31.428  26.682  22.865  1.00  0.00     0.053 A 
ATOM     96  C   UNL A   1      32.281  24.025  22.653  1.00  0.00     0.041 A 
ATOM     97  C   UNL A   1      32.360  26.315  21.888  1.00  0.00     0.023 A 
ATOM     98  Cl  UNL A   1      30.946  28.339  22.929  1.00  0.00    -0.083 Cl
ATOM     99  Cl  UNL A   1      32.790  22.389  22.522  1.00  0.00    -0.084 Cl
ATOM    100  C   UNL A   1      32.792  24.989  21.787  1.00  0.00     0.022 A 
ENDBRANCH  90  93
ENDBRANCH  88  89
ENDBRANCH  87  88
ENDBRANCH  81  83
ENDBRANCH  80  81
ENDBRANCH  79  80
ENDBRANCH  78  79
ENDBRANCH  77  78
ENDBRANCH  76  77
ENDBRANCH  75  76
ENDBRANCH   1  75
TORSDOF 26
ENDMDL
