MODEL 1
REMARK VINA RESULT:      -6.9      0.000      0.000
REMARK SMILES CC(=O)N1C[C@@H]2C[N@H+](CC(=O)NCc3ccccc3)C[C@]2(C(=O)OCCOCCOCCOCCOC(=O)c2ccc(-c3c4nc(c(-c5cccc(S(=O)(=O)[O-])c5F)c5ccc([nH]5)c(-c5cccc(S(=O)(=O)[O-])c5F)c5nc(c(-c6cccc(S(=O)(=O)[O-])c6F)c6ccc3[nH]6)C=C5)C=C4)cc2)C1
REMARK SMILES IDX 29 1 28 2 27 3 26 4 25 5 24 6 22 7 23 8 21 9 4 10 5 11
REMARK SMILES IDX 102 12 6 13 7 14 20 15 8 16 2 18 1 19 3 20 9 21 10 22 11 23
REMARK SMILES IDX 12 24 13 26 14 27 15 28 19 29 16 30 18 31 17 32 30 33 31 34
REMARK SMILES IDX 32 35 33 36 34 37 35 38 36 39 37 40 38 41 39 42 40 43 101 44
REMARK SMILES IDX 41 45 100 46 42 47 43 48 44 49 94 50 45 51 99 52 93 53 95 54
REMARK SMILES IDX 46 55 98 56 92 57 91 58 47 60 79 61 59 62 78 63 60 64 63 65
REMARK SMILES IDX 77 66 96 67 61 68 62 69 76 71 97 72 64 73 48 74 49 75 57 76
REMARK SMILES IDX 50 77 52 78 58 79 51 80 53 81 54 82 55 83 56 84 80 85 81 86
REMARK SMILES IDX 89 87 82 88 84 89 90 90 83 91 85 92 86 93 87 94 88 95 65 96
REMARK SMILES IDX 66 97 74 98 67 99 69 100 75 101 68 102 70 103 71 104 72 105
REMARK SMILES IDX 73 106
REMARK H PARENT 8 17 12 25 95 59 63 70
REMARK Flexibility Score: inf
ROOT
ATOM      1  C   UNL A   1      43.294  20.097  25.791  1.00  0.00     0.188 C 
ENDROOT
BRANCH   1   2
ATOM      2  C   UNL A   1      41.789  20.282  26.045  1.00  0.00     0.188 C 
BRANCH   2   3
ATOM      3  O   UNL A   1      41.250  21.494  25.538  1.00  0.00    -0.376 OA
BRANCH   3   4
ATOM      4  C   UNL A   1      40.096  21.985  26.198  1.00  0.00     0.202 C 
BRANCH   4   5
ATOM      5  C   UNL A   1      40.290  22.549  27.602  1.00  0.00     0.261 C 
BRANCH   5   6
ATOM      6  O   UNL A   1      41.183  23.677  27.826  1.00  0.00    -0.463 OA
BRANCH   6   7
ATOM      7  C   UNL A   1      42.440  23.681  28.351  1.00  0.00     0.320 C 
ATOM      8  O   UNL A   1      43.209  22.733  28.322  1.00  0.00    -0.251 OA
BRANCH   7   9
ATOM      9  C   UNL A   1      42.739  25.095  28.960  1.00  0.00     0.144 C 
ATOM     10  N   UNL A   1      44.355  25.438  30.777  1.00  0.00    -0.341 N 
ATOM     11  C   UNL A   1      43.875  26.745  30.451  1.00  0.00     0.130 C 
ATOM     12  C   UNL A   1      44.075  24.532  29.652  1.00  0.00     0.144 C 
ATOM     13  C   UNL A   1      43.416  26.546  29.032  1.00  0.00     0.089 C 
ATOM     14  C   UNL A   1      42.459  27.636  28.575  1.00  0.00     0.269 C 
ATOM     15  C   UNL A   1      42.193  25.634  27.557  1.00  0.00     0.284 C 
ATOM     16  N   UNL A   1      41.440  26.852  27.912  1.00  0.00    -0.326 N 
ATOM     17  H   UNL A   1      41.025  27.332  27.113  1.00  0.00     0.348 HD
BRANCH  10  18
ATOM     18  C   UNL A   1      44.762  25.182  32.063  1.00  0.00     0.219 C 
ATOM     19  C   UNL A   1      45.881  25.992  32.644  1.00  0.00     0.114 C 
ATOM     20  O   UNL A   1      44.220  24.324  32.764  1.00  0.00    -0.275 OA
ENDBRANCH  10  18
BRANCH  16  21
ATOM     21  C   UNL A   1      40.202  26.585  28.742  1.00  0.00     0.363 C 
BRANCH  21  22
ATOM     22  C   UNL A   1      39.737  27.706  29.709  1.00  0.00     0.275 C 
ATOM     23  O   UNL A   1      40.336  27.910  30.773  1.00  0.00    -0.268 OA
ATOM     24  N   UNL A   1      38.652  28.506  29.515  1.00  0.00    -0.347 N 
ATOM     25  H   UNL A   1      38.359  28.961  30.338  1.00  0.00     0.164 HD
BRANCH  24  26
ATOM     26  C   UNL A   1      37.833  28.835  28.359  1.00  0.00     0.151 C 
BRANCH  26  27
ATOM     27  C   UNL A   1      37.371  30.292  28.308  1.00  0.00    -0.029 A 
ATOM     28  C   UNL A   1      38.107  31.349  28.858  1.00  0.00     0.005 A 
ATOM     29  C   UNL A   1      36.098  30.597  27.787  1.00  0.00     0.005 A 
ATOM     30  C   UNL A   1      37.528  32.615  29.025  1.00  0.00     0.000 A 
ATOM     31  C   UNL A   1      35.523  31.864  27.965  1.00  0.00     0.000 A 
ATOM     32  C   UNL A   1      36.221  32.860  28.629  1.00  0.00     0.000 A 
ENDBRANCH  26  27
ENDBRANCH  24  26
ENDBRANCH  21  22
ENDBRANCH  16  21
ENDBRANCH   7   9
ENDBRANCH   6   7
ENDBRANCH   5   6
ENDBRANCH   4   5
ENDBRANCH   3   4
ENDBRANCH   2   3
ENDBRANCH   1   2
BRANCH   1  33
ATOM     33  O   UNL A   1      43.928  20.929  24.830  1.00  0.00    -0.377 OA
BRANCH  33  34
ATOM     34  C   UNL A   1      44.610  22.106  25.254  1.00  0.00     0.188 C 
BRANCH  34  35
ATOM     35  C   UNL A   1      44.635  23.323  24.317  1.00  0.00     0.188 C 
BRANCH  35  36
ATOM     36  O   UNL A   1      44.372  24.555  24.965  1.00  0.00    -0.376 OA
BRANCH  36  37
ATOM     37  C   UNL A   1      45.313  25.013  25.922  1.00  0.00     0.202 C 
BRANCH  37  38
ATOM     38  C   UNL A   1      46.001  26.364  25.679  1.00  0.00     0.261 C 
BRANCH  38  39
ATOM     39  O   UNL A   1      45.317  27.556  26.104  1.00  0.00    -0.460 OA
BRANCH  39  40
ATOM     40  C   UNL A   1      45.876  28.772  25.928  1.00  0.00     0.338 C 
ATOM     41  O   UNL A   1      46.348  29.228  24.903  1.00  0.00    -0.246 OA
BRANCH  40  42
ATOM     42  C   UNL A   1      45.599  29.554  27.158  1.00  0.00     0.060 A 
ATOM     43  C   UNL A   1      45.959  29.027  28.409  1.00  0.00     0.016 A 
ATOM     44  C   UNL A   1      45.040  30.828  27.067  1.00  0.00     0.016 A 
ATOM     45  C   UNL A   1      45.737  29.768  29.573  1.00  0.00     0.010 A 
ATOM     46  C   UNL A   1      44.787  31.554  28.233  1.00  0.00     0.010 A 
ATOM     47  C   UNL A   1      45.106  31.015  29.492  1.00  0.00    -0.014 A 
BRANCH  47  48
ATOM     48  C   UNL A   1      44.551  31.657  30.709  1.00  0.00     0.031 A 
ATOM     49  C   UNL A   1      45.529  32.225  31.700  1.00  0.00     0.074 A 
ATOM     50  C   UNL A   1      43.231  31.687  30.964  1.00  0.00     0.049 A 
ATOM     51  N   UNL A   1      45.314  32.711  32.893  1.00  0.00    -0.248 NA
ATOM     52  C   UNL A   1      46.944  32.236  31.290  1.00  0.00     0.031 C 
ATOM     53  C   UNL A   1      42.183  31.187  30.077  1.00  0.00     0.029 A 
ATOM     54  N   UNL A   1      42.554  32.126  32.076  1.00  0.00    -0.354 N 
ATOM     55  C   UNL A   1      46.566  33.048  33.391  1.00  0.00     0.074 A 
ATOM     56  C   UNL A   1      47.535  32.720  32.371  1.00  0.00     0.031 C 
ATOM     57  C   UNL A   1      40.996  31.300  30.701  1.00  0.00     0.029 A 
ATOM     58  C   UNL A   1      41.207  31.847  32.043  1.00  0.00     0.049 A 
ATOM     59  H   UNL A   1      42.989  32.593  32.825  1.00  0.00     0.167 HD
ATOM     60  C   UNL A   1      46.883  33.584  34.592  1.00  0.00     0.034 A 
ATOM     61  C   UNL A   1      40.265  31.975  33.001  1.00  0.00     0.034 A 
ATOM     62  C   UNL A   1      45.921  33.918  35.605  1.00  0.00     0.049 A 
ATOM     63  C   UNL A   1      40.652  32.533  34.349  1.00  0.00     0.074 A 
ATOM     64  C   UNL A   1      46.139  34.514  36.832  1.00  0.00     0.029 A 
ATOM     65  N   UNL A   1      44.563  33.663  35.517  1.00  0.00    -0.354 N 
ATOM     66  N   UNL A   1      41.819  32.965  34.763  1.00  0.00    -0.248 NA
ATOM     67  C   UNL A   1      39.585  32.642  35.357  1.00  0.00     0.031 C 
ATOM     68  C   UNL A   1      44.915  34.588  37.504  1.00  0.00     0.029 A 
ATOM     69  C   UNL A   1      43.931  34.070  36.678  1.00  0.00     0.049 A 
ATOM     70  H   UNL A   1      44.113  33.253  34.742  1.00  0.00     0.167 HD
ATOM     71  C   UNL A   1      41.621  33.422  36.063  1.00  0.00     0.074 A 
ATOM     72  C   UNL A   1      40.216  33.240  36.359  1.00  0.00     0.031 C 
ATOM     73  C   UNL A   1      42.522  33.931  36.940  1.00  0.00     0.034 A 
BRANCH  60  74
ATOM     74  C   UNL A   1      48.335  33.851  34.875  1.00  0.00     0.023 A 
ATOM     75  C   UNL A   1      49.132  32.846  35.458  1.00  0.00     0.012 A 
ATOM     76  C   UNL A   1      48.922  35.078  34.511  1.00  0.00     0.148 A 
ATOM     77  C   UNL A   1      50.487  33.066  35.697  1.00  0.00     0.002 A 
ATOM     78  C   UNL A   1      50.282  35.274  34.712  1.00  0.00     0.091 A 
ATOM     79  F   UNL A   1      48.138  36.030  33.984  1.00  0.00    -0.205 F 
ATOM     80  C   UNL A   1      51.064  34.274  35.313  1.00  0.00     0.022 A 
BRANCH  78  81
ATOM     81  S   UNL A   1      51.133  36.765  34.184  1.00  0.00     0.127 S 
ATOM     82  O   UNL A   1      52.041  36.999  35.306  1.00  0.00    -0.237 OA
ATOM     83  O   UNL A   1      51.788  36.322  32.952  1.00  0.00    -0.237 OA
ATOM     84  O   UNL A   1      50.102  37.774  33.997  1.00  0.00    -0.744 OA
ENDBRANCH  78  81
ENDBRANCH  60  74
BRANCH  61  85
ATOM     85  C   UNL A   1      38.858  31.560  32.734  1.00  0.00     0.023 A 
ATOM     86  C   UNL A   1      38.550  30.195  32.570  1.00  0.00     0.012 A 
ATOM     87  C   UNL A   1      37.824  32.512  32.631  1.00  0.00     0.148 A 
ATOM     88  C   UNL A   1      37.247  29.789  32.273  1.00  0.00     0.002 A 
ATOM     89  C   UNL A   1      36.519  32.096  32.398  1.00  0.00     0.091 A 
ATOM     90  F   UNL A   1      38.139  33.808  32.765  1.00  0.00    -0.205 F 
ATOM     91  C   UNL A   1      36.231  30.737  32.197  1.00  0.00     0.022 A 
BRANCH  89  92
ATOM     92  S   UNL A   1      35.129  33.230  32.434  1.00  0.00     0.127 S 
ATOM     93  O   UNL A   1      35.675  34.395  31.744  1.00  0.00    -0.237 OA
ATOM     94  O   UNL A   1      34.117  32.483  31.684  1.00  0.00    -0.237 OA
ATOM     95  O   UNL A   1      34.812  33.414  33.844  1.00  0.00    -0.744 OA
ENDBRANCH  89  92
ENDBRANCH  61  85
BRANCH  73  96
ATOM     96  C   UNL A   1      42.022  34.363  38.294  1.00  0.00     0.023 A 
ATOM     97  C   UNL A   1      42.254  33.549  39.421  1.00  0.00     0.012 A 
ATOM     98  C   UNL A   1      41.398  35.616  38.464  1.00  0.00     0.148 A 
ATOM     99  C   UNL A   1      41.847  33.961  40.689  1.00  0.00     0.002 A 
ATOM    100  C   UNL A   1      41.040  36.042  39.737  1.00  0.00     0.091 A 
ATOM    101  F   UNL A   1      41.173  36.369  37.378  1.00  0.00    -0.205 F 
ATOM    102  C   UNL A   1      41.252  35.212  40.849  1.00  0.00     0.022 A 
BRANCH 100 103
ATOM    103  S   UNL A   1      40.358  37.673  40.052  1.00  0.00     0.127 S 
ATOM    104  O   UNL A   1      40.082  37.608  41.487  1.00  0.00    -0.237 OA
ATOM    105  O   UNL A   1      41.470  38.551  39.684  1.00  0.00    -0.237 OA
ATOM    106  O   UNL A   1      39.186  37.792  39.196  1.00  0.00    -0.744 OA
ENDBRANCH 100 103
ENDBRANCH  73  96
ENDBRANCH  47  48
ENDBRANCH  40  42
ENDBRANCH  39  40
ENDBRANCH  38  39
ENDBRANCH  37  38
ENDBRANCH  36  37
ENDBRANCH  35  36
ENDBRANCH  34  35
ENDBRANCH  33  34
ENDBRANCH   1  33
TORSDOF 28
ENDMDL
MODEL 2
REMARK VINA RESULT:      -6.8      5.619      8.152
REMARK SMILES CC(=O)N1C[C@@H]2C[N@H+](CC(=O)NCc3ccccc3)C[C@]2(C(=O)OCCOCCOCCOCCOC(=O)c2ccc(-c3c4nc(c(-c5cccc(S(=O)(=O)[O-])c5F)c5ccc([nH]5)c(-c5cccc(S(=O)(=O)[O-])c5F)c5nc(c(-c6cccc(S(=O)(=O)[O-])c6F)c6ccc3[nH]6)C=C5)C=C4)cc2)C1
REMARK SMILES IDX 29 1 28 2 27 3 26 4 25 5 24 6 22 7 23 8 21 9 4 10 5 11
REMARK SMILES IDX 102 12 6 13 7 14 20 15 8 16 2 18 1 19 3 20 9 21 10 22 11 23
REMARK SMILES IDX 12 24 13 26 14 27 15 28 19 29 16 30 18 31 17 32 30 33 31 34
REMARK SMILES IDX 32 35 33 36 34 37 35 38 36 39 37 40 38 41 39 42 40 43 101 44
REMARK SMILES IDX 41 45 100 46 42 47 43 48 44 49 94 50 45 51 99 52 93 53 95 54
REMARK SMILES IDX 46 55 98 56 92 57 91 58 47 60 79 61 59 62 78 63 60 64 63 65
REMARK SMILES IDX 77 66 96 67 61 68 62 69 76 71 97 72 64 73 48 74 49 75 57 76
REMARK SMILES IDX 50 77 52 78 58 79 51 80 53 81 54 82 55 83 56 84 80 85 81 86
REMARK SMILES IDX 89 87 82 88 84 89 90 90 83 91 85 92 86 93 87 94 88 95 65 96
REMARK SMILES IDX 66 97 74 98 67 99 69 100 75 101 68 102 70 103 71 104 72 105
REMARK SMILES IDX 73 106
REMARK H PARENT 8 17 12 25 95 59 63 70
REMARK Flexibility Score: inf
ROOT
ATOM      1  C   UNL A   1      42.151  23.290  25.967  1.00  0.00     0.188 C 
ENDROOT
BRANCH   1   2
ATOM      2  C   UNL A   1      41.395  22.085  26.551  1.00  0.00     0.188 C 
BRANCH   2   3
ATOM      3  O   UNL A   1      40.447  21.500  25.671  1.00  0.00    -0.376 OA
BRANCH   3   4
ATOM      4  C   UNL A   1      39.118  21.417  26.155  1.00  0.00     0.202 C 
BRANCH   4   5
ATOM      5  C   UNL A   1      38.064  22.247  25.428  1.00  0.00     0.261 C 
BRANCH   5   6
ATOM      6  O   UNL A   1      36.717  21.726  25.240  1.00  0.00    -0.463 OA
BRANCH   6   7
ATOM      7  C   UNL A   1      36.320  20.440  25.028  1.00  0.00     0.320 C 
ATOM      8  O   UNL A   1      37.075  19.488  24.917  1.00  0.00    -0.251 OA
BRANCH   7   9
ATOM      9  C   UNL A   1      34.753  20.387  24.984  1.00  0.00     0.144 C 
ATOM     10  N   UNL A   1      33.521  18.484  24.041  1.00  0.00    -0.341 N 
ATOM     11  C   UNL A   1      32.515  19.381  24.519  1.00  0.00     0.130 C 
ATOM     12  C   UNL A   1      34.799  18.808  24.693  1.00  0.00     0.144 C 
ATOM     13  C   UNL A   1      33.278  20.149  25.564  1.00  0.00     0.089 C 
ATOM     14  C   UNL A   1      32.599  21.461  25.928  1.00  0.00     0.269 C 
ATOM     15  C   UNL A   1      34.846  21.437  26.186  1.00  0.00     0.284 C 
ATOM     16  N   UNL A   1      33.728  22.366  25.935  1.00  0.00    -0.326 N 
ATOM     17  H   UNL A   1      33.640  23.108  26.630  1.00  0.00     0.348 HD
BRANCH  10  18
ATOM     18  C   UNL A   1      33.233  17.673  22.971  1.00  0.00     0.219 C 
ATOM     19  C   UNL A   1      32.173  18.102  22.001  1.00  0.00     0.114 C 
ATOM     20  O   UNL A   1      33.836  16.617  22.768  1.00  0.00    -0.275 OA
ENDBRANCH  10  18
BRANCH  16  21
ATOM     21  C   UNL A   1      33.890  23.192  24.676  1.00  0.00     0.363 C 
BRANCH  21  22
ATOM     22  C   UNL A   1      33.921  24.734  24.834  1.00  0.00     0.275 C 
ATOM     23  O   UNL A   1      34.978  25.319  25.106  1.00  0.00    -0.268 OA
ATOM     24  N   UNL A   1      32.837  25.553  24.739  1.00  0.00    -0.347 N 
ATOM     25  H   UNL A   1      32.994  26.444  25.127  1.00  0.00     0.164 HD
BRANCH  24  26
ATOM     26  C   UNL A   1      31.499  25.399  24.190  1.00  0.00     0.151 C 
BRANCH  26  27
ATOM     27  C   UNL A   1      30.934  26.663  23.540  1.00  0.00    -0.029 A 
ATOM     28  C   UNL A   1      31.741  27.699  23.052  1.00  0.00     0.005 A 
ATOM     29  C   UNL A   1      29.541  26.868  23.522  1.00  0.00     0.005 A 
ATOM     30  C   UNL A   1      31.184  28.941  22.714  1.00  0.00     0.000 A 
ATOM     31  C   UNL A   1      28.993  28.116  23.190  1.00  0.00     0.000 A 
ATOM     32  C   UNL A   1      29.821  29.169  22.833  1.00  0.00     0.000 A 
ENDBRANCH  26  27
ENDBRANCH  24  26
ENDBRANCH  21  22
ENDBRANCH  16  21
ENDBRANCH   7   9
ENDBRANCH   6   7
ENDBRANCH   5   6
ENDBRANCH   4   5
ENDBRANCH   3   4
ENDBRANCH   2   3
ENDBRANCH   1   2
BRANCH   1  33
ATOM     33  O   UNL A   1      43.568  23.308  26.052  1.00  0.00    -0.377 OA
BRANCH  33  34
ATOM     34  C   UNL A   1      44.201  23.247  27.328  1.00  0.00     0.188 C 
BRANCH  34  35
ATOM     35  C   UNL A   1      43.731  24.207  28.431  1.00  0.00     0.188 C 
BRANCH  35  36
ATOM     36  O   UNL A   1      43.564  25.545  27.998  1.00  0.00    -0.376 OA
BRANCH  36  37
ATOM     37  C   UNL A   1      42.911  26.448  28.875  1.00  0.00     0.202 C 
BRANCH  37  38
ATOM     38  C   UNL A   1      41.419  26.733  28.652  1.00  0.00     0.261 C 
BRANCH  38  39
ATOM     39  O   UNL A   1      41.025  28.089  28.378  1.00  0.00    -0.460 OA
BRANCH  39  40
ATOM     40  C   UNL A   1      39.956  28.635  28.997  1.00  0.00     0.338 C 
ATOM     41  O   UNL A   1      38.885  28.105  29.228  1.00  0.00    -0.246 OA
BRANCH  40  42
ATOM     42  C   UNL A   1      40.405  29.930  29.564  1.00  0.00     0.060 A 
ATOM     43  C   UNL A   1      41.769  30.136  29.825  1.00  0.00     0.016 A 
ATOM     44  C   UNL A   1      39.485  30.956  29.779  1.00  0.00     0.016 A 
ATOM     45  C   UNL A   1      42.210  31.365  30.324  1.00  0.00     0.010 A 
ATOM     46  C   UNL A   1      39.922  32.171  30.310  1.00  0.00     0.010 A 
ATOM     47  C   UNL A   1      41.281  32.371  30.614  1.00  0.00    -0.014 A 
BRANCH  47  48
ATOM     48  C   UNL A   1      41.666  33.531  31.454  1.00  0.00     0.031 A 
ATOM     49  C   UNL A   1      42.357  34.681  30.773  1.00  0.00     0.074 A 
ATOM     50  C   UNL A   1      41.470  33.549  32.784  1.00  0.00     0.049 A 
ATOM     51  N   UNL A   1      42.912  35.741  31.294  1.00  0.00    -0.248 NA
ATOM     52  C   UNL A   1      42.439  34.616  29.303  1.00  0.00     0.031 C 
ATOM     53  C   UNL A   1      40.798  32.507  33.558  1.00  0.00     0.029 A 
ATOM     54  N   UNL A   1      41.862  34.471  33.725  1.00  0.00    -0.354 N 
ATOM     55  C   UNL A   1      43.443  36.449  30.223  1.00  0.00     0.074 A 
ATOM     56  C   UNL A   1      43.139  35.705  29.023  1.00  0.00     0.031 C 
ATOM     57  C   UNL A   1      40.870  32.822  34.864  1.00  0.00     0.029 A 
ATOM     58  C   UNL A   1      41.622  34.069  35.019  1.00  0.00     0.049 A 
ATOM     59  H   UNL A   1      42.275  35.334  33.496  1.00  0.00     0.167 HD
ATOM     60  C   UNL A   1      44.125  37.618  30.236  1.00  0.00     0.034 A 
ATOM     61  C   UNL A   1      42.006  34.620  36.189  1.00  0.00     0.034 A 
ATOM     62  C   UNL A   1      44.423  38.364  31.426  1.00  0.00     0.049 A 
ATOM     63  C   UNL A   1      42.805  35.901  36.177  1.00  0.00     0.074 A 
ATOM     64  C   UNL A   1      45.062  39.585  31.536  1.00  0.00     0.029 A 
ATOM     65  N   UNL A   1      44.124  37.948  32.713  1.00  0.00    -0.354 N 
ATOM     66  N   UNL A   1      43.193  36.626  35.155  1.00  0.00    -0.248 NA
ATOM     67  C   UNL A   1      43.203  36.451  37.483  1.00  0.00     0.031 C 
ATOM     68  C   UNL A   1      45.181  39.892  32.895  1.00  0.00     0.029 A 
ATOM     69  C   UNL A   1      44.585  38.879  33.628  1.00  0.00     0.049 A 
ATOM     70  H   UNL A   1      43.653  37.115  32.943  1.00  0.00     0.167 HD
ATOM     71  C   UNL A   1      43.851  37.728  35.694  1.00  0.00     0.074 A 
ATOM     72  C   UNL A   1      43.786  37.590  37.134  1.00  0.00     0.031 C 
ATOM     73  C   UNL A   1      44.468  38.755  35.057  1.00  0.00     0.034 A 
BRANCH  60  74
ATOM     74  C   UNL A   1      44.591  38.168  28.916  1.00  0.00     0.023 A 
ATOM     75  C   UNL A   1      45.653  37.543  28.233  1.00  0.00     0.012 A 
ATOM     76  C   UNL A   1      43.939  39.268  28.328  1.00  0.00     0.148 A 
ATOM     77  C   UNL A   1      46.075  38.021  26.994  1.00  0.00     0.002 A 
ATOM     78  C   UNL A   1      44.337  39.712  27.074  1.00  0.00     0.091 A 
ATOM     79  F   UNL A   1      42.949  39.863  29.011  1.00  0.00    -0.205 F 
ATOM     80  C   UNL A   1      45.410  39.097  26.410  1.00  0.00     0.022 A 
BRANCH  78  81
ATOM     81  S   UNL A   1      43.495  41.039  26.205  1.00  0.00     0.127 S 
ATOM     82  O   UNL A   1      43.825  42.193  27.040  1.00  0.00    -0.237 OA
ATOM     83  O   UNL A   1      44.160  41.020  24.902  1.00  0.00    -0.237 OA
ATOM     84  O   UNL A   1      42.087  40.674  26.176  1.00  0.00    -0.744 OA
ENDBRANCH  78  81
ENDBRANCH  60  74
BRANCH  61  85
ATOM     85  C   UNL A   1      41.652  33.966  37.482  1.00  0.00     0.023 A 
ATOM     86  C   UNL A   1      42.577  33.107  38.108  1.00  0.00     0.012 A 
ATOM     87  C   UNL A   1      40.399  34.181  38.088  1.00  0.00     0.148 A 
ATOM     88  C   UNL A   1      42.248  32.448  39.294  1.00  0.00     0.002 A 
ATOM     89  C   UNL A   1      40.102  33.571  39.302  1.00  0.00     0.091 A 
ATOM     90  F   UNL A   1      39.521  34.981  37.467  1.00  0.00    -0.205 F 
ATOM     91  C   UNL A   1      41.016  32.688  39.896  1.00  0.00     0.022 A 
BRANCH  89  92
ATOM     92  S   UNL A   1      38.605  33.939  40.220  1.00  0.00     0.127 S 
ATOM     93  O   UNL A   1      38.674  35.393  40.334  1.00  0.00    -0.237 OA
ATOM     94  O   UNL A   1      37.570  33.436  39.314  1.00  0.00    -0.237 OA
ATOM     95  O   UNL A   1      38.720  33.196  41.467  1.00  0.00    -0.744 OA
ENDBRANCH  89  92
ENDBRANCH  61  85
BRANCH  73  96
ATOM     96  C   UNL A   1      45.097  39.833  35.901  1.00  0.00     0.023 A 
ATOM     97  C   UNL A   1      44.347  40.971  36.259  1.00  0.00     0.012 A 
ATOM     98  C   UNL A   1      46.401  39.676  36.412  1.00  0.00     0.148 A 
ATOM     99  C   UNL A   1      44.895  41.950  37.086  1.00  0.00     0.002 A 
ATOM    100  C   UNL A   1      46.923  40.632  37.275  1.00  0.00     0.091 A 
ATOM    101  F   UNL A   1      47.103  38.593  36.048  1.00  0.00    -0.205 F 
ATOM    102  C   UNL A   1      46.178  41.775  37.604  1.00  0.00     0.022 A 
BRANCH 100 103
ATOM    103  S   UNL A   1      48.524  40.444  38.068  1.00  0.00     0.127 S 
ATOM    104  O   UNL A   1      49.430  40.482  36.921  1.00  0.00    -0.237 OA
ATOM    105  O   UNL A   1      48.584  41.622  38.933  1.00  0.00    -0.237 OA
ATOM    106  O   UNL A   1      48.474  39.174  38.780  1.00  0.00    -0.744 OA
ENDBRANCH 100 103
ENDBRANCH  73  96
ENDBRANCH  47  48
ENDBRANCH  40  42
ENDBRANCH  39  40
ENDBRANCH  38  39
ENDBRANCH  37  38
ENDBRANCH  36  37
ENDBRANCH  35  36
ENDBRANCH  34  35
ENDBRANCH  33  34
ENDBRANCH   1  33
TORSDOF 28
ENDMDL
MODEL 3
REMARK VINA RESULT:      -6.6      4.541      8.573
REMARK SMILES CC(=O)N1C[C@@H]2C[N@H+](CC(=O)NCc3ccccc3)C[C@]2(C(=O)OCCOCCOCCOCCOC(=O)c2ccc(-c3c4nc(c(-c5cccc(S(=O)(=O)[O-])c5F)c5ccc([nH]5)c(-c5cccc(S(=O)(=O)[O-])c5F)c5nc(c(-c6cccc(S(=O)(=O)[O-])c6F)c6ccc3[nH]6)C=C5)C=C4)cc2)C1
REMARK SMILES IDX 29 1 28 2 27 3 26 4 25 5 24 6 22 7 23 8 21 9 4 10 5 11
REMARK SMILES IDX 102 12 6 13 7 14 20 15 8 16 2 18 1 19 3 20 9 21 10 22 11 23
REMARK SMILES IDX 12 24 13 26 14 27 15 28 19 29 16 30 18 31 17 32 30 33 31 34
REMARK SMILES IDX 32 35 33 36 34 37 35 38 36 39 37 40 38 41 39 42 40 43 101 44
REMARK SMILES IDX 41 45 100 46 42 47 43 48 44 49 94 50 45 51 99 52 93 53 95 54
REMARK SMILES IDX 46 55 98 56 92 57 91 58 47 60 79 61 59 62 78 63 60 64 63 65
REMARK SMILES IDX 77 66 96 67 61 68 62 69 76 71 97 72 64 73 48 74 49 75 57 76
REMARK SMILES IDX 50 77 52 78 58 79 51 80 53 81 54 82 55 83 56 84 80 85 81 86
REMARK SMILES IDX 89 87 82 88 84 89 90 90 83 91 85 92 86 93 87 94 88 95 65 96
REMARK SMILES IDX 66 97 74 98 67 99 69 100 75 101 68 102 70 103 71 104 72 105
REMARK SMILES IDX 73 106
REMARK H PARENT 8 17 12 25 95 59 63 70
REMARK Flexibility Score: inf
ROOT
ATOM      1  C   UNL A   1      45.439  27.003  32.729  1.00  0.00     0.188 C 
ENDROOT
BRANCH   1   2
ATOM      2  C   UNL A   1      45.100  28.162  31.777  1.00  0.00     0.188 C 
BRANCH   2   3
ATOM      3  O   UNL A   1      44.407  27.776  30.600  1.00  0.00    -0.376 OA
BRANCH   3   4
ATOM      4  C   UNL A   1      44.978  28.203  29.375  1.00  0.00     0.202 C 
BRANCH   4   5
ATOM      5  C   UNL A   1      44.629  27.393  28.130  1.00  0.00     0.261 C 
BRANCH   5   6
ATOM      6  O   UNL A   1      43.729  27.939  27.125  1.00  0.00    -0.463 OA
BRANCH   6   7
ATOM      7  C   UNL A   1      42.661  28.770  27.293  1.00  0.00     0.320 C 
ATOM      8  O   UNL A   1      42.651  29.956  27.005  1.00  0.00    -0.251 OA
BRANCH   7   9
ATOM      9  C   UNL A   1      41.460  27.950  27.881  1.00  0.00     0.144 C 
ATOM     10  N   UNL A   1      40.500  28.414  30.094  1.00  0.00    -0.341 N 
ATOM     11  C   UNL A   1      39.707  27.353  29.556  1.00  0.00     0.130 C 
ATOM     12  C   UNL A   1      41.212  29.083  28.993  1.00  0.00     0.144 C 
ATOM     13  C   UNL A   1      39.923  27.542  28.079  1.00  0.00     0.089 C 
ATOM     14  C   UNL A   1      39.564  26.299  27.278  1.00  0.00     0.269 C 
ATOM     15  C   UNL A   1      41.149  27.620  26.348  1.00  0.00     0.284 C 
ATOM     16  N   UNL A   1      40.690  26.217  26.373  1.00  0.00    -0.326 N 
ATOM     17  H   UNL A   1      40.439  25.846  25.457  1.00  0.00     0.348 HD
BRANCH  10  18
ATOM     18  C   UNL A   1      40.654  28.504  31.455  1.00  0.00     0.219 C 
ATOM     19  C   UNL A   1      39.606  27.904  32.344  1.00  0.00     0.114 C 
ATOM     20  O   UNL A   1      41.639  29.038  31.970  1.00  0.00    -0.275 OA
ENDBRANCH  10  18
BRANCH  16  21
ATOM     21  C   UNL A   1      41.764  25.230  26.781  1.00  0.00     0.363 C 
BRANCH  21  22
ATOM     22  C   UNL A   1      42.753  24.758  25.684  1.00  0.00     0.275 C 
ATOM     23  O   UNL A   1      43.365  25.581  24.990  1.00  0.00    -0.268 OA
ATOM     24  N   UNL A   1      43.001  23.459  25.360  1.00  0.00    -0.347 N 
ATOM     25  H   UNL A   1      43.437  23.358  24.482  1.00  0.00     0.164 HD
BRANCH  24  26
ATOM     26  C   UNL A   1      42.763  22.188  26.026  1.00  0.00     0.151 C 
BRANCH  26  27
ATOM     27  C   UNL A   1      43.798  21.107  25.710  1.00  0.00    -0.029 A 
ATOM     28  C   UNL A   1      45.157  21.382  25.514  1.00  0.00     0.005 A 
ATOM     29  C   UNL A   1      43.371  19.783  25.491  1.00  0.00     0.005 A 
ATOM     30  C   UNL A   1      46.013  20.413  24.968  1.00  0.00     0.000 A 
ATOM     31  C   UNL A   1      44.230  18.822  24.937  1.00  0.00     0.000 A 
ATOM     32  C   UNL A   1      45.541  19.153  24.630  1.00  0.00     0.000 A 
ENDBRANCH  26  27
ENDBRANCH  24  26
ENDBRANCH  21  22
ENDBRANCH  16  21
ENDBRANCH   7   9
ENDBRANCH   6   7
ENDBRANCH   5   6
ENDBRANCH   4   5
ENDBRANCH   3   4
ENDBRANCH   2   3
ENDBRANCH   1   2
BRANCH   1  33
ATOM     33  O   UNL A   1      44.415  26.079  33.064  1.00  0.00    -0.377 OA
BRANCH  33  34
ATOM     34  C   UNL A   1      44.688  25.020  33.978  1.00  0.00     0.188 C 
BRANCH  34  35
ATOM     35  C   UNL A   1      44.643  25.315  35.485  1.00  0.00     0.188 C 
BRANCH  35  36
ATOM     36  O   UNL A   1      43.619  24.623  36.177  1.00  0.00    -0.376 OA
BRANCH  36  37
ATOM     37  C   UNL A   1      42.473  24.230  35.441  1.00  0.00     0.202 C 
BRANCH  37  38
ATOM     38  C   UNL A   1      41.216  25.110  35.522  1.00  0.00     0.261 C 
BRANCH  38  39
ATOM     39  O   UNL A   1      41.355  26.513  35.237  1.00  0.00    -0.460 OA
BRANCH  39  40
ATOM     40  C   UNL A   1      41.176  27.434  36.208  1.00  0.00     0.338 C 
ATOM     41  O   UNL A   1      40.875  27.234  37.370  1.00  0.00    -0.246 OA
BRANCH  40  42
ATOM     42  C   UNL A   1      41.647  28.730  35.662  1.00  0.00     0.060 A 
ATOM     43  C   UNL A   1      43.003  28.893  35.338  1.00  0.00     0.016 A 
ATOM     44  C   UNL A   1      40.737  29.758  35.415  1.00  0.00     0.016 A 
ATOM     45  C   UNL A   1      43.454  30.096  34.788  1.00  0.00     0.010 A 
ATOM     46  C   UNL A   1      41.195  30.972  34.897  1.00  0.00     0.010 A 
ATOM     47  C   UNL A   1      42.559  31.157  34.610  1.00  0.00    -0.014 A 
BRANCH  47  48
ATOM     48  C   UNL A   1      43.061  32.531  34.363  1.00  0.00     0.031 A 
ATOM     49  C   UNL A   1      43.286  33.412  35.561  1.00  0.00     0.074 A 
ATOM     50  C   UNL A   1      43.255  33.010  33.122  1.00  0.00     0.049 A 
ATOM     51  N   UNL A   1      43.586  34.682  35.613  1.00  0.00    -0.248 NA
ATOM     52  C   UNL A   1      43.143  32.771  36.881  1.00  0.00     0.031 C 
ATOM     53  C   UNL A   1      43.088  32.253  31.884  1.00  0.00     0.029 A 
ATOM     54  N   UNL A   1      43.595  34.274  32.704  1.00  0.00    -0.354 N 
ATOM     55  C   UNL A   1      43.628  35.002  36.964  1.00  0.00     0.074 A 
ATOM     56  C   UNL A   1      43.333  33.794  37.700  1.00  0.00     0.031 C 
ATOM     57  C   UNL A   1      43.277  33.082  30.840  1.00  0.00     0.029 A 
ATOM     58  C   UNL A   1      43.543  34.432  31.338  1.00  0.00     0.049 A 
ATOM     59  H   UNL A   1      43.851  34.997  33.321  1.00  0.00     0.167 HD
ATOM     60  C   UNL A   1      43.892  36.196  37.544  1.00  0.00     0.034 A 
ATOM     61  C   UNL A   1      43.650  35.546  30.584  1.00  0.00     0.034 A 
ATOM     62  C   UNL A   1      44.193  37.396  36.815  1.00  0.00     0.049 A 
ATOM     63  C   UNL A   1      43.898  36.874  31.257  1.00  0.00     0.074 A 
ATOM     64  C   UNL A   1      44.525  38.641  37.314  1.00  0.00     0.029 A 
ATOM     65  N   UNL A   1      44.175  37.506  35.435  1.00  0.00    -0.354 N 
ATOM     66  N   UNL A   1      44.061  37.140  32.531  1.00  0.00    -0.248 NA
ATOM     67  C   UNL A   1      43.999  38.055  30.384  1.00  0.00     0.031 C 
ATOM     68  C   UNL A   1      44.674  39.516  36.233  1.00  0.00     0.029 A 
ATOM     69  C   UNL A   1      44.469  38.805  35.062  1.00  0.00     0.049 A 
ATOM     70  H   UNL A   1      43.982  36.769  34.811  1.00  0.00     0.167 HD
ATOM     71  C   UNL A   1      44.312  38.507  32.609  1.00  0.00     0.074 A 
ATOM     72  C   UNL A   1      44.306  39.011  31.251  1.00  0.00     0.031 C 
ATOM     73  C   UNL A   1      44.512  39.282  33.705  1.00  0.00     0.034 A 
BRANCH  60  74
ATOM     74  C   UNL A   1      43.872  36.261  39.046  1.00  0.00     0.023 A 
ATOM     75  C   UNL A   1      42.671  36.562  39.719  1.00  0.00     0.012 A 
ATOM     76  C   UNL A   1      45.030  35.969  39.791  1.00  0.00     0.148 A 
ATOM     77  C   UNL A   1      42.629  36.594  41.111  1.00  0.00     0.002 A 
ATOM     78  C   UNL A   1      44.970  35.960  41.178  1.00  0.00     0.091 A 
ATOM     79  F   UNL A   1      46.168  35.714  39.127  1.00  0.00    -0.205 F 
ATOM     80  C   UNL A   1      43.774  36.282  41.840  1.00  0.00     0.022 A 
BRANCH  78  81
ATOM     81  S   UNL A   1      46.369  35.499  42.205  1.00  0.00     0.127 S 
ATOM     82  O   UNL A   1      46.243  36.440  43.316  1.00  0.00    -0.237 OA
ATOM     83  O   UNL A   1      46.054  34.110  42.543  1.00  0.00    -0.237 OA
ATOM     84  O   UNL A   1      47.553  35.670  41.375  1.00  0.00    -0.744 OA
ENDBRANCH  78  81
ENDBRANCH  60  74
BRANCH  61  85
ATOM     85  C   UNL A   1      43.516  35.467  29.101  1.00  0.00     0.023 A 
ATOM     86  C   UNL A   1      42.293  35.806  28.490  1.00  0.00     0.012 A 
ATOM     87  C   UNL A   1      44.591  35.046  28.293  1.00  0.00     0.148 A 
ATOM     88  C   UNL A   1      42.131  35.694  27.108  1.00  0.00     0.002 A 
ATOM     89  C   UNL A   1      44.443  34.998  26.912  1.00  0.00     0.091 A 
ATOM     90  F   UNL A   1      45.740  34.704  28.893  1.00  0.00    -0.205 F 
ATOM     91  C   UNL A   1      43.208  35.300  26.318  1.00  0.00     0.022 A 
BRANCH  89  92
ATOM     92  S   UNL A   1      45.817  34.648  25.811  1.00  0.00     0.127 S 
ATOM     93  O   UNL A   1      45.126  34.230  24.595  1.00  0.00    -0.237 OA
ATOM     94  O   UNL A   1      46.473  35.955  25.733  1.00  0.00    -0.237 OA
ATOM     95  O   UNL A   1      46.604  33.623  26.482  1.00  0.00    -0.744 OA
ENDBRANCH  89  92
ENDBRANCH  61  85
BRANCH  73  96
ATOM     96  C   UNL A   1      44.777  40.750  33.492  1.00  0.00     0.023 A 
ATOM     97  C   UNL A   1      46.096  41.205  33.299  1.00  0.00     0.012 A 
ATOM     98  C   UNL A   1      43.709  41.666  33.397  1.00  0.00     0.148 A 
ATOM     99  C   UNL A   1      46.352  42.552  33.045  1.00  0.00     0.002 A 
ATOM    100  C   UNL A   1      43.967  42.997  33.095  1.00  0.00     0.091 A 
ATOM    101  F   UNL A   1      42.462  41.216  33.598  1.00  0.00    -0.205 F 
ATOM    102  C   UNL A   1      45.288  43.445  32.931  1.00  0.00     0.022 A 
BRANCH 100 103
ATOM    103  S   UNL A   1      42.658  44.198  32.832  1.00  0.00     0.127 S 
ATOM    104  O   UNL A   1      41.933  43.607  31.708  1.00  0.00    -0.237 OA
ATOM    105  O   UNL A   1      41.941  44.162  34.107  1.00  0.00    -0.237 OA
ATOM    106  O   UNL A   1      43.323  45.463  32.549  1.00  0.00    -0.744 OA
ENDBRANCH 100 103
ENDBRANCH  73  96
ENDBRANCH  47  48
ENDBRANCH  40  42
ENDBRANCH  39  40
ENDBRANCH  38  39
ENDBRANCH  37  38
ENDBRANCH  36  37
ENDBRANCH  35  36
ENDBRANCH  34  35
ENDBRANCH  33  34
ENDBRANCH   1  33
TORSDOF 28
ENDMDL
