MODEL 1
REMARK VINA RESULT:     -10.0      0.000      0.000
REMARK SMILES CC1(C)[C@@]2(C(=O)OCCOCCOCCOCCOC(=O)c3ccc(-c4c5nc(c(-c6cccc(S(=O)(=O)[O-])c6F)c6ccc([nH]6)c(-c6cccc(S(=O)(=O)[O-])c6F)c6nc(c(-c7cccc(S(=O)(=O)[O-])c7F)c7ccc4[nH]7)C=C6)C=C5)cc3)CC[C@]1(C)/C(=N/NC(=O)c1ccc(Cl)cc1)C2
REMARK SMILES IDX 14 1 13 2 12 3 11 4 10 5 9 6 8 7 7 8 5 9 6 10 4 11 1 12 2 13
REMARK SMILES IDX 3 14 87 15 85 16 101 17 86 18 88 19 89 20 90 21 91 22 92 23
REMARK SMILES IDX 93 25 94 26 95 27 100 28 96 29 99 30 97 31 98 32 15 33 16 34
REMARK SMILES IDX 17 35 18 36 19 37 20 38 21 39 22 40 23 41 84 42 24 43 83 44
REMARK SMILES IDX 25 45 26 46 27 47 77 48 28 49 82 50 76 51 78 52 29 53 81 54
REMARK SMILES IDX 75 55 74 56 30 58 62 59 42 60 61 61 43 62 46 63 60 64 79 65
REMARK SMILES IDX 44 66 45 67 59 69 80 70 47 71 31 72 32 73 40 74 33 75 35 76
REMARK SMILES IDX 41 77 34 78 36 79 37 80 38 81 39 82 63 83 64 84 72 85 65 86
REMARK SMILES IDX 67 87 73 88 66 89 68 90 69 91 70 92 71 93 48 94 49 95 57 96
REMARK SMILES IDX 50 97 52 98 58 99 51 100 53 101 54 102 55 103 56 104
REMARK H PARENT 91 24 78 57 46 68
REMARK Flexibility Score: inf
ROOT
ATOM      1  C   UNL A   1      34.114  34.416  32.967  1.00  0.00     0.188 C 
ENDROOT
BRANCH   1   2
ATOM      2  O   UNL A   1      34.147  33.420  31.947  1.00  0.00    -0.377 OA
BRANCH   2   3
ATOM      3  C   UNL A   1      34.657  33.839  30.675  1.00  0.00     0.188 C 
BRANCH   3   4
ATOM      4  C   UNL A   1      34.645  32.789  29.551  1.00  0.00     0.188 C 
BRANCH   4   5
ATOM      5  O   UNL A   1      35.632  31.757  29.627  1.00  0.00    -0.376 OA
BRANCH   5   6
ATOM      6  C   UNL A   1      35.458  30.617  28.787  1.00  0.00     0.202 C 
BRANCH   6   7
ATOM      7  C   UNL A   1      34.773  30.927  27.461  1.00  0.00     0.261 C 
BRANCH   7   8
ATOM      8  O   UNL A   1      33.672  30.038  27.209  1.00  0.00    -0.463 OA
BRANCH   8   9
ATOM      9  C   UNL A   1      33.981  28.829  26.668  1.00  0.00     0.313 C 
ATOM     10  O   UNL A   1      35.080  28.294  26.710  1.00  0.00    -0.252 OA
BRANCH   9  11
ATOM     11  C   UNL A   1      32.786  28.265  25.936  1.00  0.00     0.079 C 
ATOM     12  C   UNL A   1      33.615  28.827  23.528  1.00  0.00     0.013 C 
ATOM     13  C   UNL A   1      32.998  27.777  24.475  1.00  0.00    -0.008 C 
ATOM     14  C   UNL A   1      33.847  26.493  24.322  1.00  0.00     0.013 C 
ATOM     15  C   UNL A   1      31.466  27.542  24.278  1.00  0.00     0.014 C 
ATOM     16  C   UNL A   1      31.703  29.382  25.790  1.00  0.00     0.021 C 
ATOM     17  C   UNL A   1      32.119  27.037  26.617  1.00  0.00     0.073 C 
ATOM     18  C   UNL A   1      30.843  28.908  24.608  1.00  0.00     0.014 C 
ATOM     19  C   UNL A   1      31.035  26.945  22.954  1.00  0.00     0.018 C 
ATOM     20  C   UNL A   1      31.135  26.689  25.530  1.00  0.00     0.046 C 
ATOM     21  N   UNL A   1      30.159  25.847  25.468  1.00  0.00    -0.181 NA
BRANCH  21  22
ATOM     22  N   UNL A   1      29.756  24.950  26.396  1.00  0.00    -0.243 N 
ATOM     23  C   UNL A   1      30.122  23.698  26.828  1.00  0.00     0.271 C 
ATOM     24  H   UNL A   1      28.983  25.288  26.904  1.00  0.00     0.194 HD
ATOM     25  O   UNL A   1      29.362  23.102  27.597  1.00  0.00    -0.267 OA
BRANCH  23  26
ATOM     26  C   UNL A   1      31.377  23.031  26.458  1.00  0.00     0.041 A 
ATOM     27  C   UNL A   1      31.298  22.004  25.505  1.00  0.00     0.015 A 
ATOM     28  C   UNL A   1      32.607  23.365  27.035  1.00  0.00     0.015 A 
ATOM     29  C   UNL A   1      32.460  21.383  25.050  1.00  0.00     0.021 A 
ATOM     30  C   UNL A   1      33.772  22.735  26.576  1.00  0.00     0.021 A 
ATOM     31  C   UNL A   1      33.694  21.771  25.566  1.00  0.00     0.041 A 
ATOM     32  Cl  UNL A   1      35.131  21.096  24.902  1.00  0.00    -0.084 Cl
ENDBRANCH  23  26
ENDBRANCH  21  22
ENDBRANCH   9  11
ENDBRANCH   8   9
ENDBRANCH   7   8
ENDBRANCH   6   7
ENDBRANCH   5   6
ENDBRANCH   4   5
ENDBRANCH   3   4
ENDBRANCH   2   3
ENDBRANCH   1   2
BRANCH   1  33
ATOM     33  C   UNL A   1      35.146  34.240  34.084  1.00  0.00     0.188 C 
BRANCH  33  34
ATOM     34  O   UNL A   1      36.414  34.772  33.711  1.00  0.00    -0.376 OA
BRANCH  34  35
ATOM     35  C   UNL A   1      37.480  33.833  33.755  1.00  0.00     0.202 C 
BRANCH  35  36
ATOM     36  C   UNL A   1      37.124  32.358  34.046  1.00  0.00     0.261 C 
BRANCH  36  37
ATOM     37  O   UNL A   1      37.258  31.421  32.966  1.00  0.00    -0.460 OA
BRANCH  37  38
ATOM     38  C   UNL A   1      38.186  30.453  33.119  1.00  0.00     0.338 C 
ATOM     39  O   UNL A   1      38.065  29.420  33.766  1.00  0.00    -0.246 OA
BRANCH  38  40
ATOM     40  C   UNL A   1      39.384  30.785  32.328  1.00  0.00     0.060 A 
ATOM     41  C   UNL A   1      40.512  31.311  32.966  1.00  0.00     0.016 A 
ATOM     42  C   UNL A   1      39.349  30.670  30.936  1.00  0.00     0.016 A 
ATOM     43  C   UNL A   1      41.614  31.726  32.211  1.00  0.00     0.010 A 
ATOM     44  C   UNL A   1      40.441  31.110  30.181  1.00  0.00     0.010 A 
ATOM     45  C   UNL A   1      41.571  31.656  30.812  1.00  0.00    -0.014 A 
BRANCH  45  46
ATOM     46  C   UNL A   1      42.652  32.251  29.987  1.00  0.00     0.031 A 
ATOM     47  C   UNL A   1      43.847  31.414  29.627  1.00  0.00     0.074 A 
ATOM     48  C   UNL A   1      42.596  33.545  29.622  1.00  0.00     0.049 A 
ATOM     49  N   UNL A   1      44.939  31.759  28.998  1.00  0.00    -0.248 NA
ATOM     50  C   UNL A   1      43.805  29.999  30.030  1.00  0.00     0.031 C 
ATOM     51  C   UNL A   1      41.487  34.453  29.907  1.00  0.00     0.029 A 
ATOM     52  N   UNL A   1      43.518  34.328  28.971  1.00  0.00    -0.354 N 
ATOM     53  C   UNL A   1      45.724  30.614  28.945  1.00  0.00     0.074 A 
ATOM     54  C   UNL A   1      44.982  29.562  29.607  1.00  0.00     0.031 C 
ATOM     55  C   UNL A   1      41.814  35.685  29.478  1.00  0.00     0.029 A 
ATOM     56  C   UNL A   1      43.162  35.654  28.912  1.00  0.00     0.049 A 
ATOM     57  H   UNL A   1      44.350  33.973  28.584  1.00  0.00     0.167 HD
ATOM     58  C   UNL A   1      46.949  30.451  28.390  1.00  0.00     0.034 A 
ATOM     59  C   UNL A   1      43.860  36.726  28.484  1.00  0.00     0.034 A 
ATOM     60  C   UNL A   1      47.687  31.498  27.739  1.00  0.00     0.049 A 
ATOM     61  C   UNL A   1      45.247  36.529  27.927  1.00  0.00     0.074 A 
ATOM     62  C   UNL A   1      48.911  31.419  27.100  1.00  0.00     0.029 A 
ATOM     63  N   UNL A   1      47.283  32.822  27.667  1.00  0.00    -0.354 N 
ATOM     64  N   UNL A   1      45.917  35.415  27.751  1.00  0.00    -0.248 NA
ATOM     65  C   UNL A   1      45.969  37.735  27.490  1.00  0.00     0.031 C 
ATOM     66  C   UNL A   1      49.262  32.703  26.666  1.00  0.00     0.029 A 
ATOM     67  C   UNL A   1      48.246  33.576  27.019  1.00  0.00     0.049 A 
ATOM     68  H   UNL A   1      46.437  33.175  28.025  1.00  0.00     0.167 HD
ATOM     69  C   UNL A   1      47.123  35.782  27.160  1.00  0.00     0.074 A 
ATOM     70  C   UNL A   1      47.084  37.219  26.988  1.00  0.00     0.031 C 
ATOM     71  C   UNL A   1      48.175  35.001  26.808  1.00  0.00     0.034 A 
BRANCH  58  72
ATOM     72  C   UNL A   1      47.560  29.077  28.440  1.00  0.00     0.023 A 
ATOM     73  C   UNL A   1      48.315  28.697  29.568  1.00  0.00     0.012 A 
ATOM     74  C   UNL A   1      47.344  28.147  27.405  1.00  0.00     0.148 A 
ATOM     75  C   UNL A   1      48.866  27.418  29.655  1.00  0.00     0.002 A 
ATOM     76  C   UNL A   1      47.867  26.863  27.514  1.00  0.00     0.091 A 
ATOM     77  F   UNL A   1      46.643  28.536  26.331  1.00  0.00    -0.205 F 
ATOM     78  C   UNL A   1      48.634  26.501  28.634  1.00  0.00     0.022 A 
BRANCH  76  79
ATOM     79  S   UNL A   1      47.568  25.589  26.284  1.00  0.00     0.127 S 
ATOM     80  O   UNL A   1      47.847  24.373  27.047  1.00  0.00    -0.237 OA
ATOM     81  O   UNL A   1      46.157  25.795  25.960  1.00  0.00    -0.237 OA
ATOM     82  O   UNL A   1      48.488  25.867  25.189  1.00  0.00    -0.744 OA
ENDBRANCH  76  79
ENDBRANCH  58  72
BRANCH  59  83
ATOM     83  C   UNL A   1      43.248  38.084  28.546  1.00  0.00     0.023 A 
ATOM     84  C   UNL A   1      42.437  38.526  27.483  1.00  0.00     0.012 A 
ATOM     85  C   UNL A   1      43.447  38.930  29.656  1.00  0.00     0.148 A 
ATOM     86  C   UNL A   1      41.856  39.794  27.512  1.00  0.00     0.002 A 
ATOM     87  C   UNL A   1      42.821  40.171  29.703  1.00  0.00     0.091 A 
ATOM     88  F   UNL A   1      44.243  38.503  30.646  1.00  0.00    -0.205 F 
ATOM     89  C   UNL A   1      42.038  40.612  28.625  1.00  0.00     0.022 A 
BRANCH  87  90
ATOM     90  S   UNL A   1      42.907  41.240  31.146  1.00  0.00     0.127 S 
ATOM     91  O   UNL A   1      42.500  40.332  32.215  1.00  0.00    -0.237 OA
ATOM     92  O   UNL A   1      44.320  41.616  31.164  1.00  0.00    -0.237 OA
ATOM     93  O   UNL A   1      41.998  42.345  30.872  1.00  0.00    -0.744 OA
ENDBRANCH  87  90
ENDBRANCH  59  83
BRANCH  71  94
ATOM     94  C   UNL A   1      49.375  35.669  26.188  1.00  0.00     0.023 A 
ATOM     95  C   UNL A   1      49.538  35.640  24.789  1.00  0.00     0.012 A 
ATOM     96  C   UNL A   1      50.279  36.408  26.975  1.00  0.00     0.148 A 
ATOM     97  C   UNL A   1      50.594  36.321  24.184  1.00  0.00     0.002 A 
ATOM     98  C   UNL A   1      51.304  37.121  26.362  1.00  0.00     0.091 A 
ATOM     99  F   UNL A   1      50.114  36.411  28.306  1.00  0.00    -0.205 F 
ATOM    100  C   UNL A   1      51.469  37.071  24.969  1.00  0.00     0.022 A 
BRANCH  98 101
ATOM    101  S   UNL A   1      52.424  38.189  27.277  1.00  0.00     0.127 S 
ATOM    102  O   UNL A   1      51.493  38.971  28.089  1.00  0.00    -0.237 OA
ATOM    103  O   UNL A   1      53.226  37.224  28.030  1.00  0.00    -0.237 OA
ATOM    104  O   UNL A   1      53.166  38.945  26.277  1.00  0.00    -0.744 OA
ENDBRANCH  98 101
ENDBRANCH  71  94
ENDBRANCH  45  46
ENDBRANCH  38  40
ENDBRANCH  37  38
ENDBRANCH  36  37
ENDBRANCH  35  36
ENDBRANCH  34  35
ENDBRANCH  33  34
ENDBRANCH   1  33
TORSDOF 25
ENDMDL
MODEL 2
REMARK VINA RESULT:     -10.0      6.347      9.093
REMARK SMILES CC1(C)[C@@]2(C(=O)OCCOCCOCCOCCOC(=O)c3ccc(-c4c5nc(c(-c6cccc(S(=O)(=O)[O-])c6F)c6ccc([nH]6)c(-c6cccc(S(=O)(=O)[O-])c6F)c6nc(c(-c7cccc(S(=O)(=O)[O-])c7F)c7ccc4[nH]7)C=C6)C=C5)cc3)CC[C@]1(C)/C(=N/NC(=O)c1ccc(Cl)cc1)C2
REMARK SMILES IDX 14 1 13 2 12 3 11 4 10 5 9 6 8 7 7 8 5 9 6 10 4 11 1 12 2 13
REMARK SMILES IDX 3 14 87 15 85 16 101 17 86 18 88 19 89 20 90 21 91 22 92 23
REMARK SMILES IDX 93 25 94 26 95 27 100 28 96 29 99 30 97 31 98 32 15 33 16 34
REMARK SMILES IDX 17 35 18 36 19 37 20 38 21 39 22 40 23 41 84 42 24 43 83 44
REMARK SMILES IDX 25 45 26 46 27 47 77 48 28 49 82 50 76 51 78 52 29 53 81 54
REMARK SMILES IDX 75 55 74 56 30 58 62 59 42 60 61 61 43 62 46 63 60 64 79 65
REMARK SMILES IDX 44 66 45 67 59 69 80 70 47 71 31 72 32 73 40 74 33 75 35 76
REMARK SMILES IDX 41 77 34 78 36 79 37 80 38 81 39 82 63 83 64 84 72 85 65 86
REMARK SMILES IDX 67 87 73 88 66 89 68 90 69 91 70 92 71 93 48 94 49 95 57 96
REMARK SMILES IDX 50 97 52 98 58 99 51 100 53 101 54 102 55 103 56 104
REMARK H PARENT 91 24 78 57 46 68
REMARK Flexibility Score: inf
ROOT
ATOM      1  C   UNL A   1      34.366  35.416  33.254  1.00  0.00     0.188 C 
ENDROOT
BRANCH   1   2
ATOM      2  O   UNL A   1      33.827  34.726  32.128  1.00  0.00    -0.377 OA
BRANCH   2   3
ATOM      3  C   UNL A   1      34.668  34.655  30.972  1.00  0.00     0.188 C 
BRANCH   3   4
ATOM      4  C   UNL A   1      34.000  34.203  29.662  1.00  0.00     0.188 C 
BRANCH   4   5
ATOM      5  O   UNL A   1      34.604  33.101  28.980  1.00  0.00    -0.376 OA
BRANCH   5   6
ATOM      6  C   UNL A   1      33.761  32.286  28.169  1.00  0.00     0.202 C 
BRANCH   6   7
ATOM      7  C   UNL A   1      34.470  31.085  27.553  1.00  0.00     0.261 C 
BRANCH   7   8
ATOM      8  O   UNL A   1      33.628  30.392  26.616  1.00  0.00    -0.463 OA
BRANCH   8   9
ATOM      9  C   UNL A   1      33.838  29.055  26.488  1.00  0.00     0.313 C 
ATOM     10  O   UNL A   1      34.847  28.459  26.835  1.00  0.00    -0.252 OA
BRANCH   9  11
ATOM     11  C   UNL A   1      32.668  28.410  25.781  1.00  0.00     0.079 C 
ATOM     12  C   UNL A   1      33.450  28.951  23.351  1.00  0.00     0.013 C 
ATOM     13  C   UNL A   1      32.895  27.895  24.331  1.00  0.00    -0.008 C 
ATOM     14  C   UNL A   1      33.809  26.653  24.204  1.00  0.00     0.013 C 
ATOM     15  C   UNL A   1      31.376  27.576  24.153  1.00  0.00     0.014 C 
ATOM     16  C   UNL A   1      31.527  29.465  25.615  1.00  0.00     0.021 C 
ATOM     17  C   UNL A   1      32.071  27.168  26.498  1.00  0.00     0.073 C 
ATOM     18  C   UNL A   1      30.685  28.916  24.452  1.00  0.00     0.014 C 
ATOM     19  C   UNL A   1      30.968  26.923  22.849  1.00  0.00     0.018 C 
ATOM     20  C   UNL A   1      31.099  26.740  25.429  1.00  0.00     0.046 C 
ATOM     21  N   UNL A   1      30.167  25.847  25.398  1.00  0.00    -0.181 NA
BRANCH  21  22
ATOM     22  N   UNL A   1      29.818  24.955  26.352  1.00  0.00    -0.243 N 
ATOM     23  C   UNL A   1      30.225  23.716  26.785  1.00  0.00     0.271 C 
ATOM     24  H   UNL A   1      29.060  25.286  26.886  1.00  0.00     0.194 HD
ATOM     25  O   UNL A   1      29.507  23.116  27.590  1.00  0.00    -0.267 OA
BRANCH  23  26
ATOM     26  C   UNL A   1      31.476  23.067  26.373  1.00  0.00     0.041 A 
ATOM     27  C   UNL A   1      31.371  21.822  25.736  1.00  0.00     0.015 A 
ATOM     28  C   UNL A   1      32.734  23.630  26.619  1.00  0.00     0.015 A 
ATOM     29  C   UNL A   1      32.513  21.188  25.248  1.00  0.00     0.021 A 
ATOM     30  C   UNL A   1      33.879  22.987  26.130  1.00  0.00     0.021 A 
ATOM     31  C   UNL A   1      33.759  21.787  25.422  1.00  0.00     0.041 A 
ATOM     32  Cl  UNL A   1      35.145  21.066  24.701  1.00  0.00    -0.084 Cl
ENDBRANCH  23  26
ENDBRANCH  21  22
ENDBRANCH   9  11
ENDBRANCH   8   9
ENDBRANCH   7   8
ENDBRANCH   6   7
ENDBRANCH   5   6
ENDBRANCH   4   5
ENDBRANCH   3   4
ENDBRANCH   2   3
ENDBRANCH   1   2
BRANCH   1  33
ATOM     33  C   UNL A   1      35.163  34.546  34.230  1.00  0.00     0.188 C 
BRANCH  33  34
ATOM     34  O   UNL A   1      36.565  34.667  34.010  1.00  0.00    -0.376 OA
BRANCH  34  35
ATOM     35  C   UNL A   1      37.267  33.432  34.006  1.00  0.00     0.202 C 
BRANCH  35  36
ATOM     36  C   UNL A   1      36.703  32.290  33.131  1.00  0.00     0.261 C 
BRANCH  36  37
ATOM     37  O   UNL A   1      37.627  31.587  32.288  1.00  0.00    -0.460 OA
BRANCH  37  38
ATOM     38  C   UNL A   1      37.601  30.239  32.356  1.00  0.00     0.338 C 
ATOM     39  O   UNL A   1      36.605  29.527  32.381  1.00  0.00    -0.246 OA
BRANCH  38  40
ATOM     40  C   UNL A   1      38.979  29.715  32.335  1.00  0.00     0.060 A 
ATOM     41  C   UNL A   1      39.201  28.344  32.505  1.00  0.00     0.016 A 
ATOM     42  C   UNL A   1      40.056  30.601  32.249  1.00  0.00     0.016 A 
ATOM     43  C   UNL A   1      40.508  27.853  32.591  1.00  0.00     0.010 A 
ATOM     44  C   UNL A   1      41.361  30.110  32.361  1.00  0.00     0.010 A 
ATOM     45  C   UNL A   1      41.593  28.738  32.551  1.00  0.00    -0.014 A 
BRANCH  45  46
ATOM     46  C   UNL A   1      42.974  28.261  32.815  1.00  0.00     0.031 A 
ATOM     47  C   UNL A   1      43.834  27.824  31.663  1.00  0.00     0.074 A 
ATOM     48  C   UNL A   1      43.428  28.156  34.077  1.00  0.00     0.049 A 
ATOM     49  N   UNL A   1      45.028  27.291  31.677  1.00  0.00    -0.248 NA
ATOM     50  C   UNL A   1      43.274  28.012  30.314  1.00  0.00     0.031 C 
ATOM     51  C   UNL A   1      42.689  28.554  35.273  1.00  0.00     0.029 A 
ATOM     52  N   UNL A   1      44.605  27.641  34.561  1.00  0.00    -0.354 N 
ATOM     53  C   UNL A   1      45.356  27.062  30.347  1.00  0.00     0.074 A 
ATOM     54  C   UNL A   1      44.235  27.514  29.550  1.00  0.00     0.031 C 
ATOM     55  C   UNL A   1      43.409  28.221  36.359  1.00  0.00     0.029 A 
ATOM     56  C   UNL A   1      44.645  27.566  35.933  1.00  0.00     0.049 A 
ATOM     57  H   UNL A   1      45.347  27.353  33.982  1.00  0.00     0.167 HD
ATOM     58  C   UNL A   1      46.491  26.530  29.834  1.00  0.00     0.034 A 
ATOM     59  C   UNL A   1      45.557  27.001  36.750  1.00  0.00     0.034 A 
ATOM     60  C   UNL A   1      47.601  26.076  30.626  1.00  0.00     0.049 A 
ATOM     61  C   UNL A   1      46.784  26.358  36.154  1.00  0.00     0.074 A 
ATOM     62  C   UNL A   1      48.815  25.571  30.197  1.00  0.00     0.029 A 
ATOM     63  N   UNL A   1      47.622  26.045  32.012  1.00  0.00    -0.354 N 
ATOM     64  N   UNL A   1      47.148  26.279  34.896  1.00  0.00    -0.248 NA
ATOM     65  C   UNL A   1      47.737  25.742  37.090  1.00  0.00     0.031 C 
ATOM     66  C   UNL A   1      49.560  25.208  31.325  1.00  0.00     0.029 A 
ATOM     67  C   UNL A   1      48.816  25.505  32.455  1.00  0.00     0.049 A 
ATOM     68  H   UNL A   1      46.894  26.360  32.595  1.00  0.00     0.167 HD
ATOM     69  C   UNL A   1      48.381  25.633  34.892  1.00  0.00     0.074 A 
ATOM     70  C   UNL A   1      48.712  25.359  36.274  1.00  0.00     0.031 C 
ATOM     71  C   UNL A   1      49.158  25.282  33.838  1.00  0.00     0.034 A 
BRANCH  58  72
ATOM     72  C   UNL A   1      46.602  26.433  28.336  1.00  0.00     0.023 A 
ATOM     73  C   UNL A   1      47.241  27.466  27.622  1.00  0.00     0.012 A 
ATOM     74  C   UNL A   1      46.129  25.302  27.643  1.00  0.00     0.148 A 
ATOM     75  C   UNL A   1      47.388  27.387  26.238  1.00  0.00     0.002 A 
ATOM     76  C   UNL A   1      46.310  25.213  26.268  1.00  0.00     0.091 A 
ATOM     77  F   UNL A   1      45.504  24.341  28.338  1.00  0.00    -0.205 F 
ATOM     78  C   UNL A   1      46.931  26.258  25.563  1.00  0.00     0.022 A 
BRANCH  76  79
ATOM     79  S   UNL A   1      45.816  23.771  25.318  1.00  0.00     0.127 S 
ATOM     80  O   UNL A   1      46.378  22.685  26.118  1.00  0.00    -0.237 OA
ATOM     81  O   UNL A   1      44.356  23.862  25.353  1.00  0.00    -0.237 OA
ATOM     82  O   UNL A   1      46.402  23.944  23.995  1.00  0.00    -0.744 OA
ENDBRANCH  76  79
ENDBRANCH  58  72
BRANCH  59  83
ATOM     83  C   UNL A   1      45.355  27.035  38.227  1.00  0.00     0.023 A 
ATOM     84  C   UNL A   1      44.718  25.951  38.862  1.00  0.00     0.012 A 
ATOM     85  C   UNL A   1      45.806  28.119  39.006  1.00  0.00     0.148 A 
ATOM     86  C   UNL A   1      44.512  25.958  40.242  1.00  0.00     0.002 A 
ATOM     87  C   UNL A   1      45.645  28.095  40.387  1.00  0.00     0.091 A 
ATOM     88  F   UNL A   1      46.387  29.153  38.381  1.00  0.00    -0.205 F 
ATOM     89  C   UNL A   1      44.984  27.023  41.005  1.00  0.00     0.022 A 
BRANCH  87  90
ATOM     90  S   UNL A   1      46.325  29.368  41.459  1.00  0.00     0.127 S 
ATOM     91  O   UNL A   1      45.422  30.487  41.205  1.00  0.00    -0.237 OA
ATOM     92  O   UNL A   1      46.189  28.758  42.782  1.00  0.00    -0.237 OA
ATOM     93  O   UNL A   1      47.703  29.553  41.026  1.00  0.00    -0.744 OA
ENDBRANCH  87  90
ENDBRANCH  59  83
BRANCH  71  94
ATOM     94  C   UNL A   1      50.457  24.572  34.123  1.00  0.00     0.023 A 
ATOM     95  C   UNL A   1      51.617  25.328  34.384  1.00  0.00     0.012 A 
ATOM     96  C   UNL A   1      50.505  23.169  34.235  1.00  0.00     0.148 A 
ATOM     97  C   UNL A   1      52.811  24.697  34.732  1.00  0.00     0.002 A 
ATOM     98  C   UNL A   1      51.687  22.549  34.626  1.00  0.00     0.091 A 
ATOM     99  F   UNL A   1      49.393  22.467  33.970  1.00  0.00    -0.205 F 
ATOM    100  C   UNL A   1      52.843  23.310  34.866  1.00  0.00     0.022 A 
BRANCH  98 101
ATOM    101  S   UNL A   1      51.803  20.778  34.915  1.00  0.00     0.127 S 
ATOM    102  O   UNL A   1      50.776  20.575  35.936  1.00  0.00    -0.237 OA
ATOM    103  O   UNL A   1      51.474  20.228  33.600  1.00  0.00    -0.237 OA
ATOM    104  O   UNL A   1      53.171  20.531  35.350  1.00  0.00    -0.744 OA
ENDBRANCH  98 101
ENDBRANCH  71  94
ENDBRANCH  45  46
ENDBRANCH  38  40
ENDBRANCH  37  38
ENDBRANCH  36  37
ENDBRANCH  35  36
ENDBRANCH  34  35
ENDBRANCH  33  34
ENDBRANCH   1  33
TORSDOF 25
ENDMDL
MODEL 3
REMARK VINA RESULT:      -9.1      6.325     10.055
REMARK SMILES CC1(C)[C@@]2(C(=O)OCCOCCOCCOCCOC(=O)c3ccc(-c4c5nc(c(-c6cccc(S(=O)(=O)[O-])c6F)c6ccc([nH]6)c(-c6cccc(S(=O)(=O)[O-])c6F)c6nc(c(-c7cccc(S(=O)(=O)[O-])c7F)c7ccc4[nH]7)C=C6)C=C5)cc3)CC[C@]1(C)/C(=N/NC(=O)c1ccc(Cl)cc1)C2
REMARK SMILES IDX 14 1 13 2 12 3 11 4 10 5 9 6 8 7 7 8 5 9 6 10 4 11 1 12 2 13
REMARK SMILES IDX 3 14 87 15 85 16 101 17 86 18 88 19 89 20 90 21 91 22 92 23
REMARK SMILES IDX 93 25 94 26 95 27 100 28 96 29 99 30 97 31 98 32 15 33 16 34
REMARK SMILES IDX 17 35 18 36 19 37 20 38 21 39 22 40 23 41 84 42 24 43 83 44
REMARK SMILES IDX 25 45 26 46 27 47 77 48 28 49 82 50 76 51 78 52 29 53 81 54
REMARK SMILES IDX 75 55 74 56 30 58 62 59 42 60 61 61 43 62 46 63 60 64 79 65
REMARK SMILES IDX 44 66 45 67 59 69 80 70 47 71 31 72 32 73 40 74 33 75 35 76
REMARK SMILES IDX 41 77 34 78 36 79 37 80 38 81 39 82 63 83 64 84 72 85 65 86
REMARK SMILES IDX 67 87 73 88 66 89 68 90 69 91 70 92 71 93 48 94 49 95 57 96
REMARK SMILES IDX 50 97 52 98 58 99 51 100 53 101 54 102 55 103 56 104
REMARK H PARENT 91 24 78 57 46 68
REMARK Flexibility Score: inf
ROOT
ATOM      1  C   UNL A   1      34.318  34.524  32.246  1.00  0.00     0.188 C 
ENDROOT
BRANCH   1   2
ATOM      2  O   UNL A   1      33.901  33.711  31.152  1.00  0.00    -0.377 OA
BRANCH   2   3
ATOM      3  C   UNL A   1      34.240  34.190  29.845  1.00  0.00     0.188 C 
BRANCH   3   4
ATOM      4  C   UNL A   1      34.126  33.180  28.691  1.00  0.00     0.188 C 
BRANCH   4   5
ATOM      5  O   UNL A   1      34.362  31.808  29.014  1.00  0.00    -0.376 OA
BRANCH   5   6
ATOM      6  C   UNL A   1      34.702  30.929  27.944  1.00  0.00     0.202 C 
BRANCH   6   7
ATOM      7  C   UNL A   1      33.548  30.645  26.988  1.00  0.00     0.261 C 
BRANCH   7   8
ATOM      8  O   UNL A   1      33.304  29.236  26.850  1.00  0.00    -0.463 OA
BRANCH   8   9
ATOM      9  C   UNL A   1      33.769  28.648  25.716  1.00  0.00     0.313 C 
ATOM     10  O   UNL A   1      34.911  28.741  25.287  1.00  0.00    -0.252 OA
BRANCH   9  11
ATOM     11  C   UNL A   1      32.650  27.916  25.011  1.00  0.00     0.079 C 
ATOM     12  C   UNL A   1      30.955  29.899  25.001  1.00  0.00     0.013 C 
ATOM     13  C   UNL A   1      31.630  28.766  24.201  1.00  0.00    -0.008 C 
ATOM     14  C   UNL A   1      32.183  29.409  22.907  1.00  0.00     0.013 C 
ATOM     15  C   UNL A   1      30.723  27.520  23.943  1.00  0.00     0.014 C 
ATOM     16  C   UNL A   1      31.758  27.201  26.077  1.00  0.00     0.021 C 
ATOM     17  C   UNL A   1      33.110  26.851  23.978  1.00  0.00     0.073 C 
ATOM     18  C   UNL A   1      30.418  26.993  25.354  1.00  0.00     0.014 C 
ATOM     19  C   UNL A   1      29.508  27.736  23.064  1.00  0.00     0.018 C 
ATOM     20  C   UNL A   1      31.762  26.506  23.401  1.00  0.00     0.046 C 
ATOM     21  N   UNL A   1      31.369  25.593  22.576  1.00  0.00    -0.181 NA
BRANCH  21  22
ATOM     22  N   UNL A   1      32.109  24.672  21.919  1.00  0.00    -0.243 N 
ATOM     23  C   UNL A   1      32.960  23.639  22.230  1.00  0.00     0.271 C 
ATOM     24  H   UNL A   1      32.010  24.768  20.944  1.00  0.00     0.194 HD
ATOM     25  O   UNL A   1      33.619  23.133  21.317  1.00  0.00    -0.267 OA
BRANCH  23  26
ATOM     26  C   UNL A   1      33.118  23.077  23.577  1.00  0.00     0.041 A 
ATOM     27  C   UNL A   1      34.417  23.041  24.107  1.00  0.00     0.015 A 
ATOM     28  C   UNL A   1      32.042  22.565  24.312  1.00  0.00     0.015 A 
ATOM     29  C   UNL A   1      34.628  22.593  25.410  1.00  0.00     0.021 A 
ATOM     30  C   UNL A   1      32.260  22.113  25.621  1.00  0.00     0.021 A 
ATOM     31  C   UNL A   1      33.545  22.158  26.172  1.00  0.00     0.041 A 
ATOM     32  Cl  UNL A   1      33.794  21.736  27.821  1.00  0.00    -0.084 Cl
ENDBRANCH  23  26
ENDBRANCH  21  22
ENDBRANCH   9  11
ENDBRANCH   8   9
ENDBRANCH   7   8
ENDBRANCH   6   7
ENDBRANCH   5   6
ENDBRANCH   4   5
ENDBRANCH   3   4
ENDBRANCH   2   3
ENDBRANCH   1   2
BRANCH   1  33
ATOM     33  C   UNL A   1      35.700  34.194  32.814  1.00  0.00     0.188 C 
BRANCH  33  34
ATOM     34  O   UNL A   1      36.739  34.611  31.933  1.00  0.00    -0.376 OA
BRANCH  34  35
ATOM     35  C   UNL A   1      37.612  33.568  31.520  1.00  0.00     0.202 C 
BRANCH  35  36
ATOM     36  C   UNL A   1      36.977  32.218  31.120  1.00  0.00     0.261 C 
BRANCH  36  37
ATOM     37  O   UNL A   1      37.857  31.095  30.963  1.00  0.00    -0.460 OA
BRANCH  37  38
ATOM     38  C   UNL A   1      37.665  30.055  31.803  1.00  0.00     0.338 C 
ATOM     39  O   UNL A   1      36.588  29.600  32.169  1.00  0.00    -0.246 OA
BRANCH  38  40
ATOM     40  C   UNL A   1      38.966  29.481  32.187  1.00  0.00     0.060 A 
ATOM     41  C   UNL A   1      40.123  30.262  32.091  1.00  0.00     0.016 A 
ATOM     42  C   UNL A   1      39.050  28.134  32.546  1.00  0.00     0.016 A 
ATOM     43  C   UNL A   1      41.374  29.694  32.353  1.00  0.00     0.010 A 
ATOM     44  C   UNL A   1      40.304  27.561  32.783  1.00  0.00     0.010 A 
ATOM     45  C   UNL A   1      41.473  28.332  32.670  1.00  0.00    -0.014 A 
BRANCH  45  46
ATOM     46  C   UNL A   1      42.797  27.671  32.780  1.00  0.00     0.031 A 
ATOM     47  C   UNL A   1      43.416  27.485  34.137  1.00  0.00     0.074 A 
ATOM     48  C   UNL A   1      43.468  27.304  31.673  1.00  0.00     0.049 A 
ATOM     49  N   UNL A   1      44.596  27.018  34.451  1.00  0.00    -0.248 NA
ATOM     50  C   UNL A   1      42.595  27.876  35.294  1.00  0.00     0.031 C 
ATOM     51  C   UNL A   1      42.969  27.428  30.306  1.00  0.00     0.029 A 
ATOM     52  N   UNL A   1      44.734  26.791  31.527  1.00  0.00    -0.354 N 
ATOM     53  C   UNL A   1      44.670  27.077  35.837  1.00  0.00     0.074 A 
ATOM     54  C   UNL A   1      43.414  27.625  36.305  1.00  0.00     0.031 C 
ATOM     55  C   UNL A   1      43.938  27.051  29.454  1.00  0.00     0.029 A 
ATOM     56  C   UNL A   1      45.131  26.684  30.215  1.00  0.00     0.049 A 
ATOM     57  H   UNL A   1      45.301  26.527  32.287  1.00  0.00     0.167 HD
ATOM     58  C   UNL A   1      45.688  26.703  36.648  1.00  0.00     0.034 A 
ATOM     59  C   UNL A   1      46.331  26.360  29.691  1.00  0.00     0.034 A 
ATOM     60  C   UNL A   1      46.937  26.164  36.182  1.00  0.00     0.049 A 
ATOM     61  C   UNL A   1      47.469  26.007  30.615  1.00  0.00     0.074 A 
ATOM     62  C   UNL A   1      48.009  25.707  36.927  1.00  0.00     0.029 A 
ATOM     63  N   UNL A   1      47.293  26.037  34.848  1.00  0.00    -0.354 N 
ATOM     64  N   UNL A   1      47.478  25.928  31.924  1.00  0.00    -0.248 NA
ATOM     65  C   UNL A   1      48.760  25.679  29.989  1.00  0.00     0.031 C 
ATOM     66  C   UNL A   1      49.026  25.329  36.043  1.00  0.00     0.029 A 
ATOM     67  C   UNL A   1      48.578  25.534  34.748  1.00  0.00     0.049 A 
ATOM     68  H   UNL A   1      46.718  26.271  34.085  1.00  0.00     0.167 HD
ATOM     69  C   UNL A   1      48.760  25.516  32.276  1.00  0.00     0.074 A 
ATOM     70  C   UNL A   1      49.495  25.342  31.041  1.00  0.00     0.031 C 
ATOM     71  C   UNL A   1      49.285  25.317  33.510  1.00  0.00     0.034 A 
BRANCH  58  72
ATOM     72  C   UNL A   1      45.484  26.837  38.133  1.00  0.00     0.023 A 
ATOM     73  C   UNL A   1      44.985  25.740  38.864  1.00  0.00     0.012 A 
ATOM     74  C   UNL A   1      45.836  28.020  38.811  1.00  0.00     0.148 A 
ATOM     75  C   UNL A   1      44.818  25.826  40.246  1.00  0.00     0.002 A 
ATOM     76  C   UNL A   1      45.699  28.086  40.193  1.00  0.00     0.091 A 
ATOM     77  F   UNL A   1      46.287  29.059  38.094  1.00  0.00    -0.205 F 
ATOM     78  C   UNL A   1      45.183  26.994  40.910  1.00  0.00     0.022 A 
BRANCH  76  79
ATOM     79  S   UNL A   1      46.204  29.522  41.147  1.00  0.00     0.127 S 
ATOM     80  O   UNL A   1      46.132  29.007  42.514  1.00  0.00    -0.237 OA
ATOM     81  O   UNL A   1      47.561  29.760  40.656  1.00  0.00    -0.237 OA
ATOM     82  O   UNL A   1      45.249  30.573  40.823  1.00  0.00    -0.744 OA
ENDBRANCH  76  79
ENDBRANCH  58  72
BRANCH  59  83
ATOM     83  C   UNL A   1      46.513  26.336  28.211  1.00  0.00     0.023 A 
ATOM     84  C   UNL A   1      47.083  27.451  27.567  1.00  0.00     0.012 A 
ATOM     85  C   UNL A   1      46.147  25.212  27.444  1.00  0.00     0.148 A 
ATOM     86  C   UNL A   1      47.261  27.458  26.184  1.00  0.00     0.002 A 
ATOM     87  C   UNL A   1      46.377  25.204  26.072  1.00  0.00     0.091 A 
ATOM     88  F   UNL A   1      45.583  24.170  28.070  1.00  0.00    -0.205 F 
ATOM     89  C   UNL A   1      46.919  26.332  25.438  1.00  0.00     0.022 A 
BRANCH  87  90
ATOM     90  S   UNL A   1      46.075  23.755  25.052  1.00  0.00     0.127 S 
ATOM     91  O   UNL A   1      46.541  22.676  25.919  1.00  0.00    -0.237 OA
ATOM     92  O   UNL A   1      44.624  23.809  24.866  1.00  0.00    -0.237 OA
ATOM     93  O   UNL A   1      46.842  23.966  23.832  1.00  0.00    -0.744 OA
ENDBRANCH  87  90
ENDBRANCH  59  83
BRANCH  71  94
ATOM     94  C   UNL A   1      50.723  24.875  33.603  1.00  0.00     0.023 A 
ATOM     95  C   UNL A   1      51.713  25.810  33.963  1.00  0.00     0.012 A 
ATOM     96  C   UNL A   1      51.077  23.522  33.437  1.00  0.00     0.148 A 
ATOM     97  C   UNL A   1      53.037  25.410  34.137  1.00  0.00     0.002 A 
ATOM     98  C   UNL A   1      52.391  23.121  33.656  1.00  0.00     0.091 A 
ATOM     99  F   UNL A   1      50.122  22.650  33.082  1.00  0.00    -0.205 F 
ATOM    100  C   UNL A   1      53.374  24.064  33.996  1.00  0.00     0.022 A 
BRANCH  98 101
ATOM    101  S   UNL A   1      52.902  21.399  33.589  1.00  0.00     0.127 S 
ATOM    102  O   UNL A   1      52.693  21.081  32.177  1.00  0.00    -0.237 OA
ATOM    103  O   UNL A   1      54.306  21.477  33.996  1.00  0.00    -0.237 OA
ATOM    104  O   UNL A   1      52.040  20.687  34.523  1.00  0.00    -0.744 OA
ENDBRANCH  98 101
ENDBRANCH  71  94
ENDBRANCH  45  46
ENDBRANCH  38  40
ENDBRANCH  37  38
ENDBRANCH  36  37
ENDBRANCH  35  36
ENDBRANCH  34  35
ENDBRANCH  33  34
ENDBRANCH   1  33
TORSDOF 25
ENDMDL
