MODEL 1
REMARK VINA RESULT:      -9.5      0.000      0.000
REMARK SMILES O=C(OCCOCCOCCOCCOC(=O)c1ccc(-n2cc(CSc3nc4ccccc4c(=O)n3-c3ccc(Br)cc3)nn2)cc1)c1ccc(-c2c3nc(c(-c4cccc(S(=O)(=O)[O-])c4F)c4ccc([nH]4)c(-c4cccc(S(=O)(=O)[O-])c4F)c4nc(c(-c5cccc(S(=O)(=O)[O-])c5F)c5ccc2[nH]5)C=C4)C=C3)cc1
REMARK SMILES IDX 10 1 9 2 8 3 7 4 6 5 5 6 4 7 3 8 2 9 1 10 49 11 50 12 111 13
REMARK SMILES IDX 51 14 110 15 52 16 53 17 54 18 104 19 55 20 109 21 103 22
REMARK SMILES IDX 105 23 56 24 108 25 102 26 101 27 57 29 89 30 69 31 88 32
REMARK SMILES IDX 70 33 73 34 87 35 106 36 71 37 72 38 86 40 107 41 74 42
REMARK SMILES IDX 58 43 59 44 67 45 60 46 62 47 68 48 61 49 63 50 64 51 65 52
REMARK SMILES IDX 66 53 90 54 91 55 99 56 92 57 94 58 100 59 93 60 95 61 96 62
REMARK SMILES IDX 97 63 98 64 75 65 76 66 84 67 77 68 79 69 85 70 78 71 80 72
REMARK SMILES IDX 81 73 82 74 83 75 11 76 12 77 13 78 14 79 15 80 16 81 17 82
REMARK SMILES IDX 18 83 19 84 48 85 20 86 47 87 21 88 22 89 23 90 46 91 24 92
REMARK SMILES IDX 45 93 25 94 26 95 27 96 28 97 37 98 29 99 35 100 30 101
REMARK SMILES IDX 34 102 36 103 31 104 33 105 32 106 38 107 39 108 44 109
REMARK SMILES IDX 40 110 43 111 41 112 42 113
REMARK H PARENT 105 28 73 39
REMARK Flexibility Score: inf
ROOT
ATOM      1  C   UNL A   1      31.780  28.629  26.187  1.00  0.00     0.188 C 
ENDROOT
BRANCH   1   2
ATOM      2  O   UNL A   1      31.744  29.562  27.241  1.00  0.00    -0.377 OA
BRANCH   2   3
ATOM      3  C   UNL A   1      32.474  30.749  26.978  1.00  0.00     0.188 C 
BRANCH   3   4
ATOM      4  C   UNL A   1      33.923  30.828  27.496  1.00  0.00     0.188 C 
BRANCH   4   5
ATOM      5  O   UNL A   1      34.364  31.662  28.555  1.00  0.00    -0.376 OA
BRANCH   5   6
ATOM      6  C   UNL A   1      34.615  33.050  28.593  1.00  0.00     0.202 C 
BRANCH   6   7
ATOM      7  C   UNL A   1      34.465  33.974  29.798  1.00  0.00     0.261 C 
BRANCH   7   8
ATOM      8  O   UNL A   1      33.910  33.399  30.966  1.00  0.00    -0.460 OA
BRANCH   8   9
ATOM      9  C   UNL A   1      34.553  32.929  32.053  1.00  0.00     0.338 C 
ATOM     10  O   UNL A   1      33.983  33.027  33.139  1.00  0.00    -0.246 OA
BRANCH   9  11
ATOM     11  C   UNL A   1      35.945  32.402  32.039  1.00  0.00     0.060 A 
ATOM     12  C   UNL A   1      36.378  31.172  32.539  1.00  0.00     0.016 A 
ATOM     13  C   UNL A   1      36.897  33.283  31.488  1.00  0.00     0.016 A 
ATOM     14  C   UNL A   1      37.727  30.929  32.697  1.00  0.00     0.010 A 
ATOM     15  C   UNL A   1      38.249  33.027  31.604  1.00  0.00     0.010 A 
ATOM     16  C   UNL A   1      38.643  31.901  32.309  1.00  0.00    -0.014 A 
BRANCH  16  17
ATOM     17  C   UNL A   1      40.017  31.700  32.714  1.00  0.00     0.031 A 
ATOM     18  C   UNL A   1      40.476  32.603  33.796  1.00  0.00     0.074 A 
ATOM     19  C   UNL A   1      40.779  30.771  32.106  1.00  0.00     0.049 A 
ATOM     20  N   UNL A   1      41.344  33.558  33.712  1.00  0.00    -0.248 NA
ATOM     21  C   UNL A   1      39.758  32.554  35.076  1.00  0.00     0.031 C 
ATOM     22  C   UNL A   1      40.351  29.695  31.204  1.00  0.00     0.029 A 
ATOM     23  N   UNL A   1      42.101  30.514  32.278  1.00  0.00    -0.354 N 
ATOM     24  C   UNL A   1      41.454  34.075  35.001  1.00  0.00     0.074 A 
ATOM     25  C   UNL A   1      40.336  33.555  35.741  1.00  0.00     0.031 C 
ATOM     26  C   UNL A   1      41.321  28.756  31.147  1.00  0.00     0.029 A 
ATOM     27  C   UNL A   1      42.479  29.239  31.875  1.00  0.00     0.049 A 
ATOM     28  H   UNL A   1      42.733  31.169  32.653  1.00  0.00     0.167 HD
ATOM     29  C   UNL A   1      42.595  34.690  35.419  1.00  0.00     0.034 A 
ATOM     30  C   UNL A   1      43.626  28.601  32.213  1.00  0.00     0.034 A 
ATOM     31  C   UNL A   1      43.411  35.094  34.305  1.00  0.00     0.049 A 
ATOM     32  C   UNL A   1      44.596  29.639  32.634  1.00  0.00     0.074 A 
ATOM     33  C   UNL A   1      43.249  35.951  33.236  1.00  0.00     0.029 A 
ATOM     34  N   UNL A   1      44.475  34.285  33.990  1.00  0.00    -0.354 N 
ATOM     35  N   UNL A   1      45.081  30.536  31.820  1.00  0.00    -0.248 NA
ATOM     36  C   UNL A   1      44.664  29.971  34.048  1.00  0.00     0.031 C 
ATOM     37  C   UNL A   1      43.903  35.303  32.149  1.00  0.00     0.029 A 
ATOM     38  C   UNL A   1      44.481  34.127  32.632  1.00  0.00     0.049 A 
ATOM     39  H   UNL A   1      45.115  33.892  34.625  1.00  0.00     0.167 HD
ATOM     40  C   UNL A   1      45.087  31.708  32.565  1.00  0.00     0.074 A 
ATOM     41  C   UNL A   1      44.917  31.280  33.952  1.00  0.00     0.031 C 
ATOM     42  C   UNL A   1      44.932  32.925  31.966  1.00  0.00     0.034 A 
BRANCH  29  43
ATOM     43  C   UNL A   1      43.171  34.581  36.812  1.00  0.00     0.023 A 
ATOM     44  C   UNL A   1      43.535  35.786  37.456  1.00  0.00     0.012 A 
ATOM     45  C   UNL A   1      43.648  33.381  37.388  1.00  0.00     0.148 A 
ATOM     46  C   UNL A   1      44.390  35.800  38.563  1.00  0.00     0.002 A 
ATOM     47  C   UNL A   1      44.441  33.394  38.529  1.00  0.00     0.091 A 
ATOM     48  F   UNL A   1      43.453  32.215  36.768  1.00  0.00    -0.205 F 
ATOM     49  C   UNL A   1      44.844  34.602  39.100  1.00  0.00     0.022 A 
BRANCH  47  50
ATOM     50  S   UNL A   1      45.028  31.874  39.286  1.00  0.00     0.127 S 
ATOM     51  O   UNL A   1      45.904  31.349  38.241  1.00  0.00    -0.237 OA
ATOM     52  O   UNL A   1      45.713  32.380  40.474  1.00  0.00    -0.237 OA
ATOM     53  O   UNL A   1      43.834  31.090  39.574  1.00  0.00    -0.744 OA
ENDBRANCH  47  50
ENDBRANCH  29  43
BRANCH  30  54
ATOM     54  C   UNL A   1      43.818  27.164  32.526  1.00  0.00     0.023 A 
ATOM     55  C   UNL A   1      44.774  26.415  31.813  1.00  0.00     0.012 A 
ATOM     56  C   UNL A   1      43.269  26.600  33.700  1.00  0.00     0.148 A 
ATOM     57  C   UNL A   1      45.188  25.157  32.268  1.00  0.00     0.002 A 
ATOM     58  C   UNL A   1      43.676  25.346  34.143  1.00  0.00     0.091 A 
ATOM     59  F   UNL A   1      42.417  27.331  34.431  1.00  0.00    -0.205 F 
ATOM     60  C   UNL A   1      44.645  24.625  33.435  1.00  0.00     0.022 A 
BRANCH  58  61
ATOM     61  S   UNL A   1      43.040  24.611  35.657  1.00  0.00     0.127 S 
ATOM     62  O   UNL A   1      41.661  24.294  35.281  1.00  0.00    -0.237 OA
ATOM     63  O   UNL A   1      43.913  23.451  35.817  1.00  0.00    -0.237 OA
ATOM     64  O   UNL A   1      43.160  25.639  36.682  1.00  0.00    -0.744 OA
ENDBRANCH  58  61
ENDBRANCH  30  54
BRANCH  42  65
ATOM     65  C   UNL A   1      44.990  32.995  30.462  1.00  0.00     0.023 A 
ATOM     66  C   UNL A   1      43.850  32.810  29.651  1.00  0.00     0.012 A 
ATOM     67  C   UNL A   1      46.171  33.481  29.879  1.00  0.00     0.148 A 
ATOM     68  C   UNL A   1      43.894  33.097  28.284  1.00  0.00     0.002 A 
ATOM     69  C   UNL A   1      46.195  33.815  28.532  1.00  0.00     0.091 A 
ATOM     70  F   UNL A   1      47.240  33.655  30.670  1.00  0.00    -0.205 F 
ATOM     71  C   UNL A   1      45.062  33.617  27.728  1.00  0.00     0.022 A 
BRANCH  69  72
ATOM     72  S   UNL A   1      47.615  34.626  27.795  1.00  0.00     0.127 S 
ATOM     73  O   UNL A   1      48.296  35.172  28.966  1.00  0.00    -0.237 OA
ATOM     74  O   UNL A   1      48.308  33.512  27.146  1.00  0.00    -0.237 OA
ATOM     75  O   UNL A   1      47.079  35.614  26.867  1.00  0.00    -0.744 OA
ENDBRANCH  69  72
ENDBRANCH  42  65
ENDBRANCH  16  17
ENDBRANCH   9  11
ENDBRANCH   8   9
ENDBRANCH   7   8
ENDBRANCH   6   7
ENDBRANCH   5   6
ENDBRANCH   4   5
ENDBRANCH   3   4
ENDBRANCH   2   3
ENDBRANCH   1   2
BRANCH   1  76
ATOM     76  C   UNL A   1      32.085  27.188  26.644  1.00  0.00     0.188 C 
BRANCH  76  77
ATOM     77  O   UNL A   1      31.512  26.064  25.995  1.00  0.00    -0.376 OA
BRANCH  77  78
ATOM     78  C   UNL A   1      30.926  26.198  24.710  1.00  0.00     0.202 C 
BRANCH  78  79
ATOM     79  C   UNL A   1      31.758  26.655  23.496  1.00  0.00     0.261 C 
BRANCH  79  80
ATOM     80  O   UNL A   1      33.060  26.069  23.343  1.00  0.00    -0.460 OA
BRANCH  80  81
ATOM     81  C   UNL A   1      33.105  24.738  23.112  1.00  0.00     0.338 C 
ATOM     82  O   UNL A   1      32.396  24.086  22.359  1.00  0.00    -0.246 OA
BRANCH  81  83
ATOM     83  C   UNL A   1      34.310  24.185  23.769  1.00  0.00     0.060 A 
ATOM     84  C   UNL A   1      34.969  23.111  23.151  1.00  0.00     0.018 A 
ATOM     85  C   UNL A   1      34.811  24.735  24.954  1.00  0.00     0.018 A 
ATOM     86  C   UNL A   1      36.131  22.587  23.707  1.00  0.00     0.029 A 
ATOM     87  C   UNL A   1      35.976  24.206  25.523  1.00  0.00     0.029 A 
ATOM     88  C   UNL A   1      36.620  23.126  24.899  1.00  0.00     0.066 A 
BRANCH  88  89
ATOM     89  N   UNL A   1      37.633  22.427  25.581  1.00  0.00    -0.220 N 
ATOM     90  C   UNL A   1      38.451  23.011  26.529  1.00  0.00     0.141 A 
ATOM     91  N   UNL A   1      38.179  21.274  25.159  1.00  0.00    -0.062 NA
ATOM     92  C   UNL A   1      39.576  22.225  26.573  1.00  0.00     0.093 A 
ATOM     93  N   UNL A   1      39.316  21.098  25.818  1.00  0.00    -0.134 NA
BRANCH  92  94
ATOM     94  C   UNL A   1      40.995  22.484  26.927  1.00  0.00     0.138 C 
BRANCH  94  95
ATOM     95  S   UNL A   1      42.138  23.617  26.169  1.00  0.00    -0.081 SA
BRANCH  95  96
ATOM     96  C   UNL A   1      41.889  25.302  26.506  1.00  0.00     0.176 A 
ATOM     97  N   UNL A   1      40.792  25.484  27.183  1.00  0.00    -0.223 NA
ATOM     98  N   UNL A   1      42.692  26.367  26.133  1.00  0.00    -0.255 N 
ATOM     99  C   UNL A   1      40.340  26.789  27.396  1.00  0.00     0.079 A 
ATOM    100  C   UNL A   1      41.968  27.513  25.764  1.00  0.00     0.266 A 
ATOM    101  C   UNL A   1      39.352  27.066  28.338  1.00  0.00     0.029 A 
ATOM    102  C   UNL A   1      40.774  27.808  26.564  1.00  0.00     0.066 A 
ATOM    103  O   UNL A   1      42.225  28.254  24.817  1.00  0.00    -0.268 OA
ATOM    104  C   UNL A   1      38.757  28.333  28.379  1.00  0.00     0.002 A 
ATOM    105  C   UNL A   1      40.149  29.056  26.544  1.00  0.00     0.016 A 
ATOM    106  C   UNL A   1      39.125  29.313  27.453  1.00  0.00     0.001 A 
BRANCH  98 107
ATOM    107  C   UNL A   1      44.138  26.391  25.993  1.00  0.00     0.051 A 
ATOM    108  C   UNL A   1      44.757  27.421  25.252  1.00  0.00     0.028 A 
ATOM    109  C   UNL A   1      45.001  25.437  26.537  1.00  0.00     0.028 A 
ATOM    110  C   UNL A   1      46.097  27.359  24.860  1.00  0.00     0.018 A 
ATOM    111  C   UNL A   1      46.330  25.324  26.099  1.00  0.00     0.018 A 
ATOM    112  C   UNL A   1      46.859  26.264  25.226  1.00  0.00     0.018 A 
ATOM    113  Br  UNL A   1      48.603  26.053  24.539  1.00  0.00    -0.051 Br
ENDBRANCH  98 107
ENDBRANCH  95  96
ENDBRANCH  94  95
ENDBRANCH  92  94
ENDBRANCH  88  89
ENDBRANCH  81  83
ENDBRANCH  80  81
ENDBRANCH  79  80
ENDBRANCH  78  79
ENDBRANCH  77  78
ENDBRANCH  76  77
ENDBRANCH   1  76
TORSDOF 28
ENDMDL
MODEL 2
REMARK VINA RESULT:      -9.3      2.069      5.863
REMARK SMILES O=C(OCCOCCOCCOCCOC(=O)c1ccc(-n2cc(CSc3nc4ccccc4c(=O)n3-c3ccc(Br)cc3)nn2)cc1)c1ccc(-c2c3nc(c(-c4cccc(S(=O)(=O)[O-])c4F)c4ccc([nH]4)c(-c4cccc(S(=O)(=O)[O-])c4F)c4nc(c(-c5cccc(S(=O)(=O)[O-])c5F)c5ccc2[nH]5)C=C4)C=C3)cc1
REMARK SMILES IDX 10 1 9 2 8 3 7 4 6 5 5 6 4 7 3 8 2 9 1 10 49 11 50 12 111 13
REMARK SMILES IDX 51 14 110 15 52 16 53 17 54 18 104 19 55 20 109 21 103 22
REMARK SMILES IDX 105 23 56 24 108 25 102 26 101 27 57 29 89 30 69 31 88 32
REMARK SMILES IDX 70 33 73 34 87 35 106 36 71 37 72 38 86 40 107 41 74 42
REMARK SMILES IDX 58 43 59 44 67 45 60 46 62 47 68 48 61 49 63 50 64 51 65 52
REMARK SMILES IDX 66 53 90 54 91 55 99 56 92 57 94 58 100 59 93 60 95 61 96 62
REMARK SMILES IDX 97 63 98 64 75 65 76 66 84 67 77 68 79 69 85 70 78 71 80 72
REMARK SMILES IDX 81 73 82 74 83 75 11 76 12 77 13 78 14 79 15 80 16 81 17 82
REMARK SMILES IDX 18 83 19 84 48 85 20 86 47 87 21 88 22 89 23 90 46 91 24 92
REMARK SMILES IDX 45 93 25 94 26 95 27 96 28 97 37 98 29 99 35 100 30 101
REMARK SMILES IDX 34 102 36 103 31 104 33 105 32 106 38 107 39 108 44 109
REMARK SMILES IDX 40 110 43 111 41 112 42 113
REMARK H PARENT 105 28 73 39
REMARK Flexibility Score: inf
ROOT
ATOM      1  C   UNL A   1      31.797  28.549  26.177  1.00  0.00     0.188 C 
ENDROOT
BRANCH   1   2
ATOM      2  O   UNL A   1      31.741  29.447  27.260  1.00  0.00    -0.377 OA
BRANCH   2   3
ATOM      3  C   UNL A   1      32.074  30.782  26.913  1.00  0.00     0.188 C 
BRANCH   3   4
ATOM      4  C   UNL A   1      33.464  31.303  27.325  1.00  0.00     0.188 C 
BRANCH   4   5
ATOM      5  O   UNL A   1      33.696  32.421  28.168  1.00  0.00    -0.376 OA
BRANCH   5   6
ATOM      6  C   UNL A   1      33.618  33.804  27.906  1.00  0.00     0.202 C 
BRANCH   6   7
ATOM      7  C   UNL A   1      33.491  34.924  28.936  1.00  0.00     0.261 C 
BRANCH   7   8
ATOM      8  O   UNL A   1      33.187  34.529  30.261  1.00  0.00    -0.460 OA
BRANCH   8   9
ATOM      9  C   UNL A   1      34.039  34.173  31.242  1.00  0.00     0.338 C 
ATOM     10  O   UNL A   1      33.746  34.491  32.394  1.00  0.00    -0.246 OA
BRANCH   9  11
ATOM     11  C   UNL A   1      35.357  33.521  31.011  1.00  0.00     0.060 A 
ATOM     12  C   UNL A   1      35.785  32.296  31.526  1.00  0.00     0.016 A 
ATOM     13  C   UNL A   1      36.247  34.270  30.215  1.00  0.00     0.016 A 
ATOM     14  C   UNL A   1      37.116  31.942  31.447  1.00  0.00     0.010 A 
ATOM     15  C   UNL A   1      37.572  33.900  30.094  1.00  0.00     0.010 A 
ATOM     16  C   UNL A   1      38.009  32.796  30.808  1.00  0.00    -0.014 A 
BRANCH  16  17
ATOM     17  C   UNL A   1      39.417  32.500  30.961  1.00  0.00     0.031 A 
ATOM     18  C   UNL A   1      39.703  31.250  31.705  1.00  0.00     0.074 A 
ATOM     19  C   UNL A   1      40.350  33.339  30.470  1.00  0.00     0.049 A 
ATOM     20  N   UNL A   1      40.238  31.133  32.876  1.00  0.00    -0.248 NA
ATOM     21  C   UNL A   1      39.172  29.994  31.158  1.00  0.00     0.031 C 
ATOM     22  C   UNL A   1      40.163  34.456  29.537  1.00  0.00     0.029 A 
ATOM     23  N   UNL A   1      41.699  33.280  30.606  1.00  0.00    -0.354 N 
ATOM     24  C   UNL A   1      40.328  29.763  33.109  1.00  0.00     0.074 A 
ATOM     25  C   UNL A   1      39.498  29.130  32.119  1.00  0.00     0.031 C 
ATOM     26  C   UNL A   1      41.354  34.770  28.982  1.00  0.00     0.029 A 
ATOM     27  C   UNL A   1      42.390  33.989  29.631  1.00  0.00     0.049 A 
ATOM     28  H   UNL A   1      42.146  32.781  31.327  1.00  0.00     0.167 HD
ATOM     29  C   UNL A   1      41.275  29.250  33.942  1.00  0.00     0.034 A 
ATOM     30  C   UNL A   1      43.703  33.854  29.324  1.00  0.00     0.034 A 
ATOM     31  C   UNL A   1      41.813  30.262  34.812  1.00  0.00     0.049 A 
ATOM     32  C   UNL A   1      44.364  33.231  30.495  1.00  0.00     0.074 A 
ATOM     33  C   UNL A   1      41.293  31.089  35.786  1.00  0.00     0.029 A 
ATOM     34  N   UNL A   1      43.028  30.799  34.462  1.00  0.00    -0.354 N 
ATOM     35  N   UNL A   1      44.474  33.823  31.652  1.00  0.00    -0.248 NA
ATOM     36  C   UNL A   1      44.482  31.781  30.516  1.00  0.00     0.031 C 
ATOM     37  C   UNL A   1      41.989  32.322  35.626  1.00  0.00     0.029 A 
ATOM     38  C   UNL A   1      42.935  32.155  34.612  1.00  0.00     0.049 A 
ATOM     39  H   UNL A   1      43.819  30.299  34.159  1.00  0.00     0.167 HD
ATOM     40  C   UNL A   1      44.215  32.820  32.577  1.00  0.00     0.074 A 
ATOM     41  C   UNL A   1      44.327  31.570  31.827  1.00  0.00     0.031 C 
ATOM     42  C   UNL A   1      43.646  33.105  33.784  1.00  0.00     0.034 A 
BRANCH  29  43
ATOM     43  C   UNL A   1      42.003  27.944  33.717  1.00  0.00     0.023 A 
ATOM     44  C   UNL A   1      42.059  27.041  34.804  1.00  0.00     0.012 A 
ATOM     45  C   UNL A   1      42.875  27.691  32.633  1.00  0.00     0.148 A 
ATOM     46  C   UNL A   1      42.984  25.993  34.844  1.00  0.00     0.002 A 
ATOM     47  C   UNL A   1      43.745  26.608  32.646  1.00  0.00     0.091 A 
ATOM     48  F   UNL A   1      42.971  28.567  31.631  1.00  0.00    -0.205 F 
ATOM     49  C   UNL A   1      43.829  25.776  33.763  1.00  0.00     0.022 A 
BRANCH  47  50
ATOM     50  S   UNL A   1      44.836  26.261  31.261  1.00  0.00     0.127 S 
ATOM     51  O   UNL A   1      45.373  24.955  31.634  1.00  0.00    -0.237 OA
ATOM     52  O   UNL A   1      43.897  26.250  30.139  1.00  0.00    -0.237 OA
ATOM     53  O   UNL A   1      45.792  27.360  31.227  1.00  0.00    -0.744 OA
ENDBRANCH  47  50
ENDBRANCH  29  43
BRANCH  30  54
ATOM     54  C   UNL A   1      44.341  33.901  27.987  1.00  0.00     0.023 A 
ATOM     55  C   UNL A   1      43.576  34.252  26.858  1.00  0.00     0.012 A 
ATOM     56  C   UNL A   1      45.748  33.877  27.856  1.00  0.00     0.148 A 
ATOM     57  C   UNL A   1      44.191  34.590  25.647  1.00  0.00     0.002 A 
ATOM     58  C   UNL A   1      46.356  34.205  26.649  1.00  0.00     0.091 A 
ATOM     59  F   UNL A   1      46.494  33.622  28.939  1.00  0.00    -0.205 F 
ATOM     60  C   UNL A   1      45.580  34.574  25.543  1.00  0.00     0.022 A 
BRANCH  58  61
ATOM     61  S   UNL A   1      48.144  34.234  26.450  1.00  0.00     0.127 S 
ATOM     62  O   UNL A   1      48.284  34.611  25.043  1.00  0.00    -0.237 OA
ATOM     63  O   UNL A   1      48.536  35.269  27.403  1.00  0.00    -0.237 OA
ATOM     64  O   UNL A   1      48.602  32.886  26.758  1.00  0.00    -0.744 OA
ENDBRANCH  58  61
ENDBRANCH  30  54
BRANCH  42  65
ATOM     65  C   UNL A   1      43.519  34.549  34.194  1.00  0.00     0.023 A 
ATOM     66  C   UNL A   1      42.356  35.307  33.944  1.00  0.00     0.012 A 
ATOM     67  C   UNL A   1      44.506  35.072  35.045  1.00  0.00     0.148 A 
ATOM     68  C   UNL A   1      42.188  36.567  34.527  1.00  0.00     0.002 A 
ATOM     69  C   UNL A   1      44.312  36.300  35.662  1.00  0.00     0.091 A 
ATOM     70  F   UNL A   1      45.600  34.331  35.272  1.00  0.00    -0.205 F 
ATOM     71  C   UNL A   1      43.158  37.055  35.401  1.00  0.00     0.022 A 
BRANCH  69  72
ATOM     72  S   UNL A   1      45.449  36.910  36.909  1.00  0.00     0.127 S 
ATOM     73  O   UNL A   1      46.622  37.254  36.109  1.00  0.00    -0.237 OA
ATOM     74  O   UNL A   1      44.722  38.056  37.458  1.00  0.00    -0.237 OA
ATOM     75  O   UNL A   1      45.636  35.816  37.855  1.00  0.00    -0.744 OA
ENDBRANCH  69  72
ENDBRANCH  42  65
ENDBRANCH  16  17
ENDBRANCH   9  11
ENDBRANCH   8   9
ENDBRANCH   7   8
ENDBRANCH   6   7
ENDBRANCH   5   6
ENDBRANCH   4   5
ENDBRANCH   3   4
ENDBRANCH   2   3
ENDBRANCH   1   2
BRANCH   1  76
ATOM     76  C   UNL A   1      32.337  27.154  26.555  1.00  0.00     0.188 C 
BRANCH  76  77
ATOM     77  O   UNL A   1      31.862  25.977  25.921  1.00  0.00    -0.376 OA
BRANCH  77  78
ATOM     78  C   UNL A   1      31.284  26.040  24.627  1.00  0.00     0.202 C 
BRANCH  78  79
ATOM     79  C   UNL A   1      32.133  26.387  23.389  1.00  0.00     0.261 C 
BRANCH  79  80
ATOM     80  O   UNL A   1      33.456  25.830  23.331  1.00  0.00    -0.460 OA
BRANCH  80  81
ATOM     81  C   UNL A   1      33.548  24.506  23.075  1.00  0.00     0.338 C 
ATOM     82  O   UNL A   1      32.886  23.851  22.283  1.00  0.00    -0.246 OA
BRANCH  81  83
ATOM     83  C   UNL A   1      34.744  23.973  23.764  1.00  0.00     0.060 A 
ATOM     84  C   UNL A   1      35.508  22.997  23.109  1.00  0.00     0.018 A 
ATOM     85  C   UNL A   1      35.134  24.452  25.021  1.00  0.00     0.018 A 
ATOM     86  C   UNL A   1      36.666  22.499  23.697  1.00  0.00     0.029 A 
ATOM     87  C   UNL A   1      36.294  23.949  25.622  1.00  0.00     0.029 A 
ATOM     88  C   UNL A   1      37.044  22.966  24.958  1.00  0.00     0.066 A 
BRANCH  88  89
ATOM     89  N   UNL A   1      38.057  22.274  25.648  1.00  0.00    -0.220 N 
ATOM     90  C   UNL A   1      38.969  22.897  26.479  1.00  0.00     0.141 A 
ATOM     91  N   UNL A   1      38.505  21.051  25.319  1.00  0.00    -0.062 NA
ATOM     92  C   UNL A   1      40.047  22.047  26.538  1.00  0.00     0.093 A 
ATOM     93  N   UNL A   1      39.671  20.868  25.924  1.00  0.00    -0.134 NA
BRANCH  92  94
ATOM     94  C   UNL A   1      41.499  22.247  26.777  1.00  0.00     0.138 C 
BRANCH  94  95
ATOM     95  S   UNL A   1      42.623  23.335  25.930  1.00  0.00    -0.081 SA
BRANCH  95  96
ATOM     96  C   UNL A   1      42.434  25.032  26.244  1.00  0.00     0.176 A 
ATOM     97  N   UNL A   1      41.429  25.249  27.042  1.00  0.00    -0.223 NA
ATOM     98  N   UNL A   1      43.199  26.074  25.746  1.00  0.00    -0.255 N 
ATOM     99  C   UNL A   1      41.020  26.566  27.268  1.00  0.00     0.079 A 
ATOM    100  C   UNL A   1      42.448  27.220  25.432  1.00  0.00     0.266 A 
ATOM    101  C   UNL A   1      40.156  26.884  28.314  1.00  0.00     0.029 A 
ATOM    102  C   UNL A   1      41.362  27.555  26.360  1.00  0.00     0.066 A 
ATOM    103  O   UNL A   1      42.597  27.931  24.439  1.00  0.00    -0.268 OA
ATOM    104  C   UNL A   1      39.584  28.160  28.388  1.00  0.00     0.002 A 
ATOM    105  C   UNL A   1      40.753  28.811  26.378  1.00  0.00     0.016 A 
ATOM    106  C   UNL A   1      39.849  29.108  27.395  1.00  0.00     0.001 A 
BRANCH  98 107
ATOM    107  C   UNL A   1      44.617  26.074  25.432  1.00  0.00     0.051 A 
ATOM    108  C   UNL A   1      45.352  24.870  25.493  1.00  0.00     0.028 A 
ATOM    109  C   UNL A   1      45.348  27.209  25.074  1.00  0.00     0.028 A 
ATOM    110  C   UNL A   1      46.750  24.845  25.463  1.00  0.00     0.018 A 
ATOM    111  C   UNL A   1      46.751  27.212  25.108  1.00  0.00     0.018 A 
ATOM    112  C   UNL A   1      47.446  26.034  25.346  1.00  0.00     0.018 A 
ATOM    113  Br  UNL A   1      49.324  26.050  25.512  1.00  0.00    -0.051 Br
ENDBRANCH  98 107
ENDBRANCH  95  96
ENDBRANCH  94  95
ENDBRANCH  92  94
ENDBRANCH  88  89
ENDBRANCH  81  83
ENDBRANCH  80  81
ENDBRANCH  79  80
ENDBRANCH  78  79
ENDBRANCH  77  78
ENDBRANCH  76  77
ENDBRANCH   1  76
TORSDOF 28
ENDMDL
MODEL 3
REMARK VINA RESULT:      -9.1      1.901      2.355
REMARK SMILES O=C(OCCOCCOCCOCCOC(=O)c1ccc(-n2cc(CSc3nc4ccccc4c(=O)n3-c3ccc(Br)cc3)nn2)cc1)c1ccc(-c2c3nc(c(-c4cccc(S(=O)(=O)[O-])c4F)c4ccc([nH]4)c(-c4cccc(S(=O)(=O)[O-])c4F)c4nc(c(-c5cccc(S(=O)(=O)[O-])c5F)c5ccc2[nH]5)C=C4)C=C3)cc1
REMARK SMILES IDX 10 1 9 2 8 3 7 4 6 5 5 6 4 7 3 8 2 9 1 10 49 11 50 12 111 13
REMARK SMILES IDX 51 14 110 15 52 16 53 17 54 18 104 19 55 20 109 21 103 22
REMARK SMILES IDX 105 23 56 24 108 25 102 26 101 27 57 29 89 30 69 31 88 32
REMARK SMILES IDX 70 33 73 34 87 35 106 36 71 37 72 38 86 40 107 41 74 42
REMARK SMILES IDX 58 43 59 44 67 45 60 46 62 47 68 48 61 49 63 50 64 51 65 52
REMARK SMILES IDX 66 53 90 54 91 55 99 56 92 57 94 58 100 59 93 60 95 61 96 62
REMARK SMILES IDX 97 63 98 64 75 65 76 66 84 67 77 68 79 69 85 70 78 71 80 72
REMARK SMILES IDX 81 73 82 74 83 75 11 76 12 77 13 78 14 79 15 80 16 81 17 82
REMARK SMILES IDX 18 83 19 84 48 85 20 86 47 87 21 88 22 89 23 90 46 91 24 92
REMARK SMILES IDX 45 93 25 94 26 95 27 96 28 97 37 98 29 99 35 100 30 101
REMARK SMILES IDX 34 102 36 103 31 104 33 105 32 106 38 107 39 108 44 109
REMARK SMILES IDX 40 110 43 111 41 112 42 113
REMARK H PARENT 105 28 73 39
REMARK Flexibility Score: inf
ROOT
ATOM      1  C   UNL A   1      31.852  28.666  26.243  1.00  0.00     0.188 C 
ENDROOT
BRANCH   1   2
ATOM      2  O   UNL A   1      31.800  29.647  27.254  1.00  0.00    -0.377 OA
BRANCH   2   3
ATOM      3  C   UNL A   1      32.512  30.831  26.936  1.00  0.00     0.188 C 
BRANCH   3   4
ATOM      4  C   UNL A   1      33.930  30.992  27.518  1.00  0.00     0.188 C 
BRANCH   4   5
ATOM      5  O   UNL A   1      34.287  31.895  28.552  1.00  0.00    -0.376 OA
BRANCH   5   6
ATOM      6  C   UNL A   1      34.373  33.302  28.558  1.00  0.00     0.202 C 
BRANCH   6   7
ATOM      7  C   UNL A   1      34.161  34.227  29.754  1.00  0.00     0.261 C 
BRANCH   7   8
ATOM      8  O   UNL A   1      33.905  33.599  30.996  1.00  0.00    -0.460 OA
BRANCH   8   9
ATOM      9  C   UNL A   1      34.769  33.345  31.998  1.00  0.00     0.338 C 
ATOM     10  O   UNL A   1      34.321  33.312  33.143  1.00  0.00    -0.246 OA
BRANCH   9  11
ATOM     11  C   UNL A   1      36.241  33.211  31.819  1.00  0.00     0.060 A 
ATOM     12  C   UNL A   1      36.959  32.025  31.656  1.00  0.00     0.016 A 
ATOM     13  C   UNL A   1      36.948  34.431  31.863  1.00  0.00     0.016 A 
ATOM     14  C   UNL A   1      38.334  32.031  31.765  1.00  0.00     0.010 A 
ATOM     15  C   UNL A   1      38.327  34.448  31.930  1.00  0.00     0.010 A 
ATOM     16  C   UNL A   1      38.993  33.235  31.992  1.00  0.00    -0.014 A 
BRANCH  16  17
ATOM     17  C   UNL A   1      40.395  33.155  32.337  1.00  0.00     0.031 A 
ATOM     18  C   UNL A   1      40.715  33.598  33.715  1.00  0.00     0.074 A 
ATOM     19  C   UNL A   1      41.299  32.728  31.433  1.00  0.00     0.049 A 
ATOM     20  N   UNL A   1      41.376  34.650  34.072  1.00  0.00    -0.248 NA
ATOM     21  C   UNL A   1      40.073  32.884  34.827  1.00  0.00     0.031 C 
ATOM     22  C   UNL A   1      41.051  32.062  30.149  1.00  0.00     0.029 A 
ATOM     23  N   UNL A   1      42.651  32.685  31.541  1.00  0.00    -0.354 N 
ATOM     24  C   UNL A   1      41.436  34.597  35.463  1.00  0.00     0.074 A 
ATOM     25  C   UNL A   1      40.473  33.611  35.871  1.00  0.00     0.031 C 
ATOM     26  C   UNL A   1      42.181  31.439  29.750  1.00  0.00     0.029 A 
ATOM     27  C   UNL A   1      43.253  31.791  30.663  1.00  0.00     0.049 A 
ATOM     28  H   UNL A   1      43.158  33.234  32.180  1.00  0.00     0.167 HD
ATOM     29  C   UNL A   1      42.452  35.192  36.147  1.00  0.00     0.034 A 
ATOM     30  C   UNL A   1      44.515  31.306  30.756  1.00  0.00     0.034 A 
ATOM     31  C   UNL A   1      43.127  36.172  35.338  1.00  0.00     0.049 A 
ATOM     32  C   UNL A   1      45.281  32.243  31.612  1.00  0.00     0.074 A 
ATOM     33  C   UNL A   1      42.758  37.345  34.714  1.00  0.00     0.029 A 
ATOM     34  N   UNL A   1      44.314  35.789  34.763  1.00  0.00    -0.354 N 
ATOM     35  N   UNL A   1      45.548  33.472  31.264  1.00  0.00    -0.248 NA
ATOM     36  C   UNL A   1      45.342  31.966  33.038  1.00  0.00     0.031 C 
ATOM     37  C   UNL A   1      43.480  37.346  33.486  1.00  0.00     0.029 A 
ATOM     38  C   UNL A   1      44.295  36.212  33.463  1.00  0.00     0.049 A 
ATOM     39  H   UNL A   1      45.045  35.301  35.206  1.00  0.00     0.167 HD
ATOM     40  C   UNL A   1      45.357  34.207  32.427  1.00  0.00     0.074 A 
ATOM     41  C   UNL A   1      45.331  33.218  33.504  1.00  0.00     0.031 C 
ATOM     42  C   UNL A   1      44.943  35.507  32.380  1.00  0.00     0.034 A 
BRANCH  29  43
ATOM     43  C   UNL A   1      43.095  34.629  37.395  1.00  0.00     0.023 A 
ATOM     44  C   UNL A   1      43.398  35.541  38.432  1.00  0.00     0.012 A 
ATOM     45  C   UNL A   1      43.684  33.346  37.480  1.00  0.00     0.148 A 
ATOM     46  C   UNL A   1      44.298  35.221  39.453  1.00  0.00     0.002 A 
ATOM     47  C   UNL A   1      44.523  33.008  38.535  1.00  0.00     0.091 A 
ATOM     48  F   UNL A   1      43.548  32.477  36.478  1.00  0.00    -0.205 F 
ATOM     49  C   UNL A   1      44.862  33.952  39.505  1.00  0.00     0.022 A 
BRANCH  47  50
ATOM     50  S   UNL A   1      45.253  31.371  38.670  1.00  0.00     0.127 S 
ATOM     51  O   UNL A   1      44.087  30.515  38.468  1.00  0.00    -0.237 OA
ATOM     52  O   UNL A   1      46.214  31.384  37.567  1.00  0.00    -0.237 OA
ATOM     53  O   UNL A   1      45.864  31.320  39.992  1.00  0.00    -0.744 OA
ENDBRANCH  47  50
ENDBRANCH  29  43
BRANCH  30  54
ATOM     54  C   UNL A   1      44.996  29.937  30.454  1.00  0.00     0.023 A 
ATOM     55  C   UNL A   1      45.859  29.724  29.363  1.00  0.00     0.012 A 
ATOM     56  C   UNL A   1      44.835  28.891  31.391  1.00  0.00     0.148 A 
ATOM     57  C   UNL A   1      46.558  28.519  29.222  1.00  0.00     0.002 A 
ATOM     58  C   UNL A   1      45.525  27.692  31.243  1.00  0.00     0.091 A 
ATOM     59  F   UNL A   1      44.079  29.105  32.476  1.00  0.00    -0.205 F 
ATOM     60  C   UNL A   1      46.398  27.506  30.165  1.00  0.00     0.022 A 
BRANCH  58  61
ATOM     61  S   UNL A   1      45.389  26.353  32.437  1.00  0.00     0.127 S 
ATOM     62  O   UNL A   1      46.231  25.322  31.828  1.00  0.00    -0.237 OA
ATOM     63  O   UNL A   1      45.943  26.965  33.641  1.00  0.00    -0.237 OA
ATOM     64  O   UNL A   1      43.973  26.013  32.495  1.00  0.00    -0.744 OA
ENDBRANCH  58  61
ENDBRANCH  30  54
BRANCH  42  65
ATOM     65  C   UNL A   1      44.924  36.204  31.044  1.00  0.00     0.023 A 
ATOM     66  C   UNL A   1      46.064  36.838  30.505  1.00  0.00     0.012 A 
ATOM     67  C   UNL A   1      43.797  36.016  30.228  1.00  0.00     0.148 A 
ATOM     68  C   UNL A   1      46.072  37.281  29.179  1.00  0.00     0.002 A 
ATOM     69  C   UNL A   1      43.828  36.410  28.898  1.00  0.00     0.091 A 
ATOM     70  F   UNL A   1      42.728  35.406  30.761  1.00  0.00    -0.205 F 
ATOM     71  C   UNL A   1      44.960  37.050  28.371  1.00  0.00     0.022 A 
BRANCH  69  72
ATOM     72  S   UNL A   1      42.492  36.006  27.771  1.00  0.00     0.127 S 
ATOM     73  O   UNL A   1      42.919  34.712  27.245  1.00  0.00    -0.237 OA
ATOM     74  O   UNL A   1      41.335  35.952  28.667  1.00  0.00    -0.237 OA
ATOM     75  O   UNL A   1      42.442  37.091  26.799  1.00  0.00    -0.744 OA
ENDBRANCH  69  72
ENDBRANCH  42  65
ENDBRANCH  16  17
ENDBRANCH   9  11
ENDBRANCH   8   9
ENDBRANCH   7   8
ENDBRANCH   6   7
ENDBRANCH   5   6
ENDBRANCH   4   5
ENDBRANCH   3   4
ENDBRANCH   2   3
ENDBRANCH   1   2
BRANCH   1  76
ATOM     76  C   UNL A   1      32.071  27.236  26.777  1.00  0.00     0.188 C 
BRANCH  76  77
ATOM     77  O   UNL A   1      31.480  26.109  26.150  1.00  0.00    -0.376 OA
BRANCH  77  78
ATOM     78  C   UNL A   1      30.925  26.219  24.849  1.00  0.00     0.202 C 
BRANCH  78  79
ATOM     79  C   UNL A   1      31.782  26.671  23.651  1.00  0.00     0.261 C 
BRANCH  79  80
ATOM     80  O   UNL A   1      33.055  26.026  23.482  1.00  0.00    -0.460 OA
BRANCH  80  81
ATOM     81  C   UNL A   1      33.040  24.684  23.316  1.00  0.00     0.338 C 
ATOM     82  O   UNL A   1      32.254  24.023  22.653  1.00  0.00    -0.246 OA
BRANCH  81  83
ATOM     83  C   UNL A   1      34.274  24.121  23.907  1.00  0.00     0.060 A 
ATOM     84  C   UNL A   1      34.799  22.945  23.351  1.00  0.00     0.018 A 
ATOM     85  C   UNL A   1      34.931  24.758  24.966  1.00  0.00     0.018 A 
ATOM     86  C   UNL A   1      35.982  22.403  23.843  1.00  0.00     0.029 A 
ATOM     87  C   UNL A   1      36.118  24.213  25.471  1.00  0.00     0.029 A 
ATOM     88  C   UNL A   1      36.627  23.031  24.911  1.00  0.00     0.066 A 
BRANCH  88  89
ATOM     89  N   UNL A   1      37.665  22.339  25.562  1.00  0.00    -0.220 N 
ATOM     90  C   UNL A   1      38.441  22.899  26.558  1.00  0.00     0.141 A 
ATOM     91  N   UNL A   1      38.273  21.244  25.075  1.00  0.00    -0.062 NA
ATOM     92  C   UNL A   1      39.604  22.168  26.569  1.00  0.00     0.093 A 
ATOM     93  N   UNL A   1      39.409  21.081  25.739  1.00  0.00    -0.134 NA
BRANCH  92  94
ATOM     94  C   UNL A   1      41.004  22.473  26.961  1.00  0.00     0.138 C 
BRANCH  94  95
ATOM     95  S   UNL A   1      42.172  23.546  26.157  1.00  0.00    -0.081 SA
BRANCH  95  96
ATOM     96  C   UNL A   1      42.003  25.244  26.478  1.00  0.00     0.176 A 
ATOM     97  N   UNL A   1      40.957  25.477  27.217  1.00  0.00    -0.223 NA
ATOM     98  N   UNL A   1      42.820  26.273  26.039  1.00  0.00    -0.255 N 
ATOM     99  C   UNL A   1      40.566  26.801  27.433  1.00  0.00     0.079 A 
ATOM    100  C   UNL A   1      42.116  27.439  25.694  1.00  0.00     0.266 A 
ATOM    101  C   UNL A   1      39.647  27.129  28.428  1.00  0.00     0.029 A 
ATOM    102  C   UNL A   1      40.984  27.790  26.558  1.00  0.00     0.066 A 
ATOM    103  O   UNL A   1      42.341  28.156  24.719  1.00  0.00    -0.268 OA
ATOM    104  C   UNL A   1      39.102  28.417  28.483  1.00  0.00     0.002 A 
ATOM    105  C   UNL A   1      40.404  29.060  26.554  1.00  0.00     0.016 A 
ATOM    106  C   UNL A   1      39.448  29.368  27.519  1.00  0.00     0.001 A 
BRANCH  98 107
ATOM    107  C   UNL A   1      44.255  26.242  25.810  1.00  0.00     0.051 A 
ATOM    108  C   UNL A   1      44.954  27.442  25.558  1.00  0.00     0.028 A 
ATOM    109  C   UNL A   1      45.029  25.079  25.806  1.00  0.00     0.028 A 
ATOM    110  C   UNL A   1      46.266  27.455  25.075  1.00  0.00     0.018 A 
ATOM    111  C   UNL A   1      46.323  25.069  25.260  1.00  0.00     0.018 A 
ATOM    112  C   UNL A   1      46.919  26.255  24.856  1.00  0.00     0.018 A 
ATOM    113  Br  UNL A   1      48.606  26.236  24.013  1.00  0.00    -0.051 Br
ENDBRANCH  98 107
ENDBRANCH  95  96
ENDBRANCH  94  95
ENDBRANCH  92  94
ENDBRANCH  88  89
ENDBRANCH  81  83
ENDBRANCH  80  81
ENDBRANCH  79  80
ENDBRANCH  78  79
ENDBRANCH  77  78
ENDBRANCH  76  77
ENDBRANCH   1  76
TORSDOF 28
ENDMDL
