MODEL 1
REMARK VINA RESULT:      -8.3      0.000      0.000
REMARK SMILES O=C(OCCOCCOCCOCCOC(=O)c1ccccc1-c1ccc(/C=C2\C(=O)N(c3cccc(Br)c3)C(=O)N=C2O)o1)c1ccc(-c2c3nc(c(-c4cccc(S(=O)(=O)[O-])c4F)c4ccc([nH]4)c(-c4cccc(S(=O)(=O)[O-])c4F)c4nc(c(-c5cccc(S(=O)(=O)[O-])c5F)c5ccc2[nH]5)C=C4)C=C3)cc1
REMARK SMILES IDX 9 1 8 2 7 3 6 4 5 5 4 6 3 7 2 8 1 9 46 10 47 11 108 12 48 13
REMARK SMILES IDX 107 14 49 15 50 16 51 17 101 18 52 19 106 20 100 21 102 22
REMARK SMILES IDX 53 23 105 24 99 25 98 26 54 28 86 29 66 30 85 31 67 32 70 33
REMARK SMILES IDX 84 34 103 35 68 36 69 37 83 39 104 40 71 41 55 42 56 43
REMARK SMILES IDX 64 44 57 45 59 46 65 47 58 48 60 49 61 50 62 51 63 52 87 53
REMARK SMILES IDX 88 54 96 55 89 56 91 57 97 58 90 59 92 60 93 61 94 62 95 63
REMARK SMILES IDX 72 64 73 65 81 66 74 67 76 68 82 69 75 70 77 71 78 72 79 73
REMARK SMILES IDX 80 74 10 75 11 76 12 77 13 78 14 79 15 80 16 81 17 82 18 83
REMARK SMILES IDX 19 84 23 85 20 86 22 87 21 88 24 89 25 90 45 91 26 92 27 93
REMARK SMILES IDX 28 94 29 95 30 96 43 97 31 98 32 99 42 100 40 101 41 102
REMARK SMILES IDX 44 103 33 105 34 106 39 107 35 108 37 109 36 110 38 111
REMARK H PARENT 102 27 70 38 44 104
REMARK Flexibility Score: inf
ROOT
ATOM      1  O   UNL A   1      36.870  34.796  33.813  1.00  0.00    -0.377 OA
ENDROOT
BRANCH   1   2
ATOM      2  C   UNL A   1      36.113  33.907  34.625  1.00  0.00     0.188 C 
BRANCH   2   3
ATOM      3  C   UNL A   1      36.915  33.039  35.596  1.00  0.00     0.188 C 
BRANCH   3   4
ATOM      4  O   UNL A   1      36.794  33.499  36.929  1.00  0.00    -0.376 OA
BRANCH   4   5
ATOM      5  C   UNL A   1      37.672  33.087  37.959  1.00  0.00     0.202 C 
BRANCH   5   6
ATOM      6  C   UNL A   1      38.933  33.892  38.233  1.00  0.00     0.261 C 
BRANCH   6   7
ATOM      7  O   UNL A   1      39.919  33.318  39.114  1.00  0.00    -0.460 OA
BRANCH   7   8
ATOM      8  C   UNL A   1      41.149  32.791  38.934  1.00  0.00     0.338 C 
ATOM      9  O   UNL A   1      41.840  32.574  39.927  1.00  0.00    -0.246 OA
BRANCH   8  10
ATOM     10  C   UNL A   1      41.721  32.449  37.607  1.00  0.00     0.060 A 
ATOM     11  C   UNL A   1      40.987  31.996  36.518  1.00  0.00     0.016 A 
ATOM     12  C   UNL A   1      43.082  32.708  37.406  1.00  0.00     0.016 A 
ATOM     13  C   UNL A   1      41.593  31.563  35.356  1.00  0.00     0.010 A 
ATOM     14  C   UNL A   1      43.695  32.383  36.194  1.00  0.00     0.010 A 
ATOM     15  C   UNL A   1      42.961  31.718  35.203  1.00  0.00    -0.014 A 
BRANCH  15  16
ATOM     16  C   UNL A   1      43.613  30.967  34.118  1.00  0.00     0.031 A 
ATOM     17  C   UNL A   1      44.105  31.757  32.941  1.00  0.00     0.074 A 
ATOM     18  C   UNL A   1      43.893  29.658  34.266  1.00  0.00     0.049 A 
ATOM     19  N   UNL A   1      44.651  31.341  31.833  1.00  0.00    -0.248 NA
ATOM     20  C   UNL A   1      43.967  33.225  33.024  1.00  0.00     0.031 C 
ATOM     21  C   UNL A   1      43.574  28.851  35.448  1.00  0.00     0.029 A 
ATOM     22  N   UNL A   1      44.534  28.786  33.431  1.00  0.00    -0.354 N 
ATOM     23  C   UNL A   1      44.833  32.479  31.058  1.00  0.00     0.074 A 
ATOM     24  C   UNL A   1      44.363  33.607  31.823  1.00  0.00     0.031 C 
ATOM     25  C   UNL A   1      44.041  27.606  35.269  1.00  0.00     0.029 A 
ATOM     26  C   UNL A   1      44.610  27.507  33.932  1.00  0.00     0.049 A 
ATOM     27  H   UNL A   1      44.905  29.047  32.557  1.00  0.00     0.167 HD
ATOM     28  C   UNL A   1      45.341  32.564  29.809  1.00  0.00     0.034 A 
ATOM     29  C   UNL A   1      45.052  26.381  33.343  1.00  0.00     0.034 A 
ATOM     30  C   UNL A   1      45.837  31.421  29.099  1.00  0.00     0.049 A 
ATOM     31  C   UNL A   1      45.574  26.495  31.936  1.00  0.00     0.074 A 
ATOM     32  C   UNL A   1      46.347  31.353  27.819  1.00  0.00     0.029 A 
ATOM     33  N   UNL A   1      45.878  30.137  29.624  1.00  0.00    -0.354 N 
ATOM     34  N   UNL A   1      45.716  27.569  31.195  1.00  0.00    -0.248 NA
ATOM     35  C   UNL A   1      46.006  25.252  31.288  1.00  0.00     0.031 C 
ATOM     36  C   UNL A   1      46.664  30.016  27.557  1.00  0.00     0.029 A 
ATOM     37  C   UNL A   1      46.399  29.262  28.693  1.00  0.00     0.049 A 
ATOM     38  H   UNL A   1      45.579  29.887  30.528  1.00  0.00     0.167 HD
ATOM     39  C   UNL A   1      46.289  27.140  30.005  1.00  0.00     0.074 A 
ATOM     40  C   UNL A   1      46.482  25.708  30.137  1.00  0.00     0.031 C 
ATOM     41  C   UNL A   1      46.618  27.852  28.899  1.00  0.00     0.034 A 
BRANCH  28  42
ATOM     42  C   UNL A   1      45.309  33.912  29.142  1.00  0.00     0.023 A 
ATOM     43  C   UNL A   1      46.402  34.796  29.243  1.00  0.00     0.012 A 
ATOM     44  C   UNL A   1      44.157  34.316  28.440  1.00  0.00     0.148 A 
ATOM     45  C   UNL A   1      46.330  36.078  28.696  1.00  0.00     0.002 A 
ATOM     46  C   UNL A   1      44.112  35.574  27.854  1.00  0.00     0.091 A 
ATOM     47  F   UNL A   1      43.115  33.474  28.385  1.00  0.00    -0.205 F 
ATOM     48  C   UNL A   1      45.189  36.464  27.995  1.00  0.00     0.022 A 
BRANCH  46  49
ATOM     49  S   UNL A   1      42.714  36.135  26.876  1.00  0.00     0.127 S 
ATOM     50  O   UNL A   1      42.777  35.235  25.725  1.00  0.00    -0.237 OA
ATOM     51  O   UNL A   1      41.593  35.888  27.783  1.00  0.00    -0.237 OA
ATOM     52  O   UNL A   1      42.964  37.538  26.581  1.00  0.00    -0.744 OA
ENDBRANCH  46  49
ENDBRANCH  28  42
BRANCH  29  53
ATOM     53  C   UNL A   1      45.008  25.076  34.064  1.00  0.00     0.023 A 
ATOM     54  C   UNL A   1      43.828  24.308  34.054  1.00  0.00     0.012 A 
ATOM     55  C   UNL A   1      46.136  24.583  34.754  1.00  0.00     0.148 A 
ATOM     56  C   UNL A   1      43.761  23.093  34.742  1.00  0.00     0.002 A 
ATOM     57  C   UNL A   1      46.081  23.347  35.387  1.00  0.00     0.091 A 
ATOM     58  F   UNL A   1      47.247  25.333  34.771  1.00  0.00    -0.205 F 
ATOM     59  C   UNL A   1      44.889  22.609  35.399  1.00  0.00     0.022 A 
BRANCH  57  60
ATOM     60  S   UNL A   1      47.521  22.592  36.153  1.00  0.00     0.127 S 
ATOM     61  O   UNL A   1      46.975  21.325  36.632  1.00  0.00    -0.237 OA
ATOM     62  O   UNL A   1      48.440  22.478  35.020  1.00  0.00    -0.237 OA
ATOM     63  O   UNL A   1      47.953  23.525  37.184  1.00  0.00    -0.744 OA
ENDBRANCH  57  60
ENDBRANCH  29  53
BRANCH  41  64
ATOM     64  C   UNL A   1      47.282  27.104  27.779  1.00  0.00     0.023 A 
ATOM     65  C   UNL A   1      48.674  27.197  27.591  1.00  0.00     0.012 A 
ATOM     66  C   UNL A   1      46.522  26.243  26.966  1.00  0.00     0.148 A 
ATOM     67  C   UNL A   1      49.296  26.469  26.580  1.00  0.00     0.002 A 
ATOM     68  C   UNL A   1      47.157  25.475  26.002  1.00  0.00     0.091 A 
ATOM     69  F   UNL A   1      45.195  26.190  27.152  1.00  0.00    -0.205 F 
ATOM     70  C   UNL A   1      48.541  25.598  25.796  1.00  0.00     0.022 A 
BRANCH  68  71
ATOM     71  S   UNL A   1      46.277  24.246  25.035  1.00  0.00     0.127 S 
ATOM     72  O   UNL A   1      44.998  24.913  24.798  1.00  0.00    -0.237 OA
ATOM     73  O   UNL A   1      47.127  24.116  23.851  1.00  0.00    -0.237 OA
ATOM     74  O   UNL A   1      46.216  23.051  25.865  1.00  0.00    -0.744 OA
ENDBRANCH  68  71
ENDBRANCH  41  64
ENDBRANCH  15  16
ENDBRANCH   8  10
ENDBRANCH   7   8
ENDBRANCH   6   7
ENDBRANCH   5   6
ENDBRANCH   4   5
ENDBRANCH   3   4
ENDBRANCH   2   3
ENDBRANCH   1   2
BRANCH   1  75
ATOM     75  C   UNL A   1      38.278  34.566  33.747  1.00  0.00     0.188 C 
BRANCH  75  76
ATOM     76  C   UNL A   1      38.978  34.465  32.361  1.00  0.00     0.188 C 
BRANCH  76  77
ATOM     77  O   UNL A   1      38.174  33.903  31.336  1.00  0.00    -0.376 OA
BRANCH  77  78
ATOM     78  C   UNL A   1      38.840  33.542  30.132  1.00  0.00     0.202 C 
BRANCH  78  79
ATOM     79  C   UNL A   1      40.364  33.385  30.190  1.00  0.00     0.261 C 
BRANCH  79  80
ATOM     80  O   UNL A   1      40.858  32.073  29.880  1.00  0.00    -0.460 OA
BRANCH  80  81
ATOM     81  C   UNL A   1      40.912  31.106  30.822  1.00  0.00     0.338 C 
ATOM     82  O   UNL A   1      40.677  31.209  32.011  1.00  0.00    -0.246 OA
BRANCH  81  83
ATOM     83  C   UNL A   1      41.164  29.836  30.090  1.00  0.00     0.071 A 
ATOM     84  C   UNL A   1      42.504  29.433  29.924  1.00  0.00     0.016 A 
ATOM     85  C   UNL A   1      40.107  28.952  29.804  1.00  0.00     0.032 A 
ATOM     86  C   UNL A   1      42.796  28.119  29.551  1.00  0.00     0.001 A 
ATOM     87  C   UNL A   1      40.427  27.639  29.419  1.00  0.00     0.013 A 
ATOM     88  C   UNL A   1      41.758  27.221  29.309  1.00  0.00     0.001 A 
BRANCH  85  89
ATOM     89  C   UNL A   1      38.717  29.350  30.001  1.00  0.00     0.135 A 
ATOM     90  C   UNL A   1      37.903  29.553  31.092  1.00  0.00     0.051 A 
ATOM     91  O   UNL A   1      37.975  29.446  28.874  1.00  0.00    -0.457 OA
ATOM     92  C   UNL A   1      36.587  29.659  30.580  1.00  0.00     0.051 A 
ATOM     93  C   UNL A   1      36.653  29.568  29.193  1.00  0.00     0.128 A 
BRANCH  93  94
ATOM     94  C   UNL A   1      35.578  29.608  28.261  1.00  0.00     0.066 C 
ATOM     95  C   UNL A   1      34.762  30.647  27.982  1.00  0.00     0.106 C 
ATOM     96  C   UNL A   1      34.788  32.031  28.537  1.00  0.00     0.272 C 
ATOM     97  C   UNL A   1      33.669  30.417  27.034  1.00  0.00     0.228 C 
ATOM     98  O   UNL A   1      35.574  32.387  29.409  1.00  0.00    -0.268 OA
ATOM     99  N   UNL A   1      33.785  32.884  28.066  1.00  0.00    -0.226 N 
ATOM    100  N   UNL A   1      32.721  31.214  26.730  1.00  0.00    -0.156 NA
ATOM    101  C   UNL A   1      32.684  32.456  27.314  1.00  0.00     0.358 C 
ATOM    102  O   UNL A   1      31.690  33.156  27.136  1.00  0.00    -0.245 OA
BRANCH  97 103
ATOM    103  O   UNL A   1      33.654  29.224  26.423  1.00  0.00    -0.493 OA
ATOM    104  H   UNL A   1      33.079  29.076  25.699  1.00  0.00     0.295 HD
ENDBRANCH  97 103
BRANCH  99 105
ATOM    105  C   UNL A   1      33.831  34.232  28.558  1.00  0.00     0.055 A 
ATOM    106  C   UNL A   1      34.304  35.281  27.759  1.00  0.00     0.027 A 
ATOM    107  C   UNL A   1      33.288  34.526  29.821  1.00  0.00     0.042 A 
ATOM    108  C   UNL A   1      34.194  36.603  28.197  1.00  0.00     0.003 A 
ATOM    109  C   UNL A   1      33.206  35.845  30.261  1.00  0.00     0.020 A 
ATOM    110  C   UNL A   1      33.646  36.887  29.448  1.00  0.00     0.016 A 
ATOM    111  Br  UNL A   1      32.468  36.221  31.961  1.00  0.00    -0.051 Br
ENDBRANCH  99 105
ENDBRANCH  93  94
ENDBRANCH  85  89
ENDBRANCH  81  83
ENDBRANCH  80  81
ENDBRANCH  79  80
ENDBRANCH  78  79
ENDBRANCH  77  78
ENDBRANCH  76  77
ENDBRANCH  75  76
ENDBRANCH   1  75
TORSDOF 27
ENDMDL
MODEL 2
REMARK VINA RESULT:      -7.5      5.571      9.931
REMARK SMILES O=C(OCCOCCOCCOCCOC(=O)c1ccccc1-c1ccc(/C=C2\C(=O)N(c3cccc(Br)c3)C(=O)N=C2O)o1)c1ccc(-c2c3nc(c(-c4cccc(S(=O)(=O)[O-])c4F)c4ccc([nH]4)c(-c4cccc(S(=O)(=O)[O-])c4F)c4nc(c(-c5cccc(S(=O)(=O)[O-])c5F)c5ccc2[nH]5)C=C4)C=C3)cc1
REMARK SMILES IDX 9 1 8 2 7 3 6 4 5 5 4 6 3 7 2 8 1 9 46 10 47 11 108 12 48 13
REMARK SMILES IDX 107 14 49 15 50 16 51 17 101 18 52 19 106 20 100 21 102 22
REMARK SMILES IDX 53 23 105 24 99 25 98 26 54 28 86 29 66 30 85 31 67 32 70 33
REMARK SMILES IDX 84 34 103 35 68 36 69 37 83 39 104 40 71 41 55 42 56 43
REMARK SMILES IDX 64 44 57 45 59 46 65 47 58 48 60 49 61 50 62 51 63 52 87 53
REMARK SMILES IDX 88 54 96 55 89 56 91 57 97 58 90 59 92 60 93 61 94 62 95 63
REMARK SMILES IDX 72 64 73 65 81 66 74 67 76 68 82 69 75 70 77 71 78 72 79 73
REMARK SMILES IDX 80 74 10 75 11 76 12 77 13 78 14 79 15 80 16 81 17 82 18 83
REMARK SMILES IDX 19 84 23 85 20 86 22 87 21 88 24 89 25 90 45 91 26 92 27 93
REMARK SMILES IDX 28 94 29 95 30 96 43 97 31 98 32 99 42 100 40 101 41 102
REMARK SMILES IDX 44 103 33 105 34 106 39 107 35 108 37 109 36 110 38 111
REMARK H PARENT 102 27 70 38 44 104
REMARK Flexibility Score: inf
ROOT
ATOM      1  O   UNL A   1      40.035  28.382  30.251  1.00  0.00    -0.377 OA
ENDROOT
BRANCH   1   2
ATOM      2  C   UNL A   1      40.133  29.723  30.715  1.00  0.00     0.188 C 
BRANCH   2   3
ATOM      3  C   UNL A   1      39.777  30.811  29.699  1.00  0.00     0.188 C 
BRANCH   3   4
ATOM      4  O   UNL A   1      38.540  31.427  30.006  1.00  0.00    -0.376 OA
BRANCH   4   5
ATOM      5  C   UNL A   1      37.338  30.695  30.146  1.00  0.00     0.202 C 
BRANCH   5   6
ATOM      6  C   UNL A   1      36.005  31.416  30.020  1.00  0.00     0.261 C 
BRANCH   6   7
ATOM      7  O   UNL A   1      35.464  32.039  31.203  1.00  0.00    -0.460 OA
BRANCH   7   8
ATOM      8  C   UNL A   1      35.779  33.144  31.911  1.00  0.00     0.338 C 
ATOM      9  O   UNL A   1      35.084  34.148  31.763  1.00  0.00    -0.246 OA
BRANCH   8  10
ATOM     10  C   UNL A   1      36.912  33.224  32.868  1.00  0.00     0.060 A 
ATOM     11  C   UNL A   1      38.171  33.729  32.568  1.00  0.00     0.016 A 
ATOM     12  C   UNL A   1      36.659  32.867  34.198  1.00  0.00     0.016 A 
ATOM     13  C   UNL A   1      39.222  33.649  33.458  1.00  0.00     0.010 A 
ATOM     14  C   UNL A   1      37.684  32.888  35.146  1.00  0.00     0.010 A 
ATOM     15  C   UNL A   1      38.992  33.189  34.745  1.00  0.00    -0.014 A 
BRANCH  15  16
ATOM     16  C   UNL A   1      40.164  32.813  35.551  1.00  0.00     0.031 A 
ATOM     17  C   UNL A   1      40.675  33.831  36.528  1.00  0.00     0.074 A 
ATOM     18  C   UNL A   1      40.640  31.554  35.519  1.00  0.00     0.049 A 
ATOM     19  N   UNL A   1      41.719  33.782  37.307  1.00  0.00    -0.248 NA
ATOM     20  C   UNL A   1      39.898  35.081  36.650  1.00  0.00     0.031 C 
ATOM     21  C   UNL A   1      40.101  30.465  34.699  1.00  0.00     0.029 A 
ATOM     22  N   UNL A   1      41.663  30.971  36.215  1.00  0.00    -0.354 N 
ATOM     23  C   UNL A   1      41.773  35.020  37.935  1.00  0.00     0.074 A 
ATOM     24  C   UNL A   1      40.650  35.795  37.469  1.00  0.00     0.031 C 
ATOM     25  C   UNL A   1      40.788  29.340  34.955  1.00  0.00     0.029 A 
ATOM     26  C   UNL A   1      41.863  29.651  35.888  1.00  0.00     0.049 A 
ATOM     27  H   UNL A   1      42.203  31.450  36.885  1.00  0.00     0.167 HD
ATOM     28  C   UNL A   1      42.693  35.467  38.817  1.00  0.00     0.034 A 
ATOM     29  C   UNL A   1      42.841  28.811  36.273  1.00  0.00     0.034 A 
ATOM     30  C   UNL A   1      43.772  34.649  39.287  1.00  0.00     0.049 A 
ATOM     31  C   UNL A   1      43.878  29.346  37.222  1.00  0.00     0.074 A 
ATOM     32  C   UNL A   1      44.795  34.979  40.153  1.00  0.00     0.029 A 
ATOM     33  N   UNL A   1      43.961  33.323  38.919  1.00  0.00    -0.354 N 
ATOM     34  N   UNL A   1      43.943  30.528  37.791  1.00  0.00    -0.248 NA
ATOM     35  C   UNL A   1      44.966  28.437  37.595  1.00  0.00     0.031 C 
ATOM     36  C   UNL A   1      45.625  33.859  40.278  1.00  0.00     0.029 A 
ATOM     37  C   UNL A   1      45.089  32.818  39.533  1.00  0.00     0.049 A 
ATOM     38  H   UNL A   1      43.376  32.818  38.309  1.00  0.00     0.167 HD
ATOM     39  C   UNL A   1      45.057  30.495  38.617  1.00  0.00     0.074 A 
ATOM     40  C   UNL A   1      45.624  29.165  38.487  1.00  0.00     0.031 C 
ATOM     41  C   UNL A   1      45.578  31.468  39.406  1.00  0.00     0.034 A 
BRANCH  28  42
ATOM     42  C   UNL A   1      42.591  36.904  39.251  1.00  0.00     0.023 A 
ATOM     43  C   UNL A   1      43.346  37.909  38.611  1.00  0.00     0.012 A 
ATOM     44  C   UNL A   1      41.763  37.248  40.336  1.00  0.00     0.148 A 
ATOM     45  C   UNL A   1      43.313  39.224  39.077  1.00  0.00     0.002 A 
ATOM     46  C   UNL A   1      41.695  38.569  40.761  1.00  0.00     0.091 A 
ATOM     47  F   UNL A   1      41.080  36.273  40.952  1.00  0.00    -0.205 F 
ATOM     48  C   UNL A   1      42.483  39.555  40.145  1.00  0.00     0.022 A 
BRANCH  46  49
ATOM     49  S   UNL A   1      40.606  39.103  42.084  1.00  0.00     0.127 S 
ATOM     50  O   UNL A   1      41.142  38.364  43.226  1.00  0.00    -0.237 OA
ATOM     51  O   UNL A   1      40.856  40.544  42.118  1.00  0.00    -0.237 OA
ATOM     52  O   UNL A   1      39.260  38.726  41.677  1.00  0.00    -0.744 OA
ENDBRANCH  46  49
ENDBRANCH  28  42
BRANCH  29  53
ATOM     53  C   UNL A   1      42.890  27.411  35.759  1.00  0.00     0.023 A 
ATOM     54  C   UNL A   1      42.127  26.407  36.386  1.00  0.00     0.012 A 
ATOM     55  C   UNL A   1      43.681  27.069  34.643  1.00  0.00     0.148 A 
ATOM     56  C   UNL A   1      42.176  25.086  35.932  1.00  0.00     0.002 A 
ATOM     57  C   UNL A   1      43.681  25.766  34.160  1.00  0.00     0.091 A 
ATOM     58  F   UNL A   1      44.416  28.031  34.067  1.00  0.00    -0.205 F 
ATOM     59  C   UNL A   1      42.945  24.768  34.815  1.00  0.00     0.022 A 
BRANCH  57  60
ATOM     60  S   UNL A   1      44.544  25.294  32.657  1.00  0.00     0.127 S 
ATOM     61  O   UNL A   1      44.135  23.901  32.501  1.00  0.00    -0.237 OA
ATOM     62  O   UNL A   1      43.971  26.218  31.677  1.00  0.00    -0.237 OA
ATOM     63  O   UNL A   1      45.958  25.512  32.929  1.00  0.00    -0.744 OA
ENDBRANCH  57  60
ENDBRANCH  29  53
BRANCH  41  64
ATOM     64  C   UNL A   1      46.775  31.106  40.236  1.00  0.00     0.023 A 
ATOM     65  C   UNL A   1      48.075  31.338  39.746  1.00  0.00     0.012 A 
ATOM     66  C   UNL A   1      46.597  30.609  41.540  1.00  0.00     0.148 A 
ATOM     67  C   UNL A   1      49.184  31.043  40.534  1.00  0.00     0.002 A 
ATOM     68  C   UNL A   1      47.705  30.376  42.341  1.00  0.00     0.091 A 
ATOM     69  F   UNL A   1      45.349  30.377  41.974  1.00  0.00    -0.205 F 
ATOM     70  C   UNL A   1      49.000  30.577  41.835  1.00  0.00     0.022 A 
BRANCH  68  71
ATOM     71  S   UNL A   1      47.549  29.890  44.061  1.00  0.00     0.127 S 
ATOM     72  O   UNL A   1      48.807  29.181  44.286  1.00  0.00    -0.237 OA
ATOM     73  O   UNL A   1      47.446  31.182  44.740  1.00  0.00    -0.237 OA
ATOM     74  O   UNL A   1      46.346  29.073  44.140  1.00  0.00    -0.744 OA
ENDBRANCH  68  71
ENDBRANCH  41  64
ENDBRANCH  15  16
ENDBRANCH   8  10
ENDBRANCH   7   8
ENDBRANCH   6   7
ENDBRANCH   5   6
ENDBRANCH   4   5
ENDBRANCH   3   4
ENDBRANCH   2   3
ENDBRANCH   1   2
BRANCH   1  75
ATOM     75  C   UNL A   1      41.236  27.777  29.772  1.00  0.00     0.188 C 
BRANCH  75  76
ATOM     76  C   UNL A   1      41.539  27.768  28.245  1.00  0.00     0.188 C 
BRANCH  76  77
ATOM     77  O   UNL A   1      40.453  27.352  27.433  1.00  0.00    -0.376 OA
BRANCH  77  78
ATOM     78  C   UNL A   1      39.513  26.469  28.034  1.00  0.00     0.202 C 
BRANCH  78  79
ATOM     79  C   UNL A   1      39.737  24.965  27.841  1.00  0.00     0.261 C 
BRANCH  79  80
ATOM     80  O   UNL A   1      39.398  24.455  26.543  1.00  0.00    -0.460 OA
BRANCH  80  81
ATOM     81  C   UNL A   1      38.354  23.615  26.372  1.00  0.00     0.338 C 
ATOM     82  O   UNL A   1      37.168  23.888  26.383  1.00  0.00    -0.246 OA
BRANCH  81  83
ATOM     83  C   UNL A   1      38.943  22.299  26.008  1.00  0.00     0.071 A 
ATOM     84  C   UNL A   1      40.110  21.896  26.685  1.00  0.00     0.016 A 
ATOM     85  C   UNL A   1      38.224  21.389  25.211  1.00  0.00     0.032 A 
ATOM     86  C   UNL A   1      40.520  20.561  26.636  1.00  0.00     0.001 A 
ATOM     87  C   UNL A   1      38.663  20.054  25.169  1.00  0.00     0.013 A 
ATOM     88  C   UNL A   1      39.790  19.640  25.887  1.00  0.00     0.001 A 
BRANCH  85  89
ATOM     89  C   UNL A   1      36.997  21.788  24.529  1.00  0.00     0.135 A 
ATOM     90  C   UNL A   1      36.695  22.571  23.438  1.00  0.00     0.051 A 
ATOM     91  O   UNL A   1      35.847  21.421  25.140  1.00  0.00    -0.457 OA
ATOM     92  C   UNL A   1      35.293  22.769  23.480  1.00  0.00     0.051 A 
ATOM     93  C   UNL A   1      34.786  22.059  24.565  1.00  0.00     0.128 A 
BRANCH  93  94
ATOM     94  C   UNL A   1      33.435  21.977  25.003  1.00  0.00     0.066 C 
ATOM     95  C   UNL A   1      32.581  22.994  25.249  1.00  0.00     0.106 C 
ATOM     96  C   UNL A   1      32.804  24.460  25.093  1.00  0.00     0.272 C 
ATOM     97  C   UNL A   1      31.255  22.655  25.773  1.00  0.00     0.228 C 
ATOM     98  O   UNL A   1      33.880  24.940  24.751  1.00  0.00    -0.268 OA
ATOM     99  N   UNL A   1      31.724  25.271  25.456  1.00  0.00    -0.226 N 
ATOM    100  N   UNL A   1      30.353  23.457  26.187  1.00  0.00    -0.156 NA
ATOM    101  C   UNL A   1      30.592  24.807  26.137  1.00  0.00     0.358 C 
ATOM    102  O   UNL A   1      29.787  25.563  26.677  1.00  0.00    -0.245 OA
BRANCH  97 103
ATOM    103  O   UNL A   1      30.958  21.350  25.838  1.00  0.00    -0.493 OA
ATOM    104  H   UNL A   1      30.295  20.992  25.283  1.00  0.00     0.295 HD
ENDBRANCH  97 103
BRANCH  99 105
ATOM    105  C   UNL A   1      31.912  26.681  25.263  1.00  0.00     0.055 A 
ATOM    106  C   UNL A   1      31.211  27.378  24.271  1.00  0.00     0.027 A 
ATOM    107  C   UNL A   1      32.726  27.400  26.157  1.00  0.00     0.042 A 
ATOM    108  C   UNL A   1      31.288  28.772  24.202  1.00  0.00     0.003 A 
ATOM    109  C   UNL A   1      32.817  28.786  26.065  1.00  0.00     0.020 A 
ATOM    110  C   UNL A   1      32.092  29.478  25.098  1.00  0.00     0.016 A 
ATOM    111  Br  UNL A   1      33.914  29.735  27.279  1.00  0.00    -0.051 Br
ENDBRANCH  99 105
ENDBRANCH  93  94
ENDBRANCH  85  89
ENDBRANCH  81  83
ENDBRANCH  80  81
ENDBRANCH  79  80
ENDBRANCH  78  79
ENDBRANCH  77  78
ENDBRANCH  76  77
ENDBRANCH  75  76
ENDBRANCH   1  75
TORSDOF 27
ENDMDL
MODEL 3
REMARK VINA RESULT:      -7.3      5.115     11.136
REMARK SMILES O=C(OCCOCCOCCOCCOC(=O)c1ccccc1-c1ccc(/C=C2\C(=O)N(c3cccc(Br)c3)C(=O)N=C2O)o1)c1ccc(-c2c3nc(c(-c4cccc(S(=O)(=O)[O-])c4F)c4ccc([nH]4)c(-c4cccc(S(=O)(=O)[O-])c4F)c4nc(c(-c5cccc(S(=O)(=O)[O-])c5F)c5ccc2[nH]5)C=C4)C=C3)cc1
REMARK SMILES IDX 9 1 8 2 7 3 6 4 5 5 4 6 3 7 2 8 1 9 46 10 47 11 108 12 48 13
REMARK SMILES IDX 107 14 49 15 50 16 51 17 101 18 52 19 106 20 100 21 102 22
REMARK SMILES IDX 53 23 105 24 99 25 98 26 54 28 86 29 66 30 85 31 67 32 70 33
REMARK SMILES IDX 84 34 103 35 68 36 69 37 83 39 104 40 71 41 55 42 56 43
REMARK SMILES IDX 64 44 57 45 59 46 65 47 58 48 60 49 61 50 62 51 63 52 87 53
REMARK SMILES IDX 88 54 96 55 89 56 91 57 97 58 90 59 92 60 93 61 94 62 95 63
REMARK SMILES IDX 72 64 73 65 81 66 74 67 76 68 82 69 75 70 77 71 78 72 79 73
REMARK SMILES IDX 80 74 10 75 11 76 12 77 13 78 14 79 15 80 16 81 17 82 18 83
REMARK SMILES IDX 19 84 23 85 20 86 22 87 21 88 24 89 25 90 45 91 26 92 27 93
REMARK SMILES IDX 28 94 29 95 30 96 43 97 31 98 32 99 42 100 40 101 41 102
REMARK SMILES IDX 44 103 33 105 34 106 39 107 35 108 37 109 36 110 38 111
REMARK H PARENT 102 27 70 38 44 104
REMARK Flexibility Score: inf
ROOT
ATOM      1  O   UNL A   1      39.811  29.021  30.873  1.00  0.00    -0.377 OA
ENDROOT
BRANCH   1   2
ATOM      2  C   UNL A   1      39.266  30.335  30.889  1.00  0.00     0.188 C 
BRANCH   2   3
ATOM      3  C   UNL A   1      38.843  30.901  29.532  1.00  0.00     0.188 C 
BRANCH   3   4
ATOM      4  O   UNL A   1      37.637  31.637  29.627  1.00  0.00    -0.376 OA
BRANCH   4   5
ATOM      5  C   UNL A   1      36.587  31.271  30.502  1.00  0.00     0.202 C 
BRANCH   5   6
ATOM      6  C   UNL A   1      35.323  32.115  30.546  1.00  0.00     0.261 C 
BRANCH   6   7
ATOM      7  O   UNL A   1      35.040  32.838  31.762  1.00  0.00    -0.460 OA
BRANCH   7   8
ATOM      8  C   UNL A   1      35.575  33.926  32.355  1.00  0.00     0.338 C 
ATOM      9  O   UNL A   1      35.154  35.034  32.026  1.00  0.00    -0.246 OA
BRANCH   8  10
ATOM     10  C   UNL A   1      36.640  33.872  33.388  1.00  0.00     0.060 A 
ATOM     11  C   UNL A   1      37.835  34.577  33.335  1.00  0.00     0.016 A 
ATOM     12  C   UNL A   1      36.371  33.142  34.553  1.00  0.00     0.016 A 
ATOM     13  C   UNL A   1      38.844  34.378  34.256  1.00  0.00     0.010 A 
ATOM     14  C   UNL A   1      37.338  33.021  35.554  1.00  0.00     0.010 A 
ATOM     15  C   UNL A   1      38.613  33.564  35.354  1.00  0.00    -0.014 A 
BRANCH  15  16
ATOM     16  C   UNL A   1      39.784  33.119  36.127  1.00  0.00     0.031 A 
ATOM     17  C   UNL A   1      40.085  33.858  37.397  1.00  0.00     0.074 A 
ATOM     18  C   UNL A   1      40.442  31.996  35.781  1.00  0.00     0.049 A 
ATOM     19  N   UNL A   1      41.081  33.714  38.225  1.00  0.00    -0.248 NA
ATOM     20  C   UNL A   1      39.124  34.907  37.797  1.00  0.00     0.031 C 
ATOM     21  C   UNL A   1      40.117  31.139  34.638  1.00  0.00     0.029 A 
ATOM     22  N   UNL A   1      41.502  31.369  36.376  1.00  0.00    -0.354 N 
ATOM     23  C   UNL A   1      40.917  34.707  39.181  1.00  0.00     0.074 A 
ATOM     24  C   UNL A   1      39.718  35.437  38.852  1.00  0.00     0.031 C 
ATOM     25  C   UNL A   1      40.948  30.086  34.626  1.00  0.00     0.029 A 
ATOM     26  C   UNL A   1      41.914  30.241  35.706  1.00  0.00     0.049 A 
ATOM     27  H   UNL A   1      41.929  31.692  37.202  1.00  0.00     0.167 HD
ATOM     28  C   UNL A   1      41.712  34.986  40.237  1.00  0.00     0.034 A 
ATOM     29  C   UNL A   1      42.984  29.455  35.926  1.00  0.00     0.034 A 
ATOM     30  C   UNL A   1      42.874  34.209  40.554  1.00  0.00     0.049 A 
ATOM     31  C   UNL A   1      43.878  29.813  37.082  1.00  0.00     0.074 A 
ATOM     32  C   UNL A   1      43.789  34.395  41.570  1.00  0.00     0.029 A 
ATOM     33  N   UNL A   1      43.277  33.087  39.842  1.00  0.00    -0.354 N 
ATOM     34  N   UNL A   1      43.736  30.772  37.967  1.00  0.00    -0.248 NA
ATOM     35  C   UNL A   1      45.068  28.979  37.281  1.00  0.00     0.031 C 
ATOM     36  C   UNL A   1      44.768  33.404  41.449  1.00  0.00     0.029 A 
ATOM     37  C   UNL A   1      44.434  32.570  40.390  1.00  0.00     0.049 A 
ATOM     38  H   UNL A   1      42.808  32.715  39.061  1.00  0.00     0.167 HD
ATOM     39  C   UNL A   1      44.797  30.637  38.852  1.00  0.00     0.074 A 
ATOM     40  C   UNL A   1      45.562  29.489  38.401  1.00  0.00     0.031 C 
ATOM     41  C   UNL A   1      45.124  31.392  39.930  1.00  0.00     0.034 A 
BRANCH  28  42
ATOM     42  C   UNL A   1      41.374  36.205  41.051  1.00  0.00     0.023 A 
ATOM     43  C   UNL A   1      40.570  36.106  42.205  1.00  0.00     0.012 A 
ATOM     44  C   UNL A   1      41.833  37.471  40.636  1.00  0.00     0.148 A 
ATOM     45  C   UNL A   1      40.189  37.253  42.904  1.00  0.00     0.002 A 
ATOM     46  C   UNL A   1      41.493  38.602  41.367  1.00  0.00     0.091 A 
ATOM     47  F   UNL A   1      42.568  37.548  39.518  1.00  0.00    -0.205 F 
ATOM     48  C   UNL A   1      40.656  38.498  42.490  1.00  0.00     0.022 A 
BRANCH  46  49
ATOM     49  S   UNL A   1      42.099  40.239  40.951  1.00  0.00     0.127 S 
ATOM     50  O   UNL A   1      43.410  39.933  40.378  1.00  0.00    -0.237 OA
ATOM     51  O   UNL A   1      41.102  40.695  39.983  1.00  0.00    -0.237 OA
ATOM     52  O   UNL A   1      42.128  40.989  42.198  1.00  0.00    -0.744 OA
ENDBRANCH  46  49
ENDBRANCH  28  42
BRANCH  29  53
ATOM     53  C   UNL A   1      43.268  28.288  35.041  1.00  0.00     0.023 A 
ATOM     54  C   UNL A   1      43.875  28.490  33.787  1.00  0.00     0.012 A 
ATOM     55  C   UNL A   1      42.950  26.974  35.440  1.00  0.00     0.148 A 
ATOM     56  C   UNL A   1      44.129  27.411  32.935  1.00  0.00     0.002 A 
ATOM     57  C   UNL A   1      43.258  25.899  34.614  1.00  0.00     0.091 A 
ATOM     58  F   UNL A   1      42.356  26.798  36.630  1.00  0.00    -0.205 F 
ATOM     59  C   UNL A   1      43.830  26.117  33.353  1.00  0.00     0.022 A 
BRANCH  57  60
ATOM     60  S   UNL A   1      43.020  24.192  35.123  1.00  0.00     0.127 S 
ATOM     61  O   UNL A   1      43.409  23.464  33.918  1.00  0.00    -0.237 OA
ATOM     62  O   UNL A   1      43.956  24.078  36.242  1.00  0.00    -0.237 OA
ATOM     63  O   UNL A   1      41.617  24.087  35.502  1.00  0.00    -0.744 OA
ENDBRANCH  57  60
ENDBRANCH  29  53
BRANCH  41  64
ATOM     64  C   UNL A   1      46.316  30.955  40.732  1.00  0.00     0.023 A 
ATOM     65  C   UNL A   1      47.598  31.450  40.424  1.00  0.00     0.012 A 
ATOM     66  C   UNL A   1      46.140  30.114  41.846  1.00  0.00     0.148 A 
ATOM     67  C   UNL A   1      48.697  31.079  41.195  1.00  0.00     0.002 A 
ATOM     68  C   UNL A   1      47.229  29.799  42.645  1.00  0.00     0.091 A 
ATOM     69  F   UNL A   1      44.912  29.640  42.103  1.00  0.00    -0.205 F 
ATOM     70  C   UNL A   1      48.510  30.267  42.313  1.00  0.00     0.022 A 
BRANCH  68  71
ATOM     71  S   UNL A   1      47.052  28.860  44.164  1.00  0.00     0.127 S 
ATOM     72  O   UNL A   1      46.101  27.824  43.764  1.00  0.00    -0.237 OA
ATOM     73  O   UNL A   1      48.416  28.382  44.393  1.00  0.00    -0.237 OA
ATOM     74  O   UNL A   1      46.570  29.801  45.164  1.00  0.00    -0.744 OA
ENDBRANCH  68  71
ENDBRANCH  41  64
ENDBRANCH  15  16
ENDBRANCH   8  10
ENDBRANCH   7   8
ENDBRANCH   6   7
ENDBRANCH   5   6
ENDBRANCH   4   5
ENDBRANCH   3   4
ENDBRANCH   2   3
ENDBRANCH   1   2
BRANCH   1  75
ATOM     75  C   UNL A   1      41.165  28.891  30.439  1.00  0.00     0.188 C 
BRANCH  75  76
ATOM     76  C   UNL A   1      41.473  28.673  28.930  1.00  0.00     0.188 C 
BRANCH  76  77
ATOM     77  O   UNL A   1      41.319  27.334  28.486  1.00  0.00    -0.376 OA
BRANCH  77  78
ATOM     78  C   UNL A   1      42.200  26.371  29.053  1.00  0.00     0.202 C 
BRANCH  78  79
ATOM     79  C   UNL A   1      43.236  25.730  28.122  1.00  0.00     0.261 C 
BRANCH  79  80
ATOM     80  O   UNL A   1      43.934  26.641  27.261  1.00  0.00    -0.460 OA
BRANCH  80  81
ATOM     81  C   UNL A   1      44.835  26.198  26.356  1.00  0.00     0.338 C 
ATOM     82  O   UNL A   1      44.668  26.024  25.164  1.00  0.00    -0.246 OA
BRANCH  81  83
ATOM     83  C   UNL A   1      46.132  26.111  27.078  1.00  0.00     0.071 A 
ATOM     84  C   UNL A   1      46.359  27.025  28.125  1.00  0.00     0.016 A 
ATOM     85  C   UNL A   1      46.982  25.005  26.892  1.00  0.00     0.032 A 
ATOM     86  C   UNL A   1      47.386  26.793  29.043  1.00  0.00     0.001 A 
ATOM     87  C   UNL A   1      48.015  24.800  27.822  1.00  0.00     0.013 A 
ATOM     88  C   UNL A   1      48.206  25.676  28.896  1.00  0.00     0.001 A 
BRANCH  85  89
ATOM     89  C   UNL A   1      46.737  24.036  25.828  1.00  0.00     0.135 A 
ATOM     90  C   UNL A   1      46.834  24.047  24.455  1.00  0.00     0.051 A 
ATOM     91  O   UNL A   1      46.175  22.871  26.221  1.00  0.00    -0.457 OA
ATOM     92  C   UNL A   1      46.184  22.869  24.012  1.00  0.00     0.051 A 
ATOM     93  C   UNL A   1      45.760  22.159  25.132  1.00  0.00     0.128 A 
BRANCH  93  94
ATOM     94  C   UNL A   1      45.052  20.926  25.171  1.00  0.00     0.066 C 
ATOM     95  C   UNL A   1      43.758  20.724  25.500  1.00  0.00     0.106 C 
ATOM     96  C   UNL A   1      42.721  21.729  25.872  1.00  0.00     0.272 C 
ATOM     97  C   UNL A   1      43.276  19.342  25.544  1.00  0.00     0.228 C 
ATOM     98  O   UNL A   1      42.959  22.928  25.978  1.00  0.00    -0.268 OA
ATOM     99  N   UNL A   1      41.464  21.203  26.190  1.00  0.00    -0.226 N 
ATOM    100  N   UNL A   1      42.140  18.925  25.948  1.00  0.00    -0.156 NA
ATOM    101  C   UNL A   1      41.215  19.839  26.385  1.00  0.00     0.358 C 
ATOM    102  O   UNL A   1      40.187  19.423  26.915  1.00  0.00    -0.245 OA
BRANCH  97 103
ATOM    103  O   UNL A   1      44.131  18.401  25.121  1.00  0.00    -0.493 OA
ATOM    104  H   UNL A   1      44.741  18.596  24.436  1.00  0.00     0.295 HD
ENDBRANCH  97 103
BRANCH  99 105
ATOM    105  C   UNL A   1      40.446  22.166  26.501  1.00  0.00     0.055 A 
ATOM    106  C   UNL A   1      40.663  23.172  27.451  1.00  0.00     0.027 A 
ATOM    107  C   UNL A   1      39.251  22.172  25.761  1.00  0.00     0.042 A 
ATOM    108  C   UNL A   1      39.722  24.190  27.626  1.00  0.00     0.003 A 
ATOM    109  C   UNL A   1      38.306  23.176  25.959  1.00  0.00     0.020 A 
ATOM    110  C   UNL A   1      38.542  24.193  26.880  1.00  0.00     0.016 A 
ATOM    111  Br  UNL A   1      36.706  23.170  24.950  1.00  0.00    -0.051 Br
ENDBRANCH  99 105
ENDBRANCH  93  94
ENDBRANCH  85  89
ENDBRANCH  81  83
ENDBRANCH  80  81
ENDBRANCH  79  80
ENDBRANCH  78  79
ENDBRANCH  77  78
ENDBRANCH  76  77
ENDBRANCH  75  76
ENDBRANCH   1  75
TORSDOF 27
ENDMDL
