MODEL 1
REMARK VINA RESULT:      -7.7      0.000      0.000
REMARK SMILES C[C@H](O)C[C@@H](Cc1cccc(Br)c1)C(=O)OCCOCCOCCOCCOC(=O)c1ccc(-c2c3nc(c(-c4cccc(S(=O)(=O)[O-])c4F)c4ccc([nH]4)c(-c4cccc(S(=O)(=O)[O-])c4F)c4nc(c(-c5cccc(S(=O)(=O)[O-])c5F)c5ccc2[nH]5)C=C4)C=C3)cc1
REMARK SMILES IDX 22 1 21 2 20 3 19 4 18 5 17 6 16 7 14 8 15 9 5 10 4 11 2 12
REMARK SMILES IDX 1 13 3 14 6 16 7 17 8 18 13 19 9 20 11 21 10 22 12 23 23 24
REMARK SMILES IDX 24 25 25 26 26 27 27 28 28 29 29 30 30 31 31 32 32 33 93 34
REMARK SMILES IDX 33 35 92 36 34 37 35 38 36 39 86 40 37 41 91 42 85 43 87 44
REMARK SMILES IDX 38 45 90 46 84 47 83 48 39 50 71 51 51 52 70 53 52 54 55 55
REMARK SMILES IDX 69 56 88 57 53 58 54 59 68 61 89 62 56 63 40 64 41 65 49 66
REMARK SMILES IDX 42 67 44 68 50 69 43 70 45 71 46 72 47 73 48 74 72 75 73 76
REMARK SMILES IDX 81 77 74 78 76 79 82 80 75 81 77 82 78 83 79 84 80 85 57 86
REMARK SMILES IDX 58 87 66 88 59 89 61 90 67 91 60 92 62 93 63 94 64 95 65 96
REMARK H PARENT 3 15 87 49 55 60
REMARK Flexibility Score: inf
ROOT
ATOM      1  O   UNL A   1      33.960  31.619  27.310  1.00  0.00    -0.377 OA
ENDROOT
BRANCH   1   2
ATOM      2  C   UNL A   1      33.275  30.393  27.184  1.00  0.00     0.188 C 
BRANCH   2   3
ATOM      3  C   UNL A   1      34.115  29.125  27.425  1.00  0.00     0.188 C 
BRANCH   3   4
ATOM      4  O   UNL A   1      34.511  28.289  26.347  1.00  0.00    -0.376 OA
BRANCH   4   5
ATOM      5  C   UNL A   1      33.597  27.339  25.817  1.00  0.00     0.202 C 
BRANCH   5   6
ATOM      6  C   UNL A   1      32.917  27.598  24.461  1.00  0.00     0.261 C 
BRANCH   6   7
ATOM      7  O   UNL A   1      33.242  26.709  23.373  1.00  0.00    -0.463 OA
BRANCH   7   8
ATOM      8  C   UNL A   1      32.261  25.871  22.956  1.00  0.00     0.309 C 
ATOM      9  O   UNL A   1      31.456  26.136  22.069  1.00  0.00    -0.252 OA
BRANCH   8  10
ATOM     10  C   UNL A   1      32.172  24.571  23.761  1.00  0.00     0.106 C 
BRANCH  10  11
ATOM     11  C   UNL A   1      30.829  24.291  24.465  1.00  0.00     0.047 C 
BRANCH  11  12
ATOM     12  C   UNL A   1      30.899  24.206  25.996  1.00  0.00     0.112 C 
ATOM     13  C   UNL A   1      30.460  22.837  26.515  1.00  0.00     0.038 C 
BRANCH  12  14
ATOM     14  O   UNL A   1      30.072  25.217  26.568  1.00  0.00    -0.393 OA
ATOM     15  H   UNL A   1      29.140  25.009  26.394  1.00  0.00     0.210 HD
ENDBRANCH  12  14
ENDBRANCH  11  12
ENDBRANCH  10  11
BRANCH  10  16
ATOM     16  C   UNL A   1      32.713  23.427  22.889  1.00  0.00     0.051 C 
BRANCH  16  17
ATOM     17  C   UNL A   1      33.472  22.345  23.623  1.00  0.00    -0.046 A 
ATOM     18  C   UNL A   1      34.812  22.550  23.981  1.00  0.00     0.004 A 
ATOM     19  C   UNL A   1      32.876  21.120  23.953  1.00  0.00     0.019 A 
ATOM     20  C   UNL A   1      35.534  21.553  24.642  1.00  0.00     0.001 A 
ATOM     21  C   UNL A   1      33.607  20.118  24.591  1.00  0.00     0.018 A 
ATOM     22  C   UNL A   1      34.934  20.330  24.942  1.00  0.00     0.016 A 
ATOM     23  Br  UNL A   1      32.776  18.460  24.959  1.00  0.00    -0.051 Br
ENDBRANCH  16  17
ENDBRANCH  10  16
ENDBRANCH   8  10
ENDBRANCH   7   8
ENDBRANCH   6   7
ENDBRANCH   5   6
ENDBRANCH   4   5
ENDBRANCH   3   4
ENDBRANCH   2   3
ENDBRANCH   1   2
BRANCH   1  24
ATOM     24  C   UNL A   1      34.375  31.978  28.617  1.00  0.00     0.188 C 
BRANCH  24  25
ATOM     25  C   UNL A   1      33.992  33.391  29.090  1.00  0.00     0.188 C 
BRANCH  25  26
ATOM     26  O   UNL A   1      35.100  34.279  29.222  1.00  0.00    -0.376 OA
BRANCH  26  27
ATOM     27  C   UNL A   1      36.359  33.741  29.609  1.00  0.00     0.202 C 
BRANCH  27  28
ATOM     28  C   UNL A   1      36.831  33.998  31.052  1.00  0.00     0.261 C 
BRANCH  28  29
ATOM     29  O   UNL A   1      36.633  32.925  31.986  1.00  0.00    -0.460 OA
BRANCH  29  30
ATOM     30  C   UNL A   1      36.877  31.670  31.548  1.00  0.00     0.338 C 
ATOM     31  O   UNL A   1      36.054  30.807  31.321  1.00  0.00    -0.246 OA
BRANCH  30  32
ATOM     32  C   UNL A   1      38.304  31.578  31.170  1.00  0.00     0.060 A 
ATOM     33  C   UNL A   1      38.613  31.434  29.813  1.00  0.00     0.016 A 
ATOM     34  C   UNL A   1      39.321  31.614  32.129  1.00  0.00     0.016 A 
ATOM     35  C   UNL A   1      39.935  31.264  29.414  1.00  0.00     0.010 A 
ATOM     36  C   UNL A   1      40.648  31.420  31.728  1.00  0.00     0.010 A 
ATOM     37  C   UNL A   1      40.954  31.200  30.374  1.00  0.00    -0.014 A 
BRANCH  37  38
ATOM     38  C   UNL A   1      42.287  30.711  29.948  1.00  0.00     0.031 A 
ATOM     39  C   UNL A   1      43.408  31.706  29.798  1.00  0.00     0.074 A 
ATOM     40  C   UNL A   1      42.522  29.397  29.782  1.00  0.00     0.049 A 
ATOM     41  N   UNL A   1      44.668  31.499  29.516  1.00  0.00    -0.248 NA
ATOM     42  C   UNL A   1      43.064  33.123  30.001  1.00  0.00     0.031 C 
ATOM     43  C   UNL A   1      41.522  28.338  29.905  1.00  0.00     0.029 A 
ATOM     44  N   UNL A   1      43.680  28.733  29.467  1.00  0.00    -0.354 N 
ATOM     45  C   UNL A   1      45.264  32.754  29.499  1.00  0.00     0.074 A 
ATOM     46  C   UNL A   1      44.224  33.721  29.772  1.00  0.00     0.031 C 
ATOM     47  C   UNL A   1      42.106  27.156  29.646  1.00  0.00     0.029 A 
ATOM     48  C   UNL A   1      43.515  27.376  29.321  1.00  0.00     0.049 A 
ATOM     49  H   UNL A   1      44.548  29.185  29.356  1.00  0.00     0.167 HD
ATOM     50  C   UNL A   1      46.564  33.074  29.297  1.00  0.00     0.034 A 
ATOM     51  C   UNL A   1      44.396  26.426  28.949  1.00  0.00     0.034 A 
ATOM     52  C   UNL A   1      47.598  32.112  29.028  1.00  0.00     0.049 A 
ATOM     53  C   UNL A   1      45.831  26.813  28.701  1.00  0.00     0.074 A 
ATOM     54  C   UNL A   1      48.950  32.335  28.828  1.00  0.00     0.029 A 
ATOM     55  N   UNL A   1      47.398  30.746  28.911  1.00  0.00    -0.354 N 
ATOM     56  N   UNL A   1      46.400  27.992  28.793  1.00  0.00    -0.248 NA
ATOM     57  C   UNL A   1      46.756  25.730  28.338  1.00  0.00     0.031 C 
ATOM     58  C   UNL A   1      49.561  31.105  28.558  1.00  0.00     0.029 A 
ATOM     59  C   UNL A   1      48.598  30.112  28.631  1.00  0.00     0.049 A 
ATOM     60  H   UNL A   1      46.530  30.292  29.011  1.00  0.00     0.167 HD
ATOM     61  C   UNL A   1      47.750  27.787  28.529  1.00  0.00     0.074 A 
ATOM     62  C   UNL A   1      47.918  26.364  28.311  1.00  0.00     0.031 C 
ATOM     63  C   UNL A   1      48.758  28.692  28.454  1.00  0.00     0.034 A 
BRANCH  50  64
ATOM     64  C   UNL A   1      46.948  34.529  29.386  1.00  0.00     0.023 A 
ATOM     65  C   UNL A   1      47.414  35.054  30.609  1.00  0.00     0.012 A 
ATOM     66  C   UNL A   1      46.905  35.359  28.249  1.00  0.00     0.148 A 
ATOM     67  C   UNL A   1      47.807  36.388  30.706  1.00  0.00     0.002 A 
ATOM     68  C   UNL A   1      47.342  36.676  28.342  1.00  0.00     0.091 A 
ATOM     69  F   UNL A   1      46.439  34.847  27.102  1.00  0.00    -0.205 F 
ATOM     70  C   UNL A   1      47.781  37.195  29.571  1.00  0.00     0.022 A 
BRANCH  68  71
ATOM     71  S   UNL A   1      47.422  37.776  26.925  1.00  0.00     0.127 S 
ATOM     72  O   UNL A   1      46.739  38.964  27.434  1.00  0.00    -0.237 OA
ATOM     73  O   UNL A   1      48.865  37.932  26.742  1.00  0.00    -0.237 OA
ATOM     74  O   UNL A   1      46.739  37.086  25.839  1.00  0.00    -0.744 OA
ENDBRANCH  68  71
ENDBRANCH  50  64
BRANCH  51  75
ATOM     75  C   UNL A   1      43.949  25.012  28.795  1.00  0.00     0.023 A 
ATOM     76  C   UNL A   1      43.859  24.170  29.921  1.00  0.00     0.012 A 
ATOM     77  C   UNL A   1      43.619  24.497  27.527  1.00  0.00     0.148 A 
ATOM     78  C   UNL A   1      43.491  22.831  29.780  1.00  0.00     0.002 A 
ATOM     79  C   UNL A   1      43.189  23.182  27.402  1.00  0.00     0.091 A 
ATOM     80  F   UNL A   1      43.729  25.306  26.464  1.00  0.00    -0.205 F 
ATOM     81  C   UNL A   1      43.146  22.339  28.523  1.00  0.00     0.022 A 
BRANCH  79  82
ATOM     82  S   UNL A   1      42.590  22.513  25.847  1.00  0.00     0.127 S 
ATOM     83  O   UNL A   1      43.166  21.172  25.856  1.00  0.00    -0.237 OA
ATOM     84  O   UNL A   1      41.139  22.564  26.036  1.00  0.00    -0.237 OA
ATOM     85  O   UNL A   1      43.088  23.412  24.814  1.00  0.00    -0.744 OA
ENDBRANCH  79  82
ENDBRANCH  51  75
BRANCH  63  86
ATOM     86  C   UNL A   1      50.140  28.167  28.153  1.00  0.00     0.023 A 
ATOM     87  C   UNL A   1      50.955  27.688  29.199  1.00  0.00     0.012 A 
ATOM     88  C   UNL A   1      50.620  28.117  26.830  1.00  0.00     0.148 A 
ATOM     89  C   UNL A   1      52.244  27.224  28.940  1.00  0.00     0.002 A 
ATOM     90  C   UNL A   1      51.885  27.602  26.572  1.00  0.00     0.091 A 
ATOM     91  F   UNL A   1      49.838  28.589  25.846  1.00  0.00    -0.205 F 
ATOM     92  C   UNL A   1      52.705  27.172  27.627  1.00  0.00     0.022 A 
BRANCH  90  93
ATOM     93  S   UNL A   1      52.524  27.407  24.905  1.00  0.00     0.127 S 
ATOM     94  O   UNL A   1      52.725  28.796  24.499  1.00  0.00    -0.237 OA
ATOM     95  O   UNL A   1      53.757  26.652  25.131  1.00  0.00    -0.237 OA
ATOM     96  O   UNL A   1      51.500  26.680  24.166  1.00  0.00    -0.744 OA
ENDBRANCH  90  93
ENDBRANCH  63  86
ENDBRANCH  37  38
ENDBRANCH  30  32
ENDBRANCH  29  30
ENDBRANCH  28  29
ENDBRANCH  27  28
ENDBRANCH  26  27
ENDBRANCH  25  26
ENDBRANCH  24  25
ENDBRANCH   1  24
TORSDOF 28
ENDMDL
MODEL 2
REMARK VINA RESULT:      -7.6      2.836      8.061
REMARK SMILES C[C@H](O)C[C@@H](Cc1cccc(Br)c1)C(=O)OCCOCCOCCOCCOC(=O)c1ccc(-c2c3nc(c(-c4cccc(S(=O)(=O)[O-])c4F)c4ccc([nH]4)c(-c4cccc(S(=O)(=O)[O-])c4F)c4nc(c(-c5cccc(S(=O)(=O)[O-])c5F)c5ccc2[nH]5)C=C4)C=C3)cc1
REMARK SMILES IDX 22 1 21 2 20 3 19 4 18 5 17 6 16 7 14 8 15 9 5 10 4 11 2 12
REMARK SMILES IDX 1 13 3 14 6 16 7 17 8 18 13 19 9 20 11 21 10 22 12 23 23 24
REMARK SMILES IDX 24 25 25 26 26 27 27 28 28 29 29 30 30 31 31 32 32 33 93 34
REMARK SMILES IDX 33 35 92 36 34 37 35 38 36 39 86 40 37 41 91 42 85 43 87 44
REMARK SMILES IDX 38 45 90 46 84 47 83 48 39 50 71 51 51 52 70 53 52 54 55 55
REMARK SMILES IDX 69 56 88 57 53 58 54 59 68 61 89 62 56 63 40 64 41 65 49 66
REMARK SMILES IDX 42 67 44 68 50 69 43 70 45 71 46 72 47 73 48 74 72 75 73 76
REMARK SMILES IDX 81 77 74 78 76 79 82 80 75 81 77 82 78 83 79 84 80 85 57 86
REMARK SMILES IDX 58 87 66 88 59 89 61 90 67 91 60 92 62 93 63 94 64 95 65 96
REMARK H PARENT 3 15 87 49 55 60
REMARK Flexibility Score: inf
ROOT
ATOM      1  O   UNL A   1      36.788  33.640  28.660  1.00  0.00    -0.377 OA
ENDROOT
BRANCH   1   2
ATOM      2  C   UNL A   1      35.511  34.077  29.065  1.00  0.00     0.188 C 
BRANCH   2   3
ATOM      3  C   UNL A   1      34.325  33.548  28.238  1.00  0.00     0.188 C 
BRANCH   3   4
ATOM      4  O   UNL A   1      34.408  32.311  27.542  1.00  0.00    -0.376 OA
BRANCH   4   5
ATOM      5  C   UNL A   1      33.401  31.327  27.729  1.00  0.00     0.202 C 
BRANCH   5   6
ATOM      6  C   UNL A   1      32.759  30.641  26.511  1.00  0.00     0.261 C 
BRANCH   6   7
ATOM      7  O   UNL A   1      33.084  29.254  26.281  1.00  0.00    -0.463 OA
BRANCH   7   8
ATOM      8  C   UNL A   1      32.114  28.485  25.727  1.00  0.00     0.309 C 
ATOM      9  O   UNL A   1      31.137  28.927  25.130  1.00  0.00    -0.252 OA
BRANCH   8  10
ATOM     10  C   UNL A   1      32.285  26.986  25.989  1.00  0.00     0.106 C 
BRANCH  10  11
ATOM     11  C   UNL A   1      31.351  26.042  25.206  1.00  0.00     0.047 C 
BRANCH  11  12
ATOM     12  C   UNL A   1      30.861  24.813  25.985  1.00  0.00     0.112 C 
ATOM     13  C   UNL A   1      30.864  23.550  25.125  1.00  0.00     0.038 C 
BRANCH  12  14
ATOM     14  O   UNL A   1      29.542  25.053  26.471  1.00  0.00    -0.393 OA
ATOM     15  H   UNL A   1      29.414  26.005  26.602  1.00  0.00     0.210 HD
ENDBRANCH  12  14
ENDBRANCH  11  12
ENDBRANCH  10  11
BRANCH  10  16
ATOM     16  C   UNL A   1      33.782  26.651  25.910  1.00  0.00     0.051 C 
BRANCH  16  17
ATOM     17  C   UNL A   1      34.136  25.402  25.137  1.00  0.00    -0.046 A 
ATOM     18  C   UNL A   1      34.025  25.389  23.739  1.00  0.00     0.004 A 
ATOM     19  C   UNL A   1      34.568  24.233  25.779  1.00  0.00     0.019 A 
ATOM     20  C   UNL A   1      34.330  24.236  23.010  1.00  0.00     0.001 A 
ATOM     21  C   UNL A   1      34.847  23.078  25.050  1.00  0.00     0.018 A 
ATOM     22  C   UNL A   1      34.736  23.075  23.666  1.00  0.00     0.016 A 
ATOM     23  Br  UNL A   1      35.367  21.509  25.969  1.00  0.00    -0.051 Br
ENDBRANCH  16  17
ENDBRANCH  10  16
ENDBRANCH   8  10
ENDBRANCH   7   8
ENDBRANCH   6   7
ENDBRANCH   5   6
ENDBRANCH   4   5
ENDBRANCH   3   4
ENDBRANCH   2   3
ENDBRANCH   1   2
BRANCH   1  24
ATOM     24  C   UNL A   1      37.590  33.025  29.655  1.00  0.00     0.188 C 
BRANCH  24  25
ATOM     25  C   UNL A   1      37.180  33.280  31.115  1.00  0.00     0.188 C 
BRANCH  25  26
ATOM     26  O   UNL A   1      36.765  32.109  31.815  1.00  0.00    -0.376 OA
BRANCH  26  27
ATOM     27  C   UNL A   1      35.904  31.192  31.151  1.00  0.00     0.202 C 
BRANCH  27  28
ATOM     28  C   UNL A   1      36.333  29.713  31.111  1.00  0.00     0.261 C 
BRANCH  28  29
ATOM     29  O   UNL A   1      37.047  29.227  32.258  1.00  0.00    -0.460 OA
BRANCH  29  30
ATOM     30  C   UNL A   1      38.135  28.458  32.031  1.00  0.00     0.338 C 
ATOM     31  O   UNL A   1      38.182  27.245  32.044  1.00  0.00    -0.246 OA
BRANCH  30  32
ATOM     32  C   UNL A   1      39.224  29.327  31.537  1.00  0.00     0.060 A 
ATOM     33  C   UNL A   1      39.569  29.238  30.183  1.00  0.00     0.016 A 
ATOM     34  C   UNL A   1      39.909  30.201  32.386  1.00  0.00     0.016 A 
ATOM     35  C   UNL A   1      40.639  29.977  29.687  1.00  0.00     0.010 A 
ATOM     36  C   UNL A   1      40.999  30.926  31.890  1.00  0.00     0.010 A 
ATOM     37  C   UNL A   1      41.395  30.782  30.549  1.00  0.00    -0.014 A 
BRANCH  37  38
ATOM     38  C   UNL A   1      42.696  31.299  30.063  1.00  0.00     0.031 A 
ATOM     39  C   UNL A   1      43.744  30.313  29.616  1.00  0.00     0.074 A 
ATOM     40  C   UNL A   1      42.912  32.621  29.936  1.00  0.00     0.049 A 
ATOM     41  N   UNL A   1      44.917  30.536  29.083  1.00  0.00    -0.248 NA
ATOM     42  C   UNL A   1      43.424  28.886  29.786  1.00  0.00     0.031 C 
ATOM     43  C   UNL A   1      41.974  33.671  30.328  1.00  0.00     0.029 A 
ATOM     44  N   UNL A   1      43.998  33.301  29.447  1.00  0.00    -0.354 N 
ATOM     45  C   UNL A   1      45.477  29.283  28.862  1.00  0.00     0.074 A 
ATOM     46  C   UNL A   1      44.528  28.304  29.344  1.00  0.00     0.031 C 
ATOM     47  C   UNL A   1      42.535  34.868  30.083  1.00  0.00     0.029 A 
ATOM     48  C   UNL A   1      43.876  34.668  29.536  1.00  0.00     0.049 A 
ATOM     49  H   UNL A   1      44.789  32.854  29.069  1.00  0.00     0.167 HD
ATOM     50  C   UNL A   1      46.664  28.972  28.290  1.00  0.00     0.034 A 
ATOM     51  C   UNL A   1      44.755  35.643  29.230  1.00  0.00     0.034 A 
ATOM     52  C   UNL A   1      47.606  29.947  27.809  1.00  0.00     0.049 A 
ATOM     53  C   UNL A   1      46.082  35.269  28.621  1.00  0.00     0.074 A 
ATOM     54  C   UNL A   1      48.829  29.732  27.196  1.00  0.00     0.029 A 
ATOM     55  N   UNL A   1      47.439  31.320  27.895  1.00  0.00    -0.354 N 
ATOM     56  N   UNL A   1      46.552  34.081  28.321  1.00  0.00    -0.248 NA
ATOM     57  C   UNL A   1      46.985  36.375  28.269  1.00  0.00     0.031 C 
ATOM     58  C   UNL A   1      49.415  30.976  26.940  1.00  0.00     0.029 A 
ATOM     59  C   UNL A   1      48.539  31.966  27.356  1.00  0.00     0.049 A 
ATOM     60  H   UNL A   1      46.654  31.770  28.283  1.00  0.00     0.167 HD
ATOM     61  C   UNL A   1      47.788  34.298  27.721  1.00  0.00     0.074 A 
ATOM     62  C   UNL A   1      47.975  35.734  27.666  1.00  0.00     0.031 C 
ATOM     63  C   UNL A   1      48.696  33.396  27.273  1.00  0.00     0.034 A 
BRANCH  50  64
ATOM     64  C   UNL A   1      47.001  27.512  28.127  1.00  0.00     0.023 A 
ATOM     65  C   UNL A   1      47.687  26.836  29.158  1.00  0.00     0.012 A 
ATOM     66  C   UNL A   1      46.590  26.797  26.987  1.00  0.00     0.148 A 
ATOM     67  C   UNL A   1      47.980  25.478  29.045  1.00  0.00     0.002 A 
ATOM     68  C   UNL A   1      46.844  25.434  26.900  1.00  0.00     0.091 A 
ATOM     69  F   UNL A   1      45.959  27.463  26.009  1.00  0.00    -0.205 F 
ATOM     70  C   UNL A   1      47.549  24.775  27.922  1.00  0.00     0.022 A 
BRANCH  68  71
ATOM     71  S   UNL A   1      46.267  24.420  25.535  1.00  0.00     0.127 S 
ATOM     72  O   UNL A   1      46.675  23.084  25.965  1.00  0.00    -0.237 OA
ATOM     73  O   UNL A   1      44.824  24.659  25.569  1.00  0.00    -0.237 OA
ATOM     74  O   UNL A   1      46.941  24.923  24.346  1.00  0.00    -0.744 OA
ENDBRANCH  68  71
ENDBRANCH  50  64
BRANCH  51  75
ATOM     75  C   UNL A   1      44.408  37.070  29.485  1.00  0.00     0.023 A 
ATOM     76  C   UNL A   1      44.554  37.615  30.776  1.00  0.00     0.012 A 
ATOM     77  C   UNL A   1      43.924  37.889  28.447  1.00  0.00     0.148 A 
ATOM     78  C   UNL A   1      44.183  38.935  31.037  1.00  0.00     0.002 A 
ATOM     79  C   UNL A   1      43.620  39.221  28.698  1.00  0.00     0.091 A 
ATOM     80  F   UNL A   1      43.772  37.349  27.230  1.00  0.00    -0.205 F 
ATOM     81  C   UNL A   1      43.726  39.741  29.997  1.00  0.00     0.022 A 
BRANCH  79  82
ATOM     82  S   UNL A   1      43.164  40.363  27.389  1.00  0.00     0.127 S 
ATOM     83  O   UNL A   1      44.150  40.047  26.360  1.00  0.00    -0.237 OA
ATOM     84  O   UNL A   1      41.795  39.943  27.085  1.00  0.00    -0.237 OA
ATOM     85  O   UNL A   1      43.262  41.693  27.977  1.00  0.00    -0.744 OA
ENDBRANCH  79  82
ENDBRANCH  51  75
BRANCH  63  86
ATOM     86  C   UNL A   1      49.962  33.935  26.653  1.00  0.00     0.023 A 
ATOM     87  C   UNL A   1      49.972  34.326  25.299  1.00  0.00     0.012 A 
ATOM     88  C   UNL A   1      51.133  34.084  27.421  1.00  0.00     0.148 A 
ATOM     89  C   UNL A   1      51.142  34.802  24.706  1.00  0.00     0.002 A 
ATOM     90  C   UNL A   1      52.280  34.611  26.838  1.00  0.00     0.091 A 
ATOM     91  F   UNL A   1      51.112  33.695  28.705  1.00  0.00    -0.205 F 
ATOM     92  C   UNL A   1      52.291  34.953  25.477  1.00  0.00     0.022 A 
BRANCH  90  93
ATOM     93  S   UNL A   1      53.777  34.932  27.777  1.00  0.00     0.127 S 
ATOM     94  O   UNL A   1      53.289  35.838  28.815  1.00  0.00    -0.237 OA
ATOM     95  O   UNL A   1      54.137  33.596  28.254  1.00  0.00    -0.237 OA
ATOM     96  O   UNL A   1      54.725  35.511  26.834  1.00  0.00    -0.744 OA
ENDBRANCH  90  93
ENDBRANCH  63  86
ENDBRANCH  37  38
ENDBRANCH  30  32
ENDBRANCH  29  30
ENDBRANCH  28  29
ENDBRANCH  27  28
ENDBRANCH  26  27
ENDBRANCH  25  26
ENDBRANCH  24  25
ENDBRANCH   1  24
TORSDOF 28
ENDMDL
MODEL 3
REMARK VINA RESULT:      -7.6      5.398     10.267
REMARK SMILES C[C@H](O)C[C@@H](Cc1cccc(Br)c1)C(=O)OCCOCCOCCOCCOC(=O)c1ccc(-c2c3nc(c(-c4cccc(S(=O)(=O)[O-])c4F)c4ccc([nH]4)c(-c4cccc(S(=O)(=O)[O-])c4F)c4nc(c(-c5cccc(S(=O)(=O)[O-])c5F)c5ccc2[nH]5)C=C4)C=C3)cc1
REMARK SMILES IDX 22 1 21 2 20 3 19 4 18 5 17 6 16 7 14 8 15 9 5 10 4 11 2 12
REMARK SMILES IDX 1 13 3 14 6 16 7 17 8 18 13 19 9 20 11 21 10 22 12 23 23 24
REMARK SMILES IDX 24 25 25 26 26 27 27 28 28 29 29 30 30 31 31 32 32 33 93 34
REMARK SMILES IDX 33 35 92 36 34 37 35 38 36 39 86 40 37 41 91 42 85 43 87 44
REMARK SMILES IDX 38 45 90 46 84 47 83 48 39 50 71 51 51 52 70 53 52 54 55 55
REMARK SMILES IDX 69 56 88 57 53 58 54 59 68 61 89 62 56 63 40 64 41 65 49 66
REMARK SMILES IDX 42 67 44 68 50 69 43 70 45 71 46 72 47 73 48 74 72 75 73 76
REMARK SMILES IDX 81 77 74 78 76 79 82 80 75 81 77 82 78 83 79 84 80 85 57 86
REMARK SMILES IDX 58 87 66 88 59 89 61 90 67 91 60 92 62 93 63 94 64 95 65 96
REMARK H PARENT 3 15 87 49 55 60
REMARK Flexibility Score: inf
ROOT
ATOM      1  O   UNL A   1      39.172  31.137  31.957  1.00  0.00    -0.377 OA
ENDROOT
BRANCH   1   2
ATOM      2  C   UNL A   1      40.442  30.682  31.548  1.00  0.00     0.188 C 
BRANCH   2   3
ATOM      3  C   UNL A   1      40.772  30.861  30.055  1.00  0.00     0.188 C 
BRANCH   3   4
ATOM      4  O   UNL A   1      40.569  29.806  29.125  1.00  0.00    -0.376 OA
BRANCH   4   5
ATOM      5  C   UNL A   1      39.271  29.254  28.957  1.00  0.00     0.202 C 
BRANCH   5   6
ATOM      6  C   UNL A   1      38.210  30.015  28.142  1.00  0.00     0.261 C 
BRANCH   6   7
ATOM      7  O   UNL A   1      37.757  31.283  28.660  1.00  0.00    -0.463 OA
BRANCH   7   8
ATOM      8  C   UNL A   1      36.694  31.252  29.501  1.00  0.00     0.309 C 
ATOM      9  O   UNL A   1      36.372  30.278  30.175  1.00  0.00    -0.252 OA
BRANCH   8  10
ATOM     10  C   UNL A   1      35.847  32.528  29.478  1.00  0.00     0.106 C 
BRANCH  10  11
ATOM     11  C   UNL A   1      35.407  33.034  28.089  1.00  0.00     0.047 C 
BRANCH  11  12
ATOM     12  C   UNL A   1      34.491  34.265  28.102  1.00  0.00     0.112 C 
ATOM     13  C   UNL A   1      33.016  33.885  27.993  1.00  0.00     0.038 C 
BRANCH  12  14
ATOM     14  O   UNL A   1      34.839  35.129  27.022  1.00  0.00    -0.393 OA
ATOM     15  H   UNL A   1      34.834  36.049  27.329  1.00  0.00     0.210 HD
ENDBRANCH  12  14
ENDBRANCH  11  12
ENDBRANCH  10  11
BRANCH  10  16
ATOM     16  C   UNL A   1      34.723  32.378  30.514  1.00  0.00     0.051 C 
BRANCH  16  17
ATOM     17  C   UNL A   1      34.841  33.252  31.743  1.00  0.00    -0.046 A 
ATOM     18  C   UNL A   1      35.341  32.715  32.938  1.00  0.00     0.004 A 
ATOM     19  C   UNL A   1      34.452  34.599  31.731  1.00  0.00     0.019 A 
ATOM     20  C   UNL A   1      35.439  33.503  34.087  1.00  0.00     0.001 A 
ATOM     21  C   UNL A   1      34.528  35.375  32.887  1.00  0.00     0.018 A 
ATOM     22  C   UNL A   1      35.025  34.835  34.066  1.00  0.00     0.016 A 
ATOM     23  Br  UNL A   1      33.933  37.169  32.836  1.00  0.00    -0.051 Br
ENDBRANCH  16  17
ENDBRANCH  10  16
ENDBRANCH   8  10
ENDBRANCH   7   8
ENDBRANCH   6   7
ENDBRANCH   5   6
ENDBRANCH   4   5
ENDBRANCH   3   4
ENDBRANCH   2   3
ENDBRANCH   1   2
BRANCH   1  24
ATOM     24  C   UNL A   1      39.126  32.417  32.565  1.00  0.00     0.188 C 
BRANCH  24  25
ATOM     25  C   UNL A   1      38.707  33.588  31.660  1.00  0.00     0.188 C 
BRANCH  25  26
ATOM     26  O   UNL A   1      39.798  34.249  31.023  1.00  0.00    -0.376 OA
BRANCH  26  27
ATOM     27  C   UNL A   1      39.682  34.574  29.643  1.00  0.00     0.202 C 
BRANCH  27  28
ATOM     28  C   UNL A   1      40.749  35.505  29.037  1.00  0.00     0.261 C 
BRANCH  28  29
ATOM     29  O   UNL A   1      41.999  34.894  28.683  1.00  0.00    -0.460 OA
BRANCH  29  30
ATOM     30  C   UNL A   1      42.632  35.368  27.588  1.00  0.00     0.338 C 
ATOM     31  O   UNL A   1      42.295  36.315  26.908  1.00  0.00    -0.246 OA
BRANCH  30  32
ATOM     32  C   UNL A   1      43.939  34.684  27.472  1.00  0.00     0.060 A 
ATOM     33  C   UNL A   1      44.176  33.917  26.327  1.00  0.00     0.016 A 
ATOM     34  C   UNL A   1      44.907  34.777  28.477  1.00  0.00     0.016 A 
ATOM     35  C   UNL A   1      45.358  33.191  26.207  1.00  0.00     0.010 A 
ATOM     36  C   UNL A   1      46.085  34.028  28.365  1.00  0.00     0.010 A 
ATOM     37  C   UNL A   1      46.293  33.197  27.251  1.00  0.00    -0.014 A 
BRANCH  37  38
ATOM     38  C   UNL A   1      47.374  32.183  27.228  1.00  0.00     0.031 A 
ATOM     39  C   UNL A   1      47.059  30.782  27.683  1.00  0.00     0.074 A 
ATOM     40  C   UNL A   1      48.588  32.476  26.731  1.00  0.00     0.049 A 
ATOM     41  N   UNL A   1      47.818  29.717  27.675  1.00  0.00    -0.248 NA
ATOM     42  C   UNL A   1      45.704  30.547  28.210  1.00  0.00     0.031 C 
ATOM     43  C   UNL A   1      49.011  33.792  26.254  1.00  0.00     0.029 A 
ATOM     44  N   UNL A   1      49.692  31.681  26.552  1.00  0.00    -0.354 N 
ATOM     45  C   UNL A   1      47.041  28.693  28.201  1.00  0.00     0.074 A 
ATOM     46  C   UNL A   1      45.758  29.266  28.544  1.00  0.00     0.031 C 
ATOM     47  C   UNL A   1      50.293  33.719  25.857  1.00  0.00     0.029 A 
ATOM     48  C   UNL A   1      50.785  32.359  26.068  1.00  0.00     0.049 A 
ATOM     49  H   UNL A   1      49.700  30.717  26.752  1.00  0.00     0.167 HD
ATOM     50  C   UNL A   1      47.356  27.386  28.364  1.00  0.00     0.034 A 
ATOM     51  C   UNL A   1      52.044  31.932  25.839  1.00  0.00     0.034 A 
ATOM     52  C   UNL A   1      48.631  26.815  28.021  1.00  0.00     0.049 A 
ATOM     53  C   UNL A   1      52.376  30.478  26.057  1.00  0.00     0.074 A 
ATOM     54  C   UNL A   1      49.041  25.498  28.131  1.00  0.00     0.029 A 
ATOM     55  N   UNL A   1      49.705  27.526  27.512  1.00  0.00    -0.354 N 
ATOM     56  N   UNL A   1      51.598  29.500  26.455  1.00  0.00    -0.248 NA
ATOM     57  C   UNL A   1      53.753  30.061  25.754  1.00  0.00     0.031 C 
ATOM     58  C   UNL A   1      50.375  25.419  27.718  1.00  0.00     0.029 A 
ATOM     59  C   UNL A   1      50.782  26.679  27.311  1.00  0.00     0.049 A 
ATOM     60  H   UNL A   1      49.703  28.492  27.321  1.00  0.00     0.167 HD
ATOM     61  C   UNL A   1      52.380  28.350  26.422  1.00  0.00     0.074 A 
ATOM     62  C   UNL A   1      53.683  28.750  25.928  1.00  0.00     0.031 C 
ATOM     63  C   UNL A   1      52.061  27.083  26.783  1.00  0.00     0.034 A 
BRANCH  50  64
ATOM     64  C   UNL A   1      46.291  26.474  28.917  1.00  0.00     0.023 A 
ATOM     65  C   UNL A   1      46.201  26.270  30.310  1.00  0.00     0.012 A 
ATOM     66  C   UNL A   1      45.346  25.867  28.069  1.00  0.00     0.148 A 
ATOM     67  C   UNL A   1      45.204  25.458  30.847  1.00  0.00     0.002 A 
ATOM     68  C   UNL A   1      44.326  25.095  28.614  1.00  0.00     0.091 A 
ATOM     69  F   UNL A   1      45.461  26.055  26.747  1.00  0.00    -0.205 F 
ATOM     70  C   UNL A   1      44.261  24.880  30.001  1.00  0.00     0.022 A 
BRANCH  68  71
ATOM     71  S   UNL A   1      43.018  24.370  27.621  1.00  0.00     0.127 S 
ATOM     72  O   UNL A   1      42.546  25.527  26.863  1.00  0.00    -0.237 OA
ATOM     73  O   UNL A   1      43.749  23.379  26.830  1.00  0.00    -0.237 OA
ATOM     74  O   UNL A   1      42.058  23.812  28.563  1.00  0.00    -0.744 OA
ENDBRANCH  68  71
ENDBRANCH  50  64
BRANCH  51  75
ATOM     75  C   UNL A   1      53.084  32.891  25.371  1.00  0.00     0.023 A 
ATOM     76  C   UNL A   1      53.321  33.063  23.993  1.00  0.00     0.012 A 
ATOM     77  C   UNL A   1      53.848  33.631  26.294  1.00  0.00     0.148 A 
ATOM     78  C   UNL A   1      54.328  33.921  23.546  1.00  0.00     0.002 A 
ATOM     79  C   UNL A   1      54.803  34.532  25.841  1.00  0.00     0.091 A 
ATOM     80  F   UNL A   1      53.623  33.440  27.602  1.00  0.00    -0.205 F 
ATOM     81  C   UNL A   1      55.061  34.663  24.468  1.00  0.00     0.022 A 
BRANCH  79  82
ATOM     82  S   UNL A   1      55.689  35.630  26.953  1.00  0.00     0.127 S 
ATOM     83  O   UNL A   1      56.555  36.356  26.029  1.00  0.00    -0.237 OA
ATOM     84  O   UNL A   1      54.598  36.419  27.530  1.00  0.00    -0.237 OA
ATOM     85  O   UNL A   1      56.364  34.761  27.908  1.00  0.00    -0.744 OA
ENDBRANCH  79  82
ENDBRANCH  51  75
BRANCH  63  86
ATOM     86  C   UNL A   1      53.128  26.028  26.628  1.00  0.00     0.023 A 
ATOM     87  C   UNL A   1      53.071  25.120  25.551  1.00  0.00     0.012 A 
ATOM     88  C   UNL A   1      54.206  25.955  27.532  1.00  0.00     0.148 A 
ATOM     89  C   UNL A   1      54.036  24.124  25.410  1.00  0.00     0.002 A 
ATOM     90  C   UNL A   1      55.195  24.994  27.354  1.00  0.00     0.091 A 
ATOM     91  F   UNL A   1      54.240  26.816  28.561  1.00  0.00    -0.205 F 
ATOM     92  C   UNL A   1      55.102  24.066  26.304  1.00  0.00     0.022 A 
BRANCH  90  93
ATOM     93  S   UNL A   1      56.653  24.907  28.398  1.00  0.00     0.127 S 
ATOM     94  O   UNL A   1      56.065  24.630  29.707  1.00  0.00    -0.237 OA
ATOM     95  O   UNL A   1      57.389  23.787  27.812  1.00  0.00    -0.237 OA
ATOM     96  O   UNL A   1      57.315  26.198  28.270  1.00  0.00    -0.744 OA
ENDBRANCH  90  93
ENDBRANCH  63  86
ENDBRANCH  37  38
ENDBRANCH  30  32
ENDBRANCH  29  30
ENDBRANCH  28  29
ENDBRANCH  27  28
ENDBRANCH  26  27
ENDBRANCH  25  26
ENDBRANCH  24  25
ENDBRANCH   1  24
TORSDOF 28
ENDMDL
