MODEL 1
REMARK VINA RESULT:      -7.2      0.000      0.000
REMARK SMILES O=C(OCCOCCOCCOCCOC(=O)c1ccc(-c2c3nc(c(-c4cccc(S(=O)(=O)[O-])c4F)c4ccc([nH]4)c(-c4cccc(S(=O)(=O)[O-])c4F)c4nc(c(-c5cccc(S(=O)(=O)[O-])c5F)c5ccc2[nH]5)C=C4)C=C3)cc1)C1=Cc2cc(Cl)cc(-c3ccccc3)c2O[C@@H]1C(F)(F)F
REMARK SMILES IDX 10 1 9 2 8 3 7 4 6 5 5 6 4 7 3 8 2 9 1 10 81 11 82 12 97 13
REMARK SMILES IDX 83 14 96 15 84 16 95 17 85 18 88 19 86 20 87 21 98 22 99 23
REMARK SMILES IDX 100 24 101 25 89 26 90 27 94 28 91 29 93 30 92 31 11 32
REMARK SMILES IDX 12 33 13 34 14 35 15 36 16 37 17 38 18 39 19 40 80 41 20 42
REMARK SMILES IDX 79 43 21 44 22 45 23 46 73 47 24 48 78 49 72 50 74 51 25 52
REMARK SMILES IDX 77 53 71 54 70 55 26 57 58 58 38 59 57 60 39 61 42 62 56 63
REMARK SMILES IDX 75 64 40 65 41 66 55 68 76 69 43 70 27 71 28 72 36 73 29 74
REMARK SMILES IDX 31 75 37 76 30 77 32 78 33 79 34 80 35 81 59 82 60 83 68 84
REMARK SMILES IDX 61 85 63 86 69 87 62 88 64 89 65 90 66 91 67 92 44 93 45 94
REMARK SMILES IDX 53 95 46 96 48 97 54 98 47 99 49 100 50 101 51 102 52 103
REMARK H PARENT 74 56 42 67
REMARK Flexibility Score: inf
ROOT
ATOM      1  C   UNL A   1      42.138  23.079  28.439  1.00  0.00     0.188 C 
ENDROOT
BRANCH   1   2
ATOM      2  O   UNL A   1      41.786  24.435  28.163  1.00  0.00    -0.377 OA
BRANCH   2   3
ATOM      3  C   UNL A   1      40.654  24.600  27.310  1.00  0.00     0.188 C 
BRANCH   3   4
ATOM      4  C   UNL A   1      39.703  25.674  27.827  1.00  0.00     0.188 C 
BRANCH   4   5
ATOM      5  O   UNL A   1      40.374  26.747  28.450  1.00  0.00    -0.376 OA
BRANCH   5   6
ATOM      6  C   UNL A   1      39.849  27.233  29.674  1.00  0.00     0.202 C 
BRANCH   6   7
ATOM      7  C   UNL A   1      40.227  28.666  30.074  1.00  0.00     0.261 C 
BRANCH   7   8
ATOM      8  O   UNL A   1      39.285  29.283  30.976  1.00  0.00    -0.460 OA
BRANCH   8   9
ATOM      9  C   UNL A   1      39.697  29.474  32.260  1.00  0.00     0.338 C 
ATOM     10  O   UNL A   1      40.087  28.563  32.975  1.00  0.00    -0.246 OA
BRANCH   9  11
ATOM     11  C   UNL A   1      39.457  30.861  32.769  1.00  0.00     0.087 C 
ATOM     12  C   UNL A   1      40.294  31.814  32.317  1.00  0.00     0.027 C 
ATOM     13  C   UNL A   1      38.027  31.233  32.994  1.00  0.00     0.316 C 
ATOM     14  C   UNL A   1      39.686  32.812  31.422  1.00  0.00     0.019 A 
ATOM     15  O   UNL A   1      37.474  31.975  31.874  1.00  0.00    -0.475 OA
ATOM     16  C   UNL A   1      40.469  33.766  30.770  1.00  0.00     0.032 A 
ATOM     17  C   UNL A   1      38.356  32.622  31.034  1.00  0.00     0.135 A 
ATOM     18  C   UNL A   1      39.937  34.459  29.684  1.00  0.00     0.042 A 
ATOM     19  C   UNL A   1      37.943  33.084  29.763  1.00  0.00     0.026 A 
ATOM     20  Cl  UNL A   1      40.861  35.690  28.917  1.00  0.00    -0.084 Cl
ATOM     21  C   UNL A   1      38.713  34.080  29.142  1.00  0.00     0.033 A 
BRANCH  13  22
ATOM     22  C   UNL A   1      37.813  31.776  34.413  1.00  0.00     0.430 C 
ATOM     23  F   UNL A   1      38.607  32.840  34.677  1.00  0.00    -0.167 F 
ATOM     24  F   UNL A   1      36.531  32.228  34.548  1.00  0.00    -0.167 F 
ATOM     25  F   UNL A   1      38.003  30.858  35.381  1.00  0.00    -0.167 F 
ENDBRANCH  13  22
BRANCH  19  26
ATOM     26  C   UNL A   1      37.016  32.313  28.906  1.00  0.00    -0.015 A 
ATOM     27  C   UNL A   1      37.359  30.981  28.557  1.00  0.00     0.009 A 
ATOM     28  C   UNL A   1      35.795  32.802  28.456  1.00  0.00     0.009 A 
ATOM     29  C   UNL A   1      36.477  30.141  27.869  1.00  0.00     0.001 A 
ATOM     30  C   UNL A   1      34.908  31.949  27.783  1.00  0.00     0.001 A 
ATOM     31  C   UNL A   1      35.229  30.620  27.511  1.00  0.00     0.000 A 
ENDBRANCH  19  26
ENDBRANCH   9  11
ENDBRANCH   8   9
ENDBRANCH   7   8
ENDBRANCH   6   7
ENDBRANCH   5   6
ENDBRANCH   4   5
ENDBRANCH   3   4
ENDBRANCH   2   3
ENDBRANCH   1   2
BRANCH   1  32
ATOM     32  C   UNL A   1      42.112  22.134  27.215  1.00  0.00     0.188 C 
BRANCH  32  33
ATOM     33  O   UNL A   1      43.277  21.807  26.468  1.00  0.00    -0.376 OA
BRANCH  33  34
ATOM     34  C   UNL A   1      43.586  22.590  25.337  1.00  0.00     0.202 C 
BRANCH  34  35
ATOM     35  C   UNL A   1      45.086  22.861  25.128  1.00  0.00     0.261 C 
BRANCH  35  36
ATOM     36  O   UNL A   1      45.405  24.005  24.306  1.00  0.00    -0.460 OA
BRANCH  36  37
ATOM     37  C   UNL A   1      46.367  24.853  24.743  1.00  0.00     0.338 C 
ATOM     38  O   UNL A   1      47.471  25.010  24.239  1.00  0.00    -0.246 OA
BRANCH  37  39
ATOM     39  C   UNL A   1      45.834  25.681  25.874  1.00  0.00     0.060 A 
ATOM     40  C   UNL A   1      44.567  26.275  25.754  1.00  0.00     0.016 A 
ATOM     41  C   UNL A   1      46.542  25.855  27.069  1.00  0.00     0.016 A 
ATOM     42  C   UNL A   1      44.015  27.042  26.805  1.00  0.00     0.010 A 
ATOM     43  C   UNL A   1      45.990  26.619  28.116  1.00  0.00     0.010 A 
ATOM     44  C   UNL A   1      44.726  27.235  27.997  1.00  0.00    -0.014 A 
BRANCH  44  45
ATOM     45  C   UNL A   1      44.300  28.209  29.056  1.00  0.00     0.031 A 
ATOM     46  C   UNL A   1      44.536  29.671  28.801  1.00  0.00     0.074 A 
ATOM     47  C   UNL A   1      43.806  27.863  30.265  1.00  0.00     0.049 A 
ATOM     48  N   UNL A   1      44.371  30.683  29.611  1.00  0.00    -0.248 NA
ATOM     49  C   UNL A   1      44.975  30.042  27.446  1.00  0.00     0.031 C 
ATOM     50  C   UNL A   1      43.362  26.539  30.656  1.00  0.00     0.029 A 
ATOM     51  N   UNL A   1      43.656  28.598  31.425  1.00  0.00    -0.354 N 
ATOM     52  C   UNL A   1      44.668  31.811  28.865  1.00  0.00     0.074 A 
ATOM     53  C   UNL A   1      45.065  31.359  27.548  1.00  0.00     0.031 C 
ATOM     54  C   UNL A   1      43.177  26.494  31.989  1.00  0.00     0.029 A 
ATOM     55  C   UNL A   1      43.429  27.818  32.542  1.00  0.00     0.049 A 
ATOM     56  H   UNL A   1      43.707  29.581  31.452  1.00  0.00     0.167 HD
ATOM     57  C   UNL A   1      44.581  33.110  29.227  1.00  0.00     0.034 A 
ATOM     58  C   UNL A   1      43.431  28.124  33.858  1.00  0.00     0.034 A 
ATOM     59  C   UNL A   1      44.193  33.579  30.527  1.00  0.00     0.049 A 
ATOM     60  C   UNL A   1      43.525  29.570  34.276  1.00  0.00     0.074 A 
ATOM     61  C   UNL A   1      44.006  34.885  30.945  1.00  0.00     0.029 A 
ATOM     62  N   UNL A   1      43.983  32.772  31.632  1.00  0.00    -0.354 N 
ATOM     63  N   UNL A   1      43.612  30.635  33.519  1.00  0.00    -0.248 NA
ATOM     64  C   UNL A   1      43.435  29.868  35.715  1.00  0.00     0.031 C 
ATOM     65  C   UNL A   1      43.742  34.871  32.318  1.00  0.00     0.029 A 
ATOM     66  C   UNL A   1      43.722  33.555  32.744  1.00  0.00     0.049 A 
ATOM     67  H   UNL A   1      44.014  31.787  31.627  1.00  0.00     0.167 HD
ATOM     68  C   UNL A   1      43.503  31.723  34.379  1.00  0.00     0.074 A 
ATOM     69  C   UNL A   1      43.355  31.192  35.715  1.00  0.00     0.031 C 
ATOM     70  C   UNL A   1      43.513  33.043  34.073  1.00  0.00     0.034 A 
BRANCH  57  71
ATOM     71  C   UNL A   1      44.902  34.136  28.182  1.00  0.00     0.023 A 
ATOM     72  C   UNL A   1      43.882  34.618  27.339  1.00  0.00     0.012 A 
ATOM     73  C   UNL A   1      46.202  34.663  28.083  1.00  0.00     0.148 A 
ATOM     74  C   UNL A   1      44.157  35.602  26.394  1.00  0.00     0.002 A 
ATOM     75  C   UNL A   1      46.458  35.674  27.168  1.00  0.00     0.091 A 
ATOM     76  F   UNL A   1      47.154  34.166  28.884  1.00  0.00    -0.205 F 
ATOM     77  C   UNL A   1      45.441  36.137  26.317  1.00  0.00     0.022 A 
BRANCH  75  78
ATOM     78  S   UNL A   1      48.058  36.476  27.040  1.00  0.00     0.127 S 
ATOM     79  O   UNL A   1      47.833  37.403  25.931  1.00  0.00    -0.237 OA
ATOM     80  O   UNL A   1      48.184  37.110  28.351  1.00  0.00    -0.237 OA
ATOM     81  O   UNL A   1      49.022  35.418  26.773  1.00  0.00    -0.744 OA
ENDBRANCH  75  78
ENDBRANCH  57  71
BRANCH  58  82
ATOM     82  C   UNL A   1      43.315  27.064  34.906  1.00  0.00     0.023 A 
ATOM     83  C   UNL A   1      42.046  26.686  35.389  1.00  0.00     0.012 A 
ATOM     84  C   UNL A   1      44.466  26.506  35.499  1.00  0.00     0.148 A 
ATOM     85  C   UNL A   1      41.927  25.826  36.483  1.00  0.00     0.002 A 
ATOM     86  C   UNL A   1      44.337  25.618  36.564  1.00  0.00     0.091 A 
ATOM     87  F   UNL A   1      45.666  26.880  35.035  1.00  0.00    -0.205 F 
ATOM     88  C   UNL A   1      43.070  25.294  37.072  1.00  0.00     0.022 A 
BRANCH  86  89
ATOM     89  S   UNL A   1      45.750  24.817  37.336  1.00  0.00     0.127 S 
ATOM     90  O   UNL A   1      46.584  25.960  37.697  1.00  0.00    -0.237 OA
ATOM     91  O   UNL A   1      45.122  24.129  38.465  1.00  0.00    -0.237 OA
ATOM     92  O   UNL A   1      46.299  23.925  36.324  1.00  0.00    -0.744 OA
ENDBRANCH  86  89
ENDBRANCH  58  82
BRANCH  70  93
ATOM     93  C   UNL A   1      43.308  34.038  35.186  1.00  0.00     0.023 A 
ATOM     94  C   UNL A   1      44.413  34.696  35.759  1.00  0.00     0.012 A 
ATOM     95  C   UNL A   1      42.005  34.394  35.593  1.00  0.00     0.148 A 
ATOM     96  C   UNL A   1      44.227  35.675  36.736  1.00  0.00     0.002 A 
ATOM     97  C   UNL A   1      41.825  35.408  36.525  1.00  0.00     0.091 A 
ATOM     98  F   UNL A   1      40.966  33.744  35.047  1.00  0.00    -0.205 F 
ATOM     99  C   UNL A   1      42.936  36.041  37.107  1.00  0.00     0.022 A 
BRANCH  97 100
ATOM    100  S   UNL A   1      40.202  36.021  36.990  1.00  0.00     0.127 S 
ATOM    101  O   UNL A   1      40.527  36.910  38.105  1.00  0.00    -0.237 OA
ATOM    102  O   UNL A   1      39.770  36.704  35.771  1.00  0.00    -0.237 OA
ATOM    103  O   UNL A   1      39.412  34.849  37.343  1.00  0.00    -0.744 OA
ENDBRANCH  97 100
ENDBRANCH  70  93
ENDBRANCH  44  45
ENDBRANCH  37  39
ENDBRANCH  36  37
ENDBRANCH  35  36
ENDBRANCH  34  35
ENDBRANCH  33  34
ENDBRANCH  32  33
ENDBRANCH   1  32
TORSDOF 25
ENDMDL
MODEL 2
REMARK VINA RESULT:      -6.7      4.122     10.890
REMARK SMILES O=C(OCCOCCOCCOCCOC(=O)c1ccc(-c2c3nc(c(-c4cccc(S(=O)(=O)[O-])c4F)c4ccc([nH]4)c(-c4cccc(S(=O)(=O)[O-])c4F)c4nc(c(-c5cccc(S(=O)(=O)[O-])c5F)c5ccc2[nH]5)C=C4)C=C3)cc1)C1=Cc2cc(Cl)cc(-c3ccccc3)c2O[C@@H]1C(F)(F)F
REMARK SMILES IDX 10 1 9 2 8 3 7 4 6 5 5 6 4 7 3 8 2 9 1 10 81 11 82 12 97 13
REMARK SMILES IDX 83 14 96 15 84 16 95 17 85 18 88 19 86 20 87 21 98 22 99 23
REMARK SMILES IDX 100 24 101 25 89 26 90 27 94 28 91 29 93 30 92 31 11 32
REMARK SMILES IDX 12 33 13 34 14 35 15 36 16 37 17 38 18 39 19 40 80 41 20 42
REMARK SMILES IDX 79 43 21 44 22 45 23 46 73 47 24 48 78 49 72 50 74 51 25 52
REMARK SMILES IDX 77 53 71 54 70 55 26 57 58 58 38 59 57 60 39 61 42 62 56 63
REMARK SMILES IDX 75 64 40 65 41 66 55 68 76 69 43 70 27 71 28 72 36 73 29 74
REMARK SMILES IDX 31 75 37 76 30 77 32 78 33 79 34 80 35 81 59 82 60 83 68 84
REMARK SMILES IDX 61 85 63 86 69 87 62 88 64 89 65 90 66 91 67 92 44 93 45 94
REMARK SMILES IDX 53 95 46 96 48 97 54 98 47 99 49 100 50 101 51 102 52 103
REMARK H PARENT 74 56 42 67
REMARK Flexibility Score: inf
ROOT
ATOM      1  C   UNL A   1      34.966  32.002  27.733  1.00  0.00     0.188 C 
ENDROOT
BRANCH   1   2
ATOM      2  O   UNL A   1      35.405  31.007  28.659  1.00  0.00    -0.377 OA
BRANCH   2   3
ATOM      3  C   UNL A   1      35.878  29.799  28.064  1.00  0.00     0.188 C 
BRANCH   3   4
ATOM      4  C   UNL A   1      37.348  29.896  27.670  1.00  0.00     0.188 C 
BRANCH   4   5
ATOM      5  O   UNL A   1      38.219  29.822  28.777  1.00  0.00    -0.376 OA
BRANCH   5   6
ATOM      6  C   UNL A   1      39.064  28.687  28.879  1.00  0.00     0.202 C 
BRANCH   6   7
ATOM      7  C   UNL A   1      40.539  28.881  28.499  1.00  0.00     0.261 C 
BRANCH   7   8
ATOM      8  O   UNL A   1      41.222  27.650  28.184  1.00  0.00    -0.460 OA
BRANCH   8   9
ATOM      9  C   UNL A   1      41.445  27.390  26.865  1.00  0.00     0.338 C 
ATOM     10  O   UNL A   1      41.698  28.264  26.050  1.00  0.00    -0.246 OA
BRANCH   9  11
ATOM     11  C   UNL A   1      41.175  25.970  26.479  1.00  0.00     0.087 C 
ATOM     12  C   UNL A   1      41.934  25.468  25.487  1.00  0.00     0.027 C 
ATOM     13  C   UNL A   1      40.784  25.055  27.595  1.00  0.00     0.316 C 
ATOM     14  C   UNL A   1      42.885  24.420  25.891  1.00  0.00     0.019 A 
ATOM     15  O   UNL A   1      41.914  24.287  28.091  1.00  0.00    -0.475 OA
ATOM     16  C   UNL A   1      43.829  23.918  24.994  1.00  0.00     0.032 A 
ATOM     17  C   UNL A   1      42.998  24.127  27.255  1.00  0.00     0.135 A 
ATOM     18  C   UNL A   1      44.920  23.200  25.480  1.00  0.00     0.042 A 
ATOM     19  C   UNL A   1      44.244  23.686  27.757  1.00  0.00     0.026 A 
ATOM     20  Cl  UNL A   1      46.051  22.512  24.384  1.00  0.00    -0.084 Cl
ATOM     21  C   UNL A   1      45.164  23.138  26.849  1.00  0.00     0.033 A 
BRANCH  13  22
ATOM     22  C   UNL A   1      39.477  24.316  27.274  1.00  0.00     0.430 C 
ATOM     23  F   UNL A   1      39.652  22.976  27.213  1.00  0.00    -0.167 F 
ATOM     24  F   UNL A   1      38.569  24.526  28.271  1.00  0.00    -0.167 F 
ATOM     25  F   UNL A   1      38.893  24.718  26.127  1.00  0.00    -0.167 F 
ENDBRANCH  13  22
BRANCH  19  26
ATOM     26  C   UNL A   1      44.770  24.133  29.065  1.00  0.00    -0.015 A 
ATOM     27  C   UNL A   1      45.902  24.988  29.090  1.00  0.00     0.009 A 
ATOM     28  C   UNL A   1      44.187  23.802  30.284  1.00  0.00     0.009 A 
ATOM     29  C   UNL A   1      46.375  25.564  30.274  1.00  0.00     0.001 A 
ATOM     30  C   UNL A   1      44.654  24.399  31.465  1.00  0.00     0.001 A 
ATOM     31  C   UNL A   1      45.723  25.294  31.463  1.00  0.00     0.000 A 
ENDBRANCH  19  26
ENDBRANCH   9  11
ENDBRANCH   8   9
ENDBRANCH   7   8
ENDBRANCH   6   7
ENDBRANCH   5   6
ENDBRANCH   4   5
ENDBRANCH   3   4
ENDBRANCH   2   3
ENDBRANCH   1   2
BRANCH   1  32
ATOM     32  C   UNL A   1      33.651  32.718  28.119  1.00  0.00     0.188 C 
BRANCH  32  33
ATOM     33  O   UNL A   1      33.285  33.991  27.600  1.00  0.00    -0.376 OA
BRANCH  33  34
ATOM     34  C   UNL A   1      32.864  34.985  28.506  1.00  0.00     0.202 C 
BRANCH  34  35
ATOM     35  C   UNL A   1      33.747  35.136  29.757  1.00  0.00     0.261 C 
BRANCH  35  36
ATOM     36  O   UNL A   1      33.178  34.635  30.986  1.00  0.00    -0.460 OA
BRANCH  36  37
ATOM     37  C   UNL A   1      33.581  35.200  32.150  1.00  0.00     0.338 C 
ATOM     38  O   UNL A   1      32.988  36.071  32.771  1.00  0.00    -0.246 OA
BRANCH  37  39
ATOM     39  C   UNL A   1      34.814  34.507  32.647  1.00  0.00     0.060 A 
ATOM     40  C   UNL A   1      34.713  33.195  33.141  1.00  0.00     0.016 A 
ATOM     41  C   UNL A   1      36.077  35.107  32.602  1.00  0.00     0.016 A 
ATOM     42  C   UNL A   1      35.853  32.495  33.595  1.00  0.00     0.010 A 
ATOM     43  C   UNL A   1      37.213  34.407  33.055  1.00  0.00     0.010 A 
ATOM     44  C   UNL A   1      37.119  33.097  33.571  1.00  0.00    -0.014 A 
BRANCH  44  45
ATOM     45  C   UNL A   1      38.324  32.499  34.235  1.00  0.00     0.031 A 
ATOM     46  C   UNL A   1      38.655  32.955  35.628  1.00  0.00     0.074 A 
ATOM     47  C   UNL A   1      39.189  31.650  33.637  1.00  0.00     0.049 A 
ATOM     48  N   UNL A   1      39.707  32.680  36.353  1.00  0.00    -0.248 NA
ATOM     49  C   UNL A   1      37.654  33.794  36.304  1.00  0.00     0.031 C 
ATOM     50  C   UNL A   1      38.982  30.973  32.372  1.00  0.00     0.029 A 
ATOM     51  N   UNL A   1      40.466  31.262  33.995  1.00  0.00    -0.354 N 
ATOM     52  C   UNL A   1      39.490  33.295  37.575  1.00  0.00     0.074 A 
ATOM     53  C   UNL A   1      38.226  33.994  37.481  1.00  0.00     0.031 C 
ATOM     54  C   UNL A   1      40.135  30.418  31.956  1.00  0.00     0.029 A 
ATOM     55  C   UNL A   1      41.157  30.647  32.969  1.00  0.00     0.049 A 
ATOM     56  H   UNL A   1      40.845  31.410  34.892  1.00  0.00     0.167 HD
ATOM     57  C   UNL A   1      40.252  33.251  38.690  1.00  0.00     0.034 A 
ATOM     58  C   UNL A   1      42.461  30.312  32.849  1.00  0.00     0.034 A 
ATOM     59  C   UNL A   1      41.509  32.567  38.802  1.00  0.00     0.049 A 
ATOM     60  C   UNL A   1      43.367  30.441  34.048  1.00  0.00     0.074 A 
ATOM     61  C   UNL A   1      42.302  32.413  39.926  1.00  0.00     0.029 A 
ATOM     62  N   UNL A   1      42.184  31.968  37.752  1.00  0.00    -0.354 N 
ATOM     63  N   UNL A   1      43.070  30.852  35.255  1.00  0.00    -0.248 NA
ATOM     64  C   UNL A   1      44.758  29.984  33.900  1.00  0.00     0.031 C 
ATOM     65  C   UNL A   1      43.485  31.774  39.543  1.00  0.00     0.029 A 
ATOM     66  C   UNL A   1      43.408  31.492  38.190  1.00  0.00     0.049 A 
ATOM     67  H   UNL A   1      41.844  31.893  36.831  1.00  0.00     0.167 HD
ATOM     68  C   UNL A   1      44.206  30.625  36.025  1.00  0.00     0.074 A 
ATOM     69  C   UNL A   1      45.202  30.051  35.148  1.00  0.00     0.031 C 
ATOM     70  C   UNL A   1      44.391  30.864  37.345  1.00  0.00     0.034 A 
BRANCH  57  71
ATOM     71  C   UNL A   1      39.733  33.962  39.903  1.00  0.00     0.023 A 
ATOM     72  C   UNL A   1      38.998  33.249  40.869  1.00  0.00     0.012 A 
ATOM     73  C   UNL A   1      40.033  35.320  40.110  1.00  0.00     0.148 A 
ATOM     74  C   UNL A   1      38.547  33.887  42.022  1.00  0.00     0.002 A 
ATOM     75  C   UNL A   1      39.618  35.938  41.280  1.00  0.00     0.091 A 
ATOM     76  F   UNL A   1      40.715  35.974  39.160  1.00  0.00    -0.205 F 
ATOM     77  C   UNL A   1      38.867  35.227  42.232  1.00  0.00     0.022 A 
BRANCH  75  78
ATOM     78  S   UNL A   1      40.039  37.636  41.677  1.00  0.00     0.127 S 
ATOM     79  O   UNL A   1      39.145  38.375  40.785  1.00  0.00    -0.237 OA
ATOM     80  O   UNL A   1      39.688  37.712  43.094  1.00  0.00    -0.237 OA
ATOM     81  O   UNL A   1      41.458  37.781  41.385  1.00  0.00    -0.744 OA
ENDBRANCH  75  78
ENDBRANCH  57  71
BRANCH  58  82
ATOM     82  C   UNL A   1      43.017  29.792  31.562  1.00  0.00     0.023 A 
ATOM     83  C   UNL A   1      43.072  28.403  31.328  1.00  0.00     0.012 A 
ATOM     84  C   UNL A   1      43.588  30.667  30.616  1.00  0.00     0.148 A 
ATOM     85  C   UNL A   1      43.741  27.894  30.213  1.00  0.00     0.002 A 
ATOM     86  C   UNL A   1      44.219  30.153  29.486  1.00  0.00     0.091 A 
ATOM     87  F   UNL A   1      43.536  31.985  30.855  1.00  0.00    -0.205 F 
ATOM     88  C   UNL A   1      44.316  28.767  29.294  1.00  0.00     0.022 A 
BRANCH  86  89
ATOM     89  S   UNL A   1      44.919  31.201  28.204  1.00  0.00     0.127 S 
ATOM     90  O   UNL A   1      43.781  32.045  27.850  1.00  0.00    -0.237 OA
ATOM     91  O   UNL A   1      45.993  31.883  28.928  1.00  0.00    -0.237 OA
ATOM     92  O   UNL A   1      45.383  30.294  27.163  1.00  0.00    -0.744 OA
ENDBRANCH  86  89
ENDBRANCH  58  82
BRANCH  70  93
ATOM     93  C   UNL A   1      45.702  30.464  37.970  1.00  0.00     0.023 A 
ATOM     94  C   UNL A   1      46.760  31.390  38.048  1.00  0.00     0.012 A 
ATOM     95  C   UNL A   1      45.849  29.195  38.571  1.00  0.00     0.148 A 
ATOM     96  C   UNL A   1      47.951  31.053  38.693  1.00  0.00     0.002 A 
ATOM     97  C   UNL A   1      47.015  28.887  39.258  1.00  0.00     0.091 A 
ATOM     98  F   UNL A   1      44.836  28.321  38.471  1.00  0.00    -0.205 F 
ATOM     99  C   UNL A   1      48.073  29.811  39.310  1.00  0.00     0.022 A 
BRANCH  97 100
ATOM    100  S   UNL A   1      47.226  27.355  40.172  1.00  0.00     0.127 S 
ATOM    101  O   UNL A   1      45.984  27.293  40.941  1.00  0.00    -0.237 OA
ATOM    102  O   UNL A   1      47.328  26.368  39.097  1.00  0.00    -0.237 OA
ATOM    103  O   UNL A   1      48.438  27.519  40.964  1.00  0.00    -0.744 OA
ENDBRANCH  97 100
ENDBRANCH  70  93
ENDBRANCH  44  45
ENDBRANCH  37  39
ENDBRANCH  36  37
ENDBRANCH  35  36
ENDBRANCH  34  35
ENDBRANCH  33  34
ENDBRANCH  32  33
ENDBRANCH   1  32
TORSDOF 25
ENDMDL
MODEL 3
REMARK VINA RESULT:      -6.6      2.340      3.563
REMARK SMILES O=C(OCCOCCOCCOCCOC(=O)c1ccc(-c2c3nc(c(-c4cccc(S(=O)(=O)[O-])c4F)c4ccc([nH]4)c(-c4cccc(S(=O)(=O)[O-])c4F)c4nc(c(-c5cccc(S(=O)(=O)[O-])c5F)c5ccc2[nH]5)C=C4)C=C3)cc1)C1=Cc2cc(Cl)cc(-c3ccccc3)c2O[C@@H]1C(F)(F)F
REMARK SMILES IDX 10 1 9 2 8 3 7 4 6 5 5 6 4 7 3 8 2 9 1 10 81 11 82 12 97 13
REMARK SMILES IDX 83 14 96 15 84 16 95 17 85 18 88 19 86 20 87 21 98 22 99 23
REMARK SMILES IDX 100 24 101 25 89 26 90 27 94 28 91 29 93 30 92 31 11 32
REMARK SMILES IDX 12 33 13 34 14 35 15 36 16 37 17 38 18 39 19 40 80 41 20 42
REMARK SMILES IDX 79 43 21 44 22 45 23 46 73 47 24 48 78 49 72 50 74 51 25 52
REMARK SMILES IDX 77 53 71 54 70 55 26 57 58 58 38 59 57 60 39 61 42 62 56 63
REMARK SMILES IDX 75 64 40 65 41 66 55 68 76 69 43 70 27 71 28 72 36 73 29 74
REMARK SMILES IDX 31 75 37 76 30 77 32 78 33 79 34 80 35 81 59 82 60 83 68 84
REMARK SMILES IDX 61 85 63 86 69 87 62 88 64 89 65 90 66 91 67 92 44 93 45 94
REMARK SMILES IDX 53 95 46 96 48 97 54 98 47 99 49 100 50 101 51 102 52 103
REMARK H PARENT 74 56 42 67
REMARK Flexibility Score: inf
ROOT
ATOM      1  C   UNL A   1      43.131  25.275  28.350  1.00  0.00     0.188 C 
ENDROOT
BRANCH   1   2
ATOM      2  O   UNL A   1      41.987  25.937  27.810  1.00  0.00    -0.377 OA
BRANCH   2   3
ATOM      3  C   UNL A   1      40.736  25.322  28.117  1.00  0.00     0.188 C 
BRANCH   3   4
ATOM      4  C   UNL A   1      39.786  26.287  28.818  1.00  0.00     0.188 C 
BRANCH   4   5
ATOM      5  O   UNL A   1      39.961  27.625  28.409  1.00  0.00    -0.376 OA
BRANCH   5   6
ATOM      6  C   UNL A   1      39.389  28.643  29.213  1.00  0.00     0.202 C 
BRANCH   6   7
ATOM      7  C   UNL A   1      38.807  29.862  28.484  1.00  0.00     0.261 C 
BRANCH   7   8
ATOM      8  O   UNL A   1      37.534  30.296  29.006  1.00  0.00    -0.460 OA
BRANCH   8   9
ATOM      9  C   UNL A   1      37.552  30.978  30.185  1.00  0.00     0.338 C 
ATOM     10  O   UNL A   1      37.484  30.425  31.273  1.00  0.00    -0.246 OA
BRANCH   9  11
ATOM     11  C   UNL A   1      37.479  32.463  30.023  1.00  0.00     0.087 C 
ATOM     12  C   UNL A   1      36.244  32.995  29.958  1.00  0.00     0.027 C 
ATOM     13  C   UNL A   1      38.544  33.247  30.720  1.00  0.00     0.316 C 
ATOM     14  C   UNL A   1      35.855  33.825  31.108  1.00  0.00     0.019 A 
ATOM     15  O   UNL A   1      38.090  33.764  32.001  1.00  0.00    -0.475 OA
ATOM     16  C   UNL A   1      34.554  34.317  31.236  1.00  0.00     0.032 A 
ATOM     17  C   UNL A   1      36.731  33.892  32.196  1.00  0.00     0.135 A 
ATOM     18  C   UNL A   1      34.121  34.792  32.472  1.00  0.00     0.042 A 
ATOM     19  C   UNL A   1      36.198  34.071  33.494  1.00  0.00     0.026 A 
ATOM     20  Cl  UNL A   1      32.549  35.468  32.628  1.00  0.00    -0.084 Cl
ATOM     21  C   UNL A   1      34.908  34.613  33.606  1.00  0.00     0.033 A 
BRANCH  13  22
ATOM     22  C   UNL A   1      39.252  34.203  29.751  1.00  0.00     0.430 C 
ATOM     23  F   UNL A   1      40.582  33.962  29.679  1.00  0.00    -0.167 F 
ATOM     24  F   UNL A   1      38.773  34.019  28.486  1.00  0.00    -0.167 F 
ATOM     25  F   UNL A   1      39.075  35.506  30.046  1.00  0.00    -0.167 F 
ENDBRANCH  13  22
BRANCH  19  26
ATOM     26  C   UNL A   1      36.740  33.364  34.674  1.00  0.00    -0.015 A 
ATOM     27  C   UNL A   1      37.378  32.110  34.484  1.00  0.00     0.009 A 
ATOM     28  C   UNL A   1      36.704  33.879  35.965  1.00  0.00     0.009 A 
ATOM     29  C   UNL A   1      38.036  31.445  35.524  1.00  0.00     0.001 A 
ATOM     30  C   UNL A   1      37.383  33.215  36.999  1.00  0.00     0.001 A 
ATOM     31  C   UNL A   1      38.067  32.020  36.781  1.00  0.00     0.000 A 
ENDBRANCH  19  26
ENDBRANCH   9  11
ENDBRANCH   8   9
ENDBRANCH   7   8
ENDBRANCH   6   7
ENDBRANCH   5   6
ENDBRANCH   4   5
ENDBRANCH   3   4
ENDBRANCH   2   3
ENDBRANCH   1   2
BRANCH   1  32
ATOM     32  C   UNL A   1      43.317  23.810  27.890  1.00  0.00     0.188 C 
BRANCH  32  33
ATOM     33  O   UNL A   1      44.341  23.409  26.987  1.00  0.00    -0.376 OA
BRANCH  33  34
ATOM     34  C   UNL A   1      44.300  23.905  25.669  1.00  0.00     0.202 C 
BRANCH  34  35
ATOM     35  C   UNL A   1      45.215  25.114  25.404  1.00  0.00     0.261 C 
BRANCH  35  36
ATOM     36  O   UNL A   1      44.550  26.312  24.950  1.00  0.00    -0.460 OA
BRANCH  36  37
ATOM     37  C   UNL A   1      45.179  27.498  25.137  1.00  0.00     0.338 C 
ATOM     38  O   UNL A   1      45.930  28.047  24.342  1.00  0.00    -0.246 OA
BRANCH  37  39
ATOM     39  C   UNL A   1      44.719  28.116  26.423  1.00  0.00     0.060 A 
ATOM     40  C   UNL A   1      43.434  28.680  26.493  1.00  0.00     0.016 A 
ATOM     41  C   UNL A   1      45.513  28.119  27.575  1.00  0.00     0.016 A 
ATOM     42  C   UNL A   1      42.949  29.250  27.692  1.00  0.00     0.010 A 
ATOM     43  C   UNL A   1      45.028  28.687  28.770  1.00  0.00     0.010 A 
ATOM     44  C   UNL A   1      43.746  29.273  28.845  1.00  0.00    -0.014 A 
BRANCH  44  45
ATOM     45  C   UNL A   1      43.384  30.050  30.077  1.00  0.00     0.031 A 
ATOM     46  C   UNL A   1      43.572  31.541  30.045  1.00  0.00     0.074 A 
ATOM     47  C   UNL A   1      42.990  29.499  31.245  1.00  0.00     0.049 A 
ATOM     48  N   UNL A   1      43.450  32.404  31.019  1.00  0.00    -0.248 NA
ATOM     49  C   UNL A   1      43.899  32.138  28.741  1.00  0.00     0.031 C 
ATOM     50  C   UNL A   1      42.602  28.116  31.447  1.00  0.00     0.029 A 
ATOM     51  N   UNL A   1      42.915  30.033  32.517  1.00  0.00    -0.354 N 
ATOM     52  C   UNL A   1      43.667  33.646  30.447  1.00  0.00     0.074 A 
ATOM     53  C   UNL A   1      43.971  33.424  29.049  1.00  0.00     0.031 C 
ATOM     54  C   UNL A   1      42.521  27.852  32.764  1.00  0.00     0.029 A 
ATOM     55  C   UNL A   1      42.789  29.077  33.505  1.00  0.00     0.049 A 
ATOM     56  H   UNL A   1      42.949  31.001  32.700  1.00  0.00     0.167 HD
ATOM     57  C   UNL A   1      43.583  34.867  31.021  1.00  0.00     0.034 A 
ATOM     58  C   UNL A   1      42.885  29.168  34.850  1.00  0.00     0.034 A 
ATOM     59  C   UNL A   1      43.287  35.108  32.405  1.00  0.00     0.049 A 
ATOM     60  C   UNL A   1      42.983  30.530  35.490  1.00  0.00     0.074 A 
ATOM     61  C   UNL A   1      43.107  36.323  33.041  1.00  0.00     0.029 A 
ATOM     62  N   UNL A   1      43.177  34.128  33.376  1.00  0.00    -0.354 N 
ATOM     63  N   UNL A   1      42.991  31.705  34.912  1.00  0.00    -0.248 NA
ATOM     64  C   UNL A   1      42.998  30.590  36.961  1.00  0.00     0.031 C 
ATOM     65  C   UNL A   1      42.949  36.081  34.409  1.00  0.00     0.029 A 
ATOM     66  C   UNL A   1      42.986  34.713  34.616  1.00  0.00     0.049 A 
ATOM     67  H   UNL A   1      43.226  33.158  33.209  1.00  0.00     0.167 HD
ATOM     68  C   UNL A   1      42.928  32.637  35.943  1.00  0.00     0.074 A 
ATOM     69  C   UNL A   1      42.892  31.893  37.182  1.00  0.00     0.031 C 
ATOM     70  C   UNL A   1      42.889  33.988  35.856  1.00  0.00     0.034 A 
BRANCH  57  71
ATOM     71  C   UNL A   1      43.804  36.056  30.136  1.00  0.00     0.023 A 
ATOM     72  C   UNL A   1      42.735  36.570  29.377  1.00  0.00     0.012 A 
ATOM     73  C   UNL A   1      45.055  36.698  30.111  1.00  0.00     0.148 A 
ATOM     74  C   UNL A   1      42.915  37.701  28.584  1.00  0.00     0.002 A 
ATOM     75  C   UNL A   1      45.214  37.848  29.353  1.00  0.00     0.091 A 
ATOM     76  F   UNL A   1      46.057  36.169  30.827  1.00  0.00    -0.205 F 
ATOM     77  C   UNL A   1      44.150  38.346  28.582  1.00  0.00     0.022 A 
BRANCH  75  78
ATOM     78  S   UNL A   1      46.741  38.790  29.338  1.00  0.00     0.127 S 
ATOM     79  O   UNL A   1      47.720  37.756  29.001  1.00  0.00    -0.237 OA
ATOM     80  O   UNL A   1      46.488  39.761  28.276  1.00  0.00    -0.237 OA
ATOM     81  O   UNL A   1      46.880  39.358  30.672  1.00  0.00    -0.744 OA
ENDBRANCH  75  78
ENDBRANCH  57  71
BRANCH  58  82
ATOM     82  C   UNL A   1      42.869  27.949  35.717  1.00  0.00     0.023 A 
ATOM     83  C   UNL A   1      41.648  27.458  36.220  1.00  0.00     0.012 A 
ATOM     84  C   UNL A   1      44.073  27.342  36.130  1.00  0.00     0.148 A 
ATOM     85  C   UNL A   1      41.629  26.430  37.166  1.00  0.00     0.002 A 
ATOM     86  C   UNL A   1      44.042  26.290  37.043  1.00  0.00     0.091 A 
ATOM     87  F   UNL A   1      45.227  27.825  35.650  1.00  0.00    -0.205 F 
ATOM     88  C   UNL A   1      42.823  25.848  37.579  1.00  0.00     0.022 A 
BRANCH  86  89
ATOM     89  S   UNL A   1      45.525  25.423  37.574  1.00  0.00     0.127 S 
ATOM     90  O   UNL A   1      46.282  26.490  38.222  1.00  0.00    -0.237 OA
ATOM     91  O   UNL A   1      44.973  24.417  38.483  1.00  0.00    -0.237 OA
ATOM     92  O   UNL A   1      46.115  24.873  36.362  1.00  0.00    -0.744 OA
ENDBRANCH  86  89
ENDBRANCH  58  82
BRANCH  70  93
ATOM     93  C   UNL A   1      42.750  34.785  37.127  1.00  0.00     0.023 A 
ATOM     94  C   UNL A   1      43.883  35.379  37.717  1.00  0.00     0.012 A 
ATOM     95  C   UNL A   1      41.476  35.027  37.682  1.00  0.00     0.148 A 
ATOM     96  C   UNL A   1      43.753  36.182  38.850  1.00  0.00     0.002 A 
ATOM     97  C   UNL A   1      41.348  35.872  38.776  1.00  0.00     0.091 A 
ATOM     98  F   UNL A   1      40.411  34.438  37.116  1.00  0.00    -0.205 F 
ATOM     99  C   UNL A   1      42.487  36.440  39.370  1.00  0.00     0.022 A 
BRANCH  97 100
ATOM    100  S   UNL A   1      39.753  36.347  39.453  1.00  0.00     0.127 S 
ATOM    101  O   UNL A   1      40.125  36.826  40.784  1.00  0.00    -0.237 OA
ATOM    102  O   UNL A   1      39.325  37.394  38.526  1.00  0.00    -0.237 OA
ATOM    103  O   UNL A   1      38.930  35.146  39.435  1.00  0.00    -0.744 OA
ENDBRANCH  97 100
ENDBRANCH  70  93
ENDBRANCH  44  45
ENDBRANCH  37  39
ENDBRANCH  36  37
ENDBRANCH  35  36
ENDBRANCH  34  35
ENDBRANCH  33  34
ENDBRANCH  32  33
ENDBRANCH   1  32
TORSDOF 25
ENDMDL
