MODEL 1
REMARK VINA RESULT:     -10.3      0.000      0.000
REMARK SMILES O=C(OCCOCCOCCOCCOC(=O)[C@]1(CCc2cccnc2)CCC[NH2+]C1)c1ccc(-c2c3nc(c(-c4cccc(S(=O)(=O)[O-])c4F)c4ccc([nH]4)c(-c4cccc(S(=O)(=O)[O-])c4F)c4nc(c(-c5cccc(S(=O)(=O)[O-])c5F)c5ccc2[nH]5)C=C4)C=C3)cc1
REMARK SMILES IDX 9 1 8 2 7 3 6 4 5 5 4 6 3 7 2 8 1 9 32 10 33 11 94 12 34 13
REMARK SMILES IDX 93 14 35 15 36 16 37 17 87 18 38 19 92 20 86 21 88 22 39 23
REMARK SMILES IDX 91 24 85 25 84 26 40 28 72 29 52 30 71 31 53 32 56 33 70 34
REMARK SMILES IDX 89 35 54 36 55 37 69 39 90 40 57 41 41 42 42 43 50 44 43 45
REMARK SMILES IDX 45 46 51 47 44 48 46 49 47 50 48 51 49 52 73 53 74 54 82 55
REMARK SMILES IDX 75 56 77 57 83 58 76 59 78 60 79 61 80 62 81 63 58 64 59 65
REMARK SMILES IDX 67 66 60 67 62 68 68 69 61 70 63 71 64 72 65 73 66 74 10 75
REMARK SMILES IDX 11 76 12 77 13 78 14 79 15 80 16 81 17 82 18 83 27 84 31 85
REMARK SMILES IDX 28 86 30 87 29 88 19 91 20 92 21 93 22 94 26 95 23 96 25 97
REMARK SMILES IDX 24 98
REMARK H PARENT 88 27 56 38 30 89 30 90
REMARK Flexibility Score: inf
ROOT
ATOM      1  O   UNL A   1      35.953  21.862  24.940  1.00  0.00    -0.377 OA
ENDROOT
BRANCH   1   2
ATOM      2  C   UNL A   1      37.262  21.592  25.422  1.00  0.00     0.188 C 
BRANCH   2   3
ATOM      3  C   UNL A   1      37.814  20.234  25.016  1.00  0.00     0.188 C 
BRANCH   3   4
ATOM      4  O   UNL A   1      39.160  20.170  25.475  1.00  0.00    -0.376 OA
BRANCH   4   5
ATOM      5  C   UNL A   1      39.679  21.333  26.101  1.00  0.00     0.202 C 
BRANCH   5   6
ATOM      6  C   UNL A   1      41.127  21.168  26.524  1.00  0.00     0.261 C 
BRANCH   6   7
ATOM      7  O   UNL A   1      42.063  21.732  25.596  1.00  0.00    -0.460 OA
BRANCH   7   8
ATOM      8  C   UNL A   1      42.616  22.970  25.562  1.00  0.00     0.338 C 
ATOM      9  O   UNL A   1      43.518  23.154  24.742  1.00  0.00    -0.246 OA
BRANCH   8  10
ATOM     10  C   UNL A   1      42.235  24.133  26.433  1.00  0.00     0.060 A 
ATOM     11  C   UNL A   1      42.807  25.407  26.415  1.00  0.00     0.016 A 
ATOM     12  C   UNL A   1      41.133  23.934  27.284  1.00  0.00     0.016 A 
ATOM     13  C   UNL A   1      42.291  26.460  27.155  1.00  0.00     0.010 A 
ATOM     14  C   UNL A   1      40.639  24.968  28.083  1.00  0.00     0.010 A 
ATOM     15  C   UNL A   1      41.231  26.232  28.016  1.00  0.00    -0.014 A 
BRANCH  15  16
ATOM     16  C   UNL A   1      40.947  27.280  29.001  1.00  0.00     0.031 A 
ATOM     17  C   UNL A   1      41.915  27.421  30.130  1.00  0.00     0.074 A 
ATOM     18  C   UNL A   1      39.939  28.143  28.797  1.00  0.00     0.049 A 
ATOM     19  N   UNL A   1      41.846  28.177  31.187  1.00  0.00    -0.248 NA
ATOM     20  C   UNL A   1      43.148  26.611  30.046  1.00  0.00     0.031 C 
ATOM     21  C   UNL A   1      39.070  28.164  27.617  1.00  0.00     0.029 A 
ATOM     22  N   UNL A   1      39.472  29.165  29.577  1.00  0.00    -0.354 N 
ATOM     23  C   UNL A   1      42.976  27.868  31.933  1.00  0.00     0.074 A 
ATOM     24  C   UNL A   1      43.750  26.908  31.186  1.00  0.00     0.031 C 
ATOM     25  C   UNL A   1      38.142  29.122  27.777  1.00  0.00     0.029 A 
ATOM     26  C   UNL A   1      38.309  29.718  29.095  1.00  0.00     0.049 A 
ATOM     27  H   UNL A   1      39.921  29.471  30.398  1.00  0.00     0.167 HD
ATOM     28  C   UNL A   1      43.300  28.330  33.158  1.00  0.00     0.034 A 
ATOM     29  C   UNL A   1      37.447  30.550  29.708  1.00  0.00     0.034 A 
ATOM     30  C   UNL A   1      42.495  29.289  33.854  1.00  0.00     0.049 A 
ATOM     31  C   UNL A   1      37.792  30.985  31.109  1.00  0.00     0.074 A 
ATOM     32  C   UNL A   1      42.691  29.833  35.106  1.00  0.00     0.029 A 
ATOM     33  N   UNL A   1      41.317  29.825  33.352  1.00  0.00    -0.354 N 
ATOM     34  N   UNL A   1      38.867  30.718  31.815  1.00  0.00    -0.248 NA
ATOM     35  C   UNL A   1      36.815  31.833  31.802  1.00  0.00     0.031 C 
ATOM     36  C   UNL A   1      41.599  30.661  35.383  1.00  0.00     0.029 A 
ATOM     37  C   UNL A   1      40.750  30.670  34.282  1.00  0.00     0.049 A 
ATOM     38  H   UNL A   1      40.942  29.631  32.462  1.00  0.00     0.167 HD
ATOM     39  C   UNL A   1      38.706  31.374  33.026  1.00  0.00     0.074 A 
ATOM     40  C   UNL A   1      37.441  32.080  32.945  1.00  0.00     0.031 C 
ATOM     41  C   UNL A   1      39.508  31.383  34.120  1.00  0.00     0.034 A 
BRANCH  28  42
ATOM     42  C   UNL A   1      44.496  27.729  33.835  1.00  0.00     0.023 A 
ATOM     43  C   UNL A   1      45.756  28.357  33.777  1.00  0.00     0.012 A 
ATOM     44  C   UNL A   1      44.356  26.517  34.540  1.00  0.00     0.148 A 
ATOM     45  C   UNL A   1      46.863  27.773  34.394  1.00  0.00     0.002 A 
ATOM     46  C   UNL A   1      45.452  25.965  35.188  1.00  0.00     0.091 A 
ATOM     47  F   UNL A   1      43.156  25.920  34.546  1.00  0.00    -0.205 F 
ATOM     48  C   UNL A   1      46.709  26.585  35.106  1.00  0.00     0.022 A 
BRANCH  46  49
ATOM     49  S   UNL A   1      45.337  24.474  36.180  1.00  0.00     0.127 S 
ATOM     50  O   UNL A   1      44.317  24.849  37.161  1.00  0.00    -0.237 OA
ATOM     51  O   UNL A   1      44.895  23.490  35.188  1.00  0.00    -0.237 OA
ATOM     52  O   UNL A   1      46.663  24.242  36.725  1.00  0.00    -0.744 OA
ENDBRANCH  46  49
ENDBRANCH  28  42
BRANCH  29  53
ATOM     53  C   UNL A   1      36.167  30.947  29.053  1.00  0.00     0.023 A 
ATOM     54  C   UNL A   1      35.338  29.966  28.477  1.00  0.00     0.012 A 
ATOM     55  C   UNL A   1      35.773  32.300  28.981  1.00  0.00     0.148 A 
ATOM     56  C   UNL A   1      34.166  30.327  27.806  1.00  0.00     0.002 A 
ATOM     57  C   UNL A   1      34.576  32.647  28.364  1.00  0.00     0.091 A 
ATOM     58  F   UNL A   1      36.580  33.229  29.511  1.00  0.00    -0.205 F 
ATOM     59  C   UNL A   1      33.782  31.664  27.757  1.00  0.00     0.022 A 
BRANCH  57  60
ATOM     60  S   UNL A   1      33.948  34.330  28.365  1.00  0.00     0.127 S 
ATOM     61  O   UNL A   1      34.213  34.746  29.743  1.00  0.00    -0.237 OA
ATOM     62  O   UNL A   1      34.797  34.971  27.358  1.00  0.00    -0.237 OA
ATOM     63  O   UNL A   1      32.548  34.229  27.990  1.00  0.00    -0.744 OA
ENDBRANCH  57  60
ENDBRANCH  29  53
BRANCH  41  64
ATOM     64  C   UNL A   1      39.057  32.201  35.293  1.00  0.00     0.023 A 
ATOM     65  C   UNL A   1      38.242  31.616  36.280  1.00  0.00     0.012 A 
ATOM     66  C   UNL A   1      39.551  33.506  35.472  1.00  0.00     0.148 A 
ATOM     67  C   UNL A   1      37.908  32.330  37.428  1.00  0.00     0.002 A 
ATOM     68  C   UNL A   1      39.264  34.189  36.644  1.00  0.00     0.091 A 
ATOM     69  F   UNL A   1      40.314  34.039  34.507  1.00  0.00    -0.205 F 
ATOM     70  C   UNL A   1      38.433  33.608  37.617  1.00  0.00     0.022 A 
BRANCH  68  71
ATOM     71  S   UNL A   1      39.990  35.784  37.027  1.00  0.00     0.127 S 
ATOM     72  O   UNL A   1      39.301  36.133  38.268  1.00  0.00    -0.237 OA
ATOM     73  O   UNL A   1      41.405  35.447  37.188  1.00  0.00    -0.237 OA
ATOM     74  O   UNL A   1      39.697  36.647  35.891  1.00  0.00    -0.744 OA
ENDBRANCH  68  71
ENDBRANCH  41  64
ENDBRANCH  15  16
ENDBRANCH   8  10
ENDBRANCH   7   8
ENDBRANCH   6   7
ENDBRANCH   5   6
ENDBRANCH   4   5
ENDBRANCH   3   4
ENDBRANCH   2   3
ENDBRANCH   1   2
BRANCH   1  75
ATOM     75  C   UNL A   1      34.949  20.890  25.188  1.00  0.00     0.188 C 
BRANCH  75  76
ATOM     76  C   UNL A   1      33.501  21.025  24.706  1.00  0.00     0.188 C 
BRANCH  76  77
ATOM     77  O   UNL A   1      33.191  20.898  23.338  1.00  0.00    -0.376 OA
BRANCH  77  78
ATOM     78  C   UNL A   1      32.346  21.868  22.744  1.00  0.00     0.202 C 
BRANCH  78  79
ATOM     79  C   UNL A   1      32.651  23.366  22.897  1.00  0.00     0.261 C 
BRANCH  79  80
ATOM     80  O   UNL A   1      31.529  24.286  22.855  1.00  0.00    -0.463 OA
BRANCH  80  81
ATOM     81  C   UNL A   1      31.800  25.590  22.593  1.00  0.00     0.317 C 
ATOM     82  O   UNL A   1      32.404  25.965  21.589  1.00  0.00    -0.251 OA
BRANCH  81  83
ATOM     83  C   UNL A   1      31.334  26.609  23.685  1.00  0.00     0.117 C 
ATOM     84  C   UNL A   1      32.060  26.719  25.064  1.00  0.00     0.030 C 
ATOM     85  C   UNL A   1      29.811  26.349  23.918  1.00  0.00     0.279 C 
ATOM     86  C   UNL A   1      31.465  26.009  26.294  1.00  0.00     0.063 C 
ATOM     87  N   UNL A   1      29.503  25.336  24.939  1.00  0.00    -0.345 N 
ATOM     88  C   UNL A   1      29.962  25.757  26.254  1.00  0.00     0.260 C 
ATOM     89  H   UNL A   1      28.494  25.191  24.969  1.00  0.00     0.346 HD
ATOM     90  H   UNL A   1      29.984  24.471  24.690  1.00  0.00     0.346 HD
BRANCH  83  91
ATOM     91  C   UNL A   1      31.496  27.989  22.956  1.00  0.00     0.029 C 
BRANCH  91  92
ATOM     92  C   UNL A   1      31.024  29.241  23.733  1.00  0.00     0.038 C 
BRANCH  92  93
ATOM     93  C   UNL A   1      29.804  29.953  23.219  1.00  0.00    -0.030 A 
ATOM     94  C   UNL A   1      29.135  29.533  22.066  1.00  0.00     0.007 A 
ATOM     95  C   UNL A   1      29.296  31.076  23.871  1.00  0.00     0.114 A 
ATOM     96  C   UNL A   1      28.031  30.248  21.605  1.00  0.00     0.020 A 
ATOM     97  N   UNL A   1      28.208  31.769  23.464  1.00  0.00    -0.264 NA
ATOM     98  C   UNL A   1      27.606  31.346  22.332  1.00  0.00     0.111 A 
ENDBRANCH  92  93
ENDBRANCH  91  92
ENDBRANCH  83  91
ENDBRANCH  81  83
ENDBRANCH  80  81
ENDBRANCH  79  80
ENDBRANCH  78  79
ENDBRANCH  77  78
ENDBRANCH  76  77
ENDBRANCH  75  76
ENDBRANCH   1  75
TORSDOF 26
ENDMDL
MODEL 2
REMARK VINA RESULT:      -9.4      3.531      9.356
REMARK SMILES O=C(OCCOCCOCCOCCOC(=O)[C@]1(CCc2cccnc2)CCC[NH2+]C1)c1ccc(-c2c3nc(c(-c4cccc(S(=O)(=O)[O-])c4F)c4ccc([nH]4)c(-c4cccc(S(=O)(=O)[O-])c4F)c4nc(c(-c5cccc(S(=O)(=O)[O-])c5F)c5ccc2[nH]5)C=C4)C=C3)cc1
REMARK SMILES IDX 9 1 8 2 7 3 6 4 5 5 4 6 3 7 2 8 1 9 32 10 33 11 94 12 34 13
REMARK SMILES IDX 93 14 35 15 36 16 37 17 87 18 38 19 92 20 86 21 88 22 39 23
REMARK SMILES IDX 91 24 85 25 84 26 40 28 72 29 52 30 71 31 53 32 56 33 70 34
REMARK SMILES IDX 89 35 54 36 55 37 69 39 90 40 57 41 41 42 42 43 50 44 43 45
REMARK SMILES IDX 45 46 51 47 44 48 46 49 47 50 48 51 49 52 73 53 74 54 82 55
REMARK SMILES IDX 75 56 77 57 83 58 76 59 78 60 79 61 80 62 81 63 58 64 59 65
REMARK SMILES IDX 67 66 60 67 62 68 68 69 61 70 63 71 64 72 65 73 66 74 10 75
REMARK SMILES IDX 11 76 12 77 13 78 14 79 15 80 16 81 17 82 18 83 27 84 31 85
REMARK SMILES IDX 28 86 30 87 29 88 19 91 20 92 21 93 22 94 26 95 23 96 25 97
REMARK SMILES IDX 24 98
REMARK H PARENT 88 27 56 38 30 89 30 90
REMARK Flexibility Score: inf
ROOT
ATOM      1  O   UNL A   1      31.229  26.734  25.224  1.00  0.00    -0.377 OA
ENDROOT
BRANCH   1   2
ATOM      2  C   UNL A   1      31.223  27.176  26.575  1.00  0.00     0.188 C 
BRANCH   2   3
ATOM      3  C   UNL A   1      32.391  28.075  26.948  1.00  0.00     0.188 C 
BRANCH   3   4
ATOM      4  O   UNL A   1      31.847  29.299  27.431  1.00  0.00    -0.376 OA
BRANCH   4   5
ATOM      5  C   UNL A   1      31.572  30.302  26.465  1.00  0.00     0.202 C 
BRANCH   5   6
ATOM      6  C   UNL A   1      32.648  31.373  26.419  1.00  0.00     0.261 C 
BRANCH   6   7
ATOM      7  O   UNL A   1      33.342  31.540  27.662  1.00  0.00    -0.460 OA
BRANCH   7   8
ATOM      8  C   UNL A   1      34.524  32.154  27.924  1.00  0.00     0.338 C 
ATOM      9  O   UNL A   1      34.651  33.311  27.518  1.00  0.00    -0.246 OA
BRANCH   8  10
ATOM     10  C   UNL A   1      35.690  31.552  28.655  1.00  0.00     0.060 A 
ATOM     11  C   UNL A   1      35.738  30.288  29.247  1.00  0.00     0.016 A 
ATOM     12  C   UNL A   1      36.876  32.310  28.658  1.00  0.00     0.016 A 
ATOM     13  C   UNL A   1      36.907  29.761  29.773  1.00  0.00     0.010 A 
ATOM     14  C   UNL A   1      38.047  31.818  29.239  1.00  0.00     0.010 A 
ATOM     15  C   UNL A   1      38.052  30.539  29.802  1.00  0.00    -0.014 A 
BRANCH  15  16
ATOM     16  C   UNL A   1      39.148  30.065  30.652  1.00  0.00     0.031 A 
ATOM     17  C   UNL A   1      39.201  30.606  32.044  1.00  0.00     0.074 A 
ATOM     18  C   UNL A   1      39.964  29.089  30.222  1.00  0.00     0.049 A 
ATOM     19  N   UNL A   1      40.113  30.448  32.957  1.00  0.00    -0.248 NA
ATOM     20  C   UNL A   1      38.050  31.426  32.476  1.00  0.00     0.031 C 
ATOM     21  C   UNL A   1      39.846  28.395  28.936  1.00  0.00     0.029 A 
ATOM     22  N   UNL A   1      41.055  28.517  30.814  1.00  0.00    -0.354 N 
ATOM     23  C   UNL A   1      39.693  31.216  34.033  1.00  0.00     0.074 A 
ATOM     24  C   UNL A   1      38.415  31.791  33.694  1.00  0.00     0.031 C 
ATOM     25  C   UNL A   1      40.860  27.522  28.818  1.00  0.00     0.029 A 
ATOM     26  C   UNL A   1      41.729  27.657  29.979  1.00  0.00     0.049 A 
ATOM     27  H   UNL A   1      41.329  28.701  31.742  1.00  0.00     0.167 HD
ATOM     28  C   UNL A   1      40.355  31.443  35.187  1.00  0.00     0.034 A 
ATOM     29  C   UNL A   1      42.954  27.119  30.123  1.00  0.00     0.034 A 
ATOM     30  C   UNL A   1      41.623  30.842  35.475  1.00  0.00     0.049 A 
ATOM     31  C   UNL A   1      43.707  27.456  31.384  1.00  0.00     0.074 A 
ATOM     32  C   UNL A   1      42.417  30.994  36.592  1.00  0.00     0.029 A 
ATOM     33  N   UNL A   1      42.291  29.986  34.609  1.00  0.00    -0.354 N 
ATOM     34  N   UNL A   1      43.311  28.163  32.418  1.00  0.00    -0.248 NA
ATOM     35  C   UNL A   1      45.071  26.929  31.507  1.00  0.00     0.031 C 
ATOM     36  C   UNL A   1      43.592  30.269  36.378  1.00  0.00     0.029 A 
ATOM     37  C   UNL A   1      43.507  29.626  35.149  1.00  0.00     0.049 A 
ATOM     38  H   UNL A   1      41.947  29.680  33.738  1.00  0.00     0.167 HD
ATOM     39  C   UNL A   1      44.364  28.153  33.319  1.00  0.00     0.074 A 
ATOM     40  C   UNL A   1      45.408  27.341  32.722  1.00  0.00     0.031 C 
ATOM     41  C   UNL A   1      44.483  28.771  34.521  1.00  0.00     0.034 A 
BRANCH  28  42
ATOM     42  C   UNL A   1      39.770  32.442  36.141  1.00  0.00     0.023 A 
ATOM     43  C   UNL A   1      40.141  33.800  36.089  1.00  0.00     0.012 A 
ATOM     44  C   UNL A   1      38.834  32.014  37.103  1.00  0.00     0.148 A 
ATOM     45  C   UNL A   1      39.603  34.712  36.999  1.00  0.00     0.002 A 
ATOM     46  C   UNL A   1      38.270  32.935  37.975  1.00  0.00     0.091 A 
ATOM     47  F   UNL A   1      38.529  30.710  37.156  1.00  0.00    -0.205 F 
ATOM     48  C   UNL A   1      38.663  34.282  37.932  1.00  0.00     0.022 A 
BRANCH  46  49
ATOM     49  S   UNL A   1      37.007  32.486  39.168  1.00  0.00     0.127 S 
ATOM     50  O   UNL A   1      35.780  32.764  38.419  1.00  0.00    -0.237 OA
ATOM     51  O   UNL A   1      37.285  31.063  39.376  1.00  0.00    -0.237 OA
ATOM     52  O   UNL A   1      37.225  33.331  40.330  1.00  0.00    -0.744 OA
ENDBRANCH  46  49
ENDBRANCH  28  42
BRANCH  29  53
ATOM     53  C   UNL A   1      43.564  26.298  29.037  1.00  0.00     0.023 A 
ATOM     54  C   UNL A   1      43.415  24.899  29.045  1.00  0.00     0.012 A 
ATOM     55  C   UNL A   1      44.310  26.898  28.001  1.00  0.00     0.148 A 
ATOM     56  C   UNL A   1      44.030  24.111  28.068  1.00  0.00     0.002 A 
ATOM     57  C   UNL A   1      44.871  26.114  26.999  1.00  0.00     0.091 A 
ATOM     58  F   UNL A   1      44.467  28.229  28.015  1.00  0.00    -0.205 F 
ATOM     59  C   UNL A   1      44.750  24.718  27.042  1.00  0.00     0.022 A 
BRANCH  57  60
ATOM     60  S   UNL A   1      45.706  26.825  25.577  1.00  0.00     0.127 S 
ATOM     61  O   UNL A   1      46.937  27.339  26.180  1.00  0.00    -0.237 OA
ATOM     62  O   UNL A   1      45.889  25.653  24.716  1.00  0.00    -0.237 OA
ATOM     63  O   UNL A   1      44.796  27.824  25.043  1.00  0.00    -0.744 OA
ENDBRANCH  57  60
ENDBRANCH  29  53
BRANCH  41  64
ATOM     64  C   UNL A   1      45.765  28.566  35.273  1.00  0.00     0.023 A 
ATOM     65  C   UNL A   1      45.911  27.444  36.109  1.00  0.00     0.012 A 
ATOM     66  C   UNL A   1      46.859  29.419  35.043  1.00  0.00     0.148 A 
ATOM     67  C   UNL A   1      47.132  27.183  36.726  1.00  0.00     0.002 A 
ATOM     68  C   UNL A   1      48.087  29.120  35.612  1.00  0.00     0.091 A 
ATOM     69  F   UNL A   1      46.683  30.486  34.250  1.00  0.00    -0.205 F 
ATOM     70  C   UNL A   1      48.222  28.010  36.463  1.00  0.00     0.022 A 
BRANCH  68  71
ATOM     71  S   UNL A   1      49.571  30.055  35.235  1.00  0.00     0.127 S 
ATOM     72  O   UNL A   1      49.666  29.889  33.786  1.00  0.00    -0.237 OA
ATOM     73  O   UNL A   1      49.206  31.402  35.674  1.00  0.00    -0.237 OA
ATOM     74  O   UNL A   1      50.646  29.438  36.000  1.00  0.00    -0.744 OA
ENDBRANCH  68  71
ENDBRANCH  41  64
ENDBRANCH  15  16
ENDBRANCH   8  10
ENDBRANCH   7   8
ENDBRANCH   6   7
ENDBRANCH   5   6
ENDBRANCH   4   5
ENDBRANCH   3   4
ENDBRANCH   2   3
ENDBRANCH   1   2
BRANCH   1  75
ATOM     75  C   UNL A   1      30.040  26.147  24.719  1.00  0.00     0.188 C 
BRANCH  75  76
ATOM     76  C   UNL A   1      30.009  25.191  23.522  1.00  0.00     0.188 C 
BRANCH  76  77
ATOM     77  O   UNL A   1      31.049  24.264  23.324  1.00  0.00    -0.376 OA
BRANCH  77  78
ATOM     78  C   UNL A   1      32.191  24.674  22.593  1.00  0.00     0.202 C 
BRANCH  78  79
ATOM     79  C   UNL A   1      33.240  23.646  22.143  1.00  0.00     0.261 C 
BRANCH  79  80
ATOM     80  O   UNL A   1      33.313  22.398  22.880  1.00  0.00    -0.463 OA
BRANCH  80  81
ATOM     81  C   UNL A   1      34.305  22.272  23.799  1.00  0.00     0.317 C 
ATOM     82  O   UNL A   1      35.437  22.726  23.636  1.00  0.00    -0.251 OA
BRANCH  81  83
ATOM     83  C   UNL A   1      33.937  21.458  25.083  1.00  0.00     0.117 C 
ATOM     84  C   UNL A   1      32.655  21.780  25.916  1.00  0.00     0.030 C 
ATOM     85  C   UNL A   1      35.189  21.506  26.017  1.00  0.00     0.279 C 
ATOM     86  C   UNL A   1      32.772  22.636  27.191  1.00  0.00     0.063 C 
ATOM     87  N   UNL A   1      35.237  22.654  26.934  1.00  0.00    -0.345 N 
ATOM     88  C   UNL A   1      34.132  22.619  27.880  1.00  0.00     0.260 C 
ATOM     89  H   UNL A   1      36.116  22.632  27.449  1.00  0.00     0.346 HD
ATOM     90  H   UNL A   1      35.163  23.510  26.383  1.00  0.00     0.346 HD
BRANCH  83  91
ATOM     91  C   UNL A   1      33.785  19.997  24.530  1.00  0.00     0.029 C 
BRANCH  91  92
ATOM     92  C   UNL A   1      32.805  19.071  25.286  1.00  0.00     0.038 C 
BRANCH  92  93
ATOM     93  C   UNL A   1      33.081  17.594  25.245  1.00  0.00    -0.030 A 
ATOM     94  C   UNL A   1      32.135  16.654  25.663  1.00  0.00     0.007 A 
ATOM     95  C   UNL A   1      34.305  17.101  24.795  1.00  0.00     0.114 A 
ATOM     96  C   UNL A   1      32.450  15.296  25.643  1.00  0.00     0.020 A 
ATOM     97  N   UNL A   1      34.625  15.788  24.735  1.00  0.00    -0.264 NA
ATOM     98  C   UNL A   1      33.694  14.914  25.172  1.00  0.00     0.111 A 
ENDBRANCH  92  93
ENDBRANCH  91  92
ENDBRANCH  83  91
ENDBRANCH  81  83
ENDBRANCH  80  81
ENDBRANCH  79  80
ENDBRANCH  78  79
ENDBRANCH  77  78
ENDBRANCH  76  77
ENDBRANCH  75  76
ENDBRANCH   1  75
TORSDOF 26
ENDMDL
MODEL 3
REMARK VINA RESULT:      -9.3      3.297      9.452
REMARK SMILES O=C(OCCOCCOCCOCCOC(=O)[C@]1(CCc2cccnc2)CCC[NH2+]C1)c1ccc(-c2c3nc(c(-c4cccc(S(=O)(=O)[O-])c4F)c4ccc([nH]4)c(-c4cccc(S(=O)(=O)[O-])c4F)c4nc(c(-c5cccc(S(=O)(=O)[O-])c5F)c5ccc2[nH]5)C=C4)C=C3)cc1
REMARK SMILES IDX 9 1 8 2 7 3 6 4 5 5 4 6 3 7 2 8 1 9 32 10 33 11 94 12 34 13
REMARK SMILES IDX 93 14 35 15 36 16 37 17 87 18 38 19 92 20 86 21 88 22 39 23
REMARK SMILES IDX 91 24 85 25 84 26 40 28 72 29 52 30 71 31 53 32 56 33 70 34
REMARK SMILES IDX 89 35 54 36 55 37 69 39 90 40 57 41 41 42 42 43 50 44 43 45
REMARK SMILES IDX 45 46 51 47 44 48 46 49 47 50 48 51 49 52 73 53 74 54 82 55
REMARK SMILES IDX 75 56 77 57 83 58 76 59 78 60 79 61 80 62 81 63 58 64 59 65
REMARK SMILES IDX 67 66 60 67 62 68 68 69 61 70 63 71 64 72 65 73 66 74 10 75
REMARK SMILES IDX 11 76 12 77 13 78 14 79 15 80 16 81 17 82 18 83 27 84 31 85
REMARK SMILES IDX 28 86 30 87 29 88 19 91 20 92 21 93 22 94 26 95 23 96 25 97
REMARK SMILES IDX 24 98
REMARK H PARENT 88 27 56 38 30 89 30 90
REMARK Flexibility Score: inf
ROOT
ATOM      1  O   UNL A   1      31.346  25.825  25.887  1.00  0.00    -0.377 OA
ENDROOT
BRANCH   1   2
ATOM      2  C   UNL A   1      31.809  26.836  26.770  1.00  0.00     0.188 C 
BRANCH   2   3
ATOM      3  C   UNL A   1      31.981  28.204  26.126  1.00  0.00     0.188 C 
BRANCH   3   4
ATOM      4  O   UNL A   1      31.799  29.178  27.148  1.00  0.00    -0.376 OA
BRANCH   4   5
ATOM      5  C   UNL A   1      31.480  30.496  26.726  1.00  0.00     0.202 C 
BRANCH   5   6
ATOM      6  C   UNL A   1      32.707  31.383  26.618  1.00  0.00     0.261 C 
BRANCH   6   7
ATOM      7  O   UNL A   1      33.778  30.986  27.484  1.00  0.00    -0.460 OA
BRANCH   7   8
ATOM      8  C   UNL A   1      34.874  31.678  27.887  1.00  0.00     0.338 C 
ATOM      9  O   UNL A   1      34.916  32.874  27.593  1.00  0.00    -0.246 OA
BRANCH   8  10
ATOM     10  C   UNL A   1      36.040  31.119  28.652  1.00  0.00     0.060 A 
ATOM     11  C   UNL A   1      36.076  29.906  29.344  1.00  0.00     0.016 A 
ATOM     12  C   UNL A   1      37.236  31.857  28.583  1.00  0.00     0.016 A 
ATOM     13  C   UNL A   1      37.243  29.405  29.899  1.00  0.00     0.010 A 
ATOM     14  C   UNL A   1      38.407  31.396  29.190  1.00  0.00     0.010 A 
ATOM     15  C   UNL A   1      38.400  30.166  29.854  1.00  0.00    -0.014 A 
BRANCH  15  16
ATOM     16  C   UNL A   1      39.498  29.745  30.729  1.00  0.00     0.031 A 
ATOM     17  C   UNL A   1      39.511  30.312  32.111  1.00  0.00     0.074 A 
ATOM     18  C   UNL A   1      40.353  28.791  30.328  1.00  0.00     0.049 A 
ATOM     19  N   UNL A   1      40.414  30.202  33.040  1.00  0.00    -0.248 NA
ATOM     20  C   UNL A   1      38.327  31.100  32.511  1.00  0.00     0.031 C 
ATOM     21  C   UNL A   1      40.279  28.071  29.054  1.00  0.00     0.029 A 
ATOM     22  N   UNL A   1      41.454  28.267  30.947  1.00  0.00    -0.354 N 
ATOM     23  C   UNL A   1      39.952  30.975  34.096  1.00  0.00     0.074 A 
ATOM     24  C   UNL A   1      38.660  31.498  33.728  1.00  0.00     0.031 C 
ATOM     25  C   UNL A   1      41.324  27.231  28.967  1.00  0.00     0.029 A 
ATOM     26  C   UNL A   1      42.170  27.417  30.138  1.00  0.00     0.049 A 
ATOM     27  H   UNL A   1      41.708  28.477  31.875  1.00  0.00     0.167 HD
ATOM     28  C   UNL A   1      40.588  31.245  35.255  1.00  0.00     0.034 A 
ATOM     29  C   UNL A   1      43.411  26.924  30.310  1.00  0.00     0.034 A 
ATOM     30  C   UNL A   1      41.871  30.693  35.572  1.00  0.00     0.049 A 
ATOM     31  C   UNL A   1      44.133  27.309  31.575  1.00  0.00     0.074 A 
ATOM     32  C   UNL A   1      42.642  30.893  36.698  1.00  0.00     0.029 A 
ATOM     33  N   UNL A   1      42.581  29.846  34.732  1.00  0.00    -0.354 N 
ATOM     34  N   UNL A   1      43.696  28.021  32.590  1.00  0.00    -0.248 NA
ATOM     35  C   UNL A   1      45.512  26.832  31.727  1.00  0.00     0.031 C 
ATOM     36  C   UNL A   1      43.845  30.205  36.514  1.00  0.00     0.029 A 
ATOM     37  C   UNL A   1      43.801  29.538  35.296  1.00  0.00     0.049 A 
ATOM     38  H   UNL A   1      42.261  29.513  33.862  1.00  0.00     0.167 HD
ATOM     39  C   UNL A   1      44.736  28.063  33.506  1.00  0.00     0.074 A 
ATOM     40  C   UNL A   1      45.816  27.277  32.939  1.00  0.00     0.031 C 
ATOM     41  C   UNL A   1      44.815  28.706  34.698  1.00  0.00     0.034 A 
BRANCH  28  42
ATOM     42  C   UNL A   1      39.954  32.240  36.182  1.00  0.00     0.023 A 
ATOM     43  C   UNL A   1      38.936  31.853  37.076  1.00  0.00     0.012 A 
ATOM     44  C   UNL A   1      40.385  33.580  36.157  1.00  0.00     0.148 A 
ATOM     45  C   UNL A   1      38.342  32.795  37.916  1.00  0.00     0.002 A 
ATOM     46  C   UNL A   1      39.820  34.503  37.028  1.00  0.00     0.091 A 
ATOM     47  F   UNL A   1      41.327  33.930  35.270  1.00  0.00    -0.205 F 
ATOM     48  C   UNL A   1      38.790  34.115  37.899  1.00  0.00     0.022 A 
BRANCH  46  49
ATOM     49  S   UNL A   1      40.374  36.207  37.121  1.00  0.00     0.127 S 
ATOM     50  O   UNL A   1      39.730  36.793  35.944  1.00  0.00    -0.237 OA
ATOM     51  O   UNL A   1      39.806  36.636  38.401  1.00  0.00    -0.237 OA
ATOM     52  O   UNL A   1      41.826  36.169  37.075  1.00  0.00    -0.744 OA
ENDBRANCH  46  49
ENDBRANCH  28  42
BRANCH  29  53
ATOM     53  C   UNL A   1      44.065  26.106  29.248  1.00  0.00     0.023 A 
ATOM     54  C   UNL A   1      44.111  24.704  29.368  1.00  0.00     0.012 A 
ATOM     55  C   UNL A   1      44.661  26.713  28.122  1.00  0.00     0.148 A 
ATOM     56  C   UNL A   1      44.772  23.928  28.412  1.00  0.00     0.002 A 
ATOM     57  C   UNL A   1      45.266  25.931  27.144  1.00  0.00     0.091 A 
ATOM     58  F   UNL A   1      44.633  28.050  28.028  1.00  0.00    -0.205 F 
ATOM     59  C   UNL A   1      45.341  24.540  27.298  1.00  0.00     0.022 A 
BRANCH  57  60
ATOM     60  S   UNL A   1      45.913  26.629  25.621  1.00  0.00     0.127 S 
ATOM     61  O   UNL A   1      47.242  27.076  26.038  1.00  0.00    -0.237 OA
ATOM     62  O   UNL A   1      45.909  25.465  24.729  1.00  0.00    -0.237 OA
ATOM     63  O   UNL A   1      44.981  27.677  25.240  1.00  0.00    -0.744 OA
ENDBRANCH  57  60
ENDBRANCH  29  53
BRANCH  41  64
ATOM     64  C   UNL A   1      46.091  28.559  35.473  1.00  0.00     0.023 A 
ATOM     65  C   UNL A   1      46.256  27.466  36.345  1.00  0.00     0.012 A 
ATOM     66  C   UNL A   1      47.165  29.434  35.231  1.00  0.00     0.148 A 
ATOM     67  C   UNL A   1      47.475  27.258  36.984  1.00  0.00     0.002 A 
ATOM     68  C   UNL A   1      48.393  29.186  35.824  1.00  0.00     0.091 A 
ATOM     69  F   UNL A   1      46.972  30.471  34.404  1.00  0.00    -0.205 F 
ATOM     70  C   UNL A   1      48.546  28.107  36.711  1.00  0.00     0.022 A 
BRANCH  68  71
ATOM     71  S   UNL A   1      49.856  30.150  35.438  1.00  0.00     0.127 S 
ATOM     72  O   UNL A   1      49.288  31.480  35.226  1.00  0.00    -0.237 OA
ATOM     73  O   UNL A   1      50.648  30.011  36.661  1.00  0.00    -0.237 OA
ATOM     74  O   UNL A   1      50.448  29.534  34.258  1.00  0.00    -0.744 OA
ENDBRANCH  68  71
ENDBRANCH  41  64
ENDBRANCH  15  16
ENDBRANCH   8  10
ENDBRANCH   7   8
ENDBRANCH   6   7
ENDBRANCH   5   6
ENDBRANCH   4   5
ENDBRANCH   3   4
ENDBRANCH   2   3
ENDBRANCH   1   2
BRANCH   1  75
ATOM     75  C   UNL A   1      30.040  25.312  26.103  1.00  0.00     0.188 C 
BRANCH  75  76
ATOM     76  C   UNL A   1      29.758  23.873  26.551  1.00  0.00     0.188 C 
BRANCH  76  77
ATOM     77  O   UNL A   1      30.678  23.188  27.367  1.00  0.00    -0.376 OA
BRANCH  77  78
ATOM     78  C   UNL A   1      32.050  23.224  27.016  1.00  0.00     0.202 C 
BRANCH  78  79
ATOM     79  C   UNL A   1      33.110  22.616  27.947  1.00  0.00     0.261 C 
BRANCH  79  80
ATOM     80  O   UNL A   1      34.502  22.759  27.563  1.00  0.00    -0.463 OA
BRANCH  80  81
ATOM     81  C   UNL A   1      34.853  22.340  26.319  1.00  0.00     0.317 C 
ATOM     82  O   UNL A   1      34.737  21.175  25.942  1.00  0.00    -0.251 OA
BRANCH  81  83
ATOM     83  C   UNL A   1      35.471  23.435  25.389  1.00  0.00     0.117 C 
ATOM     84  C   UNL A   1      34.864  24.871  25.299  1.00  0.00     0.030 C 
ATOM     85  C   UNL A   1      35.548  22.812  23.957  1.00  0.00     0.279 C 
ATOM     86  C   UNL A   1      33.925  25.228  24.132  1.00  0.00     0.063 C 
ATOM     87  N   UNL A   1      34.343  22.999  23.134  1.00  0.00    -0.345 N 
ATOM     88  C   UNL A   1      34.106  24.408  22.860  1.00  0.00     0.260 C 
ATOM     89  H   UNL A   1      34.465  22.504  22.251  1.00  0.00     0.346 HD
ATOM     90  H   UNL A   1      33.542  22.630  23.646  1.00  0.00     0.346 HD
BRANCH  83  91
ATOM     91  C   UNL A   1      36.931  23.574  25.948  1.00  0.00     0.029 C 
BRANCH  91  92
ATOM     92  C   UNL A   1      37.871  22.365  25.731  1.00  0.00     0.038 C 
BRANCH  92  93
ATOM     93  C   UNL A   1      39.226  22.420  26.381  1.00  0.00    -0.030 A 
ATOM     94  C   UNL A   1      39.656  23.540  27.097  1.00  0.00     0.007 A 
ATOM     95  C   UNL A   1      40.117  21.352  26.282  1.00  0.00     0.114 A 
ATOM     96  C   UNL A   1      40.936  23.561  27.650  1.00  0.00     0.020 A 
ATOM     97  N   UNL A   1      41.352  21.333  26.835  1.00  0.00    -0.264 NA
ATOM     98  C   UNL A   1      41.739  22.444  27.497  1.00  0.00     0.111 A 
ENDBRANCH  92  93
ENDBRANCH  91  92
ENDBRANCH  83  91
ENDBRANCH  81  83
ENDBRANCH  80  81
ENDBRANCH  79  80
ENDBRANCH  78  79
ENDBRANCH  77  78
ENDBRANCH  76  77
ENDBRANCH  75  76
ENDBRANCH   1  75
TORSDOF 26
ENDMDL
