MODEL 1
REMARK VINA RESULT:      -9.6      0.000      0.000
REMARK SMILES Cc1ccc(S(=O)(=O)N2c3ccc(C(=O)OCCOCCOCCOCCOC(=O)c4ccc(-c5c6nc(c(-c7cccc(S(=O)(=O)[O-])c7F)c7ccc([nH]7)c(-c7cccc(S(=O)(=O)[O-])c7F)c7nc(c(-c8cccc(S(=O)(=O)[O-])c8F)c8ccc5[nH]8)C=C7)C=C6)cc4)cc3C[C@H]2C)cc1
REMARK SMILES IDX 23 1 22 2 21 3 20 4 19 5 18 6 17 7 16 8 14 9 15 10 13 11
REMARK SMILES IDX 9 12 10 13 97 14 11 15 95 16 96 17 98 18 12 19 94 20 6 21
REMARK SMILES IDX 7 22 8 23 5 24 1 25 2 26 3 27 100 28 4 29 99 30 24 31 25 32
REMARK SMILES IDX 26 33 27 34 28 35 29 36 30 37 31 38 32 39 93 40 33 41 92 42
REMARK SMILES IDX 34 43 35 44 36 45 86 46 37 47 91 48 85 49 87 50 38 51 90 52
REMARK SMILES IDX 84 53 83 54 39 56 71 57 51 58 70 59 52 60 55 61 69 62 88 63
REMARK SMILES IDX 53 64 54 65 68 67 89 68 56 69 40 70 41 71 49 72 42 73 44 74
REMARK SMILES IDX 50 75 43 76 45 77 46 78 47 79 48 80 72 81 73 82 81 83 74 84
REMARK SMILES IDX 76 85 82 86 75 87 77 88 78 89 79 90 80 91 57 92 58 93 66 94
REMARK SMILES IDX 59 95 61 96 67 97 60 98 62 99 63 100 64 101 65 102
REMARK H PARENT 87 55 55 66
REMARK Flexibility Score: inf
ROOT
ATOM      1  C   UNL A   1      43.148  25.593  27.460  1.00  0.00     0.188 C 
ENDROOT
BRANCH   1   2
ATOM      2  O   UNL A   1      42.374  26.787  27.380  1.00  0.00    -0.377 OA
BRANCH   2   3
ATOM      3  C   UNL A   1      40.973  26.575  27.156  1.00  0.00     0.188 C 
BRANCH   3   4
ATOM      4  C   UNL A   1      40.665  25.322  26.339  1.00  0.00     0.188 C 
BRANCH   4   5
ATOM      5  O   UNL A   1      39.846  24.353  26.998  1.00  0.00    -0.376 OA
BRANCH   5   6
ATOM      6  C   UNL A   1      40.289  23.011  26.776  1.00  0.00     0.202 C 
BRANCH   6   7
ATOM      7  C   UNL A   1      39.275  21.954  26.355  1.00  0.00     0.261 C 
BRANCH   7   8
ATOM      8  O   UNL A   1      37.987  22.535  26.195  1.00  0.00    -0.460 OA
BRANCH   8   9
ATOM      9  C   UNL A   1      37.358  22.218  25.054  1.00  0.00     0.338 C 
ATOM     10  O   UNL A   1      37.612  21.334  24.265  1.00  0.00    -0.246 OA
BRANCH   9  11
ATOM     11  C   UNL A   1      36.028  22.818  25.202  1.00  0.00     0.060 A 
ATOM     12  N   UNL A   1      32.193  24.377  24.880  1.00  0.00    -0.263 N 
ATOM     13  C   UNL A   1      33.412  23.633  25.125  1.00  0.00     0.055 A 
ATOM     14  C   UNL A   1      32.082  24.360  23.361  1.00  0.00     0.101 C 
ATOM     15  C   UNL A   1      33.909  23.197  26.340  1.00  0.00     0.028 A 
ATOM     16  C   UNL A   1      34.179  23.585  23.965  1.00  0.00    -0.021 A 
ATOM     17  C   UNL A   1      33.458  24.061  22.770  1.00  0.00     0.063 C 
ATOM     18  C   UNL A   1      31.071  23.257  23.013  1.00  0.00     0.032 C 
ATOM     19  C   UNL A   1      35.240  22.772  26.371  1.00  0.00     0.018 A 
ATOM     20  C   UNL A   1      35.494  23.218  23.985  1.00  0.00     0.021 A 
BRANCH  12  21
ATOM     21  S   UNL A   1      32.376  25.907  25.683  1.00  0.00     0.264 S 
ATOM     22  O   UNL A   1      33.778  26.278  25.620  1.00  0.00    -0.201 OA
ATOM     23  O   UNL A   1      31.690  25.811  26.959  1.00  0.00    -0.201 OA
BRANCH  21  24
ATOM     24  C   UNL A   1      31.545  27.198  24.799  1.00  0.00     0.088 A 
ATOM     25  C   UNL A   1      29.966  29.791  21.771  1.00  0.00     0.044 C 
ATOM     26  C   UNL A   1      30.512  28.921  22.860  1.00  0.00    -0.051 A 
ATOM     27  C   UNL A   1      31.862  29.003  23.218  1.00  0.00     0.005 A 
ATOM     28  C   UNL A   1      29.672  28.046  23.554  1.00  0.00     0.005 A 
ATOM     29  C   UNL A   1      32.383  28.126  24.165  1.00  0.00     0.022 A 
ATOM     30  C   UNL A   1      30.177  27.229  24.564  1.00  0.00     0.022 A 
ENDBRANCH  21  24
ENDBRANCH  12  21
ENDBRANCH   9  11
ENDBRANCH   8   9
ENDBRANCH   7   8
ENDBRANCH   6   7
ENDBRANCH   5   6
ENDBRANCH   4   5
ENDBRANCH   3   4
ENDBRANCH   2   3
ENDBRANCH   1   2
BRANCH   1  31
ATOM     31  C   UNL A   1      44.499  25.692  26.810  1.00  0.00     0.188 C 
BRANCH  31  32
ATOM     32  O   UNL A   1      44.484  26.879  26.027  1.00  0.00    -0.376 OA
BRANCH  32  33
ATOM     33  C   UNL A   1      45.579  27.016  25.140  1.00  0.00     0.202 C 
BRANCH  33  34
ATOM     34  C   UNL A   1      46.540  28.137  25.545  1.00  0.00     0.261 C 
BRANCH  34  35
ATOM     35  O   UNL A   1      45.798  29.370  25.648  1.00  0.00    -0.460 OA
BRANCH  35  36
ATOM     36  C   UNL A   1      46.389  30.339  26.407  1.00  0.00     0.338 C 
ATOM     37  O   UNL A   1      47.039  31.256  25.938  1.00  0.00    -0.246 OA
BRANCH  36  38
ATOM     38  C   UNL A   1      46.272  29.992  27.858  1.00  0.00     0.060 A 
ATOM     39  C   UNL A   1      47.342  30.174  28.745  1.00  0.00     0.016 A 
ATOM     40  C   UNL A   1      45.179  29.258  28.288  1.00  0.00     0.016 A 
ATOM     41  C   UNL A   1      47.419  29.440  29.949  1.00  0.00     0.010 A 
ATOM     42  C   UNL A   1      45.288  28.512  29.447  1.00  0.00     0.010 A 
ATOM     43  C   UNL A   1      46.433  28.520  30.261  1.00  0.00    -0.014 A 
BRANCH  43  44
ATOM     44  C   UNL A   1      46.436  27.569  31.403  1.00  0.00     0.031 A 
ATOM     45  C   UNL A   1      47.554  26.567  31.444  1.00  0.00     0.074 A 
ATOM     46  C   UNL A   1      45.740  27.851  32.540  1.00  0.00     0.049 A 
ATOM     47  N   UNL A   1      47.822  25.758  32.413  1.00  0.00    -0.248 NA
ATOM     48  C   UNL A   1      48.551  26.477  30.382  1.00  0.00     0.031 C 
ATOM     49  C   UNL A   1      46.045  27.413  33.902  1.00  0.00     0.029 A 
ATOM     50  N   UNL A   1      44.611  28.649  32.757  1.00  0.00    -0.354 N 
ATOM     51  C   UNL A   1      49.158  25.385  32.312  1.00  0.00     0.074 A 
ATOM     52  C   UNL A   1      49.529  25.791  30.981  1.00  0.00     0.031 C 
ATOM     53  C   UNL A   1      45.076  27.762  34.762  1.00  0.00     0.029 A 
ATOM     54  C   UNL A   1      43.985  28.207  33.940  1.00  0.00     0.049 A 
ATOM     55  H   UNL A   1      44.308  29.389  32.183  1.00  0.00     0.167 HD
ATOM     56  C   UNL A   1      49.816  24.956  33.441  1.00  0.00     0.034 A 
ATOM     57  C   UNL A   1      42.767  27.605  33.884  1.00  0.00     0.034 A 
ATOM     58  C   UNL A   1      48.849  24.799  34.577  1.00  0.00     0.049 A 
ATOM     59  C   UNL A   1      42.975  26.144  34.277  1.00  0.00     0.074 A 
ATOM     60  C   UNL A   1      48.737  25.325  35.855  1.00  0.00     0.029 A 
ATOM     61  N   UNL A   1      47.631  24.131  34.367  1.00  0.00    -0.354 N 
ATOM     62  N   UNL A   1      44.109  25.501  34.087  1.00  0.00    -0.248 NA
ATOM     63  C   UNL A   1      42.098  25.425  35.201  1.00  0.00     0.031 C 
ATOM     64  C   UNL A   1      47.385  25.177  36.291  1.00  0.00     0.029 A 
ATOM     65  C   UNL A   1      46.682  24.465  35.326  1.00  0.00     0.049 A 
ATOM     66  H   UNL A   1      47.468  23.502  33.627  1.00  0.00     0.167 HD
ATOM     67  C   UNL A   1      44.223  24.481  34.993  1.00  0.00     0.074 A 
ATOM     68  C   UNL A   1      42.894  24.411  35.597  1.00  0.00     0.031 C 
ATOM     69  C   UNL A   1      45.371  23.818  35.352  1.00  0.00     0.034 A 
BRANCH  56  70
ATOM     70  C   UNL A   1      51.365  24.950  33.630  1.00  0.00     0.023 A 
ATOM     71  C   UNL A   1      51.997  26.175  33.963  1.00  0.00     0.012 A 
ATOM     72  C   UNL A   1      52.267  23.859  33.488  1.00  0.00     0.148 A 
ATOM     73  C   UNL A   1      53.390  26.332  34.084  1.00  0.00     0.002 A 
ATOM     74  C   UNL A   1      53.665  24.009  33.609  1.00  0.00     0.091 A 
ATOM     75  F   UNL A   1      51.801  22.628  33.291  1.00  0.00    -0.205 F 
ATOM     76  C   UNL A   1      54.229  25.250  33.899  1.00  0.00     0.022 A 
BRANCH  74  77
ATOM     77  S   UNL A   1      54.831  22.640  33.408  1.00  0.00     0.127 S 
ATOM     78  O   UNL A   1      56.128  23.316  33.472  1.00  0.00    -0.237 OA
ATOM     79  O   UNL A   1      54.529  21.801  34.566  1.00  0.00    -0.237 OA
ATOM     80  O   UNL A   1      54.537  22.045  32.109  1.00  0.00    -0.744 OA
ENDBRANCH  74  77
ENDBRANCH  56  70
BRANCH  57  81
ATOM     81  C   UNL A   1      41.908  28.355  32.904  1.00  0.00     0.023 A 
ATOM     82  C   UNL A   1      42.197  28.061  31.533  1.00  0.00     0.012 A 
ATOM     83  C   UNL A   1      40.610  28.806  33.212  1.00  0.00     0.148 A 
ATOM     84  C   UNL A   1      41.191  28.014  30.559  1.00  0.00     0.002 A 
ATOM     85  C   UNL A   1      39.622  28.812  32.214  1.00  0.00     0.091 A 
ATOM     86  F   UNL A   1      40.331  29.121  34.482  1.00  0.00    -0.205 F 
ATOM     87  C   UNL A   1      39.895  28.350  30.913  1.00  0.00     0.022 A 
BRANCH  85  88
ATOM     88  S   UNL A   1      37.930  29.342  32.522  1.00  0.00     0.127 S 
ATOM     89  O   UNL A   1      37.425  28.246  33.344  1.00  0.00    -0.237 OA
ATOM     90  O   UNL A   1      38.118  30.599  33.247  1.00  0.00    -0.237 OA
ATOM     91  O   UNL A   1      37.316  29.485  31.211  1.00  0.00    -0.744 OA
ENDBRANCH  85  88
ENDBRANCH  57  81
BRANCH  69  92
ATOM     92  C   UNL A   1      45.339  22.361  35.752  1.00  0.00     0.023 A 
ATOM     93  C   UNL A   1      45.270  21.367  34.758  1.00  0.00     0.012 A 
ATOM     94  C   UNL A   1      45.678  21.949  37.068  1.00  0.00     0.148 A 
ATOM     95  C   UNL A   1      45.500  20.026  35.053  1.00  0.00     0.002 A 
ATOM     96  C   UNL A   1      46.031  20.633  37.324  1.00  0.00     0.091 A 
ATOM     97  F   UNL A   1      45.671  22.829  38.078  1.00  0.00    -0.205 F 
ATOM     98  C   UNL A   1      45.913  19.663  36.326  1.00  0.00     0.022 A 
BRANCH  96  99
ATOM     99  S   UNL A   1      46.831  20.156  38.863  1.00  0.00     0.127 S 
ATOM    100  O   UNL A   1      45.869  20.630  39.857  1.00  0.00    -0.237 OA
ATOM    101  O   UNL A   1      46.906  18.701  38.729  1.00  0.00    -0.237 OA
ATOM    102  O   UNL A   1      48.125  20.823  38.863  1.00  0.00    -0.744 OA
ENDBRANCH  96  99
ENDBRANCH  69  92
ENDBRANCH  43  44
ENDBRANCH  36  38
ENDBRANCH  35  36
ENDBRANCH  34  35
ENDBRANCH  33  34
ENDBRANCH  32  33
ENDBRANCH  31  32
ENDBRANCH   1  31
TORSDOF 25
ENDMDL
MODEL 2
REMARK VINA RESULT:      -9.3      7.607     12.557
REMARK SMILES Cc1ccc(S(=O)(=O)N2c3ccc(C(=O)OCCOCCOCCOCCOC(=O)c4ccc(-c5c6nc(c(-c7cccc(S(=O)(=O)[O-])c7F)c7ccc([nH]7)c(-c7cccc(S(=O)(=O)[O-])c7F)c7nc(c(-c8cccc(S(=O)(=O)[O-])c8F)c8ccc5[nH]8)C=C7)C=C6)cc4)cc3C[C@H]2C)cc1
REMARK SMILES IDX 23 1 22 2 21 3 20 4 19 5 18 6 17 7 16 8 14 9 15 10 13 11
REMARK SMILES IDX 9 12 10 13 97 14 11 15 95 16 96 17 98 18 12 19 94 20 6 21
REMARK SMILES IDX 7 22 8 23 5 24 1 25 2 26 3 27 100 28 4 29 99 30 24 31 25 32
REMARK SMILES IDX 26 33 27 34 28 35 29 36 30 37 31 38 32 39 93 40 33 41 92 42
REMARK SMILES IDX 34 43 35 44 36 45 86 46 37 47 91 48 85 49 87 50 38 51 90 52
REMARK SMILES IDX 84 53 83 54 39 56 71 57 51 58 70 59 52 60 55 61 69 62 88 63
REMARK SMILES IDX 53 64 54 65 68 67 89 68 56 69 40 70 41 71 49 72 42 73 44 74
REMARK SMILES IDX 50 75 43 76 45 77 46 78 47 79 48 80 72 81 73 82 81 83 74 84
REMARK SMILES IDX 76 85 82 86 75 87 77 88 78 89 79 90 80 91 57 92 58 93 66 94
REMARK SMILES IDX 59 95 61 96 67 97 60 98 62 99 63 100 64 101 65 102
REMARK H PARENT 87 55 55 66
REMARK Flexibility Score: inf
ROOT
ATOM      1  C   UNL A   1      40.466  27.988  29.872  1.00  0.00     0.188 C 
ENDROOT
BRANCH   1   2
ATOM      2  O   UNL A   1      40.737  28.145  28.481  1.00  0.00    -0.377 OA
BRANCH   2   3
ATOM      3  C   UNL A   1      40.899  26.913  27.763  1.00  0.00     0.188 C 
BRANCH   3   4
ATOM      4  C   UNL A   1      42.298  26.311  27.886  1.00  0.00     0.188 C 
BRANCH   4   5
ATOM      5  O   UNL A   1      42.356  25.035  28.528  1.00  0.00    -0.376 OA
BRANCH   5   6
ATOM      6  C   UNL A   1      42.179  23.948  27.615  1.00  0.00     0.202 C 
BRANCH   6   7
ATOM      7  C   UNL A   1      40.904  23.117  27.687  1.00  0.00     0.261 C 
BRANCH   7   8
ATOM      8  O   UNL A   1      40.396  22.872  26.382  1.00  0.00    -0.460 OA
BRANCH   8   9
ATOM      9  C   UNL A   1      39.739  21.712  26.237  1.00  0.00     0.338 C 
ATOM     10  O   UNL A   1      40.008  20.622  26.693  1.00  0.00    -0.246 OA
BRANCH   9  11
ATOM     11  C   UNL A   1      38.385  22.115  25.843  1.00  0.00     0.060 A 
ATOM     12  N   UNL A   1      34.379  22.530  24.832  1.00  0.00    -0.263 N 
ATOM     13  C   UNL A   1      35.709  22.519  25.407  1.00  0.00     0.055 A 
ATOM     14  C   UNL A   1      34.018  21.051  24.777  1.00  0.00     0.101 C 
ATOM     15  C   UNL A   1      36.455  23.601  25.838  1.00  0.00     0.028 A 
ATOM     16  C   UNL A   1      36.270  21.252  25.277  1.00  0.00    -0.021 A 
ATOM     17  C   UNL A   1      35.303  20.228  24.840  1.00  0.00     0.063 C 
ATOM     18  C   UNL A   1      33.117  20.779  25.990  1.00  0.00     0.032 C 
ATOM     19  C   UNL A   1      37.817  23.387  26.069  1.00  0.00     0.018 A 
ATOM     20  C   UNL A   1      37.607  21.035  25.453  1.00  0.00     0.021 A 
BRANCH  12  21
ATOM     21  S   UNL A   1      34.491  23.415  23.342  1.00  0.00     0.264 S 
ATOM     22  O   UNL A   1      33.433  22.946  22.465  1.00  0.00    -0.201 OA
ATOM     23  O   UNL A   1      35.878  23.377  22.918  1.00  0.00    -0.201 OA
BRANCH  21  24
ATOM     24  C   UNL A   1      34.122  25.131  23.587  1.00  0.00     0.088 A 
ATOM     25  C   UNL A   1      32.175  28.921  24.064  1.00  0.00     0.044 C 
ATOM     26  C   UNL A   1      32.895  27.621  23.885  1.00  0.00    -0.051 A 
ATOM     27  C   UNL A   1      33.021  27.053  22.613  1.00  0.00     0.005 A 
ATOM     28  C   UNL A   1      33.480  26.980  24.982  1.00  0.00     0.005 A 
ATOM     29  C   UNL A   1      33.608  25.800  22.468  1.00  0.00     0.022 A 
ATOM     30  C   UNL A   1      34.146  25.766  24.821  1.00  0.00     0.022 A 
ENDBRANCH  21  24
ENDBRANCH  12  21
ENDBRANCH   9  11
ENDBRANCH   8   9
ENDBRANCH   7   8
ENDBRANCH   6   7
ENDBRANCH   5   6
ENDBRANCH   4   5
ENDBRANCH   3   4
ENDBRANCH   2   3
ENDBRANCH   1   2
BRANCH   1  31
ATOM     31  C   UNL A   1      39.017  27.756  30.193  1.00  0.00     0.188 C 
BRANCH  31  32
ATOM     32  O   UNL A   1      38.331  28.953  29.852  1.00  0.00    -0.376 OA
BRANCH  32  33
ATOM     33  C   UNL A   1      37.063  29.102  30.464  1.00  0.00     0.202 C 
BRANCH  33  34
ATOM     34  C   UNL A   1      36.148  30.076  29.717  1.00  0.00     0.261 C 
BRANCH  34  35
ATOM     35  O   UNL A   1      36.556  31.425  30.023  1.00  0.00    -0.460 OA
BRANCH  35  36
ATOM     36  C   UNL A   1      36.681  31.704  31.354  1.00  0.00     0.338 C 
ATOM     37  O   UNL A   1      35.742  31.705  32.130  1.00  0.00    -0.246 OA
BRANCH  36  38
ATOM     38  C   UNL A   1      38.071  32.173  31.649  1.00  0.00     0.060 A 
ATOM     39  C   UNL A   1      38.710  31.857  32.855  1.00  0.00     0.016 A 
ATOM     40  C   UNL A   1      38.645  33.131  30.831  1.00  0.00     0.016 A 
ATOM     41  C   UNL A   1      39.773  32.651  33.342  1.00  0.00     0.010 A 
ATOM     42  C   UNL A   1      39.655  33.927  31.339  1.00  0.00     0.010 A 
ATOM     43  C   UNL A   1      40.188  33.762  32.629  1.00  0.00    -0.014 A 
BRANCH  43  44
ATOM     44  C   UNL A   1      41.181  34.777  33.066  1.00  0.00     0.031 A 
ATOM     45  C   UNL A   1      40.892  35.495  34.354  1.00  0.00     0.074 A 
ATOM     46  C   UNL A   1      42.452  34.758  32.575  1.00  0.00     0.049 A 
ATOM     47  N   UNL A   1      41.685  36.296  34.979  1.00  0.00    -0.248 NA
ATOM     48  C   UNL A   1      39.663  35.264  35.107  1.00  0.00     0.031 C 
ATOM     49  C   UNL A   1      43.670  35.224  33.239  1.00  0.00     0.029 A 
ATOM     50  N   UNL A   1      42.970  34.262  31.373  1.00  0.00    -0.354 N 
ATOM     51  C   UNL A   1      41.297  36.342  36.313  1.00  0.00     0.074 A 
ATOM     52  C   UNL A   1      39.983  35.753  36.308  1.00  0.00     0.031 C 
ATOM     53  C   UNL A   1      44.729  35.180  32.416  1.00  0.00     0.029 A 
ATOM     54  C   UNL A   1      44.182  34.932  31.111  1.00  0.00     0.049 A 
ATOM     55  H   UNL A   1      42.559  33.567  30.810  1.00  0.00     0.167 HD
ATOM     56  C   UNL A   1      42.224  36.699  37.264  1.00  0.00     0.034 A 
ATOM     57  C   UNL A   1      44.273  35.792  30.061  1.00  0.00     0.034 A 
ATOM     58  C   UNL A   1      43.488  37.167  36.607  1.00  0.00     0.049 A 
ATOM     59  C   UNL A   1      44.434  37.194  30.648  1.00  0.00     0.074 A 
ATOM     60  C   UNL A   1      44.821  36.787  36.652  1.00  0.00     0.029 A 
ATOM     61  N   UNL A   1      43.421  38.079  35.539  1.00  0.00    -0.354 N 
ATOM     62  N   UNL A   1      43.961  37.540  31.828  1.00  0.00    -0.248 NA
ATOM     63  C   UNL A   1      45.404  38.169  30.151  1.00  0.00     0.031 C 
ATOM     64  C   UNL A   1      45.474  37.280  35.480  1.00  0.00     0.029 A 
ATOM     65  C   UNL A   1      44.571  38.053  34.759  1.00  0.00     0.049 A 
ATOM     66  H   UNL A   1      42.650  38.665  35.363  1.00  0.00     0.167 HD
ATOM     67  C   UNL A   1      44.696  38.577  32.336  1.00  0.00     0.074 A 
ATOM     68  C   UNL A   1      45.518  39.001  31.205  1.00  0.00     0.031 C 
ATOM     69  C   UNL A   1      44.753  38.984  33.647  1.00  0.00     0.034 A 
BRANCH  56  70
ATOM     70  C   UNL A   1      42.126  36.362  38.785  1.00  0.00     0.023 A 
ATOM     71  C   UNL A   1      42.043  34.997  39.159  1.00  0.00     0.012 A 
ATOM     72  C   UNL A   1      42.081  37.262  39.886  1.00  0.00     0.148 A 
ATOM     73  C   UNL A   1      41.869  34.555  40.483  1.00  0.00     0.002 A 
ATOM     74  C   UNL A   1      41.910  36.825  41.217  1.00  0.00     0.091 A 
ATOM     75  F   UNL A   1      42.265  38.566  39.692  1.00  0.00    -0.205 F 
ATOM     76  C   UNL A   1      41.794  35.469  41.516  1.00  0.00     0.022 A 
BRANCH  74  77
ATOM     77  S   UNL A   1      41.826  37.954  42.629  1.00  0.00     0.127 S 
ATOM     78  O   UNL A   1      43.049  38.745  42.474  1.00  0.00    -0.237 OA
ATOM     79  O   UNL A   1      40.592  38.692  42.365  1.00  0.00    -0.237 OA
ATOM     80  O   UNL A   1      41.811  37.113  43.820  1.00  0.00    -0.744 OA
ENDBRANCH  74  77
ENDBRANCH  56  70
BRANCH  57  81
ATOM     81  C   UNL A   1      43.568  35.183  28.881  1.00  0.00     0.023 A 
ATOM     82  C   UNL A   1      42.595  36.042  28.276  1.00  0.00     0.012 A 
ATOM     83  C   UNL A   1      44.151  34.190  28.071  1.00  0.00     0.148 A 
ATOM     84  C   UNL A   1      42.374  36.050  26.894  1.00  0.00     0.002 A 
ATOM     85  C   UNL A   1      43.876  34.169  26.693  1.00  0.00     0.091 A 
ATOM     86  F   UNL A   1      45.035  33.353  28.626  1.00  0.00    -0.205 F 
ATOM     87  C   UNL A   1      43.049  35.139  26.098  1.00  0.00     0.022 A 
BRANCH  85  88
ATOM     88  S   UNL A   1      44.599  32.958  25.575  1.00  0.00     0.127 S 
ATOM     89  O   UNL A   1      46.026  33.205  25.758  1.00  0.00    -0.237 OA
ATOM     90  O   UNL A   1      44.132  31.689  26.136  1.00  0.00    -0.237 OA
ATOM     91  O   UNL A   1      44.066  33.270  24.258  1.00  0.00    -0.744 OA
ENDBRANCH  85  88
ENDBRANCH  57  81
BRANCH  69  92
ATOM     92  C   UNL A   1      44.966  40.437  34.005  1.00  0.00     0.023 A 
ATOM     93  C   UNL A   1      46.273  40.953  34.075  1.00  0.00     0.012 A 
ATOM     94  C   UNL A   1      43.895  41.369  33.977  1.00  0.00     0.148 A 
ATOM     95  C   UNL A   1      46.513  42.322  34.141  1.00  0.00     0.002 A 
ATOM     96  C   UNL A   1      44.149  42.731  33.913  1.00  0.00     0.091 A 
ATOM     97  F   UNL A   1      42.625  40.945  34.003  1.00  0.00    -0.205 F 
ATOM     98  C   UNL A   1      45.455  43.211  34.025  1.00  0.00     0.022 A 
BRANCH  96  99
ATOM     99  S   UNL A   1      42.857  43.909  33.488  1.00  0.00     0.127 S 
ATOM    100  O   UNL A   1      43.627  45.137  33.299  1.00  0.00    -0.237 OA
ATOM    101  O   UNL A   1      42.312  43.333  32.258  1.00  0.00    -0.237 OA
ATOM    102  O   UNL A   1      41.930  43.906  34.611  1.00  0.00    -0.744 OA
ENDBRANCH  96  99
ENDBRANCH  69  92
ENDBRANCH  43  44
ENDBRANCH  36  38
ENDBRANCH  35  36
ENDBRANCH  34  35
ENDBRANCH  33  34
ENDBRANCH  32  33
ENDBRANCH  31  32
ENDBRANCH   1  31
TORSDOF 25
ENDMDL
MODEL 3
REMARK VINA RESULT:      -9.0      7.492     10.164
REMARK SMILES Cc1ccc(S(=O)(=O)N2c3ccc(C(=O)OCCOCCOCCOCCOC(=O)c4ccc(-c5c6nc(c(-c7cccc(S(=O)(=O)[O-])c7F)c7ccc([nH]7)c(-c7cccc(S(=O)(=O)[O-])c7F)c7nc(c(-c8cccc(S(=O)(=O)[O-])c8F)c8ccc5[nH]8)C=C7)C=C6)cc4)cc3C[C@H]2C)cc1
REMARK SMILES IDX 23 1 22 2 21 3 20 4 19 5 18 6 17 7 16 8 14 9 15 10 13 11
REMARK SMILES IDX 9 12 10 13 97 14 11 15 95 16 96 17 98 18 12 19 94 20 6 21
REMARK SMILES IDX 7 22 8 23 5 24 1 25 2 26 3 27 100 28 4 29 99 30 24 31 25 32
REMARK SMILES IDX 26 33 27 34 28 35 29 36 30 37 31 38 32 39 93 40 33 41 92 42
REMARK SMILES IDX 34 43 35 44 36 45 86 46 37 47 91 48 85 49 87 50 38 51 90 52
REMARK SMILES IDX 84 53 83 54 39 56 71 57 51 58 70 59 52 60 55 61 69 62 88 63
REMARK SMILES IDX 53 64 54 65 68 67 89 68 56 69 40 70 41 71 49 72 42 73 44 74
REMARK SMILES IDX 50 75 43 76 45 77 46 78 47 79 48 80 72 81 73 82 81 83 74 84
REMARK SMILES IDX 76 85 82 86 75 87 77 88 78 89 79 90 80 91 57 92 58 93 66 94
REMARK SMILES IDX 59 95 61 96 67 97 60 98 62 99 63 100 64 101 65 102
REMARK H PARENT 87 55 55 66
REMARK Flexibility Score: inf
ROOT
ATOM      1  C   UNL A   1      38.810  30.185  30.407  1.00  0.00     0.188 C 
ENDROOT
BRANCH   1   2
ATOM      2  O   UNL A   1      38.122  29.228  29.605  1.00  0.00    -0.377 OA
BRANCH   2   3
ATOM      3  C   UNL A   1      38.975  28.404  28.798  1.00  0.00     0.188 C 
BRANCH   3   4
ATOM      4  C   UNL A   1      40.010  27.619  29.602  1.00  0.00     0.188 C 
BRANCH   4   5
ATOM      5  O   UNL A   1      40.629  26.536  28.904  1.00  0.00    -0.376 OA
BRANCH   5   6
ATOM      6  C   UNL A   1      39.864  26.093  27.779  1.00  0.00     0.202 C 
BRANCH   6   7
ATOM      7  C   UNL A   1      39.190  24.728  27.829  1.00  0.00     0.261 C 
BRANCH   7   8
ATOM      8  O   UNL A   1      38.385  24.527  26.675  1.00  0.00    -0.460 OA
BRANCH   8   9
ATOM      9  C   UNL A   1      38.450  23.297  26.144  1.00  0.00     0.338 C 
ATOM     10  O   UNL A   1      39.276  22.430  26.330  1.00  0.00    -0.246 OA
BRANCH   9  11
ATOM     11  C   UNL A   1      37.080  23.031  25.692  1.00  0.00     0.060 A 
ATOM     12  N   UNL A   1      33.148  23.027  24.357  1.00  0.00    -0.263 N 
ATOM     13  C   UNL A   1      34.577  22.930  24.580  1.00  0.00     0.055 A 
ATOM     14  C   UNL A   1      32.888  24.524  24.455  1.00  0.00     0.101 C 
ATOM     15  C   UNL A   1      35.384  21.816  24.437  1.00  0.00     0.028 A 
ATOM     16  C   UNL A   1      35.040  24.091  25.192  1.00  0.00    -0.021 A 
ATOM     17  C   UNL A   1      34.041  25.176  25.214  1.00  0.00     0.063 C 
ATOM     18  C   UNL A   1      32.800  25.045  23.013  1.00  0.00     0.032 C 
ATOM     19  C   UNL A   1      36.663  21.877  24.996  1.00  0.00     0.018 A 
ATOM     20  C   UNL A   1      36.269  24.152  25.786  1.00  0.00     0.021 A 
BRANCH  12  21
ATOM     21  S   UNL A   1      32.394  21.973  25.513  1.00  0.00     0.264 S 
ATOM     22  O   UNL A   1      30.971  22.265  25.520  1.00  0.00    -0.201 OA
ATOM     23  O   UNL A   1      33.172  22.044  26.736  1.00  0.00    -0.201 OA
BRANCH  21  24
ATOM     24  C   UNL A   1      32.487  20.281  24.994  1.00  0.00     0.088 A 
ATOM     25  C   UNL A   1      33.664  16.540  23.261  1.00  0.00     0.044 C 
ATOM     26  C   UNL A   1      33.207  17.831  23.867  1.00  0.00    -0.051 A 
ATOM     27  C   UNL A   1      32.663  18.836  23.061  1.00  0.00     0.005 A 
ATOM     28  C   UNL A   1      33.287  18.029  25.249  1.00  0.00     0.005 A 
ATOM     29  C   UNL A   1      32.329  20.067  23.618  1.00  0.00     0.022 A 
ATOM     30  C   UNL A   1      32.870  19.232  25.818  1.00  0.00     0.022 A 
ENDBRANCH  21  24
ENDBRANCH  12  21
ENDBRANCH   9  11
ENDBRANCH   8   9
ENDBRANCH   7   8
ENDBRANCH   6   7
ENDBRANCH   5   6
ENDBRANCH   4   5
ENDBRANCH   3   4
ENDBRANCH   2   3
ENDBRANCH   1   2
BRANCH   1  31
ATOM     31  C   UNL A   1      38.912  31.548  29.784  1.00  0.00     0.188 C 
BRANCH  31  32
ATOM     32  O   UNL A   1      39.050  32.473  30.857  1.00  0.00    -0.376 OA
BRANCH  32  33
ATOM     33  C   UNL A   1      40.222  33.264  30.807  1.00  0.00     0.202 C 
BRANCH  33  34
ATOM     34  C   UNL A   1      41.438  32.571  31.428  1.00  0.00     0.261 C 
BRANCH  34  35
ATOM     35  O   UNL A   1      42.632  33.264  31.008  1.00  0.00    -0.460 OA
BRANCH  35  36
ATOM     36  C   UNL A   1      43.800  32.744  31.487  1.00  0.00     0.338 C 
ATOM     37  O   UNL A   1      44.734  32.422  30.773  1.00  0.00    -0.246 OA
BRANCH  36  38
ATOM     38  C   UNL A   1      43.675  32.470  32.953  1.00  0.00     0.060 A 
ATOM     39  C   UNL A   1      43.210  31.238  33.431  1.00  0.00     0.016 A 
ATOM     40  C   UNL A   1      43.785  33.523  33.845  1.00  0.00     0.016 A 
ATOM     41  C   UNL A   1      42.647  31.127  34.723  1.00  0.00     0.010 A 
ATOM     42  C   UNL A   1      43.190  33.413  35.089  1.00  0.00     0.010 A 
ATOM     43  C   UNL A   1      42.539  32.247  35.528  1.00  0.00    -0.014 A 
BRANCH  43  44
ATOM     44  C   UNL A   1      41.846  32.334  36.839  1.00  0.00     0.031 A 
ATOM     45  C   UNL A   1      42.595  31.818  38.034  1.00  0.00     0.074 A 
ATOM     46  C   UNL A   1      40.805  33.196  37.015  1.00  0.00     0.049 A 
ATOM     47  N   UNL A   1      42.240  31.933  39.269  1.00  0.00    -0.248 NA
ATOM     48  C   UNL A   1      43.908  31.194  37.912  1.00  0.00     0.031 C 
ATOM     49  C   UNL A   1      40.391  33.850  38.257  1.00  0.00     0.029 A 
ATOM     50  N   UNL A   1      39.892  33.738  36.104  1.00  0.00    -0.354 N 
ATOM     51  C   UNL A   1      43.374  31.808  40.063  1.00  0.00     0.074 A 
ATOM     52  C   UNL A   1      44.361  31.259  39.168  1.00  0.00     0.031 C 
ATOM     53  C   UNL A   1      39.245  34.529  38.099  1.00  0.00     0.029 A 
ATOM     54  C   UNL A   1      38.738  34.121  36.818  1.00  0.00     0.049 A 
ATOM     55  H   UNL A   1      40.032  33.836  35.135  1.00  0.00     0.167 HD
ATOM     56  C   UNL A   1      43.372  32.365  41.319  1.00  0.00     0.034 A 
ATOM     57  C   UNL A   1      37.567  33.457  36.628  1.00  0.00     0.034 A 
ATOM     58  C   UNL A   1      42.001  32.868  41.662  1.00  0.00     0.049 A 
ATOM     59  C   UNL A   1      37.268  32.704  37.924  1.00  0.00     0.074 A 
ATOM     60  C   UNL A   1      41.463  34.093  42.027  1.00  0.00     0.029 A 
ATOM     61  N   UNL A   1      40.882  32.052  41.424  1.00  0.00    -0.354 N 
ATOM     62  N   UNL A   1      38.208  32.291  38.750  1.00  0.00    -0.248 NA
ATOM     63  C   UNL A   1      35.948  32.672  38.552  1.00  0.00     0.031 C 
ATOM     64  C   UNL A   1      40.058  34.066  41.771  1.00  0.00     0.029 A 
ATOM     65  C   UNL A   1      39.707  32.790  41.345  1.00  0.00     0.049 A 
ATOM     66  H   UNL A   1      40.925  31.073  41.324  1.00  0.00     0.167 HD
ATOM     67  C   UNL A   1      37.699  32.188  40.017  1.00  0.00     0.074 A 
ATOM     68  C   UNL A   1      36.258  32.336  39.819  1.00  0.00     0.031 C 
ATOM     69  C   UNL A   1      38.409  32.135  41.191  1.00  0.00     0.034 A 
BRANCH  56  70
ATOM     70  C   UNL A   1      44.647  32.735  42.141  1.00  0.00     0.023 A 
ATOM     71  C   UNL A   1      44.908  32.003  43.326  1.00  0.00     0.012 A 
ATOM     72  C   UNL A   1      45.605  33.753  41.872  1.00  0.00     0.148 A 
ATOM     73  C   UNL A   1      45.972  32.282  44.204  1.00  0.00     0.002 A 
ATOM     74  C   UNL A   1      46.675  34.037  42.747  1.00  0.00     0.091 A 
ATOM     75  F   UNL A   1      45.549  34.440  40.734  1.00  0.00    -0.205 F 
ATOM     76  C   UNL A   1      46.855  33.306  43.920  1.00  0.00     0.022 A 
BRANCH  74  77
ATOM     77  S   UNL A   1      47.890  35.342  42.437  1.00  0.00     0.127 S 
ATOM     78  O   UNL A   1      48.723  35.291  43.639  1.00  0.00    -0.237 OA
ATOM     79  O   UNL A   1      48.552  34.869  41.222  1.00  0.00    -0.237 OA
ATOM     80  O   UNL A   1      47.129  36.578  42.294  1.00  0.00    -0.744 OA
ENDBRANCH  74  77
ENDBRANCH  56  70
BRANCH  57  81
ATOM     81  C   UNL A   1      37.397  33.199  35.157  1.00  0.00     0.023 A 
ATOM     82  C   UNL A   1      38.024  31.995  34.701  1.00  0.00     0.012 A 
ATOM     83  C   UNL A   1      36.300  33.679  34.417  1.00  0.00     0.148 A 
ATOM     84  C   UNL A   1      37.460  31.203  33.694  1.00  0.00     0.002 A 
ATOM     85  C   UNL A   1      35.776  32.905  33.369  1.00  0.00     0.091 A 
ATOM     86  F   UNL A   1      35.722  34.823  34.806  1.00  0.00    -0.205 F 
ATOM     87  C   UNL A   1      36.310  31.640  33.058  1.00  0.00     0.022 A 
BRANCH  85  88
ATOM     88  S   UNL A   1      34.359  33.424  32.389  1.00  0.00     0.127 S 
ATOM     89  O   UNL A   1      34.760  34.767  31.981  1.00  0.00    -0.237 OA
ATOM     90  O   UNL A   1      34.347  32.444  31.303  1.00  0.00    -0.237 OA
ATOM     91  O   UNL A   1      33.213  33.351  33.283  1.00  0.00    -0.744 OA
ENDBRANCH  85  88
ENDBRANCH  57  81
BRANCH  69  92
ATOM     92  C   UNL A   1      37.898  31.351  42.379  1.00  0.00     0.023 A 
ATOM     93  C   UNL A   1      38.325  30.025  42.573  1.00  0.00     0.012 A 
ATOM     94  C   UNL A   1      37.247  31.995  43.463  1.00  0.00     0.148 A 
ATOM     95  C   UNL A   1      38.096  29.355  43.772  1.00  0.00     0.002 A 
ATOM     96  C   UNL A   1      37.139  31.366  44.694  1.00  0.00     0.091 A 
ATOM     97  F   UNL A   1      36.735  33.224  43.314  1.00  0.00    -0.205 F 
ATOM     98  C   UNL A   1      37.535  30.035  44.842  1.00  0.00     0.022 A 
BRANCH  96  99
ATOM     99  S   UNL A   1      36.681  32.273  46.178  1.00  0.00     0.127 S 
ATOM    100  O   UNL A   1      35.280  32.591  45.910  1.00  0.00    -0.237 OA
ATOM    101  O   UNL A   1      36.892  31.272  47.224  1.00  0.00    -0.237 OA
ATOM    102  O   UNL A   1      37.589  33.409  46.247  1.00  0.00    -0.744 OA
ENDBRANCH  96  99
ENDBRANCH  69  92
ENDBRANCH  43  44
ENDBRANCH  36  38
ENDBRANCH  35  36
ENDBRANCH  34  35
ENDBRANCH  33  34
ENDBRANCH  32  33
ENDBRANCH  31  32
ENDBRANCH   1  31
TORSDOF 25
ENDMDL
