MODEL 1
REMARK VINA RESULT:      -6.1      0.000      0.000
REMARK SMILES COc1ccc([C@H]2CC(c3ccc(S(C)(=O)=O)cc3)=NN2c2ccc(C(=O)OCCOCCOCCOCCOC(=O)c3ccc(-c4c5nc(c(-c6cccc(S(=O)(=O)[O-])c6F)c6ccc([nH]6)c(-c6cccc(S(=O)(=O)[O-])c6F)c6nc(c(-c7cccc(S(=O)(=O)[O-])c7F)c7ccc4[nH]7)C=C6)C=C5)cc3)cc2)cc1
REMARK SMILES IDX 34 1 33 2 32 3 31 4 30 5 29 6 28 7 26 8 27 9 25 10 22 11
REMARK SMILES IDX 23 12 107 13 24 14 106 15 21 16 7 17 8 18 9 19 20 20 6 21
REMARK SMILES IDX 3 22 4 23 109 24 5 25 108 26 2 27 1 28 10 29 11 30 19 31
REMARK SMILES IDX 12 32 18 33 13 34 14 35 15 36 16 37 17 38 35 39 36 40 37 41
REMARK SMILES IDX 38 42 39 43 40 44 41 45 42 46 43 47 44 48 105 49 45 50
REMARK SMILES IDX 104 51 46 52 47 53 48 54 98 55 49 56 103 57 97 58 99 59
REMARK SMILES IDX 50 60 102 61 96 62 95 63 51 65 83 66 63 67 82 68 64 69 67 70
REMARK SMILES IDX 81 71 100 72 65 73 66 74 80 76 101 77 68 78 52 79 53 80
REMARK SMILES IDX 61 81 54 82 56 83 62 84 55 85 57 86 58 87 59 88 60 89 84 90
REMARK SMILES IDX 85 91 93 92 86 93 88 94 94 95 87 96 89 97 90 98 91 99 92 100
REMARK SMILES IDX 69 101 70 102 78 103 71 104 73 105 79 106 72 107 74 108
REMARK SMILES IDX 75 109 76 110 77 111
REMARK H PARENT 99 64 67 75
REMARK Flexibility Score: inf
ROOT
ATOM      1  O   UNL A   1      42.493  27.445  28.190  1.00  0.00    -0.377 OA
ENDROOT
BRANCH   1   2
ATOM      2  C   UNL A   1      41.876  28.226  27.179  1.00  0.00     0.188 C 
BRANCH   2   3
ATOM      3  C   UNL A   1      42.666  29.372  26.512  1.00  0.00     0.188 C 
BRANCH   3   4
ATOM      4  O   UNL A   1      43.293  30.257  27.422  1.00  0.00    -0.376 OA
BRANCH   4   5
ATOM      5  C   UNL A   1      43.569  31.589  27.032  1.00  0.00     0.202 C 
BRANCH   5   6
ATOM      6  C   UNL A   1      44.911  32.239  27.398  1.00  0.00     0.261 C 
BRANCH   6   7
ATOM      7  O   UNL A   1      44.938  33.668  27.425  1.00  0.00    -0.460 OA
BRANCH   7   8
ATOM      8  C   UNL A   1      44.142  34.280  28.327  1.00  0.00     0.338 C 
ATOM      9  O   UNL A   1      43.752  33.824  29.387  1.00  0.00    -0.246 OA
BRANCH   8  10
ATOM     10  C   UNL A   1      43.992  35.694  27.912  1.00  0.00     0.060 A 
ATOM     11  C   UNL A   1      43.689  38.333  27.007  1.00  0.00     0.060 A 
ATOM     12  C   UNL A   1      42.653  37.408  26.845  1.00  0.00     0.029 A 
ATOM     13  C   UNL A   1      44.828  37.947  27.732  1.00  0.00     0.029 A 
ATOM     14  C   UNL A   1      42.816  36.084  27.261  1.00  0.00     0.018 A 
ATOM     15  C   UNL A   1      44.978  36.640  28.199  1.00  0.00     0.018 A 
BRANCH  11  16
ATOM     16  N   UNL A   1      43.669  39.554  26.339  1.00  0.00    -0.257 N 
ATOM     17  C   UNL A   1      42.561  40.491  26.544  1.00  0.00     0.144 C 
ATOM     18  C   UNL A   1      43.031  41.733  25.788  1.00  0.00     0.091 C 
ATOM     19  C   UNL A   1      44.402  41.284  25.363  1.00  0.00     0.071 C 
ATOM     20  N   UNL A   1      44.754  40.086  25.714  1.00  0.00    -0.176 NA
BRANCH  17  21
ATOM     21  C   UNL A   1      42.289  40.767  28.020  1.00  0.00    -0.023 A 
ATOM     22  C   UNL A   1      41.842  41.284  30.754  1.00  0.00     0.118 A 
ATOM     23  C   UNL A   1      43.089  41.536  30.187  1.00  0.00     0.047 A 
ATOM     24  C   UNL A   1      40.797  40.834  29.950  1.00  0.00     0.047 A 
ATOM     25  C   UNL A   1      43.315  41.272  28.834  1.00  0.00     0.010 A 
ATOM     26  C   UNL A   1      41.018  40.579  28.593  1.00  0.00     0.010 A 
BRANCH  22  27
ATOM     27  O   UNL A   1      41.710  41.573  32.086  1.00  0.00    -0.497 OA
ATOM     28  C   UNL A   1      42.497  42.681  32.513  1.00  0.00     0.278 C 
ENDBRANCH  22  27
ENDBRANCH  17  21
BRANCH  19  29
ATOM     29  C   UNL A   1      45.234  42.172  24.541  1.00  0.00    -0.002 A 
ATOM     30  C   UNL A   1      46.626  42.097  24.662  1.00  0.00     0.011 A 
ATOM     31  C   UNL A   1      44.641  43.024  23.605  1.00  0.00     0.011 A 
ATOM     32  C   UNL A   1      47.436  42.870  23.828  1.00  0.00     0.021 A 
ATOM     33  C   UNL A   1      45.450  43.818  22.788  1.00  0.00     0.021 A 
ATOM     34  C   UNL A   1      46.842  43.736  22.903  1.00  0.00     0.067 A 
BRANCH  34  35
ATOM     35  S   UNL A   1      47.875  44.715  21.836  1.00  0.00     0.175 S 
ATOM     36  C   UNL A   1      49.521  44.429  22.428  1.00  0.00     0.163 C 
ATOM     37  O   UNL A   1      47.760  44.152  20.504  1.00  0.00    -0.224 OA
ATOM     38  O   UNL A   1      47.563  46.111  22.081  1.00  0.00    -0.224 OA
ENDBRANCH  34  35
ENDBRANCH  19  29
ENDBRANCH  11  16
ENDBRANCH   8  10
ENDBRANCH   7   8
ENDBRANCH   6   7
ENDBRANCH   5   6
ENDBRANCH   4   5
ENDBRANCH   3   4
ENDBRANCH   2   3
ENDBRANCH   1   2
BRANCH   1  39
ATOM     39  C   UNL A   1      42.429  26.024  28.147  1.00  0.00     0.188 C 
BRANCH  39  40
ATOM     40  C   UNL A   1      42.699  25.238  26.842  1.00  0.00     0.188 C 
BRANCH  40  41
ATOM     41  O   UNL A   1      42.973  23.858  27.022  1.00  0.00    -0.376 OA
BRANCH  41  42
ATOM     42  C   UNL A   1      43.768  23.211  26.048  1.00  0.00     0.202 C 
BRANCH  42  43
ATOM     43  C   UNL A   1      45.246  22.971  26.386  1.00  0.00     0.261 C 
BRANCH  43  44
ATOM     44  O   UNL A   1      45.732  23.583  27.588  1.00  0.00    -0.460 OA
BRANCH  44  45
ATOM     45  C   UNL A   1      46.844  24.340  27.499  1.00  0.00     0.338 C 
ATOM     46  O   UNL A   1      47.866  24.078  26.880  1.00  0.00    -0.246 OA
BRANCH  45  47
ATOM     47  C   UNL A   1      46.546  25.643  28.126  1.00  0.00     0.060 A 
ATOM     48  C   UNL A   1      46.037  26.684  27.338  1.00  0.00     0.016 A 
ATOM     49  C   UNL A   1      46.746  25.823  29.496  1.00  0.00     0.016 A 
ATOM     50  C   UNL A   1      45.757  27.923  27.917  1.00  0.00     0.010 A 
ATOM     51  C   UNL A   1      46.485  27.069  30.069  1.00  0.00     0.010 A 
ATOM     52  C   UNL A   1      46.022  28.134  29.276  1.00  0.00    -0.014 A 
BRANCH  52  53
ATOM     53  C   UNL A   1      46.002  29.509  29.830  1.00  0.00     0.031 A 
ATOM     54  C   UNL A   1      44.797  29.939  30.622  1.00  0.00     0.074 A 
ATOM     55  C   UNL A   1      47.021  30.363  29.628  1.00  0.00     0.049 A 
ATOM     56  N   UNL A   1      44.524  31.102  31.152  1.00  0.00    -0.248 NA
ATOM     57  C   UNL A   1      43.757  28.919  30.840  1.00  0.00     0.031 C 
ATOM     58  C   UNL A   1      48.244  30.061  28.888  1.00  0.00     0.029 A 
ATOM     59  N   UNL A   1      47.169  31.676  30.006  1.00  0.00    -0.354 N 
ATOM     60  C   UNL A   1      43.270  30.965  31.736  1.00  0.00     0.074 A 
ATOM     61  C   UNL A   1      42.831  29.610  31.488  1.00  0.00     0.031 C 
ATOM     62  C   UNL A   1      49.006  31.169  28.838  1.00  0.00     0.029 A 
ATOM     63  C   UNL A   1      48.310  32.263  29.514  1.00  0.00     0.049 A 
ATOM     64  H   UNL A   1      46.520  32.149  30.576  1.00  0.00     0.167 HD
ATOM     65  C   UNL A   1      42.552  31.881  32.426  1.00  0.00     0.034 A 
ATOM     66  C   UNL A   1      48.727  33.544  29.576  1.00  0.00     0.034 A 
ATOM     67  C   UNL A   1      42.996  33.224  32.680  1.00  0.00     0.049 A 
ATOM     68  C   UNL A   1      47.891  34.556  30.319  1.00  0.00     0.074 A 
ATOM     69  C   UNL A   1      42.361  34.215  33.408  1.00  0.00     0.029 A 
ATOM     70  N   UNL A   1      44.173  33.774  32.197  1.00  0.00    -0.354 N 
ATOM     71  N   UNL A   1      46.761  34.385  30.962  1.00  0.00    -0.248 NA
ATOM     72  C   UNL A   1      48.405  35.934  30.373  1.00  0.00     0.031 C 
ATOM     73  C   UNL A   1      43.136  35.377  33.330  1.00  0.00     0.029 A 
ATOM     74  C   UNL A   1      44.277  35.095  32.596  1.00  0.00     0.049 A 
ATOM     75  H   UNL A   1      44.839  33.295  31.652  1.00  0.00     0.167 HD
ATOM     76  C   UNL A   1      46.451  35.618  31.528  1.00  0.00     0.074 A 
ATOM     77  C   UNL A   1      47.522  36.523  31.168  1.00  0.00     0.031 C 
ATOM     78  C   UNL A   1      45.373  35.972  32.273  1.00  0.00     0.034 A 
BRANCH  65  79
ATOM     79  C   UNL A   1      41.210  31.459  32.962  1.00  0.00     0.023 A 
ATOM     80  C   UNL A   1      41.109  30.906  34.254  1.00  0.00     0.012 A 
ATOM     81  C   UNL A   1      40.041  31.660  32.202  1.00  0.00     0.148 A 
ATOM     82  C   UNL A   1      39.870  30.529  34.770  1.00  0.00     0.002 A 
ATOM     83  C   UNL A   1      38.805  31.328  32.742  1.00  0.00     0.091 A 
ATOM     84  F   UNL A   1      40.160  32.166  30.967  1.00  0.00    -0.205 F 
ATOM     85  C   UNL A   1      38.718  30.751  34.019  1.00  0.00     0.022 A 
BRANCH  83  86
ATOM     86  S   UNL A   1      37.257  31.649  31.889  1.00  0.00     0.127 S 
ATOM     87  O   UNL A   1      36.278  31.184  32.872  1.00  0.00    -0.237 OA
ATOM     88  O   UNL A   1      37.301  33.100  31.712  1.00  0.00    -0.237 OA
ATOM     89  O   UNL A   1      37.309  30.882  30.654  1.00  0.00    -0.744 OA
ENDBRANCH  83  86
ENDBRANCH  65  79
BRANCH  66  90
ATOM     90  C   UNL A   1      50.008  33.949  28.927  1.00  0.00     0.023 A 
ATOM     91  C   UNL A   1      51.202  33.941  29.675  1.00  0.00     0.012 A 
ATOM     92  C   UNL A   1      50.046  34.345  27.577  1.00  0.00     0.148 A 
ATOM     93  C   UNL A   1      52.404  34.357  29.099  1.00  0.00     0.002 A 
ATOM     94  C   UNL A   1      51.256  34.703  26.993  1.00  0.00     0.091 A 
ATOM     95  F   UNL A   1      48.897  34.361  26.886  1.00  0.00    -0.205 F 
ATOM     96  C   UNL A   1      52.432  34.729  27.757  1.00  0.00     0.022 A 
BRANCH  94  97
ATOM     97  S   UNL A   1      51.411  35.076  25.243  1.00  0.00     0.127 S 
ATOM     98  O   UNL A   1      50.810  33.894  24.630  1.00  0.00    -0.237 OA
ATOM     99  O   UNL A   1      50.620  36.301  25.127  1.00  0.00    -0.237 OA
ATOM    100  O   UNL A   1      52.836  35.255  25.000  1.00  0.00    -0.744 OA
ENDBRANCH  94  97
ENDBRANCH  66  90
BRANCH  78 101
ATOM    101  C   UNL A   1      45.314  37.382  32.802  1.00  0.00     0.023 A 
ATOM    102  C   UNL A   1      44.780  38.417  32.008  1.00  0.00     0.012 A 
ATOM    103  C   UNL A   1      45.718  37.665  34.123  1.00  0.00     0.148 A 
ATOM    104  C   UNL A   1      44.684  39.715  32.507  1.00  0.00     0.002 A 
ATOM    105  C   UNL A   1      45.569  38.949  34.632  1.00  0.00     0.091 A 
ATOM    106  F   UNL A   1      46.237  36.672  34.859  1.00  0.00    -0.205 F 
ATOM    107  C   UNL A   1      45.066  39.979  33.821  1.00  0.00     0.022 A 
BRANCH 105 108
ATOM    108  S   UNL A   1      45.939  39.361  36.341  1.00  0.00     0.127 S 
ATOM    109  O   UNL A   1      47.400  39.334  36.344  1.00  0.00    -0.237 OA
ATOM    110  O   UNL A   1      45.352  40.694  36.471  1.00  0.00    -0.237 OA
ATOM    111  O   UNL A   1      45.296  38.334  37.151  1.00  0.00    -0.744 OA
ENDBRANCH 105 108
ENDBRANCH  78 101
ENDBRANCH  52  53
ENDBRANCH  45  47
ENDBRANCH  44  45
ENDBRANCH  43  44
ENDBRANCH  42  43
ENDBRANCH  41  42
ENDBRANCH  40  41
ENDBRANCH  39  40
ENDBRANCH   1  39
TORSDOF 28
ENDMDL
MODEL 2
REMARK VINA RESULT:      -5.9      5.185     12.214
REMARK SMILES COc1ccc([C@H]2CC(c3ccc(S(C)(=O)=O)cc3)=NN2c2ccc(C(=O)OCCOCCOCCOCCOC(=O)c3ccc(-c4c5nc(c(-c6cccc(S(=O)(=O)[O-])c6F)c6ccc([nH]6)c(-c6cccc(S(=O)(=O)[O-])c6F)c6nc(c(-c7cccc(S(=O)(=O)[O-])c7F)c7ccc4[nH]7)C=C6)C=C5)cc3)cc2)cc1
REMARK SMILES IDX 34 1 33 2 32 3 31 4 30 5 29 6 28 7 26 8 27 9 25 10 22 11
REMARK SMILES IDX 23 12 107 13 24 14 106 15 21 16 7 17 8 18 9 19 20 20 6 21
REMARK SMILES IDX 3 22 4 23 109 24 5 25 108 26 2 27 1 28 10 29 11 30 19 31
REMARK SMILES IDX 12 32 18 33 13 34 14 35 15 36 16 37 17 38 35 39 36 40 37 41
REMARK SMILES IDX 38 42 39 43 40 44 41 45 42 46 43 47 44 48 105 49 45 50
REMARK SMILES IDX 104 51 46 52 47 53 48 54 98 55 49 56 103 57 97 58 99 59
REMARK SMILES IDX 50 60 102 61 96 62 95 63 51 65 83 66 63 67 82 68 64 69 67 70
REMARK SMILES IDX 81 71 100 72 65 73 66 74 80 76 101 77 68 78 52 79 53 80
REMARK SMILES IDX 61 81 54 82 56 83 62 84 55 85 57 86 58 87 59 88 60 89 84 90
REMARK SMILES IDX 85 91 93 92 86 93 88 94 94 95 87 96 89 97 90 98 91 99 92 100
REMARK SMILES IDX 69 101 70 102 78 103 71 104 73 105 79 106 72 107 74 108
REMARK SMILES IDX 75 109 76 110 77 111
REMARK H PARENT 99 64 67 75
REMARK Flexibility Score: inf
ROOT
ATOM      1  O   UNL A   1      36.602  33.748  33.228  1.00  0.00    -0.377 OA
ENDROOT
BRANCH   1   2
ATOM      2  C   UNL A   1      36.001  35.032  33.273  1.00  0.00     0.188 C 
BRANCH   2   3
ATOM      3  C   UNL A   1      34.484  35.155  33.529  1.00  0.00     0.188 C 
BRANCH   3   4
ATOM      4  O   UNL A   1      34.005  36.486  33.573  1.00  0.00    -0.376 OA
BRANCH   4   5
ATOM      5  C   UNL A   1      34.039  37.285  32.405  1.00  0.00     0.202 C 
BRANCH   5   6
ATOM      6  C   UNL A   1      33.083  36.990  31.240  1.00  0.00     0.261 C 
BRANCH   6   7
ATOM      7  O   UNL A   1      32.949  35.618  30.861  1.00  0.00    -0.460 OA
BRANCH   7   8
ATOM      8  C   UNL A   1      33.138  35.319  29.559  1.00  0.00     0.338 C 
ATOM      9  O   UNL A   1      32.714  35.935  28.597  1.00  0.00    -0.246 OA
BRANCH   8  10
ATOM     10  C   UNL A   1      34.134  34.225  29.486  1.00  0.00     0.060 A 
ATOM     11  C   UNL A   1      35.968  32.115  29.237  1.00  0.00     0.060 A 
ATOM     12  C   UNL A   1      35.888  33.102  28.248  1.00  0.00     0.029 A 
ATOM     13  C   UNL A   1      35.199  32.268  30.402  1.00  0.00     0.029 A 
ATOM     14  C   UNL A   1      34.951  34.133  28.352  1.00  0.00     0.018 A 
ATOM     15  C   UNL A   1      34.297  33.323  30.539  1.00  0.00     0.018 A 
BRANCH  11  16
ATOM     16  N   UNL A   1      36.668  30.933  29.012  1.00  0.00    -0.257 N 
ATOM     17  C   UNL A   1      35.947  29.665  28.866  1.00  0.00     0.144 C 
ATOM     18  C   UNL A   1      37.057  28.697  28.459  1.00  0.00     0.091 C 
ATOM     19  C   UNL A   1      38.218  29.649  28.357  1.00  0.00     0.071 C 
ATOM     20  N   UNL A   1      37.971  30.893  28.629  1.00  0.00    -0.176 NA
BRANCH  17  21
ATOM     21  C   UNL A   1      34.825  29.742  27.834  1.00  0.00    -0.023 A 
ATOM     22  C   UNL A   1      32.783  29.848  25.895  1.00  0.00     0.118 A 
ATOM     23  C   UNL A   1      33.803  28.906  25.788  1.00  0.00     0.047 A 
ATOM     24  C   UNL A   1      32.741  30.699  26.998  1.00  0.00     0.047 A 
ATOM     25  C   UNL A   1      34.820  28.857  26.744  1.00  0.00     0.010 A 
ATOM     26  C   UNL A   1      33.754  30.644  27.961  1.00  0.00     0.010 A 
BRANCH  22  27
ATOM     27  O   UNL A   1      31.827  29.823  24.915  1.00  0.00    -0.497 OA
ATOM     28  C   UNL A   1      31.842  28.635  24.130  1.00  0.00     0.278 C 
ENDBRANCH  22  27
ENDBRANCH  17  21
BRANCH  19  29
ATOM     29  C   UNL A   1      39.552  29.133  28.025  1.00  0.00    -0.002 A 
ATOM     30  C   UNL A   1      40.060  29.351  26.740  1.00  0.00     0.011 A 
ATOM     31  C   UNL A   1      40.325  28.500  29.002  1.00  0.00     0.011 A 
ATOM     32  C   UNL A   1      41.360  28.946  26.430  1.00  0.00     0.021 A 
ATOM     33  C   UNL A   1      41.616  28.070  28.687  1.00  0.00     0.021 A 
ATOM     34  C   UNL A   1      42.127  28.296  27.404  1.00  0.00     0.067 A 
BRANCH  34  35
ATOM     35  S   UNL A   1      43.785  27.786  27.011  1.00  0.00     0.175 S 
ATOM     36  C   UNL A   1      43.689  27.219  25.335  1.00  0.00     0.163 C 
ATOM     37  O   UNL A   1      44.612  28.977  27.048  1.00  0.00    -0.224 OA
ATOM     38  O   UNL A   1      44.100  26.637  27.840  1.00  0.00    -0.224 OA
ENDBRANCH  34  35
ENDBRANCH  19  29
ENDBRANCH  11  16
ENDBRANCH   8  10
ENDBRANCH   7   8
ENDBRANCH   6   7
ENDBRANCH   5   6
ENDBRANCH   4   5
ENDBRANCH   3   4
ENDBRANCH   2   3
ENDBRANCH   1   2
BRANCH   1  39
ATOM     39  C   UNL A   1      36.885  33.037  34.428  1.00  0.00     0.188 C 
BRANCH  39  40
ATOM     40  C   UNL A   1      37.095  33.771  35.775  1.00  0.00     0.188 C 
BRANCH  40  41
ATOM     41  O   UNL A   1      38.404  34.276  35.982  1.00  0.00    -0.376 OA
BRANCH  41  42
ATOM     42  C   UNL A   1      38.930  34.225  37.293  1.00  0.00     0.202 C 
BRANCH  42  43
ATOM     43  C   UNL A   1      39.917  33.095  37.617  1.00  0.00     0.261 C 
BRANCH  43  44
ATOM     44  O   UNL A   1      40.965  33.411  38.544  1.00  0.00    -0.460 OA
BRANCH  44  45
ATOM     45  C   UNL A   1      41.909  32.472  38.762  1.00  0.00     0.338 C 
ATOM     46  O   UNL A   1      42.069  31.811  39.779  1.00  0.00    -0.246 OA
BRANCH  45  47
ATOM     47  C   UNL A   1      42.607  32.237  37.482  1.00  0.00     0.060 A 
ATOM     48  C   UNL A   1      42.034  31.379  36.535  1.00  0.00     0.016 A 
ATOM     49  C   UNL A   1      43.813  32.888  37.213  1.00  0.00     0.016 A 
ATOM     50  C   UNL A   1      42.687  31.143  35.323  1.00  0.00     0.010 A 
ATOM     51  C   UNL A   1      44.475  32.634  36.010  1.00  0.00     0.010 A 
ATOM     52  C   UNL A   1      43.932  31.736  35.074  1.00  0.00    -0.014 A 
BRANCH  52  53
ATOM     53  C   UNL A   1      44.758  31.272  33.934  1.00  0.00     0.031 A 
ATOM     54  C   UNL A   1      44.737  32.082  32.666  1.00  0.00     0.074 A 
ATOM     55  C   UNL A   1      45.501  30.154  34.013  1.00  0.00     0.049 A 
ATOM     56  N   UNL A   1      45.324  31.849  31.523  1.00  0.00    -0.248 NA
ATOM     57  C   UNL A   1      43.939  33.321  32.691  1.00  0.00     0.031 C 
ATOM     58  C   UNL A   1      45.612  29.293  35.188  1.00  0.00     0.029 A 
ATOM     59  N   UNL A   1      46.282  29.538  33.065  1.00  0.00    -0.354 N 
ATOM     60  C   UNL A   1      44.942  32.889  30.683  1.00  0.00     0.074 A 
ATOM     61  C   UNL A   1      44.066  33.750  31.445  1.00  0.00     0.031 C 
ATOM     62  C   UNL A   1      46.390  28.238  34.881  1.00  0.00     0.029 A 
ATOM     63  C   UNL A   1      46.804  28.336  33.482  1.00  0.00     0.049 A 
ATOM     64  H   UNL A   1      46.451  29.920  32.174  1.00  0.00     0.167 HD
ATOM     65  C   UNL A   1      45.297  33.113  29.397  1.00  0.00     0.034 A 
ATOM     66  C   UNL A   1      47.509  27.410  32.802  1.00  0.00     0.034 A 
ATOM     67  C   UNL A   1      46.177  32.261  28.645  1.00  0.00     0.049 A 
ATOM     68  C   UNL A   1      47.861  27.666  31.357  1.00  0.00     0.074 A 
ATOM     69  C   UNL A   1      46.634  32.427  27.350  1.00  0.00     0.029 A 
ATOM     70  N   UNL A   1      46.716  31.072  29.111  1.00  0.00    -0.354 N 
ATOM     71  N   UNL A   1      47.587  28.707  30.610  1.00  0.00    -0.248 NA
ATOM     72  C   UNL A   1      48.649  26.630  30.671  1.00  0.00     0.031 C 
ATOM     73  C   UNL A   1      47.416  31.316  27.019  1.00  0.00     0.029 A 
ATOM     74  C   UNL A   1      47.488  30.484  28.124  1.00  0.00     0.049 A 
ATOM     75  H   UNL A   1      46.573  30.701  30.012  1.00  0.00     0.167 HD
ATOM     76  C   UNL A   1      48.200  28.472  29.383  1.00  0.00     0.074 A 
ATOM     77  C   UNL A   1      48.877  27.197  29.494  1.00  0.00     0.031 C 
ATOM     78  C   UNL A   1      48.198  29.238  28.264  1.00  0.00     0.034 A 
BRANCH  65  79
ATOM     79  C   UNL A   1      44.736  34.336  28.719  1.00  0.00     0.023 A 
ATOM     80  C   UNL A   1      43.465  34.284  28.112  1.00  0.00     0.012 A 
ATOM     81  C   UNL A   1      45.448  35.550  28.731  1.00  0.00     0.148 A 
ATOM     82  C   UNL A   1      42.925  35.413  27.498  1.00  0.00     0.002 A 
ATOM     83  C   UNL A   1      44.883  36.684  28.161  1.00  0.00     0.091 A 
ATOM     84  F   UNL A   1      46.665  35.573  29.294  1.00  0.00    -0.205 F 
ATOM     85  C   UNL A   1      43.629  36.615  27.533  1.00  0.00     0.022 A 
BRANCH  83  86
ATOM     86  S   UNL A   1      45.671  38.297  28.226  1.00  0.00     0.127 S 
ATOM     87  O   UNL A   1      45.531  38.636  29.642  1.00  0.00    -0.237 OA
ATOM     88  O   UNL A   1      47.037  37.987  27.805  1.00  0.00    -0.237 OA
ATOM     89  O   UNL A   1      44.928  39.147  27.307  1.00  0.00    -0.744 OA
ENDBRANCH  83  86
ENDBRANCH  65  79
BRANCH  66  90
ATOM     90  C   UNL A   1      47.945  26.153  33.477  1.00  0.00     0.023 A 
ATOM     91  C   UNL A   1      47.030  25.094  33.639  1.00  0.00     0.012 A 
ATOM     92  C   UNL A   1      49.259  26.004  33.961  1.00  0.00     0.148 A 
ATOM     93  C   UNL A   1      47.404  23.926  34.305  1.00  0.00     0.002 A 
ATOM     94  C   UNL A   1      49.642  24.816  34.572  1.00  0.00     0.091 A 
ATOM     95  F   UNL A   1      50.111  27.029  33.812  1.00  0.00    -0.205 F 
ATOM     96  C   UNL A   1      48.712  23.784  34.762  1.00  0.00     0.022 A 
BRANCH  94  97
ATOM     97  S   UNL A   1      51.334  24.494  35.081  1.00  0.00     0.127 S 
ATOM     98  O   UNL A   1      52.075  24.776  33.854  1.00  0.00    -0.237 OA
ATOM     99  O   UNL A   1      51.517  25.476  36.151  1.00  0.00    -0.237 OA
ATOM    100  O   UNL A   1      51.358  23.108  35.526  1.00  0.00    -0.744 OA
ENDBRANCH  94  97
ENDBRANCH  66  90
BRANCH  78 101
ATOM    101  C   UNL A   1      48.993  28.755  27.077  1.00  0.00     0.023 A 
ATOM    102  C   UNL A   1      50.401  28.801  27.100  1.00  0.00     0.012 A 
ATOM    103  C   UNL A   1      48.340  28.179  25.968  1.00  0.00     0.148 A 
ATOM    104  C   UNL A   1      51.144  28.317  26.023  1.00  0.00     0.002 A 
ATOM    105  C   UNL A   1      49.086  27.649  24.924  1.00  0.00     0.091 A 
ATOM    106  F   UNL A   1      46.999  28.157  25.958  1.00  0.00    -0.205 F 
ATOM    107  C   UNL A   1      50.488  27.730  24.942  1.00  0.00     0.022 A 
BRANCH 105 108
ATOM    108  S   UNL A   1      48.335  26.786  23.540  1.00  0.00     0.127 S 
ATOM    109  O   UNL A   1      47.872  25.553  24.173  1.00  0.00    -0.237 OA
ATOM    110  O   UNL A   1      47.270  27.706  23.142  1.00  0.00    -0.237 OA
ATOM    111  O   UNL A   1      49.390  26.618  22.549  1.00  0.00    -0.744 OA
ENDBRANCH 105 108
ENDBRANCH  78 101
ENDBRANCH  52  53
ENDBRANCH  45  47
ENDBRANCH  44  45
ENDBRANCH  43  44
ENDBRANCH  42  43
ENDBRANCH  41  42
ENDBRANCH  40  41
ENDBRANCH  39  40
ENDBRANCH   1  39
TORSDOF 28
ENDMDL
MODEL 3
REMARK VINA RESULT:      -5.7      5.711     12.486
REMARK SMILES COc1ccc([C@H]2CC(c3ccc(S(C)(=O)=O)cc3)=NN2c2ccc(C(=O)OCCOCCOCCOCCOC(=O)c3ccc(-c4c5nc(c(-c6cccc(S(=O)(=O)[O-])c6F)c6ccc([nH]6)c(-c6cccc(S(=O)(=O)[O-])c6F)c6nc(c(-c7cccc(S(=O)(=O)[O-])c7F)c7ccc4[nH]7)C=C6)C=C5)cc3)cc2)cc1
REMARK SMILES IDX 34 1 33 2 32 3 31 4 30 5 29 6 28 7 26 8 27 9 25 10 22 11
REMARK SMILES IDX 23 12 107 13 24 14 106 15 21 16 7 17 8 18 9 19 20 20 6 21
REMARK SMILES IDX 3 22 4 23 109 24 5 25 108 26 2 27 1 28 10 29 11 30 19 31
REMARK SMILES IDX 12 32 18 33 13 34 14 35 15 36 16 37 17 38 35 39 36 40 37 41
REMARK SMILES IDX 38 42 39 43 40 44 41 45 42 46 43 47 44 48 105 49 45 50
REMARK SMILES IDX 104 51 46 52 47 53 48 54 98 55 49 56 103 57 97 58 99 59
REMARK SMILES IDX 50 60 102 61 96 62 95 63 51 65 83 66 63 67 82 68 64 69 67 70
REMARK SMILES IDX 81 71 100 72 65 73 66 74 80 76 101 77 68 78 52 79 53 80
REMARK SMILES IDX 61 81 54 82 56 83 62 84 55 85 57 86 58 87 59 88 60 89 84 90
REMARK SMILES IDX 85 91 93 92 86 93 88 94 94 95 87 96 89 97 90 98 91 99 92 100
REMARK SMILES IDX 69 101 70 102 78 103 71 104 73 105 79 106 72 107 74 108
REMARK SMILES IDX 75 109 76 110 77 111
REMARK H PARENT 99 64 67 75
REMARK Flexibility Score: inf
ROOT
ATOM      1  O   UNL A   1      38.503  33.098  32.368  1.00  0.00    -0.377 OA
ENDROOT
BRANCH   1   2
ATOM      2  C   UNL A   1      39.915  32.975  32.432  1.00  0.00     0.188 C 
BRANCH   2   3
ATOM      3  C   UNL A   1      40.664  32.212  31.319  1.00  0.00     0.188 C 
BRANCH   3   4
ATOM      4  O   UNL A   1      39.820  31.566  30.384  1.00  0.00    -0.376 OA
BRANCH   4   5
ATOM      5  C   UNL A   1      39.750  30.152  30.359  1.00  0.00     0.202 C 
BRANCH   5   6
ATOM      6  C   UNL A   1      40.407  29.366  29.215  1.00  0.00     0.261 C 
BRANCH   6   7
ATOM      7  O   UNL A   1      41.809  29.119  29.338  1.00  0.00    -0.460 OA
BRANCH   7   8
ATOM      8  C   UNL A   1      42.640  29.953  28.677  1.00  0.00     0.338 C 
ATOM      9  O   UNL A   1      42.690  31.166  28.776  1.00  0.00    -0.246 OA
BRANCH   8  10
ATOM     10  C   UNL A   1      43.638  29.124  27.962  1.00  0.00     0.060 A 
ATOM     11  C   UNL A   1      45.621  27.620  26.666  1.00  0.00     0.060 A 
ATOM     12  C   UNL A   1      45.540  27.627  28.063  1.00  0.00     0.029 A 
ATOM     13  C   UNL A   1      44.624  28.282  25.932  1.00  0.00     0.029 A 
ATOM     14  C   UNL A   1      44.577  28.404  28.711  1.00  0.00     0.018 A 
ATOM     15  C   UNL A   1      43.626  29.019  26.570  1.00  0.00     0.018 A 
BRANCH  11  16
ATOM     16  N   UNL A   1      46.741  27.107  26.018  1.00  0.00    -0.257 N 
ATOM     17  C   UNL A   1      47.273  25.793  26.391  1.00  0.00     0.144 C 
ATOM     18  C   UNL A   1      48.349  25.558  25.331  1.00  0.00     0.091 C 
ATOM     19  C   UNL A   1      48.152  26.778  24.474  1.00  0.00     0.071 C 
ATOM     20  N   UNL A   1      47.226  27.606  24.850  1.00  0.00    -0.176 NA
BRANCH  17  21
ATOM     21  C   UNL A   1      46.204  24.705  26.397  1.00  0.00    -0.023 A 
ATOM     22  C   UNL A   1      44.218  22.705  26.356  1.00  0.00     0.118 A 
ATOM     23  C   UNL A   1      44.669  23.271  25.165  1.00  0.00     0.047 A 
ATOM     24  C   UNL A   1      44.797  23.088  27.565  1.00  0.00     0.047 A 
ATOM     25  C   UNL A   1      45.648  24.268  25.185  1.00  0.00     0.010 A 
ATOM     26  C   UNL A   1      45.784  24.079  27.584  1.00  0.00     0.010 A 
BRANCH  22  27
ATOM     27  O   UNL A   1      43.260  21.735  26.242  1.00  0.00    -0.497 OA
ATOM     28  C   UNL A   1      43.625  20.666  25.375  1.00  0.00     0.278 C 
ENDBRANCH  22  27
ENDBRANCH  17  21
BRANCH  19  29
ATOM     29  C   UNL A   1      49.030  27.004  23.320  1.00  0.00    -0.002 A 
ATOM     30  C   UNL A   1      50.404  27.159  23.537  1.00  0.00     0.011 A 
ATOM     31  C   UNL A   1      48.507  26.993  22.024  1.00  0.00     0.011 A 
ATOM     32  C   UNL A   1      51.268  27.288  22.447  1.00  0.00     0.021 A 
ATOM     33  C   UNL A   1      49.366  27.148  20.934  1.00  0.00     0.021 A 
ATOM     34  C   UNL A   1      50.741  27.294  21.150  1.00  0.00     0.067 A 
BRANCH  34  35
ATOM     35  S   UNL A   1      51.842  27.451  19.762  1.00  0.00     0.175 S 
ATOM     36  C   UNL A   1      51.828  25.849  19.003  1.00  0.00     0.163 C 
ATOM     37  O   UNL A   1      51.237  28.399  18.847  1.00  0.00    -0.224 OA
ATOM     38  O   UNL A   1      53.179  27.671  20.284  1.00  0.00    -0.224 OA
ENDBRANCH  34  35
ENDBRANCH  19  29
ENDBRANCH  11  16
ENDBRANCH   8  10
ENDBRANCH   7   8
ENDBRANCH   6   7
ENDBRANCH   5   6
ENDBRANCH   4   5
ENDBRANCH   3   4
ENDBRANCH   2   3
ENDBRANCH   1   2
BRANCH   1  39
ATOM     39  C   UNL A   1      37.663  32.104  32.944  1.00  0.00     0.188 C 
BRANCH  39  40
ATOM     40  C   UNL A   1      36.954  32.326  34.302  1.00  0.00     0.188 C 
BRANCH  40  41
ATOM     41  O   UNL A   1      37.649  31.817  35.428  1.00  0.00    -0.376 OA
BRANCH  41  42
ATOM     42  C   UNL A   1      38.572  30.766  35.214  1.00  0.00     0.202 C 
BRANCH  42  43
ATOM     43  C   UNL A   1      40.019  30.991  35.674  1.00  0.00     0.261 C 
BRANCH  43  44
ATOM     44  O   UNL A   1      41.029  30.236  34.991  1.00  0.00    -0.460 OA
BRANCH  44  45
ATOM     45  C   UNL A   1      41.676  29.281  35.691  1.00  0.00     0.338 C 
ATOM     46  O   UNL A   1      41.228  28.611  36.611  1.00  0.00    -0.246 OA
BRANCH  45  47
ATOM     47  C   UNL A   1      42.972  29.044  35.024  1.00  0.00     0.060 A 
ATOM     48  C   UNL A   1      44.116  29.706  35.491  1.00  0.00     0.016 A 
ATOM     49  C   UNL A   1      43.057  28.148  33.957  1.00  0.00     0.016 A 
ATOM     50  C   UNL A   1      45.346  29.495  34.865  1.00  0.00     0.010 A 
ATOM     51  C   UNL A   1      44.284  27.956  33.319  1.00  0.00     0.010 A 
ATOM     52  C   UNL A   1      45.427  28.654  33.749  1.00  0.00    -0.014 A 
BRANCH  52  53
ATOM     53  C   UNL A   1      46.651  28.649  32.912  1.00  0.00     0.031 A 
ATOM     54  C   UNL A   1      46.685  29.537  31.698  1.00  0.00     0.074 A 
ATOM     55  C   UNL A   1      47.704  27.869  33.211  1.00  0.00     0.049 A 
ATOM     56  N   UNL A   1      47.612  29.661  30.786  1.00  0.00    -0.248 NA
ATOM     57  C   UNL A   1      45.509  30.398  31.481  1.00  0.00     0.031 C 
ATOM     58  C   UNL A   1      47.795  26.975  34.365  1.00  0.00     0.029 A 
ATOM     59  N   UNL A   1      48.891  27.684  32.545  1.00  0.00    -0.354 N 
ATOM     60  C   UNL A   1      47.121  30.584  29.871  1.00  0.00     0.074 A 
ATOM     61  C   UNL A   1      45.809  30.983  30.333  1.00  0.00     0.031 C 
ATOM     62  C   UNL A   1      48.964  26.310  34.307  1.00  0.00     0.029 A 
ATOM     63  C   UNL A   1      49.686  26.709  33.100  1.00  0.00     0.049 A 
ATOM     64  H   UNL A   1      49.147  28.200  31.747  1.00  0.00     0.167 HD
ATOM     65  C   UNL A   1      47.711  31.066  28.753  1.00  0.00     0.034 A 
ATOM     66  C   UNL A   1      50.846  26.179  32.664  1.00  0.00     0.034 A 
ATOM     67  C   UNL A   1      49.019  30.675  28.303  1.00  0.00     0.049 A 
ATOM     68  C   UNL A   1      51.467  26.706  31.394  1.00  0.00     0.074 A 
ATOM     69  C   UNL A   1      49.724  31.140  27.206  1.00  0.00     0.029 A 
ATOM     70  N   UNL A   1      49.810  29.712  28.909  1.00  0.00    -0.354 N 
ATOM     71  N   UNL A   1      51.044  27.659  30.600  1.00  0.00    -0.248 NA
ATOM     72  C   UNL A   1      52.744  26.105  30.978  1.00  0.00     0.031 C 
ATOM     73  C   UNL A   1      50.924  30.426  27.127  1.00  0.00     0.029 A 
ATOM     74  C   UNL A   1      50.989  29.555  28.202  1.00  0.00     0.049 A 
ATOM     75  H   UNL A   1      49.569  29.214  29.724  1.00  0.00     0.167 HD
ATOM     76  C   UNL A   1      52.019  27.800  29.616  1.00  0.00     0.074 A 
ATOM     77  C   UNL A   1      53.063  26.846  29.926  1.00  0.00     0.031 C 
ATOM     78  C   UNL A   1      52.044  28.637  28.549  1.00  0.00     0.034 A 
BRANCH  65  79
ATOM     79  C   UNL A   1      46.947  32.076  27.938  1.00  0.00     0.023 A 
ATOM     80  C   UNL A   1      46.004  31.644  26.985  1.00  0.00     0.012 A 
ATOM     81  C   UNL A   1      47.129  33.456  28.156  1.00  0.00     0.148 A 
ATOM     82  C   UNL A   1      45.276  32.569  26.237  1.00  0.00     0.002 A 
ATOM     83  C   UNL A   1      46.365  34.371  27.443  1.00  0.00     0.091 A 
ATOM     84  F   UNL A   1      48.048  33.846  29.051  1.00  0.00    -0.205 F 
ATOM     85  C   UNL A   1      45.448  33.931  26.475  1.00  0.00     0.022 A 
BRANCH  83  86
ATOM     86  S   UNL A   1      46.453  36.141  27.733  1.00  0.00     0.127 S 
ATOM     87  O   UNL A   1      45.485  36.647  26.760  1.00  0.00    -0.237 OA
ATOM     88  O   UNL A   1      46.026  36.244  29.128  1.00  0.00    -0.237 OA
ATOM     89  O   UNL A   1      47.836  36.523  27.489  1.00  0.00    -0.744 OA
ENDBRANCH  83  86
ENDBRANCH  65  79
BRANCH  66  90
ATOM     90  C   UNL A   1      51.513  25.092  33.438  1.00  0.00     0.023 A 
ATOM     91  C   UNL A   1      52.321  25.418  34.545  1.00  0.00     0.012 A 
ATOM     92  C   UNL A   1      51.353  23.739  33.081  1.00  0.00     0.148 A 
ATOM     93  C   UNL A   1      52.988  24.420  35.258  1.00  0.00     0.002 A 
ATOM     94  C   UNL A   1      51.973  22.746  33.830  1.00  0.00     0.091 A 
ATOM     95  F   UNL A   1      50.592  23.450  32.015  1.00  0.00    -0.205 F 
ATOM     96  C   UNL A   1      52.806  23.085  34.906  1.00  0.00     0.022 A 
BRANCH  94  97
ATOM     97  S   UNL A   1      51.699  20.997  33.529  1.00  0.00     0.127 S 
ATOM     98  O   UNL A   1      52.098  20.868  32.129  1.00  0.00    -0.237 OA
ATOM     99  O   UNL A   1      52.613  20.380  34.491  1.00  0.00    -0.237 OA
ATOM    100  O   UNL A   1      50.288  20.762  33.805  1.00  0.00    -0.744 OA
ENDBRANCH  94  97
ENDBRANCH  66  90
BRANCH  78 101
ATOM    101  C   UNL A   1      53.261  28.608  27.659  1.00  0.00     0.023 A 
ATOM    102  C   UNL A   1      54.256  29.598  27.784  1.00  0.00     0.012 A 
ATOM    103  C   UNL A   1      53.453  27.548  26.750  1.00  0.00     0.148 A 
ATOM    104  C   UNL A   1      55.403  29.553  26.993  1.00  0.00     0.002 A 
ATOM    105  C   UNL A   1      54.623  27.479  26.005  1.00  0.00     0.091 A 
ATOM    106  F   UNL A   1      52.489  26.622  26.635  1.00  0.00    -0.205 F 
ATOM    107  C   UNL A   1      55.593  28.489  26.113  1.00  0.00     0.022 A 
BRANCH 105 108
ATOM    108  S   UNL A   1      55.001  26.096  24.923  1.00  0.00     0.127 S 
ATOM    109  O   UNL A   1      53.689  25.799  24.350  1.00  0.00    -0.237 OA
ATOM    110  O   UNL A   1      55.957  26.687  23.987  1.00  0.00    -0.237 OA
ATOM    111  O   UNL A   1      55.556  25.055  25.778  1.00  0.00    -0.744 OA
ENDBRANCH 105 108
ENDBRANCH  78 101
ENDBRANCH  52  53
ENDBRANCH  45  47
ENDBRANCH  44  45
ENDBRANCH  43  44
ENDBRANCH  42  43
ENDBRANCH  41  42
ENDBRANCH  40  41
ENDBRANCH  39  40
ENDBRANCH   1  39
TORSDOF 28
ENDMDL
