MODEL 1
REMARK VINA RESULT:     -11.2      0.000      0.000
REMARK SMILES CC1=C(CC(=O)OCCOCCOCCOCCOC(=O)c2ccc(-c3c4nc(c(-c5cccc(S(=O)(=O)[O-])c5F)c5ccc([nH]5)c(-c5cccc(S(=O)(=O)[O-])c5F)c5nc(c(-c6cccc(S(=O)(=O)[O-])c6F)c6ccc3[nH]6)C=C5)C=C4)cc2)c2cc(F)ccc2/C1=C\c1ccc([S@@+](C)[O-])cc1
REMARK SMILES IDX 13 1 12 2 11 3 10 4 9 5 8 6 7 7 5 8 6 9 4 10 3 11 1 12 2 13
REMARK SMILES IDX 92 14 85 15 91 16 93 17 86 18 90 19 87 20 89 21 88 22 94 23
REMARK SMILES IDX 95 24 102 25 96 26 101 27 97 28 98 29 99 30 100 31 14 32
REMARK SMILES IDX 15 33 16 34 17 35 18 36 19 37 20 38 21 39 22 40 23 41 84 42
REMARK SMILES IDX 24 43 83 44 25 45 26 46 27 47 77 48 28 49 82 50 76 51 78 52
REMARK SMILES IDX 29 53 81 54 75 55 74 56 30 58 62 59 42 60 61 61 43 62 46 63
REMARK SMILES IDX 60 64 79 65 44 66 45 67 59 69 80 70 47 71 31 72 32 73 40 74
REMARK SMILES IDX 33 75 35 76 41 77 34 78 36 79 37 80 38 81 39 82 63 83 64 84
REMARK SMILES IDX 72 85 65 86 67 87 73 88 66 89 68 90 69 91 70 92 71 93 48 94
REMARK SMILES IDX 49 95 57 96 50 97 52 98 58 99 51 100 53 101 54 102 55 103
REMARK SMILES IDX 56 104
REMARK H PARENT 78 57 46 68
REMARK Flexibility Score: inf
ROOT
ATOM      1  O   UNL A   1      37.074  20.835  24.519  1.00  0.00    -0.377 OA
ENDROOT
BRANCH   1   2
ATOM      2  C   UNL A   1      37.368  22.220  24.552  1.00  0.00     0.188 C 
BRANCH   2   3
ATOM      3  C   UNL A   1      36.442  23.303  25.137  1.00  0.00     0.188 C 
BRANCH   3   4
ATOM      4  O   UNL A   1      35.940  23.069  26.427  1.00  0.00    -0.376 OA
BRANCH   4   5
ATOM      5  C   UNL A   1      35.277  21.867  26.758  1.00  0.00     0.202 C 
BRANCH   5   6
ATOM      6  C   UNL A   1      33.945  21.748  27.529  1.00  0.00     0.261 C 
BRANCH   6   7
ATOM      7  O   UNL A   1      32.707  21.965  26.834  1.00  0.00    -0.463 OA
BRANCH   7   8
ATOM      8  C   UNL A   1      32.078  23.146  27.029  1.00  0.00     0.310 C 
ATOM      9  O   UNL A   1      31.002  23.257  27.613  1.00  0.00    -0.252 OA
BRANCH   8  10
ATOM     10  C   UNL A   1      32.814  24.381  26.479  1.00  0.00     0.159 C 
BRANCH  10  11
ATOM     11  C   UNL A   1      32.130  25.458  25.681  1.00  0.00    -0.025 C 
ATOM     12  C   UNL A   1      30.638  24.069  24.153  1.00  0.00     0.045 C 
ATOM     13  C   UNL A   1      31.197  25.337  24.704  1.00  0.00    -0.039 C 
ATOM     14  C   UNL A   1      30.760  26.671  24.242  1.00  0.00    -0.014 C 
ATOM     15  C   UNL A   1      32.270  26.905  25.965  1.00  0.00    -0.011 A 
ATOM     16  C   UNL A   1      31.471  27.655  25.079  1.00  0.00    -0.010 A 
ATOM     17  C   UNL A   1      29.883  26.902  23.241  1.00  0.00     0.017 C 
ATOM     18  C   UNL A   1      33.061  27.552  26.908  1.00  0.00     0.048 A 
ATOM     19  C   UNL A   1      31.472  29.047  25.124  1.00  0.00     0.012 A 
ATOM     20  C   UNL A   1      33.070  28.947  26.927  1.00  0.00     0.123 A 
ATOM     21  C   UNL A   1      32.290  29.695  26.048  1.00  0.00     0.040 A 
ATOM     22  F   UNL A   1      33.869  29.588  27.791  1.00  0.00    -0.207 F 
BRANCH  17  23
ATOM     23  C   UNL A   1      29.475  28.223  22.746  1.00  0.00    -0.025 A 
ATOM     24  C   UNL A   1      30.312  28.941  21.882  1.00  0.00     0.013 A 
ATOM     25  C   UNL A   1      28.307  28.827  23.221  1.00  0.00     0.013 A 
ATOM     26  C   UNL A   1      30.039  30.282  21.581  1.00  0.00     0.061 A 
ATOM     27  C   UNL A   1      28.028  30.163  22.909  1.00  0.00     0.061 A 
ATOM     28  C   UNL A   1      28.908  30.911  22.116  1.00  0.00     0.152 A 
BRANCH  28  29
ATOM     29  S   UNL A   1      28.685  32.703  21.963  1.00  0.00    -0.018 S 
ATOM     30  C   UNL A   1      27.646  32.765  20.490  1.00  0.00     0.346 C 
ATOM     31  O   UNL A   1      27.823  33.174  23.190  1.00  0.00    -0.612 OA
ENDBRANCH  28  29
ENDBRANCH  17  23
ENDBRANCH  10  11
ENDBRANCH   8  10
ENDBRANCH   7   8
ENDBRANCH   6   7
ENDBRANCH   5   6
ENDBRANCH   4   5
ENDBRANCH   3   4
ENDBRANCH   2   3
ENDBRANCH   1   2
BRANCH   1  32
ATOM     32  C   UNL A   1      38.064  19.905  24.887  1.00  0.00     0.188 C 
BRANCH  32  33
ATOM     33  C   UNL A   1      39.386  20.459  25.433  1.00  0.00     0.188 C 
BRANCH  33  34
ATOM     34  O   UNL A   1      39.236  21.401  26.490  1.00  0.00    -0.376 OA
BRANCH  34  35
ATOM     35  C   UNL A   1      40.377  22.194  26.791  1.00  0.00     0.202 C 
BRANCH  35  36
ATOM     36  C   UNL A   1      40.108  23.501  27.551  1.00  0.00     0.261 C 
BRANCH  36  37
ATOM     37  O   UNL A   1      39.449  24.531  26.807  1.00  0.00    -0.460 OA
BRANCH  37  38
ATOM     38  C   UNL A   1      40.146  25.650  26.526  1.00  0.00     0.338 C 
ATOM     39  O   UNL A   1      40.747  25.904  25.497  1.00  0.00    -0.246 OA
BRANCH  38  40
ATOM     40  C   UNL A   1      39.886  26.598  27.627  1.00  0.00     0.060 A 
ATOM     41  C   UNL A   1      39.204  26.172  28.772  1.00  0.00     0.016 A 
ATOM     42  C   UNL A   1      40.265  27.937  27.478  1.00  0.00     0.016 A 
ATOM     43  C   UNL A   1      38.916  27.091  29.780  1.00  0.00     0.010 A 
ATOM     44  C   UNL A   1      39.957  28.859  28.479  1.00  0.00     0.010 A 
ATOM     45  C   UNL A   1      39.305  28.435  29.646  1.00  0.00    -0.014 A 
BRANCH  45  46
ATOM     46  C   UNL A   1      39.258  29.325  30.828  1.00  0.00     0.031 A 
ATOM     47  C   UNL A   1      38.185  30.349  31.030  1.00  0.00     0.074 A 
ATOM     48  C   UNL A   1      40.266  29.201  31.713  1.00  0.00     0.049 A 
ATOM     49  N   UNL A   1      38.016  31.153  32.048  1.00  0.00    -0.248 NA
ATOM     50  C   UNL A   1      37.179  30.503  29.969  1.00  0.00     0.031 C 
ATOM     51  C   UNL A   1      41.399  28.281  31.563  1.00  0.00     0.029 A 
ATOM     52  N   UNL A   1      40.518  29.850  32.891  1.00  0.00    -0.354 N 
ATOM     53  C   UNL A   1      36.890  31.910  31.757  1.00  0.00     0.074 A 
ATOM     54  C   UNL A   1      36.421  31.480  30.456  1.00  0.00     0.031 C 
ATOM     55  C   UNL A   1      42.227  28.432  32.605  1.00  0.00     0.029 A 
ATOM     56  C   UNL A   1      41.692  29.461  33.489  1.00  0.00     0.049 A 
ATOM     57  H   UNL A   1      39.916  30.529  33.274  1.00  0.00     0.167 HD
ATOM     58  C   UNL A   1      36.300  32.858  32.522  1.00  0.00     0.034 A 
ATOM     59  C   UNL A   1      42.281  29.884  34.623  1.00  0.00     0.034 A 
ATOM     60  C   UNL A   1      36.775  33.264  33.820  1.00  0.00     0.049 A 
ATOM     61  C   UNL A   1      41.586  30.913  35.462  1.00  0.00     0.074 A 
ATOM     62  C   UNL A   1      36.202  34.171  34.695  1.00  0.00     0.029 A 
ATOM     63  N   UNL A   1      37.934  32.803  34.423  1.00  0.00    -0.354 N 
ATOM     64  N   UNL A   1      40.443  31.511  35.236  1.00  0.00    -0.248 NA
ATOM     65  C   UNL A   1      42.235  31.299  36.722  1.00  0.00     0.031 C 
ATOM     66  C   UNL A   1      37.018  34.265  35.824  1.00  0.00     0.029 A 
ATOM     67  C   UNL A   1      38.094  33.407  35.658  1.00  0.00     0.049 A 
ATOM     68  H   UNL A   1      38.551  32.143  34.033  1.00  0.00     0.167 HD
ATOM     69  C   UNL A   1      40.224  32.333  36.332  1.00  0.00     0.074 A 
ATOM     70  C   UNL A   1      41.346  32.146  37.230  1.00  0.00     0.031 C 
ATOM     71  C   UNL A   1      39.191  33.176  36.562  1.00  0.00     0.034 A 
BRANCH  58  72
ATOM     72  C   UNL A   1      35.019  33.486  32.042  1.00  0.00     0.023 A 
ATOM     73  C   UNL A   1      34.027  33.801  32.991  1.00  0.00     0.012 A 
ATOM     74  C   UNL A   1      34.872  33.925  30.711  1.00  0.00     0.148 A 
ATOM     75  C   UNL A   1      32.908  34.549  32.626  1.00  0.00     0.002 A 
ATOM     76  C   UNL A   1      33.766  34.690  30.360  1.00  0.00     0.091 A 
ATOM     77  F   UNL A   1      35.834  33.616  29.829  1.00  0.00    -0.205 F 
ATOM     78  C   UNL A   1      32.784  35.002  31.316  1.00  0.00     0.022 A 
BRANCH  76  79
ATOM     79  S   UNL A   1      33.529  35.373  28.714  1.00  0.00     0.127 S 
ATOM     80  O   UNL A   1      33.106  34.190  27.963  1.00  0.00    -0.237 OA
ATOM     81  O   UNL A   1      32.475  36.361  28.942  1.00  0.00    -0.237 OA
ATOM     82  O   UNL A   1      34.816  35.924  28.316  1.00  0.00    -0.744 OA
ENDBRANCH  76  79
ENDBRANCH  58  72
BRANCH  59  83
ATOM     83  C   UNL A   1      43.567  29.269  35.035  1.00  0.00     0.023 A 
ATOM     84  C   UNL A   1      44.777  29.863  34.635  1.00  0.00     0.012 A 
ATOM     85  C   UNL A   1      43.590  28.165  35.911  1.00  0.00     0.148 A 
ATOM     86  C   UNL A   1      45.995  29.360  35.093  1.00  0.00     0.002 A 
ATOM     87  C   UNL A   1      44.804  27.697  36.396  1.00  0.00     0.091 A 
ATOM     88  F   UNL A   1      42.420  27.625  36.278  1.00  0.00    -0.205 F 
ATOM     89  C   UNL A   1      46.008  28.287  35.981  1.00  0.00     0.022 A 
BRANCH  87  90
ATOM     90  S   UNL A   1      44.914  26.398  37.631  1.00  0.00     0.127 S 
ATOM     91  O   UNL A   1      44.458  25.233  36.877  1.00  0.00    -0.237 OA
ATOM     92  O   UNL A   1      46.343  26.407  37.949  1.00  0.00    -0.237 OA
ATOM     93  O   UNL A   1      44.050  26.817  38.725  1.00  0.00    -0.744 OA
ENDBRANCH  87  90
ENDBRANCH  59  83
BRANCH  71  94
ATOM     94  C   UNL A   1      39.193  33.971  37.837  1.00  0.00     0.023 A 
ATOM     95  C   UNL A   1      39.716  35.277  37.831  1.00  0.00     0.012 A 
ATOM     96  C   UNL A   1      38.540  33.482  38.985  1.00  0.00     0.148 A 
ATOM     97  C   UNL A   1      39.583  36.093  38.953  1.00  0.00     0.002 A 
ATOM     98  C   UNL A   1      38.382  34.313  40.087  1.00  0.00     0.091 A 
ATOM     99  F   UNL A   1      38.057  32.232  38.959  1.00  0.00    -0.205 F 
ATOM    100  C   UNL A   1      38.905  35.617  40.074  1.00  0.00     0.022 A 
BRANCH  98 101
ATOM    101  S   UNL A   1      37.460  33.820  41.548  1.00  0.00     0.127 S 
ATOM    102  O   UNL A   1      37.442  35.062  42.320  1.00  0.00    -0.237 OA
ATOM    103  O   UNL A   1      36.169  33.436  40.979  1.00  0.00    -0.237 OA
ATOM    104  O   UNL A   1      38.212  32.730  42.155  1.00  0.00    -0.744 OA
ENDBRANCH  98 101
ENDBRANCH  71  94
ENDBRANCH  45  46
ENDBRANCH  38  40
ENDBRANCH  37  38
ENDBRANCH  36  37
ENDBRANCH  35  36
ENDBRANCH  34  35
ENDBRANCH  33  34
ENDBRANCH  32  33
ENDBRANCH   1  32
TORSDOF 26
ENDMDL
MODEL 2
REMARK VINA RESULT:     -11.1      6.490     10.795
REMARK SMILES CC1=C(CC(=O)OCCOCCOCCOCCOC(=O)c2ccc(-c3c4nc(c(-c5cccc(S(=O)(=O)[O-])c5F)c5ccc([nH]5)c(-c5cccc(S(=O)(=O)[O-])c5F)c5nc(c(-c6cccc(S(=O)(=O)[O-])c6F)c6ccc3[nH]6)C=C5)C=C4)cc2)c2cc(F)ccc2/C1=C\c1ccc([S@@+](C)[O-])cc1
REMARK SMILES IDX 13 1 12 2 11 3 10 4 9 5 8 6 7 7 5 8 6 9 4 10 3 11 1 12 2 13
REMARK SMILES IDX 92 14 85 15 91 16 93 17 86 18 90 19 87 20 89 21 88 22 94 23
REMARK SMILES IDX 95 24 102 25 96 26 101 27 97 28 98 29 99 30 100 31 14 32
REMARK SMILES IDX 15 33 16 34 17 35 18 36 19 37 20 38 21 39 22 40 23 41 84 42
REMARK SMILES IDX 24 43 83 44 25 45 26 46 27 47 77 48 28 49 82 50 76 51 78 52
REMARK SMILES IDX 29 53 81 54 75 55 74 56 30 58 62 59 42 60 61 61 43 62 46 63
REMARK SMILES IDX 60 64 79 65 44 66 45 67 59 69 80 70 47 71 31 72 32 73 40 74
REMARK SMILES IDX 33 75 35 76 41 77 34 78 36 79 37 80 38 81 39 82 63 83 64 84
REMARK SMILES IDX 72 85 65 86 67 87 73 88 66 89 68 90 69 91 70 92 71 93 48 94
REMARK SMILES IDX 49 95 57 96 50 97 52 98 58 99 51 100 53 101 54 102 55 103
REMARK SMILES IDX 56 104
REMARK H PARENT 78 57 46 68
REMARK Flexibility Score: inf
ROOT
ATOM      1  O   UNL A   1      35.915  21.488  25.970  1.00  0.00    -0.377 OA
ENDROOT
BRANCH   1   2
ATOM      2  C   UNL A   1      34.556  21.516  26.370  1.00  0.00     0.188 C 
BRANCH   2   3
ATOM      3  C   UNL A   1      33.656  22.766  26.341  1.00  0.00     0.188 C 
BRANCH   3   4
ATOM      4  O   UNL A   1      32.953  23.005  25.149  1.00  0.00    -0.376 OA
BRANCH   4   5
ATOM      5  C   UNL A   1      33.592  22.966  23.891  1.00  0.00     0.202 C 
BRANCH   5   6
ATOM      6  C   UNL A   1      32.915  23.184  22.522  1.00  0.00     0.261 C 
BRANCH   6   7
ATOM      7  O   UNL A   1      33.582  23.975  21.524  1.00  0.00    -0.463 OA
BRANCH   7   8
ATOM      8  C   UNL A   1      32.881  24.980  20.951  1.00  0.00     0.310 C 
ATOM      9  O   UNL A   1      33.013  25.319  19.777  1.00  0.00    -0.252 OA
BRANCH   8  10
ATOM     10  C   UNL A   1      31.869  25.684  21.871  1.00  0.00     0.159 C 
BRANCH  10  11
ATOM     11  C   UNL A   1      32.277  26.555  23.029  1.00  0.00    -0.025 C 
ATOM     12  C   UNL A   1      33.959  28.106  21.911  1.00  0.00     0.045 C 
ATOM     13  C   UNL A   1      33.150  27.592  23.053  1.00  0.00    -0.039 C 
ATOM     14  C   UNL A   1      33.192  28.197  24.401  1.00  0.00    -0.014 C 
ATOM     15  C   UNL A   1      31.633  26.503  24.362  1.00  0.00    -0.011 A 
ATOM     16  C   UNL A   1      32.200  27.471  25.215  1.00  0.00    -0.010 A 
ATOM     17  C   UNL A   1      34.001  29.213  24.775  1.00  0.00     0.017 C 
ATOM     18  C   UNL A   1      30.637  25.655  24.835  1.00  0.00     0.048 A 
ATOM     19  C   UNL A   1      31.787  27.584  26.539  1.00  0.00     0.012 A 
ATOM     20  C   UNL A   1      30.249  25.763  26.170  1.00  0.00     0.123 A 
ATOM     21  C   UNL A   1      30.812  26.712  27.021  1.00  0.00     0.040 A 
ATOM     22  F   UNL A   1      29.331  24.917  26.658  1.00  0.00    -0.207 F 
BRANCH  17  23
ATOM     23  C   UNL A   1      34.081  29.793  26.122  1.00  0.00    -0.025 A 
ATOM     24  C   UNL A   1      33.263  30.875  26.474  1.00  0.00     0.013 A 
ATOM     25  C   UNL A   1      35.052  29.350  27.027  1.00  0.00     0.013 A 
ATOM     26  C   UNL A   1      33.483  31.571  27.670  1.00  0.00     0.061 A 
ATOM     27  C   UNL A   1      35.262  30.039  28.227  1.00  0.00     0.061 A 
ATOM     28  C   UNL A   1      34.504  31.175  28.542  1.00  0.00     0.152 A 
BRANCH  28  29
ATOM     29  S   UNL A   1      34.980  32.216  29.947  1.00  0.00    -0.018 S 
ATOM     30  C   UNL A   1      36.393  33.080  29.235  1.00  0.00     0.346 C 
ATOM     31  O   UNL A   1      33.826  33.261  30.166  1.00  0.00    -0.612 OA
ENDBRANCH  28  29
ENDBRANCH  17  23
ENDBRANCH  10  11
ENDBRANCH   8  10
ENDBRANCH   7   8
ENDBRANCH   6   7
ENDBRANCH   5   6
ENDBRANCH   4   5
ENDBRANCH   3   4
ENDBRANCH   2   3
ENDBRANCH   1   2
BRANCH   1  32
ATOM     32  C   UNL A   1      36.333  20.566  24.992  1.00  0.00     0.188 C 
BRANCH  32  33
ATOM     33  C   UNL A   1      37.810  20.156  24.993  1.00  0.00     0.188 C 
BRANCH  33  34
ATOM     34  O   UNL A   1      38.721  21.240  25.144  1.00  0.00    -0.376 OA
BRANCH  34  35
ATOM     35  C   UNL A   1      39.629  21.150  26.235  1.00  0.00     0.202 C 
BRANCH  35  36
ATOM     36  C   UNL A   1      40.455  19.858  26.319  1.00  0.00     0.261 C 
BRANCH  36  37
ATOM     37  O   UNL A   1      41.465  19.697  25.318  1.00  0.00    -0.460 OA
BRANCH  37  38
ATOM     38  C   UNL A   1      42.753  19.689  25.717  1.00  0.00     0.338 C 
ATOM     39  O   UNL A   1      43.540  18.761  25.648  1.00  0.00    -0.246 OA
BRANCH  38  40
ATOM     40  C   UNL A   1      43.091  21.079  26.078  1.00  0.00     0.060 A 
ATOM     41  C   UNL A   1      43.163  21.458  27.424  1.00  0.00     0.016 A 
ATOM     42  C   UNL A   1      43.267  22.025  25.061  1.00  0.00     0.016 A 
ATOM     43  C   UNL A   1      43.429  22.786  27.750  1.00  0.00     0.010 A 
ATOM     44  C   UNL A   1      43.512  23.358  25.390  1.00  0.00     0.010 A 
ATOM     45  C   UNL A   1      43.621  23.740  26.735  1.00  0.00    -0.014 A 
BRANCH  45  46
ATOM     46  C   UNL A   1      44.185  25.065  27.081  1.00  0.00     0.031 A 
ATOM     47  C   UNL A   1      45.635  25.395  26.919  1.00  0.00     0.074 A 
ATOM     48  C   UNL A   1      43.327  25.966  27.595  1.00  0.00     0.049 A 
ATOM     49  N   UNL A   1      46.235  26.535  27.146  1.00  0.00    -0.248 NA
ATOM     50  C   UNL A   1      46.532  24.326  26.455  1.00  0.00     0.031 C 
ATOM     51  C   UNL A   1      41.907  25.710  27.860  1.00  0.00     0.029 A 
ATOM     52  N   UNL A   1      43.514  27.259  28.005  1.00  0.00    -0.354 N 
ATOM     53  C   UNL A   1      47.576  26.329  26.855  1.00  0.00     0.074 A 
ATOM     54  C   UNL A   1      47.708  24.946  26.448  1.00  0.00     0.031 C 
ATOM     55  C   UNL A   1      41.355  26.807  28.394  1.00  0.00     0.029 A 
ATOM     56  C   UNL A   1      42.378  27.838  28.519  1.00  0.00     0.049 A 
ATOM     57  H   UNL A   1      44.377  27.728  27.937  1.00  0.00     0.167 HD
ATOM     58  C   UNL A   1      48.590  27.225  26.906  1.00  0.00     0.034 A 
ATOM     59  C   UNL A   1      42.178  29.063  29.038  1.00  0.00     0.034 A 
ATOM     60  C   UNL A   1      48.435  28.602  27.302  1.00  0.00     0.049 A 
ATOM     61  C   UNL A   1      43.313  30.042  29.052  1.00  0.00     0.074 A 
ATOM     62  C   UNL A   1      49.396  29.599  27.321  1.00  0.00     0.029 A 
ATOM     63  N   UNL A   1      47.258  29.172  27.756  1.00  0.00    -0.354 N 
ATOM     64  N   UNL A   1      44.543  29.868  28.634  1.00  0.00    -0.248 NA
ATOM     65  C   UNL A   1      43.033  31.387  29.570  1.00  0.00     0.031 C 
ATOM     66  C   UNL A   1      48.801  30.770  27.794  1.00  0.00     0.029 A 
ATOM     67  C   UNL A   1      47.467  30.506  28.059  1.00  0.00     0.049 A 
ATOM     68  H   UNL A   1      46.399  28.700  27.850  1.00  0.00     0.167 HD
ATOM     69  C   UNL A   1      45.181  31.085  28.822  1.00  0.00     0.074 A 
ATOM     70  C   UNL A   1      44.199  31.995  29.378  1.00  0.00     0.031 C 
ATOM     71  C   UNL A   1      46.470  31.411  28.567  1.00  0.00     0.034 A 
BRANCH  58  72
ATOM     72  C   UNL A   1      49.958  26.800  26.448  1.00  0.00     0.023 A 
ATOM     73  C   UNL A   1      50.663  25.856  27.219  1.00  0.00     0.012 A 
ATOM     74  C   UNL A   1      50.461  27.183  25.188  1.00  0.00     0.148 A 
ATOM     75  C   UNL A   1      51.846  25.292  26.744  1.00  0.00     0.002 A 
ATOM     76  C   UNL A   1      51.629  26.599  24.711  1.00  0.00     0.091 A 
ATOM     77  F   UNL A   1      49.768  28.079  24.472  1.00  0.00    -0.205 F 
ATOM     78  C   UNL A   1      52.322  25.655  25.486  1.00  0.00     0.022 A 
BRANCH  76  79
ATOM     79  S   UNL A   1      52.305  26.951  23.082  1.00  0.00     0.127 S 
ATOM     80  O   UNL A   1      51.089  27.037  22.272  1.00  0.00    -0.237 OA
ATOM     81  O   UNL A   1      52.984  28.227  23.302  1.00  0.00    -0.237 OA
ATOM     82  O   UNL A   1      53.180  25.834  22.757  1.00  0.00    -0.744 OA
ENDBRANCH  76  79
ENDBRANCH  58  72
BRANCH  59  83
ATOM     83  C   UNL A   1      40.822  29.425  29.519  1.00  0.00     0.023 A 
ATOM     84  C   UNL A   1      39.900  29.998  28.624  1.00  0.00     0.012 A 
ATOM     85  C   UNL A   1      40.411  29.103  30.827  1.00  0.00     0.148 A 
ATOM     86  C   UNL A   1      38.590  30.253  29.028  1.00  0.00     0.002 A 
ATOM     87  C   UNL A   1      39.094  29.321  31.209  1.00  0.00     0.091 A 
ATOM     88  F   UNL A   1      41.311  28.553  31.655  1.00  0.00    -0.205 F 
ATOM     89  C   UNL A   1      38.184  29.905  30.314  1.00  0.00     0.022 A 
BRANCH  87  90
ATOM     90  S   UNL A   1      38.451  28.799  32.803  1.00  0.00     0.127 S 
ATOM     91  O   UNL A   1      37.048  29.194  32.700  1.00  0.00    -0.237 OA
ATOM     92  O   UNL A   1      38.690  27.356  32.763  1.00  0.00    -0.237 OA
ATOM     93  O   UNL A   1      39.235  29.514  33.800  1.00  0.00    -0.744 OA
ENDBRANCH  87  90
ENDBRANCH  59  83
BRANCH  71  94
ATOM     94  C   UNL A   1      46.920  32.812  28.871  1.00  0.00     0.023 A 
ATOM     95  C   UNL A   1      47.620  33.064  30.065  1.00  0.00     0.012 A 
ATOM     96  C   UNL A   1      46.790  33.829  27.906  1.00  0.00     0.148 A 
ATOM     97  C   UNL A   1      48.190  34.315  30.295  1.00  0.00     0.002 A 
ATOM     98  C   UNL A   1      47.389  35.062  28.128  1.00  0.00     0.091 A 
ATOM     99  F   UNL A   1      46.114  33.557  26.781  1.00  0.00    -0.205 F 
ATOM    100  C   UNL A   1      48.087  35.308  29.322  1.00  0.00     0.022 A 
BRANCH  98 101
ATOM    101  S   UNL A   1      47.378  36.379  26.906  1.00  0.00     0.127 S 
ATOM    102  O   UNL A   1      47.667  37.552  27.731  1.00  0.00    -0.237 OA
ATOM    103  O   UNL A   1      48.465  35.978  26.014  1.00  0.00    -0.237 OA
ATOM    104  O   UNL A   1      46.052  36.365  26.303  1.00  0.00    -0.744 OA
ENDBRANCH  98 101
ENDBRANCH  71  94
ENDBRANCH  45  46
ENDBRANCH  38  40
ENDBRANCH  37  38
ENDBRANCH  36  37
ENDBRANCH  35  36
ENDBRANCH  34  35
ENDBRANCH  33  34
ENDBRANCH  32  33
ENDBRANCH   1  32
TORSDOF 26
ENDMDL
MODEL 3
REMARK VINA RESULT:     -10.1      7.450     11.474
REMARK SMILES CC1=C(CC(=O)OCCOCCOCCOCCOC(=O)c2ccc(-c3c4nc(c(-c5cccc(S(=O)(=O)[O-])c5F)c5ccc([nH]5)c(-c5cccc(S(=O)(=O)[O-])c5F)c5nc(c(-c6cccc(S(=O)(=O)[O-])c6F)c6ccc3[nH]6)C=C5)C=C4)cc2)c2cc(F)ccc2/C1=C\c1ccc([S@@+](C)[O-])cc1
REMARK SMILES IDX 13 1 12 2 11 3 10 4 9 5 8 6 7 7 5 8 6 9 4 10 3 11 1 12 2 13
REMARK SMILES IDX 92 14 85 15 91 16 93 17 86 18 90 19 87 20 89 21 88 22 94 23
REMARK SMILES IDX 95 24 102 25 96 26 101 27 97 28 98 29 99 30 100 31 14 32
REMARK SMILES IDX 15 33 16 34 17 35 18 36 19 37 20 38 21 39 22 40 23 41 84 42
REMARK SMILES IDX 24 43 83 44 25 45 26 46 27 47 77 48 28 49 82 50 76 51 78 52
REMARK SMILES IDX 29 53 81 54 75 55 74 56 30 58 62 59 42 60 61 61 43 62 46 63
REMARK SMILES IDX 60 64 79 65 44 66 45 67 59 69 80 70 47 71 31 72 32 73 40 74
REMARK SMILES IDX 33 75 35 76 41 77 34 78 36 79 37 80 38 81 39 82 63 83 64 84
REMARK SMILES IDX 72 85 65 86 67 87 73 88 66 89 68 90 69 91 70 92 71 93 48 94
REMARK SMILES IDX 49 95 57 96 50 97 52 98 58 99 51 100 53 101 54 102 55 103
REMARK SMILES IDX 56 104
REMARK H PARENT 78 57 46 68
REMARK Flexibility Score: inf
ROOT
ATOM      1  O   UNL A   1      35.269  21.624  26.190  1.00  0.00    -0.377 OA
ENDROOT
BRANCH   1   2
ATOM      2  C   UNL A   1      34.077  21.426  26.929  1.00  0.00     0.188 C 
BRANCH   2   3
ATOM      3  C   UNL A   1      33.417  22.485  27.833  1.00  0.00     0.188 C 
BRANCH   3   4
ATOM      4  O   UNL A   1      32.122  22.895  27.476  1.00  0.00    -0.376 OA
BRANCH   4   5
ATOM      5  C   UNL A   1      31.625  22.722  26.166  1.00  0.00     0.202 C 
BRANCH   5   6
ATOM      6  C   UNL A   1      30.670  23.682  25.425  1.00  0.00     0.261 C 
BRANCH   6   7
ATOM      7  O   UNL A   1      30.508  23.554  24.002  1.00  0.00    -0.463 OA
BRANCH   7   8
ATOM      8  C   UNL A   1      31.615  23.297  23.268  1.00  0.00     0.310 C 
ATOM      9  O   UNL A   1      31.951  22.169  22.914  1.00  0.00    -0.252 OA
BRANCH   8  10
ATOM     10  C   UNL A   1      32.444  24.532  22.874  1.00  0.00     0.159 C 
BRANCH  10  11
ATOM     11  C   UNL A   1      32.676  25.696  23.800  1.00  0.00    -0.025 C 
ATOM     12  C   UNL A   1      34.657  24.855  25.164  1.00  0.00     0.045 C 
ATOM     13  C   UNL A   1      33.619  25.849  24.762  1.00  0.00    -0.039 C 
ATOM     14  C   UNL A   1      33.509  27.186  25.383  1.00  0.00    -0.014 C 
ATOM     15  C   UNL A   1      31.962  26.989  23.688  1.00  0.00    -0.011 A 
ATOM     16  C   UNL A   1      32.433  27.892  24.664  1.00  0.00    -0.010 A 
ATOM     17  C   UNL A   1      34.262  27.633  26.411  1.00  0.00     0.017 C 
ATOM     18  C   UNL A   1      30.942  27.368  22.822  1.00  0.00     0.048 A 
ATOM     19  C   UNL A   1      31.878  29.163  24.784  1.00  0.00     0.012 A 
ATOM     20  C   UNL A   1      30.379  28.636  22.970  1.00  0.00     0.123 A 
ATOM     21  C   UNL A   1      30.834  29.530  23.937  1.00  0.00     0.040 A 
ATOM     22  F   UNL A   1      29.358  28.998  22.181  1.00  0.00    -0.207 F 
BRANCH  17  23
ATOM     23  C   UNL A   1      34.132  28.943  27.063  1.00  0.00    -0.025 A 
ATOM     24  C   UNL A   1      32.895  29.603  27.078  1.00  0.00     0.013 A 
ATOM     25  C   UNL A   1      35.259  29.597  27.570  1.00  0.00     0.013 A 
ATOM     26  C   UNL A   1      32.808  30.937  27.498  1.00  0.00     0.061 A 
ATOM     27  C   UNL A   1      35.168  30.926  28.001  1.00  0.00     0.061 A 
ATOM     28  C   UNL A   1      33.951  31.617  27.936  1.00  0.00     0.152 A 
BRANCH  28  29
ATOM     29  S   UNL A   1      33.913  33.406  28.222  1.00  0.00    -0.018 S 
ATOM     30  C   UNL A   1      34.569  33.471  29.900  1.00  0.00     0.346 C 
ATOM     31  O   UNL A   1      34.970  34.056  27.257  1.00  0.00    -0.612 OA
ENDBRANCH  28  29
ENDBRANCH  17  23
ENDBRANCH  10  11
ENDBRANCH   8  10
ENDBRANCH   7   8
ENDBRANCH   6   7
ENDBRANCH   5   6
ENDBRANCH   4   5
ENDBRANCH   3   4
ENDBRANCH   2   3
ENDBRANCH   1   2
BRANCH   1  32
ATOM     32  C   UNL A   1      35.604  20.725  25.159  1.00  0.00     0.188 C 
BRANCH  32  33
ATOM     33  C   UNL A   1      37.083  20.356  24.995  1.00  0.00     0.188 C 
BRANCH  33  34
ATOM     34  O   UNL A   1      37.958  21.473  24.879  1.00  0.00    -0.376 OA
BRANCH  34  35
ATOM     35  C   UNL A   1      38.619  21.879  26.071  1.00  0.00     0.202 C 
BRANCH  35  36
ATOM     36  C   UNL A   1      40.041  21.333  26.273  1.00  0.00     0.261 C 
BRANCH  36  37
ATOM     37  O   UNL A   1      41.104  22.266  26.055  1.00  0.00    -0.460 OA
BRANCH  37  38
ATOM     38  C   UNL A   1      42.350  21.775  25.894  1.00  0.00     0.338 C 
ATOM     39  O   UNL A   1      42.658  20.660  25.510  1.00  0.00    -0.246 OA
BRANCH  38  40
ATOM     40  C   UNL A   1      43.277  22.907  26.085  1.00  0.00     0.060 A 
ATOM     41  C   UNL A   1      43.371  23.909  25.113  1.00  0.00     0.016 A 
ATOM     42  C   UNL A   1      44.108  22.925  27.211  1.00  0.00     0.016 A 
ATOM     43  C   UNL A   1      44.290  24.943  25.281  1.00  0.00     0.010 A 
ATOM     44  C   UNL A   1      45.042  23.950  27.367  1.00  0.00     0.010 A 
ATOM     45  C   UNL A   1      45.119  24.978  26.415  1.00  0.00    -0.014 A 
BRANCH  45  46
ATOM     46  C   UNL A   1      45.872  26.214  26.727  1.00  0.00     0.031 A 
ATOM     47  C   UNL A   1      47.288  26.432  26.293  1.00  0.00     0.074 A 
ATOM     48  C   UNL A   1      45.230  27.136  27.469  1.00  0.00     0.049 A 
ATOM     49  N   UNL A   1      48.033  27.493  26.469  1.00  0.00    -0.248 NA
ATOM     50  C   UNL A   1      47.961  25.335  25.581  1.00  0.00     0.031 C 
ATOM     51  C   UNL A   1      43.872  26.980  28.002  1.00  0.00     0.029 A 
ATOM     52  N   UNL A   1      45.625  28.367  27.919  1.00  0.00    -0.354 N 
ATOM     53  C   UNL A   1      49.262  27.199  25.894  1.00  0.00     0.074 A 
ATOM     54  C   UNL A   1      49.169  25.850  25.374  1.00  0.00     0.031 C 
ATOM     55  C   UNL A   1      43.553  28.069  28.713  1.00  0.00     0.029 A 
ATOM     56  C   UNL A   1      44.680  28.994  28.695  1.00  0.00     0.049 A 
ATOM     57  H   UNL A   1      46.501  28.765  27.707  1.00  0.00     0.167 HD
ATOM     58  C   UNL A   1      50.351  27.997  25.796  1.00  0.00     0.034 A 
ATOM     59  C   UNL A   1      44.713  30.182  29.327  1.00  0.00     0.034 A 
ATOM     60  C   UNL A   1      50.419  29.341  26.309  1.00  0.00     0.049 A 
ATOM     61  C   UNL A   1      45.921  31.054  29.174  1.00  0.00     0.074 A 
ATOM     62  C   UNL A   1      51.461  30.247  26.198  1.00  0.00     0.029 A 
ATOM     63  N   UNL A   1      49.420  29.968  27.035  1.00  0.00    -0.354 N 
ATOM     64  N   UNL A   1      47.019  30.814  28.500  1.00  0.00    -0.248 NA
ATOM     65  C   UNL A   1      45.888  32.368  29.830  1.00  0.00     0.031 C 
ATOM     66  C   UNL A   1      51.094  31.418  26.864  1.00  0.00     0.029 A 
ATOM     67  C   UNL A   1      49.820  31.247  27.380  1.00  0.00     0.049 A 
ATOM     68  H   UNL A   1      48.553  29.565  27.271  1.00  0.00     0.167 HD
ATOM     69  C   UNL A   1      47.802  31.951  28.635  1.00  0.00     0.074 A 
ATOM     70  C   UNL A   1      47.048  32.888  29.443  1.00  0.00     0.031 C 
ATOM     71  C   UNL A   1      49.041  32.186  28.144  1.00  0.00     0.034 A 
BRANCH  58  72
ATOM     72  C   UNL A   1      51.551  27.498  25.038  1.00  0.00     0.023 A 
ATOM     73  C   UNL A   1      52.533  26.768  25.735  1.00  0.00     0.012 A 
ATOM     74  C   UNL A   1      51.618  27.587  23.633  1.00  0.00     0.148 A 
ATOM     75  C   UNL A   1      53.563  26.127  25.048  1.00  0.00     0.002 A 
ATOM     76  C   UNL A   1      52.635  26.926  22.952  1.00  0.00     0.091 A 
ATOM     77  F   UNL A   1      50.668  28.283  22.992  1.00  0.00    -0.205 F 
ATOM     78  C   UNL A   1      53.607  26.197  23.658  1.00  0.00     0.022 A 
BRANCH  76  79
ATOM     79  S   UNL A   1      52.759  26.902  21.159  1.00  0.00     0.127 S 
ATOM     80  O   UNL A   1      51.724  25.929  20.807  1.00  0.00    -0.237 OA
ATOM     81  O   UNL A   1      52.439  28.286  20.812  1.00  0.00    -0.237 OA
ATOM     82  O   UNL A   1      54.120  26.488  20.853  1.00  0.00    -0.744 OA
ENDBRANCH  76  79
ENDBRANCH  58  72
BRANCH  59  83
ATOM     83  C   UNL A   1      43.523  30.614  30.101  1.00  0.00     0.023 A 
ATOM     84  C   UNL A   1      42.510  31.350  29.459  1.00  0.00     0.012 A 
ATOM     85  C   UNL A   1      43.345  30.206  31.438  1.00  0.00     0.148 A 
ATOM     86  C   UNL A   1      41.338  31.680  30.141  1.00  0.00     0.002 A 
ATOM     87  C   UNL A   1      42.159  30.502  32.096  1.00  0.00     0.091 A 
ATOM     88  F   UNL A   1      44.326  29.502  32.019  1.00  0.00    -0.205 F 
ATOM     89  C   UNL A   1      41.158  31.247  31.453  1.00  0.00     0.022 A 
BRANCH  87  90
ATOM     90  S   UNL A   1      41.789  29.889  33.743  1.00  0.00     0.127 S 
ATOM     91  O   UNL A   1      40.392  30.285  33.900  1.00  0.00    -0.237 OA
ATOM     92  O   UNL A   1      42.009  28.451  33.583  1.00  0.00    -0.237 OA
ATOM     93  O   UNL A   1      42.734  30.549  34.633  1.00  0.00    -0.744 OA
ENDBRANCH  87  90
ENDBRANCH  59  83
BRANCH  71  94
ATOM     94  C   UNL A   1      49.683  33.511  28.443  1.00  0.00     0.023 A 
ATOM     95  C   UNL A   1      50.506  33.634  29.578  1.00  0.00     0.012 A 
ATOM     96  C   UNL A   1      49.596  34.572  27.521  1.00  0.00     0.148 A 
ATOM     97  C   UNL A   1      51.241  34.798  29.790  1.00  0.00     0.002 A 
ATOM     98  C   UNL A   1      50.358  35.715  27.722  1.00  0.00     0.091 A 
ATOM     99  F   UNL A   1      48.800  34.423  26.453  1.00  0.00    -0.205 F 
ATOM    100  C   UNL A   1      51.179  35.832  28.856  1.00  0.00     0.022 A 
BRANCH  98 101
ATOM    101  S   UNL A   1      50.405  37.068  26.541  1.00  0.00     0.127 S 
ATOM    102  O   UNL A   1      50.637  36.357  25.284  1.00  0.00    -0.237 OA
ATOM    103  O   UNL A   1      49.068  37.643  26.680  1.00  0.00    -0.237 OA
ATOM    104  O   UNL A   1      51.494  37.939  26.963  1.00  0.00    -0.744 OA
ENDBRANCH  98 101
ENDBRANCH  71  94
ENDBRANCH  45  46
ENDBRANCH  38  40
ENDBRANCH  37  38
ENDBRANCH  36  37
ENDBRANCH  35  36
ENDBRANCH  34  35
ENDBRANCH  33  34
ENDBRANCH  32  33
ENDBRANCH   1  32
TORSDOF 26
ENDMDL
