MODEL 1
REMARK VINA RESULT:      -8.7      0.000      0.000
REMARK SMILES Cc1c(NC(=O)[C@@H]2CC=CC[C@@H]2C(=O)OCCOCCOCCOCCOC(=O)c2ccc(-c3c4nc(c(-c5cccc(S(=O)(=O)[O-])c5F)c5ccc([nH]5)c(-c5cccc(S(=O)(=O)[O-])c5F)c5nc(c(-c6cccc(S(=O)(=O)[O-])c6F)c6ccc3[nH]6)C=C5)C=C4)cc2)cccc1C(=O)N1CCOCC1
REMARK SMILES IDX 21 1 20 2 19 3 18 4 17 5 16 6 15 7 13 8 14 9 12 10 7 11 8 12
REMARK SMILES IDX 9 13 11 14 10 15 5 16 4 17 6 19 3 20 1 21 2 22 96 23 93 24
REMARK SMILES IDX 95 25 94 26 97 27 98 28 99 29 100 30 104 31 101 32 103 33
REMARK SMILES IDX 102 34 22 35 23 36 24 37 25 38 26 39 27 40 28 41 29 42 30 43
REMARK SMILES IDX 31 44 92 45 32 46 91 47 33 48 34 49 35 50 85 51 36 52 90 53
REMARK SMILES IDX 84 54 86 55 37 56 89 57 83 58 82 59 38 61 70 62 50 63 69 64
REMARK SMILES IDX 51 65 54 66 68 67 87 68 52 69 53 70 67 72 88 73 55 74 39 75
REMARK SMILES IDX 40 76 48 77 41 78 43 79 49 80 42 81 44 82 45 83 46 84 47 85
REMARK SMILES IDX 71 86 72 87 80 88 73 89 75 90 81 91 74 92 76 93 77 94 78 95
REMARK SMILES IDX 79 96 56 97 57 98 65 99 58 100 60 101 66 102 59 103 61 104
REMARK SMILES IDX 62 105 63 106 64 107
REMARK H PARENT 4 18 86 60 54 71
REMARK Flexibility Score: inf
ROOT
ATOM      1  O   UNL A   1      48.620  30.579  35.336  1.00  0.00    -0.377 OA
ENDROOT
BRANCH   1   2
ATOM      2  C   UNL A   1      47.838  29.555  34.690  1.00  0.00     0.188 C 
BRANCH   2   3
ATOM      3  C   UNL A   1      47.376  29.318  33.091  1.00  0.00     0.188 C 
BRANCH   3   4
ATOM      4  O   UNL A   1      45.818  29.090  32.219  1.00  0.00    -0.376 OA
BRANCH   4   5
ATOM      5  C   UNL A   1      44.418  30.126  31.782  1.00  0.00     0.202 C 
BRANCH   5   6
ATOM      6  C   UNL A   1      43.220  30.118  30.281  1.00  0.00     0.261 C 
BRANCH   6   7
ATOM      7  O   UNL A   1      43.559  30.396  28.529  1.00  0.00    -0.463 OA
BRANCH   7   8
ATOM      8  C   UNL A   1      44.007  31.328  27.543  1.00  0.00     0.310 C 
ATOM      9  O   UNL A   1      43.580  31.432  26.380  1.00  0.00    -0.252 OA
BRANCH   8  10
ATOM     10  C   UNL A   1      44.957  32.632  27.766  1.00  0.00     0.116 C 
ATOM     11  C   UNL A   1      45.783  33.651  26.906  1.00  0.00     0.097 C 
ATOM     12  C   UNL A   1      47.290  33.315  26.754  1.00  0.00     0.041 C 
ATOM     13  C   UNL A   1      47.931  32.883  28.035  1.00  0.00    -0.030 C 
ATOM     14  C   UNL A   1      45.722  32.452  29.140  1.00  0.00     0.043 C 
ATOM     15  C   UNL A   1      47.224  32.538  29.114  1.00  0.00    -0.030 C 
BRANCH  11  16
ATOM     16  C   UNL A   1      44.973  34.137  25.723  1.00  0.00     0.228 C 
ATOM     17  N   UNL A   1      44.078  35.151  25.742  1.00  0.00    -0.326 N 
ATOM     18  H   UNL A   1      43.821  35.414  24.828  1.00  0.00     0.169 HD
ATOM     19  O   UNL A   1      45.067  33.579  24.625  1.00  0.00    -0.274 OA
BRANCH  17  20
ATOM     20  C   UNL A   1      43.415  35.931  26.699  1.00  0.00     0.044 A 
ATOM     21  C   UNL A   1      45.440  37.424  26.610  1.00  0.00     0.047 C 
ATOM     22  C   UNL A   1      44.026  37.156  27.066  1.00  0.00    -0.015 A 
ATOM     23  C   UNL A   1      43.332  38.047  27.911  1.00  0.00     0.045 A 
ATOM     24  C   UNL A   1      42.173  35.591  27.235  1.00  0.00     0.026 A 
ATOM     25  C   UNL A   1      42.140  37.627  28.522  1.00  0.00     0.014 A 
ATOM     26  C   UNL A   1      41.573  36.397  28.200  1.00  0.00     0.003 A 
BRANCH  23  27
ATOM     27  C   UNL A   1      43.849  39.376  28.341  1.00  0.00     0.254 C 
ATOM     28  O   UNL A   1      44.489  39.409  29.393  1.00  0.00    -0.269 OA
ATOM     29  N   UNL A   1      43.621  40.525  27.589  1.00  0.00    -0.334 N 
ATOM     30  C   UNL A   1      42.595  40.748  26.557  1.00  0.00     0.148 C 
ATOM     31  C   UNL A   1      44.381  41.730  27.921  1.00  0.00     0.148 C 
ATOM     32  C   UNL A   1      43.179  41.496  25.342  1.00  0.00     0.181 C 
ATOM     33  C   UNL A   1      44.960  42.341  26.646  1.00  0.00     0.181 C 
ATOM     34  O   UNL A   1      43.901  42.676  25.733  1.00  0.00    -0.378 OA
ENDBRANCH  23  27
ENDBRANCH  17  20
ENDBRANCH  11  16
ENDBRANCH   8  10
ENDBRANCH   7   8
ENDBRANCH   6   7
ENDBRANCH   5   6
ENDBRANCH   4   5
ENDBRANCH   3   4
ENDBRANCH   2   3
ENDBRANCH   1   2
BRANCH   1  35
ATOM     35  C   UNL A   1      48.260  31.933  35.581  1.00  0.00     0.188 C 
BRANCH  35  36
ATOM     36  C   UNL A   1      47.316  32.571  34.601  1.00  0.00     0.188 C 
BRANCH  36  37
ATOM     37  O   UNL A   1      46.049  32.627  35.230  1.00  0.00    -0.376 OA
BRANCH  37  38
ATOM     38  C   UNL A   1      46.094  33.003  36.590  1.00  0.00     0.202 C 
BRANCH  38  39
ATOM     39  C   UNL A   1      44.692  33.097  37.186  1.00  0.00     0.261 C 
BRANCH  39  40
ATOM     40  O   UNL A   1      43.750  33.310  36.114  1.00  0.00    -0.460 OA
BRANCH  40  41
ATOM     41  C   UNL A   1      42.442  33.391  36.516  1.00  0.00     0.338 C 
ATOM     42  O   UNL A   1      42.084  33.617  37.653  1.00  0.00    -0.246 OA
BRANCH  41  43
ATOM     43  C   UNL A   1      41.580  32.839  35.434  1.00  0.00     0.060 A 
ATOM     44  C   UNL A   1      40.376  32.229  35.714  1.00  0.00     0.016 A 
ATOM     45  C   UNL A   1      41.977  32.772  34.123  1.00  0.00     0.016 A 
ATOM     46  C   UNL A   1      39.880  31.222  34.840  1.00  0.00     0.010 A 
ATOM     47  C   UNL A   1      41.354  31.833  33.264  1.00  0.00     0.010 A 
ATOM     48  C   UNL A   1      40.592  30.713  33.738  1.00  0.00    -0.014 A 
BRANCH  48  49
ATOM     49  C   UNL A   1      40.737  28.914  33.331  1.00  0.00     0.031 A 
ATOM     50  C   UNL A   1      42.068  27.561  33.938  1.00  0.00     0.074 A 
ATOM     51  C   UNL A   1      39.825  28.689  32.324  1.00  0.00     0.049 A 
ATOM     52  N   UNL A   1      43.024  27.030  33.124  1.00  0.00    -0.248 NA
ATOM     53  C   UNL A   1      42.917  27.307  35.287  1.00  0.00     0.031 C 
ATOM     54  C   UNL A   1      39.297  27.419  31.952  1.00  0.00     0.029 A 
ATOM     55  N   UNL A   1      39.326  29.480  31.286  1.00  0.00    -0.354 N 
ATOM     56  C   UNL A   1      44.201  26.496  33.605  1.00  0.00     0.074 A 
ATOM     57  C   UNL A   1      44.132  26.832  34.970  1.00  0.00     0.031 C 
ATOM     58  C   UNL A   1      39.044  27.376  30.638  1.00  0.00     0.029 A 
ATOM     59  C   UNL A   1      39.169  28.698  30.150  1.00  0.00     0.049 A 
ATOM     60  H   UNL A   1      39.119  30.441  31.349  1.00  0.00     0.167 HD
ATOM     61  C   UNL A   1      45.146  25.815  32.865  1.00  0.00     0.034 A 
ATOM     62  C   UNL A   1      39.366  29.054  28.869  1.00  0.00     0.034 A 
ATOM     63  C   UNL A   1      44.686  25.387  31.517  1.00  0.00     0.049 A 
ATOM     64  C   UNL A   1      40.427  28.214  28.191  1.00  0.00     0.074 A 
ATOM     65  C   UNL A   1      44.082  24.202  31.109  1.00  0.00     0.029 A 
ATOM     66  N   UNL A   1      44.609  26.220  30.396  1.00  0.00    -0.354 N 
ATOM     67  N   UNL A   1      41.340  27.491  28.809  1.00  0.00    -0.248 NA
ATOM     68  C   UNL A   1      40.507  28.088  26.742  1.00  0.00     0.031 C 
ATOM     69  C   UNL A   1      43.374  24.448  29.900  1.00  0.00     0.029 A 
ATOM     70  C   UNL A   1      43.688  25.724  29.453  1.00  0.00     0.049 A 
ATOM     71  H   UNL A   1      45.131  27.047  30.281  1.00  0.00     0.167 HD
ATOM     72  C   UNL A   1      42.207  26.939  27.882  1.00  0.00     0.074 A 
ATOM     73  C   UNL A   1      41.552  27.255  26.613  1.00  0.00     0.031 C 
ATOM     74  C   UNL A   1      43.428  26.337  28.139  1.00  0.00     0.034 A 
BRANCH  61  75
ATOM     75  C   UNL A   1      46.334  25.145  33.606  1.00  0.00     0.023 A 
ATOM     76  C   UNL A   1      47.614  25.739  33.547  1.00  0.00     0.012 A 
ATOM     77  C   UNL A   1      46.275  23.891  34.270  1.00  0.00     0.148 A 
ATOM     78  C   UNL A   1      48.777  25.066  33.962  1.00  0.00     0.002 A 
ATOM     79  C   UNL A   1      47.440  23.171  34.579  1.00  0.00     0.091 A 
ATOM     80  F   UNL A   1      45.078  23.410  34.640  1.00  0.00    -0.205 F 
ATOM     81  C   UNL A   1      48.698  23.758  34.419  1.00  0.00     0.022 A 
BRANCH  79  82
ATOM     82  S   UNL A   1      47.429  21.422  35.035  1.00  0.00     0.127 S 
ATOM     83  O   UNL A   1      47.181  21.478  36.477  1.00  0.00    -0.237 OA
ATOM     84  O   UNL A   1      46.312  20.891  34.253  1.00  0.00    -0.237 OA
ATOM     85  O   UNL A   1      48.743  20.902  34.675  1.00  0.00    -0.744 OA
ENDBRANCH  79  82
ENDBRANCH  61  75
BRANCH  62  86
ATOM     86  C   UNL A   1      38.679  30.351  28.591  1.00  0.00     0.023 A 
ATOM     87  C   UNL A   1      37.390  30.174  28.008  1.00  0.00     0.012 A 
ATOM     88  C   UNL A   1      38.887  31.493  29.383  1.00  0.00     0.148 A 
ATOM     89  C   UNL A   1      36.298  30.952  28.400  1.00  0.00     0.002 A 
ATOM     90  C   UNL A   1      37.791  32.293  29.742  1.00  0.00     0.091 A 
ATOM     91  F   UNL A   1      40.109  31.702  29.890  1.00  0.00    -0.205 F 
ATOM     92  C   UNL A   1      36.493  31.987  29.302  1.00  0.00     0.022 A 
BRANCH  90  93
ATOM     93  S   UNL A   1      37.964  33.609  30.960  1.00  0.00     0.127 S 
ATOM     94  O   UNL A   1      38.955  34.470  30.326  1.00  0.00    -0.237 OA
ATOM     95  O   UNL A   1      36.614  34.169  31.030  1.00  0.00    -0.237 OA
ATOM     96  O   UNL A   1      38.378  32.905  32.167  1.00  0.00    -0.744 OA
ENDBRANCH  90  93
ENDBRANCH  62  86
BRANCH  74  97
ATOM     97  C   UNL A   1      44.525  26.175  27.070  1.00  0.00     0.023 A 
ATOM     98  C   UNL A   1      44.597  25.044  26.230  1.00  0.00     0.012 A 
ATOM     99  C   UNL A   1      45.414  27.238  26.744  1.00  0.00     0.148 A 
ATOM    100  C   UNL A   1      45.525  24.931  25.189  1.00  0.00     0.002 A 
ATOM    101  C   UNL A   1      46.240  27.175  25.623  1.00  0.00     0.091 A 
ATOM    102  F   UNL A   1      45.489  28.326  27.520  1.00  0.00    -0.205 F 
ATOM    103  C   UNL A   1      46.327  26.010  24.864  1.00  0.00     0.022 A 
BRANCH 101 104
ATOM    104  S   UNL A   1      47.067  28.646  24.996  1.00  0.00     0.127 S 
ATOM    105  O   UNL A   1      48.301  28.658  25.777  1.00  0.00    -0.237 OA
ATOM    106  O   UNL A   1      47.247  28.319  23.579  1.00  0.00    -0.237 OA
ATOM    107  O   UNL A   1      46.137  29.740  25.235  1.00  0.00    -0.744 OA
ENDBRANCH 101 104
ENDBRANCH  74  97
ENDBRANCH  48  49
ENDBRANCH  41  43
ENDBRANCH  40  41
ENDBRANCH  39  40
ENDBRANCH  38  39
ENDBRANCH  37  38
ENDBRANCH  36  37
ENDBRANCH  35  36
ENDBRANCH   1  35
TORSDOF 26
ENDMDL
MODEL 2
REMARK VINA RESULT:      -8.5      5.380     10.274
REMARK SMILES Cc1c(NC(=O)[C@@H]2CC=CC[C@@H]2C(=O)OCCOCCOCCOCCOC(=O)c2ccc(-c3c4nc(c(-c5cccc(S(=O)(=O)[O-])c5F)c5ccc([nH]5)c(-c5cccc(S(=O)(=O)[O-])c5F)c5nc(c(-c6cccc(S(=O)(=O)[O-])c6F)c6ccc3[nH]6)C=C5)C=C4)cc2)cccc1C(=O)N1CCOCC1
REMARK SMILES IDX 21 1 20 2 19 3 18 4 17 5 16 6 15 7 13 8 14 9 12 10 7 11 8 12
REMARK SMILES IDX 9 13 11 14 10 15 5 16 4 17 6 19 3 20 1 21 2 22 96 23 93 24
REMARK SMILES IDX 95 25 94 26 97 27 98 28 99 29 100 30 104 31 101 32 103 33
REMARK SMILES IDX 102 34 22 35 23 36 24 37 25 38 26 39 27 40 28 41 29 42 30 43
REMARK SMILES IDX 31 44 92 45 32 46 91 47 33 48 34 49 35 50 85 51 36 52 90 53
REMARK SMILES IDX 84 54 86 55 37 56 89 57 83 58 82 59 38 61 70 62 50 63 69 64
REMARK SMILES IDX 51 65 54 66 68 67 87 68 52 69 53 70 67 72 88 73 55 74 39 75
REMARK SMILES IDX 40 76 48 77 41 78 43 79 49 80 42 81 44 82 45 83 46 84 47 85
REMARK SMILES IDX 71 86 72 87 80 88 73 89 75 90 81 91 74 92 76 93 77 94 78 95
REMARK SMILES IDX 79 96 56 97 57 98 65 99 58 100 60 101 66 102 59 103 61 104
REMARK SMILES IDX 62 105 63 106 64 107
REMARK H PARENT 4 18 86 60 54 71
REMARK Flexibility Score: inf
ROOT
ATOM      1  O   UNL A   1      38.591  30.092  29.810  1.00  0.00    -0.377 OA
ENDROOT
BRANCH   1   2
ATOM      2  C   UNL A   1      38.611  28.817  30.482  1.00  0.00     0.188 C 
BRANCH   2   3
ATOM      3  C   UNL A   1      38.813  27.243  29.927  1.00  0.00     0.188 C 
BRANCH   3   4
ATOM      4  O   UNL A   1      39.408  26.476  28.412  1.00  0.00    -0.376 OA
BRANCH   4   5
ATOM      5  C   UNL A   1      40.188  24.920  27.971  1.00  0.00     0.202 C 
BRANCH   5   6
ATOM      6  C   UNL A   1      39.645  23.479  26.822  1.00  0.00     0.261 C 
BRANCH   6   7
ATOM      7  O   UNL A   1      38.034  23.134  26.082  1.00  0.00    -0.463 OA
BRANCH   7   8
ATOM      8  C   UNL A   1      36.688  23.584  25.914  1.00  0.00     0.310 C 
ATOM      9  O   UNL A   1      36.299  24.766  25.933  1.00  0.00    -0.252 OA
BRANCH   8  10
ATOM     10  C   UNL A   1      35.408  22.723  25.395  1.00  0.00     0.116 C 
ATOM     11  C   UNL A   1      34.065  22.956  24.618  1.00  0.00     0.097 C 
ATOM     12  C   UNL A   1      32.815  23.161  25.513  1.00  0.00     0.041 C 
ATOM     13  C   UNL A   1      32.741  22.197  26.655  1.00  0.00    -0.030 C 
ATOM     14  C   UNL A   1      35.153  21.552  26.429  1.00  0.00     0.043 C 
ATOM     15  C   UNL A   1      33.779  21.447  27.033  1.00  0.00    -0.030 C 
BRANCH  11  16
ATOM     16  C   UNL A   1      34.294  23.818  23.395  1.00  0.00     0.228 C 
ATOM     17  N   UNL A   1      33.923  25.111  23.259  1.00  0.00    -0.326 N 
ATOM     18  H   UNL A   1      34.342  25.519  22.467  1.00  0.00     0.169 HD
ATOM     19  O   UNL A   1      34.830  23.347  22.386  1.00  0.00    -0.274 OA
BRANCH  17  20
ATOM     20  C   UNL A   1      33.109  26.032  23.932  1.00  0.00     0.044 A 
ATOM     21  C   UNL A   1      31.427  25.591  22.112  1.00  0.00     0.047 C 
ATOM     22  C   UNL A   1      31.789  26.202  23.443  1.00  0.00    -0.015 A 
ATOM     23  C   UNL A   1      30.884  27.004  24.169  1.00  0.00     0.045 A 
ATOM     24  C   UNL A   1      33.514  26.716  25.078  1.00  0.00     0.026 A 
ATOM     25  C   UNL A   1      31.354  27.766  25.251  1.00  0.00     0.014 A 
ATOM     26  C   UNL A   1      32.667  27.637  25.691  1.00  0.00     0.003 A 
BRANCH  23  27
ATOM     27  C   UNL A   1      29.464  27.234  23.781  1.00  0.00     0.254 C 
ATOM     28  O   UNL A   1      28.635  26.423  24.197  1.00  0.00    -0.269 OA
ATOM     29  N   UNL A   1      29.092  28.316  22.988  1.00  0.00    -0.334 N 
ATOM     30  C   UNL A   1      29.943  29.134  22.108  1.00  0.00     0.148 C 
ATOM     31  C   UNL A   1      27.668  28.634  22.876  1.00  0.00     0.148 C 
ATOM     32  C   UNL A   1      29.605  30.633  22.242  1.00  0.00     0.181 C 
ATOM     33  C   UNL A   1      27.457  30.132  23.090  1.00  0.00     0.181 C 
ATOM     34  O   UNL A   1      28.195  30.880  22.109  1.00  0.00    -0.378 OA
ENDBRANCH  23  27
ENDBRANCH  17  20
ENDBRANCH  11  16
ENDBRANCH   8  10
ENDBRANCH   7   8
ENDBRANCH   6   7
ENDBRANCH   5   6
ENDBRANCH   4   5
ENDBRANCH   3   4
ENDBRANCH   2   3
ENDBRANCH   1   2
BRANCH   1  35
ATOM     35  C   UNL A   1      37.460  30.886  29.472  1.00  0.00     0.188 C 
BRANCH  35  36
ATOM     36  C   UNL A   1      37.710  32.344  29.205  1.00  0.00     0.188 C 
BRANCH  36  37
ATOM     37  O   UNL A   1      37.830  32.976  30.466  1.00  0.00    -0.376 OA
BRANCH  37  38
ATOM     38  C   UNL A   1      39.162  33.165  30.894  1.00  0.00     0.202 C 
BRANCH  38  39
ATOM     39  C   UNL A   1      39.346  34.534  31.545  1.00  0.00     0.261 C 
BRANCH  39  40
ATOM     40  O   UNL A   1      39.673  34.340  32.937  1.00  0.00    -0.460 OA
BRANCH  40  41
ATOM     41  C   UNL A   1      38.592  34.110  33.746  1.00  0.00     0.338 C 
ATOM     42  O   UNL A   1      37.789  34.956  34.080  1.00  0.00    -0.246 OA
BRANCH  41  43
ATOM     43  C   UNL A   1      38.760  32.778  34.394  1.00  0.00     0.060 A 
ATOM     44  C   UNL A   1      39.827  32.511  35.223  1.00  0.00     0.016 A 
ATOM     45  C   UNL A   1      37.961  31.702  34.107  1.00  0.00     0.016 A 
ATOM     46  C   UNL A   1      40.311  31.178  35.337  1.00  0.00     0.010 A 
ATOM     47  C   UNL A   1      38.449  30.396  34.362  1.00  0.00     0.010 A 
ATOM     48  C   UNL A   1      39.838  30.099  34.568  1.00  0.00    -0.014 A 
BRANCH  48  49
ATOM     49  C   UNL A   1      40.926  28.851  33.742  1.00  0.00     0.031 A 
ATOM     50  C   UNL A   1      41.642  27.120  34.421  1.00  0.00     0.074 A 
ATOM     51  C   UNL A   1      41.342  29.441  32.569  1.00  0.00     0.049 A 
ATOM     52  N   UNL A   1      42.955  26.919  34.729  1.00  0.00    -0.248 NA
ATOM     53  C   UNL A   1      41.116  25.972  35.428  1.00  0.00     0.031 C 
ATOM     54  C   UNL A   1      41.862  28.754  31.435  1.00  0.00     0.029 A 
ATOM     55  N   UNL A   1      41.592  30.764  32.197  1.00  0.00    -0.354 N 
ATOM     56  C   UNL A   1      43.374  25.949  35.615  1.00  0.00     0.074 A 
ATOM     57  C   UNL A   1      42.150  25.481  36.128  1.00  0.00     0.031 C 
ATOM     58  C   UNL A   1      42.773  29.505  30.802  1.00  0.00     0.029 A 
ATOM     59  C   UNL A   1      42.699  30.803  31.361  1.00  0.00     0.049 A 
ATOM     60  H   UNL A   1      41.066  31.547  32.482  1.00  0.00     0.167 HD
ATOM     61  C   UNL A   1      44.682  25.589  35.867  1.00  0.00     0.034 A 
ATOM     62  C   UNL A   1      43.652  31.748  31.297  1.00  0.00     0.034 A 
ATOM     63  C   UNL A   1      45.667  26.100  34.875  1.00  0.00     0.049 A 
ATOM     64  C   UNL A   1      45.032  31.200  31.591  1.00  0.00     0.074 A 
ATOM     65  C   UNL A   1      46.144  25.519  33.704  1.00  0.00     0.029 A 
ATOM     66  N   UNL A   1      46.174  27.403  34.849  1.00  0.00    -0.354 N 
ATOM     67  N   UNL A   1      45.287  30.065  32.213  1.00  0.00    -0.248 NA
ATOM     68  C   UNL A   1      46.245  31.880  31.158  1.00  0.00     0.031 C 
ATOM     69  C   UNL A   1      46.635  26.550  32.855  1.00  0.00     0.029 A 
ATOM     70  C   UNL A   1      46.641  27.743  33.564  1.00  0.00     0.049 A 
ATOM     71  H   UNL A   1      46.200  28.005  35.627  1.00  0.00     0.167 HD
ATOM     72  C   UNL A   1      46.651  29.931  32.402  1.00  0.00     0.074 A 
ATOM     73  C   UNL A   1      47.188  31.038  31.611  1.00  0.00     0.031 C 
ATOM     74  C   UNL A   1      47.293  29.020  33.225  1.00  0.00     0.034 A 
BRANCH  61  75
ATOM     75  C   UNL A   1      44.959  24.366  36.780  1.00  0.00     0.023 A 
ATOM     76  C   UNL A   1      45.204  24.566  38.156  1.00  0.00     0.012 A 
ATOM     77  C   UNL A   1      45.098  23.027  36.325  1.00  0.00     0.148 A 
ATOM     78  C   UNL A   1      45.716  23.551  38.986  1.00  0.00     0.002 A 
ATOM     79  C   UNL A   1      45.715  22.046  37.118  1.00  0.00     0.091 A 
ATOM     80  F   UNL A   1      44.593  22.695  35.127  1.00  0.00    -0.205 F 
ATOM     81  C   UNL A   1      46.031  22.310  38.452  1.00  0.00     0.022 A 
BRANCH  79  82
ATOM     82  S   UNL A   1      46.291  20.463  36.460  1.00  0.00     0.127 S 
ATOM     83  O   UNL A   1      47.746  20.617  36.512  1.00  0.00    -0.237 OA
ATOM     84  O   UNL A   1      45.754  19.499  37.420  1.00  0.00    -0.237 OA
ATOM     85  O   UNL A   1      45.749  20.365  35.111  1.00  0.00    -0.744 OA
ENDBRANCH  79  82
ENDBRANCH  61  75
BRANCH  62  86
ATOM     86  C   UNL A   1      43.022  33.100  31.231  1.00  0.00     0.023 A 
ATOM     87  C   UNL A   1      43.096  33.800  32.471  1.00  0.00     0.012 A 
ATOM     88  C   UNL A   1      43.007  33.862  30.050  1.00  0.00     0.148 A 
ATOM     89  C   UNL A   1      43.398  35.164  32.523  1.00  0.00     0.002 A 
ATOM     90  C   UNL A   1      43.272  35.238  30.113  1.00  0.00     0.091 A 
ATOM     91  F   UNL A   1      42.879  33.221  28.881  1.00  0.00    -0.205 F 
ATOM     92  C   UNL A   1      43.528  35.874  31.339  1.00  0.00     0.022 A 
BRANCH  90  93
ATOM     93  S   UNL A   1      43.521  36.203  28.612  1.00  0.00     0.127 S 
ATOM     94  O   UNL A   1      44.963  36.088  28.422  1.00  0.00    -0.237 OA
ATOM     95  O   UNL A   1      42.710  35.489  27.626  1.00  0.00    -0.237 OA
ATOM     96  O   UNL A   1      43.006  37.520  28.964  1.00  0.00    -0.744 OA
ENDBRANCH  90  93
ENDBRANCH  62  86
BRANCH  74  97
ATOM     97  C   UNL A   1      48.730  29.222  33.741  1.00  0.00     0.023 A 
ATOM     98  C   UNL A   1      49.075  30.269  34.621  1.00  0.00     0.012 A 
ATOM     99  C   UNL A   1      49.750  28.257  33.509  1.00  0.00     0.148 A 
ATOM    100  C   UNL A   1      50.352  30.405  35.177  1.00  0.00     0.002 A 
ATOM    101  C   UNL A   1      50.974  28.321  34.172  1.00  0.00     0.091 A 
ATOM    102  F   UNL A   1      49.563  27.264  32.631  1.00  0.00    -0.205 F 
ATOM    103  C   UNL A   1      51.294  29.412  34.978  1.00  0.00     0.022 A 
BRANCH 101 104
ATOM    104  S   UNL A   1      52.101  26.917  34.180  1.00  0.00     0.127 S 
ATOM    105  O   UNL A   1      53.086  27.323  35.180  1.00  0.00    -0.237 OA
ATOM    106  O   UNL A   1      51.226  25.819  34.598  1.00  0.00    -0.237 OA
ATOM    107  O   UNL A   1      52.579  26.802  32.810  1.00  0.00    -0.744 OA
ENDBRANCH 101 104
ENDBRANCH  74  97
ENDBRANCH  48  49
ENDBRANCH  41  43
ENDBRANCH  40  41
ENDBRANCH  39  40
ENDBRANCH  38  39
ENDBRANCH  37  38
ENDBRANCH  36  37
ENDBRANCH  35  36
ENDBRANCH   1  35
TORSDOF 26
ENDMDL
MODEL 3
REMARK VINA RESULT:      -8.0      4.961     11.364
REMARK SMILES Cc1c(NC(=O)[C@@H]2CC=CC[C@@H]2C(=O)OCCOCCOCCOCCOC(=O)c2ccc(-c3c4nc(c(-c5cccc(S(=O)(=O)[O-])c5F)c5ccc([nH]5)c(-c5cccc(S(=O)(=O)[O-])c5F)c5nc(c(-c6cccc(S(=O)(=O)[O-])c6F)c6ccc3[nH]6)C=C5)C=C4)cc2)cccc1C(=O)N1CCOCC1
REMARK SMILES IDX 21 1 20 2 19 3 18 4 17 5 16 6 15 7 13 8 14 9 12 10 7 11 8 12
REMARK SMILES IDX 9 13 11 14 10 15 5 16 4 17 6 19 3 20 1 21 2 22 96 23 93 24
REMARK SMILES IDX 95 25 94 26 97 27 98 28 99 29 100 30 104 31 101 32 103 33
REMARK SMILES IDX 102 34 22 35 23 36 24 37 25 38 26 39 27 40 28 41 29 42 30 43
REMARK SMILES IDX 31 44 92 45 32 46 91 47 33 48 34 49 35 50 85 51 36 52 90 53
REMARK SMILES IDX 84 54 86 55 37 56 89 57 83 58 82 59 38 61 70 62 50 63 69 64
REMARK SMILES IDX 51 65 54 66 68 67 87 68 52 69 53 70 67 72 88 73 55 74 39 75
REMARK SMILES IDX 40 76 48 77 41 78 43 79 49 80 42 81 44 82 45 83 46 84 47 85
REMARK SMILES IDX 71 86 72 87 80 88 73 89 75 90 81 91 74 92 76 93 77 94 78 95
REMARK SMILES IDX 79 96 56 97 57 98 65 99 58 100 60 101 66 102 59 103 61 104
REMARK SMILES IDX 62 105 63 106 64 107
REMARK H PARENT 4 18 86 60 54 71
REMARK Flexibility Score: inf
ROOT
ATOM      1  O   UNL A   1      37.844  33.072  29.126  1.00  0.00    -0.377 OA
ENDROOT
BRANCH   1   2
ATOM      2  C   UNL A   1      38.246  34.366  29.619  1.00  0.00     0.188 C 
BRANCH   2   3
ATOM      3  C   UNL A   1      39.647  35.273  29.421  1.00  0.00     0.188 C 
BRANCH   3   4
ATOM      4  O   UNL A   1      41.389  34.913  29.147  1.00  0.00    -0.376 OA
BRANCH   4   5
ATOM      5  C   UNL A   1      42.691  35.557  28.092  1.00  0.00     0.202 C 
BRANCH   5   6
ATOM      6  C   UNL A   1      43.001  37.293  27.329  1.00  0.00     0.261 C 
BRANCH   6   7
ATOM      7  O   UNL A   1      41.902  38.723  27.225  1.00  0.00    -0.463 OA
BRANCH   7   8
ATOM      8  C   UNL A   1      41.818  40.147  27.140  1.00  0.00     0.310 C 
ATOM      9  O   UNL A   1      40.916  40.861  27.614  1.00  0.00    -0.252 OA
BRANCH   8  10
ATOM     10  C   UNL A   1      42.978  41.186  26.664  1.00  0.00     0.116 C 
ATOM     11  C   UNL A   1      43.614  41.716  25.332  1.00  0.00     0.097 C 
ATOM     12  C   UNL A   1      44.909  40.989  24.887  1.00  0.00     0.041 C 
ATOM     13  C   UNL A   1      45.869  40.750  26.009  1.00  0.00    -0.030 C 
ATOM     14  C   UNL A   1      44.123  41.175  27.757  1.00  0.00     0.043 C 
ATOM     15  C   UNL A   1      45.523  40.877  27.292  1.00  0.00    -0.030 C 
BRANCH  11  16
ATOM     16  C   UNL A   1      42.538  42.072  24.327  1.00  0.00     0.228 C 
ATOM     17  N   UNL A   1      42.704  42.857  23.238  1.00  0.00    -0.326 N 
ATOM     18  H   UNL A   1      41.930  42.791  22.633  1.00  0.00     0.169 HD
ATOM     19  O   UNL A   1      41.380  41.671  24.478  1.00  0.00    -0.274 OA
BRANCH  17  20
ATOM     20  C   UNL A   1      43.670  43.736  22.731  1.00  0.00     0.044 A 
ATOM     21  C   UNL A   1      43.207  42.661  20.503  1.00  0.00     0.047 C 
ATOM     22  C   UNL A   1      43.856  43.746  21.325  1.00  0.00    -0.015 A 
ATOM     23  C   UNL A   1      44.707  44.713  20.750  1.00  0.00     0.045 A 
ATOM     24  C   UNL A   1      44.384  44.631  23.528  1.00  0.00     0.026 A 
ATOM     25  C   UNL A   1      45.495  45.521  21.585  1.00  0.00     0.014 A 
ATOM     26  C   UNL A   1      45.348  45.466  22.968  1.00  0.00     0.003 A 
BRANCH  23  27
ATOM     27  C   UNL A   1      44.960  44.849  19.288  1.00  0.00     0.254 C 
ATOM     28  O   UNL A   1      46.113  44.653  18.903  1.00  0.00    -0.269 OA
ATOM     29  N   UNL A   1      43.940  45.182  18.401  1.00  0.00    -0.334 N 
ATOM     30  C   UNL A   1      42.643  45.811  18.699  1.00  0.00     0.148 C 
ATOM     31  C   UNL A   1      44.195  45.030  16.968  1.00  0.00     0.148 C 
ATOM     32  C   UNL A   1      41.502  45.138  17.910  1.00  0.00     0.181 C 
ATOM     33  C   UNL A   1      43.026  44.296  16.313  1.00  0.00     0.181 C 
ATOM     34  O   UNL A   1      41.807  45.032  16.509  1.00  0.00    -0.378 OA
ENDBRANCH  23  27
ENDBRANCH  17  20
ENDBRANCH  11  16
ENDBRANCH   8  10
ENDBRANCH   7   8
ENDBRANCH   6   7
ENDBRANCH   5   6
ENDBRANCH   4   5
ENDBRANCH   3   4
ENDBRANCH   2   3
ENDBRANCH   1   2
BRANCH   1  35
ATOM     35  C   UNL A   1      38.643  31.905  28.977  1.00  0.00     0.188 C 
BRANCH  35  36
ATOM     36  C   UNL A   1      38.656  30.940  30.128  1.00  0.00     0.188 C 
BRANCH  36  37
ATOM     37  O   UNL A   1      39.877  30.228  30.053  1.00  0.00    -0.376 OA
BRANCH  37  38
ATOM     38  C   UNL A   1      39.726  28.844  29.823  1.00  0.00     0.202 C 
BRANCH  38  39
ATOM     39  C   UNL A   1      39.759  28.522  28.330  1.00  0.00     0.261 C 
BRANCH  39  40
ATOM     40  O   UNL A   1      40.877  27.648  28.073  1.00  0.00    -0.460 OA
BRANCH  40  41
ATOM     41  C   UNL A   1      41.470  27.831  26.851  1.00  0.00     0.338 C 
ATOM     42  O   UNL A   1      41.167  27.232  25.842  1.00  0.00    -0.246 OA
BRANCH  41  43
ATOM     43  C   UNL A   1      42.726  28.609  27.047  1.00  0.00     0.060 A 
ATOM     44  C   UNL A   1      43.846  28.038  27.611  1.00  0.00     0.016 A 
ATOM     45  C   UNL A   1      42.813  29.958  26.817  1.00  0.00     0.016 A 
ATOM     46  C   UNL A   1      44.766  28.855  28.327  1.00  0.00     0.010 A 
ATOM     47  C   UNL A   1      43.834  30.701  27.461  1.00  0.00     0.010 A 
ATOM     48  C   UNL A   1      44.561  30.220  28.600  1.00  0.00    -0.014 A 
BRANCH  48  49
ATOM     49  C   UNL A   1      44.858  31.010  30.246  1.00  0.00     0.031 A 
ATOM     50  C   UNL A   1      43.609  31.317  31.769  1.00  0.00     0.074 A 
ATOM     51  C   UNL A   1      46.119  31.559  30.171  1.00  0.00     0.049 A 
ATOM     52  N   UNL A   1      43.148  32.550  32.125  1.00  0.00    -0.248 NA
ATOM     53  C   UNL A   1      42.338  30.540  32.389  1.00  0.00     0.031 C 
ATOM     54  C   UNL A   1      46.932  31.924  31.283  1.00  0.00     0.029 A 
ATOM     55  N   UNL A   1      46.869  32.100  29.124  1.00  0.00    -0.354 N 
ATOM     56  C   UNL A   1      41.970  32.734  32.817  1.00  0.00     0.074 A 
ATOM     57  C   UNL A   1      41.436  31.432  32.828  1.00  0.00     0.031 C 
ATOM     58  C   UNL A   1      47.693  32.985  30.986  1.00  0.00     0.029 A 
ATOM     59  C   UNL A   1      47.581  33.196  29.591  1.00  0.00     0.049 A 
ATOM     60  H   UNL A   1      46.890  31.759  28.201  1.00  0.00     0.167 HD
ATOM     61  C   UNL A   1      41.511  33.927  33.337  1.00  0.00     0.034 A 
ATOM     62  C   UNL A   1      47.863  34.336  28.938  1.00  0.00     0.034 A 
ATOM     63  C   UNL A   1      42.530  35.010  33.394  1.00  0.00     0.049 A 
ATOM     64  C   UNL A   1      47.299  35.557  29.633  1.00  0.00     0.074 A 
ATOM     65  C   UNL A   1      43.414  35.357  34.412  1.00  0.00     0.029 A 
ATOM     66  N   UNL A   1      42.926  35.794  32.306  1.00  0.00    -0.354 N 
ATOM     67  N   UNL A   1      46.332  35.547  30.529  1.00  0.00    -0.248 NA
ATOM     68  C   UNL A   1      47.825  36.895  29.399  1.00  0.00     0.031 C 
ATOM     69  C   UNL A   1      44.502  36.073  33.840  1.00  0.00     0.029 A 
ATOM     70  C   UNL A   1      44.210  36.338  32.509  1.00  0.00     0.049 A 
ATOM     71  H   UNL A   1      42.379  35.947  31.502  1.00  0.00     0.167 HD
ATOM     72  C   UNL A   1      46.000  36.846  30.874  1.00  0.00     0.074 A 
ATOM     73  C   UNL A   1      47.054  37.623  30.222  1.00  0.00     0.031 C 
ATOM     74  C   UNL A   1      44.881  37.260  31.578  1.00  0.00     0.034 A 
BRANCH  61  75
ATOM     75  C   UNL A   1      40.238  33.916  34.225  1.00  0.00     0.023 A 
ATOM     76  C   UNL A   1      40.325  33.464  35.560  1.00  0.00     0.012 A 
ATOM     77  C   UNL A   1      38.928  34.227  33.772  1.00  0.00     0.148 A 
ATOM     78  C   UNL A   1      39.186  33.178  36.334  1.00  0.00     0.002 A 
ATOM     79  C   UNL A   1      37.791  33.835  34.496  1.00  0.00     0.091 A 
ATOM     80  F   UNL A   1      38.786  34.942  32.645  1.00  0.00    -0.205 F 
ATOM     81  C   UNL A   1      37.920  33.303  35.781  1.00  0.00     0.022 A 
BRANCH  79  82
ATOM     82  S   UNL A   1      36.126  33.826  33.793  1.00  0.00     0.127 S 
ATOM     83  O   UNL A   1      35.818  35.255  33.706  1.00  0.00    -0.237 OA
ATOM     84  O   UNL A   1      36.325  33.175  32.498  1.00  0.00    -0.237 OA
ATOM     85  O   UNL A   1      35.292  33.092  34.736  1.00  0.00    -0.744 OA
ENDBRANCH  79  82
ENDBRANCH  61  75
BRANCH  62  86
ATOM     86  C   UNL A   1      48.406  34.023  27.582  1.00  0.00     0.023 A 
ATOM     87  C   UNL A   1      47.607  34.569  26.534  1.00  0.00     0.012 A 
ATOM     88  C   UNL A   1      49.782  33.869  27.343  1.00  0.00     0.148 A 
ATOM     89  C   UNL A   1      48.186  35.165  25.411  1.00  0.00     0.002 A 
ATOM     90  C   UNL A   1      50.350  34.438  26.193  1.00  0.00     0.091 A 
ATOM     91  F   UNL A   1      50.534  33.305  28.297  1.00  0.00    -0.205 F 
ATOM     92  C   UNL A   1      49.564  35.136  25.262  1.00  0.00     0.022 A 
BRANCH  90  93
ATOM     93  S   UNL A   1      52.138  34.494  25.974  1.00  0.00     0.127 S 
ATOM     94  O   UNL A   1      52.481  33.077  25.989  1.00  0.00    -0.237 OA
ATOM     95  O   UNL A   1      52.288  35.152  24.676  1.00  0.00    -0.237 OA
ATOM     96  O   UNL A   1      52.595  35.294  27.102  1.00  0.00    -0.744 OA
ENDBRANCH  90  93
ENDBRANCH  62  86
BRANCH  74  97
ATOM     97  C   UNL A   1      44.340  38.702  31.521  1.00  0.00     0.023 A 
ATOM     98  C   UNL A   1      43.387  39.111  30.565  1.00  0.00     0.012 A 
ATOM     99  C   UNL A   1      44.630  39.650  32.542  1.00  0.00     0.148 A 
ATOM    100  C   UNL A   1      42.813  40.387  30.565  1.00  0.00     0.002 A 
ATOM    101  C   UNL A   1      43.953  40.866  32.616  1.00  0.00     0.091 A 
ATOM    102  F   UNL A   1      45.576  39.401  33.455  1.00  0.00    -0.205 F 
ATOM    103  C   UNL A   1      43.071  41.255  31.610  1.00  0.00     0.022 A 
BRANCH 101 104
ATOM    104  S   UNL A   1      44.033  41.885  34.098  1.00  0.00     0.127 S 
ATOM    105  O   UNL A   1      45.223  42.693  33.849  1.00  0.00    -0.237 OA
ATOM    106  O   UNL A   1      42.770  42.625  34.034  1.00  0.00    -0.237 OA
ATOM    107  O   UNL A   1      44.109  40.943  35.206  1.00  0.00    -0.744 OA
ENDBRANCH 101 104
ENDBRANCH  74  97
ENDBRANCH  48  49
ENDBRANCH  41  43
ENDBRANCH  40  41
ENDBRANCH  39  40
ENDBRANCH  38  39
ENDBRANCH  37  38
ENDBRANCH  36  37
ENDBRANCH  35  36
ENDBRANCH   1  35
TORSDOF 26
ENDMDL
