MODEL 1
REMARK VINA RESULT:     -10.1      0.000      0.000
REMARK SMILES Cc1cscc1-c1noc(SCC(=O)OCCOCCOCCOCCOC(=O)c2ccc(-c3c4nc(c(-c5cccc(S(=O)(=O)[O-])c5F)c5ccc([nH]5)c(-c5cccc(S(=O)(=O)[O-])c5F)c5nc(c(-c6cccc(S(=O)(=O)[O-])c6F)c6ccc3[nH]6)C=C5)C=C4)cc2)n1
REMARK SMILES IDX 21 1 20 2 19 3 18 4 17 5 16 6 15 7 13 8 14 9 12 10 11 11
REMARK SMILES IDX 10 12 7 13 8 14 93 15 9 16 6 17 1 18 2 19 3 20 4 21 5 22
REMARK SMILES IDX 22 23 23 24 24 25 25 26 26 27 27 28 28 29 29 30 30 31 31 32
REMARK SMILES IDX 92 33 32 34 91 35 33 36 34 37 35 38 85 39 36 40 90 41 84 42
REMARK SMILES IDX 86 43 37 44 89 45 83 46 82 47 38 49 70 50 50 51 69 52 51 53
REMARK SMILES IDX 54 54 68 55 87 56 52 57 53 58 67 60 88 61 55 62 39 63 40 64
REMARK SMILES IDX 48 65 41 66 43 67 49 68 42 69 44 70 45 71 46 72 47 73 71 74
REMARK SMILES IDX 72 75 80 76 73 77 75 78 81 79 74 80 76 81 77 82 78 83 79 84
REMARK SMILES IDX 56 85 57 86 65 87 58 88 60 89 66 90 59 91 61 92 62 93 63 94
REMARK SMILES IDX 64 95
REMARK H PARENT 86 48 54 59
REMARK Flexibility Score: inf
ROOT
ATOM      1  O   UNL A   1      35.006  24.975  25.303  1.00  0.00    -0.377 OA
ENDROOT
BRANCH   1   2
ATOM      2  C   UNL A   1      34.210  25.699  24.394  1.00  0.00     0.188 C 
BRANCH   2   3
ATOM      3  C   UNL A   1      33.072  26.557  24.978  1.00  0.00     0.188 C 
BRANCH   3   4
ATOM      4  O   UNL A   1      31.987  26.916  24.146  1.00  0.00    -0.376 OA
BRANCH   4   5
ATOM      5  C   UNL A   1      30.702  26.898  24.749  1.00  0.00     0.202 C 
BRANCH   5   6
ATOM      6  C   UNL A   1      30.600  26.540  26.254  1.00  0.00     0.261 C 
BRANCH   6   7
ATOM      7  O   UNL A   1      30.010  25.248  26.598  1.00  0.00    -0.463 OA
BRANCH   7   8
ATOM      8  C   UNL A   1      30.804  24.153  26.473  1.00  0.00     0.316 C 
ATOM      9  O   UNL A   1      31.652  23.845  27.312  1.00  0.00    -0.251 OA
BRANCH   8  10
ATOM     10  C   UNL A   1      30.602  23.249  25.260  1.00  0.00     0.202 C 
BRANCH  10  11
ATOM     11  S   UNL A   1      31.847  23.058  23.990  1.00  0.00    -0.053 SA
BRANCH  11  12
ATOM     12  C   UNL A   1      32.224  21.345  23.767  1.00  0.00     0.286 A 
ATOM     13  C   UNL A   1      32.444  19.229  23.917  1.00  0.00     0.204 A 
ATOM     14  N   UNL A   1      32.204  19.442  22.614  1.00  0.00    -0.056 NA
ATOM     15  N   UNL A   1      32.488  20.403  24.670  1.00  0.00    -0.181 NA
ATOM     16  O   UNL A   1      32.052  20.809  22.516  1.00  0.00    -0.327 OA
BRANCH  13  17
ATOM     17  C   UNL A   1      32.713  17.828  24.375  1.00  0.00     0.036 A 
ATOM     18  C   UNL A   1      34.499  16.813  22.661  1.00  0.00     0.046 C 
ATOM     19  C   UNL A   1      33.595  16.801  23.842  1.00  0.00    -0.029 A 
ATOM     20  C   UNL A   1      33.603  15.673  24.652  1.00  0.00     0.069 A 
ATOM     21  S   UNL A   1      32.658  15.835  26.050  1.00  0.00    -0.151 S 
ATOM     22  C   UNL A   1      32.203  17.413  25.599  1.00  0.00     0.077 A 
ENDBRANCH  13  17
ENDBRANCH  11  12
ENDBRANCH  10  11
ENDBRANCH   8  10
ENDBRANCH   7   8
ENDBRANCH   6   7
ENDBRANCH   5   6
ENDBRANCH   4   5
ENDBRANCH   3   4
ENDBRANCH   2   3
ENDBRANCH   1   2
BRANCH   1  23
ATOM     23  C   UNL A   1      35.833  23.960  24.764  1.00  0.00     0.188 C 
BRANCH  23  24
ATOM     24  C   UNL A   1      35.428  22.567  25.242  1.00  0.00     0.188 C 
BRANCH  24  25
ATOM     25  O   UNL A   1      35.779  21.412  24.474  1.00  0.00    -0.376 OA
BRANCH  25  26
ATOM     26  C   UNL A   1      36.335  20.246  25.077  1.00  0.00     0.202 C 
BRANCH  26  27
ATOM     27  C   UNL A   1      37.838  20.156  24.862  1.00  0.00     0.261 C 
BRANCH  27  28
ATOM     28  O   UNL A   1      38.421  21.350  25.382  1.00  0.00    -0.460 OA
BRANCH  28  29
ATOM     29  C   UNL A   1      39.525  21.129  26.127  1.00  0.00     0.338 C 
ATOM     30  O   UNL A   1      40.239  20.136  26.102  1.00  0.00    -0.246 OA
BRANCH  29  31
ATOM     31  C   UNL A   1      39.881  22.391  26.810  1.00  0.00     0.060 A 
ATOM     32  C   UNL A   1      39.105  23.521  26.523  1.00  0.00     0.016 A 
ATOM     33  C   UNL A   1      40.913  22.458  27.755  1.00  0.00     0.016 A 
ATOM     34  C   UNL A   1      39.384  24.731  27.137  1.00  0.00     0.010 A 
ATOM     35  C   UNL A   1      41.216  23.677  28.351  1.00  0.00     0.010 A 
ATOM     36  C   UNL A   1      40.485  24.818  27.993  1.00  0.00    -0.014 A 
BRANCH  36  37
ATOM     37  C   UNL A   1      41.059  26.151  28.236  1.00  0.00     0.031 A 
ATOM     38  C   UNL A   1      42.451  26.393  27.727  1.00  0.00     0.074 A 
ATOM     39  C   UNL A   1      40.347  27.106  28.850  1.00  0.00     0.049 A 
ATOM     40  N   UNL A   1      43.180  27.470  27.793  1.00  0.00    -0.248 NA
ATOM     41  C   UNL A   1      43.109  25.261  27.047  1.00  0.00     0.031 C 
ATOM     42  C   UNL A   1      38.984  26.951  29.355  1.00  0.00     0.029 A 
ATOM     43  N   UNL A   1      40.688  28.390  29.167  1.00  0.00    -0.354 N 
ATOM     44  C   UNL A   1      44.388  27.140  27.193  1.00  0.00     0.074 A 
ATOM     45  C   UNL A   1      44.304  25.760  26.778  1.00  0.00     0.031 C 
ATOM     46  C   UNL A   1      38.612  28.098  29.950  1.00  0.00     0.029 A 
ATOM     47  C   UNL A   1      39.721  29.048  29.885  1.00  0.00     0.049 A 
ATOM     48  H   UNL A   1      41.542  28.804  28.906  1.00  0.00     0.167 HD
ATOM     49  C   UNL A   1      45.470  27.925  26.997  1.00  0.00     0.034 A 
ATOM     50  C   UNL A   1      39.754  30.273  30.444  1.00  0.00     0.034 A 
ATOM     51  C   UNL A   1      45.531  29.293  27.425  1.00  0.00     0.049 A 
ATOM     52  C   UNL A   1      40.984  31.118  30.243  1.00  0.00     0.074 A 
ATOM     53  C   UNL A   1      46.557  30.201  27.260  1.00  0.00     0.029 A 
ATOM     54  N   UNL A   1      44.525  29.939  28.129  1.00  0.00    -0.354 N 
ATOM     55  N   UNL A   1      42.082  30.835  29.584  1.00  0.00    -0.248 NA
ATOM     56  C   UNL A   1      40.967  32.463  30.832  1.00  0.00     0.031 C 
ATOM     57  C   UNL A   1      46.188  31.386  27.905  1.00  0.00     0.029 A 
ATOM     58  C   UNL A   1      44.911  31.231  28.425  1.00  0.00     0.049 A 
ATOM     59  H   UNL A   1      43.663  29.535  28.380  1.00  0.00     0.167 HD
ATOM     60  C   UNL A   1      42.873  31.976  29.647  1.00  0.00     0.074 A 
ATOM     61  C   UNL A   1      42.116  32.961  30.395  1.00  0.00     0.031 C 
ATOM     62  C   UNL A   1      44.113  32.195  29.141  1.00  0.00     0.034 A 
BRANCH  49  63
ATOM     63  C   UNL A   1      46.660  27.310  26.312  1.00  0.00     0.023 A 
ATOM     64  C   UNL A   1      46.728  27.272  24.903  1.00  0.00     0.012 A 
ATOM     65  C   UNL A   1      47.720  26.774  27.069  1.00  0.00     0.148 A 
ATOM     66  C   UNL A   1      47.812  26.678  24.260  1.00  0.00     0.002 A 
ATOM     67  C   UNL A   1      48.820  26.228  26.420  1.00  0.00     0.091 A 
ATOM     68  F   UNL A   1      47.621  26.788  28.405  1.00  0.00    -0.205 F 
ATOM     69  C   UNL A   1      48.862  26.165  25.017  1.00  0.00     0.022 A 
BRANCH  67  70
ATOM     70  S   UNL A   1      50.257  25.614  27.306  1.00  0.00     0.127 S 
ATOM     71  O   UNL A   1      51.306  25.749  26.295  1.00  0.00    -0.237 OA
ATOM     72  O   UNL A   1      50.356  26.559  28.417  1.00  0.00    -0.237 OA
ATOM     73  O   UNL A   1      49.937  24.248  27.693  1.00  0.00    -0.744 OA
ENDBRANCH  67  70
ENDBRANCH  49  63
BRANCH  50  74
ATOM     74  C   UNL A   1      38.582  30.767  31.218  1.00  0.00     0.023 A 
ATOM     75  C   UNL A   1      38.565  30.643  32.620  1.00  0.00     0.012 A 
ATOM     76  C   UNL A   1      37.500  31.393  30.569  1.00  0.00     0.148 A 
ATOM     77  C   UNL A   1      37.475  31.106  33.360  1.00  0.00     0.002 A 
ATOM     78  C   UNL A   1      36.445  31.903  31.317  1.00  0.00     0.091 A 
ATOM     79  F   UNL A   1      37.532  31.493  29.233  1.00  0.00    -0.205 F 
ATOM     80  C   UNL A   1      36.422  31.745  32.710  1.00  0.00     0.022 A 
BRANCH  78  81
ATOM     81  S   UNL A   1      35.110  32.852  30.579  1.00  0.00     0.127 S 
ATOM     82  O   UNL A   1      34.189  32.996  31.703  1.00  0.00    -0.237 OA
ATOM     83  O   UNL A   1      35.800  34.081  30.184  1.00  0.00    -0.237 OA
ATOM     84  O   UNL A   1      34.623  32.051  29.464  1.00  0.00    -0.744 OA
ENDBRANCH  78  81
ENDBRANCH  50  74
BRANCH  62  85
ATOM     85  C   UNL A   1      44.711  33.562  29.339  1.00  0.00     0.023 A 
ATOM     86  C   UNL A   1      45.447  33.850  30.504  1.00  0.00     0.012 A 
ATOM     87  C   UNL A   1      44.608  34.534  28.324  1.00  0.00     0.148 A 
ATOM     88  C   UNL A   1      46.040  35.101  30.673  1.00  0.00     0.002 A 
ATOM     89  C   UNL A   1      45.250  35.755  28.474  1.00  0.00     0.091 A 
ATOM     90  F   UNL A   1      43.890  34.242  27.229  1.00  0.00    -0.205 F 
ATOM     91  C   UNL A   1      45.952  36.047  29.654  1.00  0.00     0.022 A 
BRANCH  89  92
ATOM     92  S   UNL A   1      45.282  36.990  27.171  1.00  0.00     0.127 S 
ATOM     93  O   UNL A   1      43.859  37.131  26.861  1.00  0.00    -0.237 OA
ATOM     94  O   UNL A   1      45.875  38.141  27.851  1.00  0.00    -0.237 OA
ATOM     95  O   UNL A   1      46.099  36.430  26.103  1.00  0.00    -0.744 OA
ENDBRANCH  89  92
ENDBRANCH  62  85
ENDBRANCH  36  37
ENDBRANCH  29  31
ENDBRANCH  28  29
ENDBRANCH  27  28
ENDBRANCH  26  27
ENDBRANCH  25  26
ENDBRANCH  24  25
ENDBRANCH  23  24
ENDBRANCH   1  23
TORSDOF 26
ENDMDL
MODEL 2
REMARK VINA RESULT:      -9.2      2.276      4.415
REMARK SMILES Cc1cscc1-c1noc(SCC(=O)OCCOCCOCCOCCOC(=O)c2ccc(-c3c4nc(c(-c5cccc(S(=O)(=O)[O-])c5F)c5ccc([nH]5)c(-c5cccc(S(=O)(=O)[O-])c5F)c5nc(c(-c6cccc(S(=O)(=O)[O-])c6F)c6ccc3[nH]6)C=C5)C=C4)cc2)n1
REMARK SMILES IDX 21 1 20 2 19 3 18 4 17 5 16 6 15 7 13 8 14 9 12 10 11 11
REMARK SMILES IDX 10 12 7 13 8 14 93 15 9 16 6 17 1 18 2 19 3 20 4 21 5 22
REMARK SMILES IDX 22 23 23 24 24 25 25 26 26 27 27 28 28 29 29 30 30 31 31 32
REMARK SMILES IDX 92 33 32 34 91 35 33 36 34 37 35 38 85 39 36 40 90 41 84 42
REMARK SMILES IDX 86 43 37 44 89 45 83 46 82 47 38 49 70 50 50 51 69 52 51 53
REMARK SMILES IDX 54 54 68 55 87 56 52 57 53 58 67 60 88 61 55 62 39 63 40 64
REMARK SMILES IDX 48 65 41 66 43 67 49 68 42 69 44 70 45 71 46 72 47 73 71 74
REMARK SMILES IDX 72 75 80 76 73 77 75 78 81 79 74 80 76 81 77 82 78 83 79 84
REMARK SMILES IDX 56 85 57 86 65 87 58 88 60 89 66 90 59 91 61 92 62 93 63 94
REMARK SMILES IDX 64 95
REMARK H PARENT 86 48 54 59
REMARK Flexibility Score: inf
ROOT
ATOM      1  O   UNL A   1      33.653  23.299  27.001  1.00  0.00    -0.377 OA
ENDROOT
BRANCH   1   2
ATOM      2  C   UNL A   1      32.367  23.392  26.435  1.00  0.00     0.188 C 
BRANCH   2   3
ATOM      3  C   UNL A   1      31.942  22.280  25.458  1.00  0.00     0.188 C 
BRANCH   3   4
ATOM      4  O   UNL A   1      31.465  22.639  24.177  1.00  0.00    -0.376 OA
BRANCH   4   5
ATOM      5  C   UNL A   1      32.313  22.323  23.082  1.00  0.00     0.202 C 
BRANCH   5   6
ATOM      6  C   UNL A   1      33.465  23.300  22.737  1.00  0.00     0.261 C 
BRANCH   6   7
ATOM      7  O   UNL A   1      33.215  24.292  21.694  1.00  0.00    -0.463 OA
BRANCH   7   8
ATOM      8  C   UNL A   1      32.873  25.543  22.099  1.00  0.00     0.316 C 
ATOM      9  O   UNL A   1      33.703  26.377  22.463  1.00  0.00    -0.251 OA
BRANCH   8  10
ATOM     10  C   UNL A   1      31.399  25.937  22.060  1.00  0.00     0.202 C 
BRANCH  10  11
ATOM     11  S   UNL A   1      30.399  26.056  23.538  1.00  0.00    -0.053 SA
BRANCH  11  12
ATOM     12  C   UNL A   1      31.310  26.865  24.819  1.00  0.00     0.286 A 
ATOM     13  C   UNL A   1      32.302  28.240  26.115  1.00  0.00     0.204 A 
ATOM     14  N   UNL A   1      31.730  27.358  26.948  1.00  0.00    -0.056 NA
ATOM     15  N   UNL A   1      32.080  27.951  24.767  1.00  0.00    -0.181 NA
ATOM     16  O   UNL A   1      31.080  26.473  26.114  1.00  0.00    -0.327 OA
BRANCH  13  17
ATOM     17  C   UNL A   1      33.146  29.332  26.696  1.00  0.00     0.036 A 
ATOM     18  C   UNL A   1      31.631  31.537  26.674  1.00  0.00     0.046 C 
ATOM     19  C   UNL A   1      32.856  30.737  26.940  1.00  0.00    -0.029 A 
ATOM     20  C   UNL A   1      33.909  31.364  27.594  1.00  0.00     0.069 A 
ATOM     21  S   UNL A   1      35.183  30.316  27.986  1.00  0.00    -0.151 S 
ATOM     22  C   UNL A   1      34.365  29.002  27.276  1.00  0.00     0.077 A 
ENDBRANCH  13  17
ENDBRANCH  11  12
ENDBRANCH  10  11
ENDBRANCH   8  10
ENDBRANCH   7   8
ENDBRANCH   6   7
ENDBRANCH   5   6
ENDBRANCH   4   5
ENDBRANCH   3   4
ENDBRANCH   2   3
ENDBRANCH   1   2
BRANCH   1  23
ATOM     23  C   UNL A   1      34.734  23.101  26.108  1.00  0.00     0.188 C 
BRANCH  23  24
ATOM     24  C   UNL A   1      35.495  21.808  26.396  1.00  0.00     0.188 C 
BRANCH  24  25
ATOM     25  O   UNL A   1      35.729  20.861  25.348  1.00  0.00    -0.376 OA
BRANCH  25  26
ATOM     26  C   UNL A   1      37.012  20.701  24.749  1.00  0.00     0.202 C 
BRANCH  26  27
ATOM     27  C   UNL A   1      38.031  21.677  25.319  1.00  0.00     0.261 C 
BRANCH  27  28
ATOM     28  O   UNL A   1      38.752  20.997  26.345  1.00  0.00    -0.460 OA
BRANCH  28  29
ATOM     29  C   UNL A   1      40.083  21.224  26.307  1.00  0.00     0.338 C 
ATOM     30  O   UNL A   1      40.919  20.579  25.690  1.00  0.00    -0.246 OA
BRANCH  29  31
ATOM     31  C   UNL A   1      40.346  22.534  26.939  1.00  0.00     0.060 A 
ATOM     32  C   UNL A   1      39.648  23.642  26.442  1.00  0.00     0.016 A 
ATOM     33  C   UNL A   1      41.212  22.671  28.033  1.00  0.00     0.016 A 
ATOM     34  C   UNL A   1      39.845  24.895  26.999  1.00  0.00     0.010 A 
ATOM     35  C   UNL A   1      41.436  23.932  28.573  1.00  0.00     0.010 A 
ATOM     36  C   UNL A   1      40.794  25.045  28.013  1.00  0.00    -0.014 A 
BRANCH  36  37
ATOM     37  C   UNL A   1      41.345  26.389  28.243  1.00  0.00     0.031 A 
ATOM     38  C   UNL A   1      42.703  26.672  27.669  1.00  0.00     0.074 A 
ATOM     39  C   UNL A   1      40.639  27.319  28.901  1.00  0.00     0.049 A 
ATOM     40  N   UNL A   1      43.407  27.768  27.712  1.00  0.00    -0.248 NA
ATOM     41  C   UNL A   1      43.357  25.564  26.946  1.00  0.00     0.031 C 
ATOM     42  C   UNL A   1      39.307  27.125  29.470  1.00  0.00     0.029 A 
ATOM     43  N   UNL A   1      40.962  28.610  29.214  1.00  0.00    -0.354 N 
ATOM     44  C   UNL A   1      44.592  27.475  27.050  1.00  0.00     0.074 A 
ATOM     45  C   UNL A   1      44.524  26.097  26.624  1.00  0.00     0.031 C 
ATOM     46  C   UNL A   1      38.936  28.256  30.094  1.00  0.00     0.029 A 
ATOM     47  C   UNL A   1      40.015  29.235  29.986  1.00  0.00     0.049 A 
ATOM     48  H   UNL A   1      41.792  29.048  28.917  1.00  0.00     0.167 HD
ATOM     49  C   UNL A   1      45.643  28.290  26.810  1.00  0.00     0.034 A 
ATOM     50  C   UNL A   1      40.043  30.455  30.556  1.00  0.00     0.034 A 
ATOM     51  C   UNL A   1      45.690  29.654  27.250  1.00  0.00     0.049 A 
ATOM     52  C   UNL A   1      41.240  31.334  30.305  1.00  0.00     0.074 A 
ATOM     53  C   UNL A   1      46.683  30.591  27.045  1.00  0.00     0.029 A 
ATOM     54  N   UNL A   1      44.703  30.267  28.008  1.00  0.00    -0.354 N 
ATOM     55  N   UNL A   1      42.312  31.085  29.590  1.00  0.00    -0.248 NA
ATOM     56  C   UNL A   1      41.218  32.672  30.908  1.00  0.00     0.031 C 
ATOM     57  C   UNL A   1      46.316  31.760  27.720  1.00  0.00     0.029 A 
ATOM     58  C   UNL A   1      45.070  31.566  28.299  1.00  0.00     0.049 A 
ATOM     59  H   UNL A   1      43.865  29.839  28.297  1.00  0.00     0.167 HD
ATOM     60  C   UNL A   1      43.076  32.246  29.627  1.00  0.00     0.074 A 
ATOM     61  C   UNL A   1      42.331  33.203  30.422  1.00  0.00     0.031 C 
ATOM     62  C   UNL A   1      44.284  32.502  29.064  1.00  0.00     0.034 A 
BRANCH  49  63
ATOM     63  C   UNL A   1      46.814  27.713  26.062  1.00  0.00     0.023 A 
ATOM     64  C   UNL A   1      46.910  27.870  24.663  1.00  0.00     0.012 A 
ATOM     65  C   UNL A   1      47.827  27.017  26.749  1.00  0.00     0.148 A 
ATOM     66  C   UNL A   1      47.975  27.313  23.957  1.00  0.00     0.002 A 
ATOM     67  C   UNL A   1      48.911  26.509  26.045  1.00  0.00     0.091 A 
ATOM     68  F   UNL A   1      47.700  26.848  28.073  1.00  0.00    -0.205 F 
ATOM     69  C   UNL A   1      48.980  26.642  24.649  1.00  0.00     0.022 A 
BRANCH  67  70
ATOM     70  S   UNL A   1      50.293  25.697  26.855  1.00  0.00     0.127 S 
ATOM     71  O   UNL A   1      50.724  26.725  27.803  1.00  0.00    -0.237 OA
ATOM     72  O   UNL A   1      49.649  24.535  27.466  1.00  0.00    -0.237 OA
ATOM     73  O   UNL A   1      51.248  25.382  25.802  1.00  0.00    -0.744 OA
ENDBRANCH  67  70
ENDBRANCH  49  63
BRANCH  50  74
ATOM     74  C   UNL A   1      38.899  30.910  31.391  1.00  0.00     0.023 A 
ATOM     75  C   UNL A   1      38.852  30.579  32.758  1.00  0.00     0.012 A 
ATOM     76  C   UNL A   1      37.873  31.703  30.840  1.00  0.00     0.148 A 
ATOM     77  C   UNL A   1      37.788  31.004  33.556  1.00  0.00     0.002 A 
ATOM     78  C   UNL A   1      36.847  32.170  31.652  1.00  0.00     0.091 A 
ATOM     79  F   UNL A   1      37.932  32.000  29.534  1.00  0.00    -0.205 F 
ATOM     80  C   UNL A   1      36.792  31.808  33.006  1.00  0.00     0.022 A 
BRANCH  78  81
ATOM     81  S   UNL A   1      35.594  33.313  31.061  1.00  0.00     0.127 S 
ATOM     82  O   UNL A   1      36.205  33.819  29.835  1.00  0.00    -0.237 OA
ATOM     83  O   UNL A   1      34.449  32.423  30.859  1.00  0.00    -0.237 OA
ATOM     84  O   UNL A   1      35.414  34.291  32.125  1.00  0.00    -0.744 OA
ENDBRANCH  78  81
ENDBRANCH  50  74
BRANCH  62  85
ATOM     85  C   UNL A   1      44.855  33.883  29.247  1.00  0.00     0.023 A 
ATOM     86  C   UNL A   1      45.831  34.118  30.235  1.00  0.00     0.012 A 
ATOM     87  C   UNL A   1      44.479  34.926  28.379  1.00  0.00     0.148 A 
ATOM     88  C   UNL A   1      46.396  35.385  30.380  1.00  0.00     0.002 A 
ATOM     89  C   UNL A   1      45.088  36.168  28.492  1.00  0.00     0.091 A 
ATOM     90  F   UNL A   1      43.538  34.681  27.455  1.00  0.00    -0.205 F 
ATOM     91  C   UNL A   1      46.034  36.404  29.502  1.00  0.00     0.022 A 
BRANCH  89  92
ATOM     92  S   UNL A   1      44.765  37.505  27.338  1.00  0.00     0.127 S 
ATOM     93  O   UNL A   1      43.513  37.068  26.720  1.00  0.00    -0.237 OA
ATOM     94  O   UNL A   1      44.636  38.657  28.230  1.00  0.00    -0.237 OA
ATOM     95  O   UNL A   1      45.915  37.555  26.446  1.00  0.00    -0.744 OA
ENDBRANCH  89  92
ENDBRANCH  62  85
ENDBRANCH  36  37
ENDBRANCH  29  31
ENDBRANCH  28  29
ENDBRANCH  27  28
ENDBRANCH  26  27
ENDBRANCH  25  26
ENDBRANCH  24  25
ENDBRANCH  23  24
ENDBRANCH   1  23
TORSDOF 26
ENDMDL
MODEL 3
REMARK VINA RESULT:      -8.8      2.958      4.831
REMARK SMILES Cc1cscc1-c1noc(SCC(=O)OCCOCCOCCOCCOC(=O)c2ccc(-c3c4nc(c(-c5cccc(S(=O)(=O)[O-])c5F)c5ccc([nH]5)c(-c5cccc(S(=O)(=O)[O-])c5F)c5nc(c(-c6cccc(S(=O)(=O)[O-])c6F)c6ccc3[nH]6)C=C5)C=C4)cc2)n1
REMARK SMILES IDX 21 1 20 2 19 3 18 4 17 5 16 6 15 7 13 8 14 9 12 10 11 11
REMARK SMILES IDX 10 12 7 13 8 14 93 15 9 16 6 17 1 18 2 19 3 20 4 21 5 22
REMARK SMILES IDX 22 23 23 24 24 25 25 26 26 27 27 28 28 29 29 30 30 31 31 32
REMARK SMILES IDX 92 33 32 34 91 35 33 36 34 37 35 38 85 39 36 40 90 41 84 42
REMARK SMILES IDX 86 43 37 44 89 45 83 46 82 47 38 49 70 50 50 51 69 52 51 53
REMARK SMILES IDX 54 54 68 55 87 56 52 57 53 58 67 60 88 61 55 62 39 63 40 64
REMARK SMILES IDX 48 65 41 66 43 67 49 68 42 69 44 70 45 71 46 72 47 73 71 74
REMARK SMILES IDX 72 75 80 76 73 77 75 78 81 79 74 80 76 81 77 82 78 83 79 84
REMARK SMILES IDX 56 85 57 86 65 87 58 88 60 89 66 90 59 91 61 92 62 93 63 94
REMARK SMILES IDX 64 95
REMARK H PARENT 86 48 54 59
REMARK Flexibility Score: inf
ROOT
ATOM      1  O   UNL A   1      33.952  23.190  27.089  1.00  0.00    -0.377 OA
ENDROOT
BRANCH   1   2
ATOM      2  C   UNL A   1      32.871  23.574  26.272  1.00  0.00     0.188 C 
BRANCH   2   3
ATOM      3  C   UNL A   1      32.509  22.648  25.096  1.00  0.00     0.188 C 
BRANCH   3   4
ATOM      4  O   UNL A   1      31.516  23.061  24.179  1.00  0.00    -0.376 OA
BRANCH   4   5
ATOM      5  C   UNL A   1      31.763  22.764  22.813  1.00  0.00     0.202 C 
BRANCH   5   6
ATOM      6  C   UNL A   1      33.160  23.093  22.228  1.00  0.00     0.261 C 
BRANCH   6   7
ATOM      7  O   UNL A   1      33.229  24.120  21.191  1.00  0.00    -0.463 OA
BRANCH   7   8
ATOM      8  C   UNL A   1      33.165  25.414  21.596  1.00  0.00     0.316 C 
ATOM      9  O   UNL A   1      34.140  26.025  22.034  1.00  0.00    -0.251 OA
BRANCH   8  10
ATOM     10  C   UNL A   1      31.833  26.148  21.460  1.00  0.00     0.202 C 
BRANCH  10  11
ATOM     11  S   UNL A   1      30.734  26.404  22.848  1.00  0.00    -0.053 SA
BRANCH  11  12
ATOM     12  C   UNL A   1      31.633  27.073  24.215  1.00  0.00     0.286 A 
ATOM     13  C   UNL A   1      32.540  28.301  25.706  1.00  0.00     0.204 A 
ATOM     14  N   UNL A   1      32.158  27.203  26.374  1.00  0.00    -0.056 NA
ATOM     15  N   UNL A   1      32.248  28.248  24.342  1.00  0.00    -0.181 NA
ATOM     16  O   UNL A   1      31.563  26.410  25.414  1.00  0.00    -0.327 OA
BRANCH  13  17
ATOM     17  C   UNL A   1      33.279  29.371  26.449  1.00  0.00     0.036 A 
ATOM     18  C   UNL A   1      31.577  31.421  26.692  1.00  0.00     0.046 C 
ATOM     19  C   UNL A   1      32.865  30.699  26.875  1.00  0.00    -0.029 A 
ATOM     20  C   UNL A   1      33.851  31.317  27.632  1.00  0.00     0.069 A 
ATOM     21  S   UNL A   1      35.208  30.338  27.906  1.00  0.00    -0.151 S 
ATOM     22  C   UNL A   1      34.516  29.069  27.007  1.00  0.00     0.077 A 
ENDBRANCH  13  17
ENDBRANCH  11  12
ENDBRANCH  10  11
ENDBRANCH   8  10
ENDBRANCH   7   8
ENDBRANCH   6   7
ENDBRANCH   5   6
ENDBRANCH   4   5
ENDBRANCH   3   4
ENDBRANCH   2   3
ENDBRANCH   1   2
BRANCH   1  23
ATOM     23  C   UNL A   1      35.220  23.085  26.467  1.00  0.00     0.188 C 
BRANCH  23  24
ATOM     24  C   UNL A   1      35.772  21.661  26.513  1.00  0.00     0.188 C 
BRANCH  24  25
ATOM     25  O   UNL A   1      36.038  20.953  25.298  1.00  0.00    -0.376 OA
BRANCH  25  26
ATOM     26  C   UNL A   1      37.299  21.033  24.639  1.00  0.00     0.202 C 
BRANCH  26  27
ATOM     27  C   UNL A   1      38.304  21.854  25.433  1.00  0.00     0.261 C 
BRANCH  27  28
ATOM     28  O   UNL A   1      38.919  20.984  26.381  1.00  0.00    -0.460 OA
BRANCH  28  29
ATOM     29  C   UNL A   1      40.259  21.139  26.462  1.00  0.00     0.338 C 
ATOM     30  O   UNL A   1      41.111  20.422  25.956  1.00  0.00    -0.246 OA
BRANCH  29  31
ATOM     31  C   UNL A   1      40.534  22.461  27.062  1.00  0.00     0.060 A 
ATOM     32  C   UNL A   1      39.786  23.550  26.595  1.00  0.00     0.016 A 
ATOM     33  C   UNL A   1      41.462  22.628  28.099  1.00  0.00     0.016 A 
ATOM     34  C   UNL A   1      39.993  24.813  27.124  1.00  0.00     0.010 A 
ATOM     35  C   UNL A   1      41.695  23.899  28.610  1.00  0.00     0.010 A 
ATOM     36  C   UNL A   1      40.999  24.993  28.077  1.00  0.00    -0.014 A 
BRANCH  36  37
ATOM     37  C   UNL A   1      41.537  26.350  28.257  1.00  0.00     0.031 A 
ATOM     38  C   UNL A   1      42.891  26.626  27.670  1.00  0.00     0.074 A 
ATOM     39  C   UNL A   1      40.824  27.296  28.883  1.00  0.00     0.049 A 
ATOM     40  N   UNL A   1      43.585  27.729  27.671  1.00  0.00    -0.248 NA
ATOM     41  C   UNL A   1      43.554  25.499  26.985  1.00  0.00     0.031 C 
ATOM     42  C   UNL A   1      39.495  27.109  29.463  1.00  0.00     0.029 A 
ATOM     43  N   UNL A   1      41.135  28.600  29.150  1.00  0.00    -0.354 N 
ATOM     44  C   UNL A   1      44.771  27.424  27.017  1.00  0.00     0.074 A 
ATOM     45  C   UNL A   1      44.715  26.031  26.641  1.00  0.00     0.031 C 
ATOM     46  C   UNL A   1      39.114  28.258  30.047  1.00  0.00     0.029 A 
ATOM     47  C   UNL A   1      40.184  29.243  29.901  1.00  0.00     0.049 A 
ATOM     48  H   UNL A   1      41.960  29.035  28.835  1.00  0.00     0.167 HD
ATOM     49  C   UNL A   1      45.813  28.240  26.745  1.00  0.00     0.034 A 
ATOM     50  C   UNL A   1      40.202  30.483  30.427  1.00  0.00     0.034 A 
ATOM     51  C   UNL A   1      45.848  29.620  27.136  1.00  0.00     0.049 A 
ATOM     52  C   UNL A   1      41.389  31.364  30.142  1.00  0.00     0.074 A 
ATOM     53  C   UNL A   1      46.831  30.558  26.896  1.00  0.00     0.029 A 
ATOM     54  N   UNL A   1      44.857  30.250  27.875  1.00  0.00    -0.354 N 
ATOM     55  N   UNL A   1      42.462  31.100  29.433  1.00  0.00    -0.248 NA
ATOM     56  C   UNL A   1      41.355  32.723  30.697  1.00  0.00     0.031 C 
ATOM     57  C   UNL A   1      46.454  31.746  27.529  1.00  0.00     0.029 A 
ATOM     58  C   UNL A   1      45.212  31.562  28.118  1.00  0.00     0.049 A 
ATOM     59  H   UNL A   1      44.024  29.824  28.181  1.00  0.00     0.167 HD
ATOM     60  C   UNL A   1      43.214  32.269  29.426  1.00  0.00     0.074 A 
ATOM     61  C   UNL A   1      42.462  33.247  30.189  1.00  0.00     0.031 C 
ATOM     62  C   UNL A   1      44.418  32.517  28.851  1.00  0.00     0.034 A 
BRANCH  49  63
ATOM     63  C   UNL A   1      46.988  27.648  26.015  1.00  0.00     0.023 A 
ATOM     64  C   UNL A   1      47.917  26.839  26.702  1.00  0.00     0.012 A 
ATOM     65  C   UNL A   1      47.167  27.889  24.639  1.00  0.00     0.148 A 
ATOM     66  C   UNL A   1      49.025  26.311  26.041  1.00  0.00     0.002 A 
ATOM     67  C   UNL A   1      48.246  27.318  23.976  1.00  0.00     0.091 A 
ATOM     68  F   UNL A   1      46.293  28.689  24.012  1.00  0.00    -0.205 F 
ATOM     69  C   UNL A   1      49.184  26.542  24.677  1.00  0.00     0.022 A 
BRANCH  67  70
ATOM     70  S   UNL A   1      48.494  27.493  22.206  1.00  0.00     0.127 S 
ATOM     71  O   UNL A   1      49.648  28.390  22.158  1.00  0.00    -0.237 OA
ATOM     72  O   UNL A   1      48.774  26.116  21.801  1.00  0.00    -0.237 OA
ATOM     73  O   UNL A   1      47.254  28.043  21.678  1.00  0.00    -0.744 OA
ENDBRANCH  67  70
ENDBRANCH  49  63
BRANCH  50  74
ATOM     74  C   UNL A   1      39.055  30.957  31.249  1.00  0.00     0.023 A 
ATOM     75  C   UNL A   1      39.032  30.705  32.633  1.00  0.00     0.012 A 
ATOM     76  C   UNL A   1      38.002  31.689  30.665  1.00  0.00     0.148 A 
ATOM     77  C   UNL A   1      37.966  31.149  33.418  1.00  0.00     0.002 A 
ATOM     78  C   UNL A   1      36.973  32.176  31.462  1.00  0.00     0.091 A 
ATOM     79  F   UNL A   1      38.038  31.909  29.343  1.00  0.00    -0.205 F 
ATOM     80  C   UNL A   1      36.943  31.893  32.835  1.00  0.00     0.022 A 
BRANCH  78  81
ATOM     81  S   UNL A   1      35.683  33.249  30.820  1.00  0.00     0.127 S 
ATOM     82  O   UNL A   1      34.496  32.411  30.967  1.00  0.00    -0.237 OA
ATOM     83  O   UNL A   1      35.755  34.385  31.740  1.00  0.00    -0.237 OA
ATOM     84  O   UNL A   1      36.070  33.560  29.451  1.00  0.00    -0.744 OA
ENDBRANCH  78  81
ENDBRANCH  50  74
BRANCH  62  85
ATOM     85  C   UNL A   1      44.977  33.908  28.984  1.00  0.00     0.023 A 
ATOM     86  C   UNL A   1      44.657  34.892  28.028  1.00  0.00     0.012 A 
ATOM     87  C   UNL A   1      45.754  34.256  30.106  1.00  0.00     0.148 A 
ATOM     88  C   UNL A   1      45.135  36.194  28.170  1.00  0.00     0.002 A 
ATOM     89  C   UNL A   1      46.177  35.567  30.270  1.00  0.00     0.091 A 
ATOM     90  F   UNL A   1      46.057  33.298  30.995  1.00  0.00    -0.205 F 
ATOM     91  C   UNL A   1      45.883  36.534  29.295  1.00  0.00     0.022 A 
BRANCH  89  92
ATOM     92  S   UNL A   1      47.051  36.119  31.738  1.00  0.00     0.127 S 
ATOM     93  O   UNL A   1      48.295  35.355  31.647  1.00  0.00    -0.237 OA
ATOM     94  O   UNL A   1      47.195  37.553  31.491  1.00  0.00    -0.237 OA
ATOM     95  O   UNL A   1      46.195  35.782  32.868  1.00  0.00    -0.744 OA
ENDBRANCH  89  92
ENDBRANCH  62  85
ENDBRANCH  36  37
ENDBRANCH  29  31
ENDBRANCH  28  29
ENDBRANCH  27  28
ENDBRANCH  26  27
ENDBRANCH  25  26
ENDBRANCH  24  25
ENDBRANCH  23  24
ENDBRANCH   1  23
TORSDOF 26
ENDMDL
