MODEL 1
REMARK VINA RESULT:      -8.7      0.000      0.000
REMARK SMILES O=C(N[C@@H](Cc1ccccc1)C(=O)N[C@@H](CS)C(=O)N[C@@H](CO)C(=O)OCCOCCOCCOCCOC(=O)c1ccc(-c2c3nc(c(-c4cccc(S(=O)(=O)[O-])c4F)c4ccc([nH]4)c(-c4cccc(S(=O)(=O)[O-])c4F)c4nc(c(-c5cccc(S(=O)(=O)[O-])c5F)c5ccc2[nH]5)C=C4)C=C3)cc1)c1ccc(F)cc1
REMARK SMILES IDX 30 1 29 2 28 3 27 4 26 5 24 6 25 7 21 8 20 9 18 10 19 11
REMARK SMILES IDX 15 13 14 14 12 15 13 16 4 18 3 19 1 20 2 21 104 23 105 24
REMARK SMILES IDX 110 25 106 26 109 27 107 28 108 29 5 30 6 31 7 32 11 33 8 34
REMARK SMILES IDX 10 35 9 36 16 37 17 38 22 40 23 41 31 43 32 44 33 45 34 46
REMARK SMILES IDX 35 47 36 48 37 49 38 50 39 51 40 52 41 53 42 54 103 55 43 56
REMARK SMILES IDX 102 57 44 58 45 59 46 60 96 61 47 62 101 63 95 64 97 65
REMARK SMILES IDX 48 66 100 67 94 68 93 69 49 71 81 72 61 73 80 74 62 75 65 76
REMARK SMILES IDX 79 77 98 78 63 79 64 80 78 82 99 83 66 84 50 85 51 86 59 87
REMARK SMILES IDX 52 88 54 89 60 90 53 91 55 92 56 93 57 94 58 95 82 96 83 97
REMARK SMILES IDX 91 98 84 99 86 100 92 101 85 102 87 103 88 104 89 105 90 106
REMARK SMILES IDX 67 107 68 108 76 109 69 110 71 111 77 112 70 113 72 114
REMARK SMILES IDX 73 115 74 116 75 117
REMARK H PARENT 20 12 14 17 3 22 17 39 23 42 97 70 65 81
REMARK Flexibility Score: inf
ROOT
ATOM      1  C   UNL A   1      39.797  22.488  26.906  1.00  0.00     0.188 C 
ENDROOT
BRANCH   1   2
ATOM      2  O   UNL A   1      38.980  22.555  25.744  1.00  0.00    -0.376 OA
BRANCH   2   3
ATOM      3  C   UNL A   1      38.168  21.447  25.373  1.00  0.00     0.202 C 
BRANCH   3   4
ATOM      4  C   UNL A   1      36.714  21.634  24.905  1.00  0.00     0.261 C 
BRANCH   4   5
ATOM      5  O   UNL A   1      36.528  22.613  23.876  1.00  0.00    -0.462 OA
BRANCH   5   6
ATOM      6  C   UNL A   1      35.251  23.005  23.627  1.00  0.00     0.331 C 
ATOM      7  O   UNL A   1      34.894  23.713  22.692  1.00  0.00    -0.250 OA
BRANCH   6   8
ATOM      8  C   UNL A   1      34.272  22.480  24.689  1.00  0.00     0.218 C 
BRANCH   8   9
ATOM      9  N   UNL A   1      33.756  23.500  25.613  1.00  0.00    -0.339 N 
ATOM     10  C   UNL A   1      33.527  24.787  25.235  1.00  0.00     0.244 C 
ATOM     11  O   UNL A   1      34.434  25.602  25.423  1.00  0.00    -0.273 OA
ATOM     12  H   UNL A   1      33.569  23.242  26.545  1.00  0.00     0.164 HD
BRANCH  10  13
ATOM     13  C   UNL A   1      32.201  25.205  24.533  1.00  0.00     0.181 C 
BRANCH  13  14
ATOM     14  N   UNL A   1      32.498  25.432  23.125  1.00  0.00    -0.342 N 
ATOM     15  C   UNL A   1      32.483  26.605  22.431  1.00  0.00     0.243 C 
ATOM     16  O   UNL A   1      33.252  26.670  21.464  1.00  0.00    -0.273 OA
ATOM     17  H   UNL A   1      32.744  24.633  22.606  1.00  0.00     0.164 HD
BRANCH  15  18
ATOM     18  C   UNL A   1      31.516  27.784  22.728  1.00  0.00     0.176 C 
BRANCH  18  19
ATOM     19  N   UNL A   1      30.178  27.301  23.094  1.00  0.00    -0.340 N 
ATOM     20  O   UNL A   1      27.961  27.462  23.509  1.00  0.00    -0.269 OA
ATOM     21  C   UNL A   1      28.998  28.010  23.148  1.00  0.00     0.251 C 
ATOM     22  H   UNL A   1      30.118  26.348  23.332  1.00  0.00     0.164 HD
BRANCH  21  23
ATOM     23  C   UNL A   1      28.995  29.466  22.865  1.00  0.00     0.040 A 
ATOM     24  C   UNL A   1      29.052  30.417  23.892  1.00  0.00     0.017 A 
ATOM     25  C   UNL A   1      28.863  29.877  21.533  1.00  0.00     0.017 A 
ATOM     26  C   UNL A   1      28.849  31.767  23.599  1.00  0.00     0.040 A 
ATOM     27  C   UNL A   1      28.691  31.232  21.241  1.00  0.00     0.040 A 
ATOM     28  C   UNL A   1      28.658  32.160  22.279  1.00  0.00     0.123 A 
ATOM     29  F   UNL A   1      28.432  33.450  22.001  1.00  0.00    -0.207 F 
ENDBRANCH  21  23
ENDBRANCH  18  19
BRANCH  18  30
ATOM     30  C   UNL A   1      32.009  29.021  23.502  1.00  0.00     0.070 C 
BRANCH  30  31
ATOM     31  C   UNL A   1      32.456  28.876  24.932  1.00  0.00    -0.045 A 
ATOM     32  C   UNL A   1      31.504  28.624  25.930  1.00  0.00     0.004 A 
ATOM     33  C   UNL A   1      33.805  28.986  25.298  1.00  0.00     0.004 A 
ATOM     34  C   UNL A   1      31.875  28.580  27.273  1.00  0.00     0.000 A 
ATOM     35  C   UNL A   1      34.179  28.905  26.642  1.00  0.00     0.000 A 
ATOM     36  C   UNL A   1      33.211  28.725  27.629  1.00  0.00     0.000 A 
ENDBRANCH  30  31
ENDBRANCH  18  30
ENDBRANCH  15  18
ENDBRANCH  13  14
BRANCH  13  37
ATOM     37  C   UNL A   1      30.880  24.490  24.815  1.00  0.00     0.101 C 
BRANCH  37  38
ATOM     38  S   UNL A   1      29.993  24.878  26.353  1.00  0.00    -0.177 SA
ATOM     39  H   UNL A   1      28.669  24.610  26.193  1.00  0.00     0.102 HD
ENDBRANCH  37  38
ENDBRANCH  13  37
ENDBRANCH  10  13
ENDBRANCH   8   9
BRANCH   8  40
ATOM     40  C   UNL A   1      33.110  21.806  23.948  1.00  0.00     0.193 C 
BRANCH  40  41
ATOM     41  O   UNL A   1      32.934  22.391  22.659  1.00  0.00    -0.394 OA
ATOM     42  H   UNL A   1      33.749  22.849  22.399  1.00  0.00     0.210 HD
ENDBRANCH  40  41
ENDBRANCH   8  40
ENDBRANCH   6   8
ENDBRANCH   5   6
ENDBRANCH   4   5
ENDBRANCH   3   4
ENDBRANCH   2   3
ENDBRANCH   1   2
BRANCH   1  43
ATOM     43  C   UNL A   1      40.777  21.320  27.130  1.00  0.00     0.188 C 
BRANCH  43  44
ATOM     44  O   UNL A   1      41.510  20.966  25.980  1.00  0.00    -0.377 OA
BRANCH  44  45
ATOM     45  C   UNL A   1      42.653  21.780  25.743  1.00  0.00     0.188 C 
BRANCH  45  46
ATOM     46  C   UNL A   1      43.399  22.306  26.994  1.00  0.00     0.188 C 
BRANCH  46  47
ATOM     47  O   UNL A   1      44.805  22.379  26.828  1.00  0.00    -0.376 OA
BRANCH  47  48
ATOM     48  C   UNL A   1      45.460  23.548  26.380  1.00  0.00     0.202 C 
BRANCH  48  49
ATOM     49  C   UNL A   1      45.383  24.097  24.943  1.00  0.00     0.261 C 
BRANCH  49  50
ATOM     50  O   UNL A   1      46.013  25.345  24.664  1.00  0.00    -0.460 OA
BRANCH  50  51
ATOM     51  C   UNL A   1      46.888  25.795  25.589  1.00  0.00     0.338 C 
ATOM     52  O   UNL A   1      48.096  25.594  25.604  1.00  0.00    -0.246 OA
BRANCH  51  53
ATOM     53  C   UNL A   1      46.191  26.757  26.464  1.00  0.00     0.060 A 
ATOM     54  C   UNL A   1      46.882  27.279  27.567  1.00  0.00     0.016 A 
ATOM     55  C   UNL A   1      44.875  27.146  26.205  1.00  0.00     0.016 A 
ATOM     56  C   UNL A   1      46.249  28.162  28.438  1.00  0.00     0.010 A 
ATOM     57  C   UNL A   1      44.229  28.003  27.099  1.00  0.00     0.010 A 
ATOM     58  C   UNL A   1      44.902  28.481  28.239  1.00  0.00    -0.014 A 
BRANCH  58  59
ATOM     59  C   UNL A   1      44.130  29.112  29.334  1.00  0.00     0.031 A 
ATOM     60  C   UNL A   1      43.795  30.572  29.203  1.00  0.00     0.074 A 
ATOM     61  C   UNL A   1      43.752  28.418  30.422  1.00  0.00     0.049 A 
ATOM     62  N   UNL A   1      43.240  31.376  30.068  1.00  0.00    -0.248 NA
ATOM     63  C   UNL A   1      44.142  31.212  27.920  1.00  0.00     0.031 C 
ATOM     64  C   UNL A   1      43.990  26.994  30.645  1.00  0.00     0.029 A 
ATOM     65  N   UNL A   1      43.119  28.840  31.565  1.00  0.00    -0.354 N 
ATOM     66  C   UNL A   1      43.214  32.624  29.457  1.00  0.00     0.074 A 
ATOM     67  C   UNL A   1      43.804  32.472  28.146  1.00  0.00     0.031 C 
ATOM     68  C   UNL A   1      43.552  26.668  31.874  1.00  0.00     0.029 A 
ATOM     69  C   UNL A   1      43.040  27.869  32.535  1.00  0.00     0.049 A 
ATOM     70  H   UNL A   1      42.756  29.749  31.679  1.00  0.00     0.167 HD
ATOM     71  C   UNL A   1      42.741  33.793  29.946  1.00  0.00     0.034 A 
ATOM     72  C   UNL A   1      42.643  27.954  33.822  1.00  0.00     0.034 A 
ATOM     73  C   UNL A   1      42.143  33.934  31.243  1.00  0.00     0.049 A 
ATOM     74  C   UNL A   1      42.157  29.279  34.355  1.00  0.00     0.074 A 
ATOM     75  C   UNL A   1      41.590  35.066  31.814  1.00  0.00     0.029 A 
ATOM     76  N   UNL A   1      42.038  32.919  32.179  1.00  0.00    -0.354 N 
ATOM     77  N   UNL A   1      42.046  30.430  33.736  1.00  0.00    -0.248 NA
ATOM     78  C   UNL A   1      41.715  29.312  35.758  1.00  0.00     0.031 C 
ATOM     79  C   UNL A   1      41.190  34.746  33.113  1.00  0.00     0.029 A 
ATOM     80  C   UNL A   1      41.444  33.400  33.332  1.00  0.00     0.049 A 
ATOM     81  H   UNL A   1      42.340  31.992  32.045  1.00  0.00     0.167 HD
ATOM     82  C   UNL A   1      41.480  31.308  34.656  1.00  0.00     0.074 A 
ATOM     83  C   UNL A   1      41.262  30.553  35.872  1.00  0.00     0.031 C 
ATOM     84  C   UNL A   1      41.175  32.621  34.511  1.00  0.00     0.034 A 
BRANCH  71  85
ATOM     85  C   UNL A   1      42.853  35.017  29.079  1.00  0.00     0.023 A 
ATOM     86  C   UNL A   1      41.796  35.372  28.218  1.00  0.00     0.012 A 
ATOM     87  C   UNL A   1      43.982  35.854  29.172  1.00  0.00     0.148 A 
ATOM     88  C   UNL A   1      41.872  36.530  27.444  1.00  0.00     0.002 A 
ATOM     89  C   UNL A   1      44.029  37.029  28.437  1.00  0.00     0.091 A 
ATOM     90  F   UNL A   1      44.986  35.482  29.980  1.00  0.00    -0.205 F 
ATOM     91  C   UNL A   1      42.981  37.364  27.564  1.00  0.00     0.022 A 
BRANCH  89  92
ATOM     92  S   UNL A   1      45.375  38.210  28.582  1.00  0.00     0.127 S 
ATOM     93  O   UNL A   1      45.297  38.905  27.297  1.00  0.00    -0.237 OA
ATOM     94  O   UNL A   1      44.957  39.008  29.734  1.00  0.00    -0.237 OA
ATOM     95  O   UNL A   1      46.583  37.424  28.789  1.00  0.00    -0.744 OA
ENDBRANCH  89  92
ENDBRANCH  71  85
BRANCH  72  96
ATOM     96  C   UNL A   1      42.693  26.755  34.706  1.00  0.00     0.023 A 
ATOM     97  C   UNL A   1      41.517  26.024  34.962  1.00  0.00     0.012 A 
ATOM     98  C   UNL A   1      43.900  26.348  35.308  1.00  0.00     0.148 A 
ATOM     99  C   UNL A   1      41.533  24.936  35.835  1.00  0.00     0.002 A 
ATOM    100  C   UNL A   1      43.920  25.227  36.129  1.00  0.00     0.091 A 
ATOM    101  F   UNL A   1      45.005  27.066  35.066  1.00  0.00    -0.205 F 
ATOM    102  C   UNL A   1      42.734  24.531  36.411  1.00  0.00     0.022 A 
BRANCH 100 103
ATOM    103  S   UNL A   1      45.441  24.563  36.816  1.00  0.00     0.127 S 
ATOM    104  O   UNL A   1      46.304  24.512  35.638  1.00  0.00    -0.237 OA
ATOM    105  O   UNL A   1      45.798  25.587  37.798  1.00  0.00    -0.237 OA
ATOM    106  O   UNL A   1      45.083  23.274  37.393  1.00  0.00    -0.744 OA
ENDBRANCH 100 103
ENDBRANCH  72  96
BRANCH  84 107
ATOM    107  C   UNL A   1      40.503  33.325  35.660  1.00  0.00     0.023 A 
ATOM    108  C   UNL A   1      39.105  33.256  35.819  1.00  0.00     0.012 A 
ATOM    109  C   UNL A   1      41.281  33.967  36.646  1.00  0.00     0.148 A 
ATOM    110  C   UNL A   1      38.489  33.839  36.926  1.00  0.00     0.002 A 
ATOM    111  C   UNL A   1      40.667  34.497  37.772  1.00  0.00     0.091 A 
ATOM    112  F   UNL A   1      42.608  34.032  36.468  1.00  0.00    -0.205 F 
ATOM    113  C   UNL A   1      39.270  34.446  37.908  1.00  0.00     0.022 A 
BRANCH 111 114
ATOM    114  S   UNL A   1      41.597  35.202  39.137  1.00  0.00     0.127 S 
ATOM    115  O   UNL A   1      41.734  34.051  40.030  1.00  0.00    -0.237 OA
ATOM    116  O   UNL A   1      42.838  35.617  38.483  1.00  0.00    -0.237 OA
ATOM    117  O   UNL A   1      40.789  36.296  39.657  1.00  0.00    -0.744 OA
ENDBRANCH 111 114
ENDBRANCH  84 107
ENDBRANCH  58  59
ENDBRANCH  51  53
ENDBRANCH  50  51
ENDBRANCH  49  50
ENDBRANCH  48  49
ENDBRANCH  47  48
ENDBRANCH  46  47
ENDBRANCH  45  46
ENDBRANCH  44  45
ENDBRANCH  43  44
ENDBRANCH   1  43
TORSDOF 35
ENDMDL
MODEL 2
REMARK VINA RESULT:      -8.5      1.532      2.705
REMARK SMILES O=C(N[C@@H](Cc1ccccc1)C(=O)N[C@@H](CS)C(=O)N[C@@H](CO)C(=O)OCCOCCOCCOCCOC(=O)c1ccc(-c2c3nc(c(-c4cccc(S(=O)(=O)[O-])c4F)c4ccc([nH]4)c(-c4cccc(S(=O)(=O)[O-])c4F)c4nc(c(-c5cccc(S(=O)(=O)[O-])c5F)c5ccc2[nH]5)C=C4)C=C3)cc1)c1ccc(F)cc1
REMARK SMILES IDX 30 1 29 2 28 3 27 4 26 5 24 6 25 7 21 8 20 9 18 10 19 11
REMARK SMILES IDX 15 13 14 14 12 15 13 16 4 18 3 19 1 20 2 21 104 23 105 24
REMARK SMILES IDX 110 25 106 26 109 27 107 28 108 29 5 30 6 31 7 32 11 33 8 34
REMARK SMILES IDX 10 35 9 36 16 37 17 38 22 40 23 41 31 43 32 44 33 45 34 46
REMARK SMILES IDX 35 47 36 48 37 49 38 50 39 51 40 52 41 53 42 54 103 55 43 56
REMARK SMILES IDX 102 57 44 58 45 59 46 60 96 61 47 62 101 63 95 64 97 65
REMARK SMILES IDX 48 66 100 67 94 68 93 69 49 71 81 72 61 73 80 74 62 75 65 76
REMARK SMILES IDX 79 77 98 78 63 79 64 80 78 82 99 83 66 84 50 85 51 86 59 87
REMARK SMILES IDX 52 88 54 89 60 90 53 91 55 92 56 93 57 94 58 95 82 96 83 97
REMARK SMILES IDX 91 98 84 99 86 100 92 101 85 102 87 103 88 104 89 105 90 106
REMARK SMILES IDX 67 107 68 108 76 109 69 110 71 111 77 112 70 113 72 114
REMARK SMILES IDX 73 115 74 116 75 117
REMARK H PARENT 20 12 14 17 3 22 17 39 23 42 97 70 65 81
REMARK Flexibility Score: inf
ROOT
ATOM      1  C   UNL A   1      39.003  22.194  26.266  1.00  0.00     0.188 C 
ENDROOT
BRANCH   1   2
ATOM      2  O   UNL A   1      38.021  22.228  25.238  1.00  0.00    -0.376 OA
BRANCH   2   3
ATOM      3  C   UNL A   1      37.183  21.102  25.008  1.00  0.00     0.202 C 
BRANCH   3   4
ATOM      4  C   UNL A   1      35.671  21.257  24.774  1.00  0.00     0.261 C 
BRANCH   4   5
ATOM      5  O   UNL A   1      34.891  20.085  25.041  1.00  0.00    -0.462 OA
BRANCH   5   6
ATOM      6  C   UNL A   1      33.542  20.244  25.087  1.00  0.00     0.331 C 
ATOM      7  O   UNL A   1      32.718  19.340  25.009  1.00  0.00    -0.250 OA
BRANCH   6   8
ATOM      8  C   UNL A   1      33.143  21.722  25.219  1.00  0.00     0.218 C 
BRANCH   8   9
ATOM      9  N   UNL A   1      32.135  22.179  24.251  1.00  0.00    -0.339 N 
ATOM     10  C   UNL A   1      32.009  23.482  23.881  1.00  0.00     0.244 C 
ATOM     11  O   UNL A   1      31.194  24.170  24.501  1.00  0.00    -0.273 OA
ATOM     12  H   UNL A   1      31.526  21.516  23.855  1.00  0.00     0.164 HD
BRANCH  10  13
ATOM     13  C   UNL A   1      32.903  24.102  22.765  1.00  0.00     0.181 C 
BRANCH  13  14
ATOM     14  N   UNL A   1      32.022  24.595  21.716  1.00  0.00    -0.342 N 
ATOM     15  C   UNL A   1      31.650  25.880  21.452  1.00  0.00     0.243 C 
ATOM     16  O   UNL A   1      31.374  26.130  20.273  1.00  0.00    -0.273 OA
ATOM     17  H   UNL A   1      31.645  23.911  21.118  1.00  0.00     0.164 HD
BRANCH  15  18
ATOM     18  C   UNL A   1      31.473  26.979  22.535  1.00  0.00     0.176 C 
BRANCH  18  19
ATOM     19  N   UNL A   1      32.457  28.057  22.371  1.00  0.00    -0.340 N 
ATOM     20  O   UNL A   1      33.876  29.684  23.043  1.00  0.00    -0.269 OA
ATOM     21  C   UNL A   1      33.099  28.786  23.348  1.00  0.00     0.251 C 
ATOM     22  H   UNL A   1      32.687  28.288  21.442  1.00  0.00     0.164 HD
BRANCH  21  23
ATOM     23  C   UNL A   1      32.776  28.554  24.777  1.00  0.00     0.040 A 
ATOM     24  C   UNL A   1      32.681  27.263  25.312  1.00  0.00     0.017 A 
ATOM     25  C   UNL A   1      32.497  29.668  25.578  1.00  0.00     0.017 A 
ATOM     26  C   UNL A   1      32.184  27.083  26.604  1.00  0.00     0.040 A 
ATOM     27  C   UNL A   1      32.030  29.484  26.881  1.00  0.00     0.040 A 
ATOM     28  C   UNL A   1      31.851  28.194  27.371  1.00  0.00     0.123 A 
ATOM     29  F   UNL A   1      31.346  28.020  28.599  1.00  0.00    -0.207 F 
ENDBRANCH  21  23
ENDBRANCH  18  19
BRANCH  18  30
ATOM     30  C   UNL A   1      30.065  27.429  22.968  1.00  0.00     0.070 C 
BRANCH  30  31
ATOM     31  C   UNL A   1      29.667  28.874  22.827  1.00  0.00    -0.045 A 
ATOM     32  C   UNL A   1      29.323  29.374  21.564  1.00  0.00     0.004 A 
ATOM     33  C   UNL A   1      29.630  29.739  23.930  1.00  0.00     0.004 A 
ATOM     34  C   UNL A   1      29.043  30.728  21.386  1.00  0.00     0.000 A 
ATOM     35  C   UNL A   1      29.315  31.089  23.754  1.00  0.00     0.000 A 
ATOM     36  C   UNL A   1      29.043  31.586  22.480  1.00  0.00     0.000 A 
ENDBRANCH  30  31
ENDBRANCH  18  30
ENDBRANCH  15  18
ENDBRANCH  13  14
BRANCH  13  37
ATOM     37  C   UNL A   1      34.095  25.000  23.095  1.00  0.00     0.101 C 
BRANCH  37  38
ATOM     38  S   UNL A   1      34.969  24.743  24.667  1.00  0.00    -0.177 SA
ATOM     39  H   UNL A   1      35.993  23.867  24.479  1.00  0.00     0.102 HD
ENDBRANCH  37  38
ENDBRANCH  13  37
ENDBRANCH  10  13
ENDBRANCH   8   9
BRANCH   8  40
ATOM     40  C   UNL A   1      32.630  21.931  26.650  1.00  0.00     0.193 C 
BRANCH  40  41
ATOM     41  O   UNL A   1      33.547  22.729  27.396  1.00  0.00    -0.394 OA
ATOM     42  H   UNL A   1      34.309  22.187  27.657  1.00  0.00     0.210 HD
ENDBRANCH  40  41
ENDBRANCH   8  40
ENDBRANCH   6   8
ENDBRANCH   5   6
ENDBRANCH   4   5
ENDBRANCH   3   4
ENDBRANCH   2   3
ENDBRANCH   1   2
BRANCH   1  43
ATOM     43  C   UNL A   1      40.101  21.114  26.290  1.00  0.00     0.188 C 
BRANCH  43  44
ATOM     44  O   UNL A   1      41.273  21.481  25.599  1.00  0.00    -0.377 OA
BRANCH  44  45
ATOM     45  C   UNL A   1      42.464  20.903  26.123  1.00  0.00     0.188 C 
BRANCH  45  46
ATOM     46  C   UNL A   1      43.525  21.886  26.674  1.00  0.00     0.188 C 
BRANCH  46  47
ATOM     47  O   UNL A   1      44.626  22.082  25.801  1.00  0.00    -0.376 OA
BRANCH  47  48
ATOM     48  C   UNL A   1      45.455  23.223  25.866  1.00  0.00     0.202 C 
BRANCH  48  49
ATOM     49  C   UNL A   1      46.243  23.800  24.675  1.00  0.00     0.261 C 
BRANCH  49  50
ATOM     50  O   UNL A   1      46.334  25.217  24.550  1.00  0.00    -0.460 OA
BRANCH  50  51
ATOM     51  C   UNL A   1      47.217  25.835  25.364  1.00  0.00     0.338 C 
ATOM     52  O   UNL A   1      48.438  25.771  25.294  1.00  0.00    -0.246 OA
BRANCH  51  53
ATOM     53  C   UNL A   1      46.479  26.782  26.223  1.00  0.00     0.060 A 
ATOM     54  C   UNL A   1      47.182  27.454  27.233  1.00  0.00     0.016 A 
ATOM     55  C   UNL A   1      45.114  27.009  26.038  1.00  0.00     0.016 A 
ATOM     56  C   UNL A   1      46.516  28.329  28.088  1.00  0.00     0.010 A 
ATOM     57  C   UNL A   1      44.440  27.860  26.918  1.00  0.00     0.010 A 
ATOM     58  C   UNL A   1      45.132  28.489  27.969  1.00  0.00    -0.014 A 
BRANCH  58  59
ATOM     59  C   UNL A   1      44.370  29.116  29.075  1.00  0.00     0.031 A 
ATOM     60  C   UNL A   1      44.031  30.575  28.950  1.00  0.00     0.074 A 
ATOM     61  C   UNL A   1      44.007  28.419  30.166  1.00  0.00     0.049 A 
ATOM     62  N   UNL A   1      43.484  31.376  29.823  1.00  0.00    -0.248 NA
ATOM     63  C   UNL A   1      44.361  31.219  27.665  1.00  0.00     0.031 C 
ATOM     64  C   UNL A   1      44.251  26.996  30.383  1.00  0.00     0.029 A 
ATOM     65  N   UNL A   1      43.386  28.837  31.317  1.00  0.00    -0.354 N 
ATOM     66  C   UNL A   1      43.447  32.626  29.215  1.00  0.00     0.074 A 
ATOM     67  C   UNL A   1      44.022  32.477  27.897  1.00  0.00     0.031 C 
ATOM     68  C   UNL A   1      43.829  26.666  31.617  1.00  0.00     0.029 A 
ATOM     69  C   UNL A   1      43.321  27.864  32.285  1.00  0.00     0.049 A 
ATOM     70  H   UNL A   1      43.022  29.745  31.437  1.00  0.00     0.167 HD
ATOM     71  C   UNL A   1      42.977  33.792  29.711  1.00  0.00     0.034 A 
ATOM     72  C   UNL A   1      42.939  27.946  33.577  1.00  0.00     0.034 A 
ATOM     73  C   UNL A   1      42.394  33.930  31.016  1.00  0.00     0.049 A 
ATOM     74  C   UNL A   1      42.456  29.268  34.118  1.00  0.00     0.074 A 
ATOM     75  C   UNL A   1      41.844  35.059  31.595  1.00  0.00     0.029 A 
ATOM     76  N   UNL A   1      42.302  32.912  31.951  1.00  0.00    -0.354 N 
ATOM     77  N   UNL A   1      42.335  30.420  33.503  1.00  0.00    -0.248 NA
ATOM     78  C   UNL A   1      42.030  29.298  35.527  1.00  0.00     0.031 C 
ATOM     79  C   UNL A   1      41.460  34.735  32.899  1.00  0.00     0.029 A 
ATOM     80  C   UNL A   1      41.721  33.390  33.111  1.00  0.00     0.049 A 
ATOM     81  H   UNL A   1      42.605  31.986  31.812  1.00  0.00     0.167 HD
ATOM     82  C   UNL A   1      41.778  31.295  34.431  1.00  0.00     0.074 A 
ATOM     83  C   UNL A   1      41.575  30.538  35.648  1.00  0.00     0.031 C 
ATOM     84  C   UNL A   1      41.467  32.607  34.292  1.00  0.00     0.034 A 
BRANCH  71  85
ATOM     85  C   UNL A   1      43.076  35.018  28.846  1.00  0.00     0.023 A 
ATOM     86  C   UNL A   1      41.958  35.454  28.108  1.00  0.00     0.012 A 
ATOM     87  C   UNL A   1      44.262  35.778  28.821  1.00  0.00     0.148 A 
ATOM     88  C   UNL A   1      42.026  36.615  27.338  1.00  0.00     0.002 A 
ATOM     89  C   UNL A   1      44.307  36.958  28.093  1.00  0.00     0.091 A 
ATOM     90  F   UNL A   1      45.320  35.329  29.512  1.00  0.00    -0.205 F 
ATOM     91  C   UNL A   1      43.195  37.373  27.342  1.00  0.00     0.022 A 
BRANCH  89  92
ATOM     92  S   UNL A   1      45.736  38.045  28.098  1.00  0.00     0.127 S 
ATOM     93  O   UNL A   1      45.503  38.832  29.310  1.00  0.00    -0.237 OA
ATOM     94  O   UNL A   1      46.842  37.094  28.191  1.00  0.00    -0.237 OA
ATOM     95  O   UNL A   1      45.679  38.796  26.852  1.00  0.00    -0.744 OA
ENDBRANCH  89  92
ENDBRANCH  71  85
BRANCH  72  96
ATOM     96  C   UNL A   1      43.003  26.745  34.458  1.00  0.00     0.023 A 
ATOM     97  C   UNL A   1      41.833  26.005  34.719  1.00  0.00     0.012 A 
ATOM     98  C   UNL A   1      44.215  26.345  35.053  1.00  0.00     0.148 A 
ATOM     99  C   UNL A   1      41.862  24.915  35.589  1.00  0.00     0.002 A 
ATOM    100  C   UNL A   1      44.248  25.222  35.871  1.00  0.00     0.091 A 
ATOM    101  F   UNL A   1      45.314  27.072  34.807  1.00  0.00    -0.205 F 
ATOM    102  C   UNL A   1      43.069  24.517  36.158  1.00  0.00     0.022 A 
BRANCH 100 103
ATOM    103  S   UNL A   1      45.778  24.569  36.548  1.00  0.00     0.127 S 
ATOM    104  O   UNL A   1      46.266  25.701  37.331  1.00  0.00    -0.237 OA
ATOM    105  O   UNL A   1      45.295  23.435  37.337  1.00  0.00    -0.237 OA
ATOM    106  O   UNL A   1      46.591  24.198  35.397  1.00  0.00    -0.744 OA
ENDBRANCH 100 103
ENDBRANCH  72  96
BRANCH  84 107
ATOM    107  C   UNL A   1      40.807  33.308  35.451  1.00  0.00     0.023 A 
ATOM    108  C   UNL A   1      39.406  33.282  35.594  1.00  0.00     0.012 A 
ATOM    109  C   UNL A   1      41.595  33.901  36.458  1.00  0.00     0.148 A 
ATOM    110  C   UNL A   1      38.798  33.860  36.708  1.00  0.00     0.002 A 
ATOM    111  C   UNL A   1      40.987  34.427  37.590  1.00  0.00     0.091 A 
ATOM    112  F   UNL A   1      42.925  33.926  36.295  1.00  0.00    -0.205 F 
ATOM    113  C   UNL A   1      39.588  34.419  37.711  1.00  0.00     0.022 A 
BRANCH 111 114
ATOM    114  S   UNL A   1      41.926  35.070  38.980  1.00  0.00     0.127 S 
ATOM    115  O   UNL A   1      42.486  36.299  38.417  1.00  0.00    -0.237 OA
ATOM    116  O   UNL A   1      40.885  35.278  39.985  1.00  0.00    -0.237 OA
ATOM    117  O   UNL A   1      42.903  34.043  39.319  1.00  0.00    -0.744 OA
ENDBRANCH 111 114
ENDBRANCH  84 107
ENDBRANCH  58  59
ENDBRANCH  51  53
ENDBRANCH  50  51
ENDBRANCH  49  50
ENDBRANCH  48  49
ENDBRANCH  47  48
ENDBRANCH  46  47
ENDBRANCH  45  46
ENDBRANCH  44  45
ENDBRANCH  43  44
ENDBRANCH   1  43
TORSDOF 35
ENDMDL
MODEL 3
REMARK VINA RESULT:      -8.4      4.017      7.601
REMARK SMILES O=C(N[C@@H](Cc1ccccc1)C(=O)N[C@@H](CS)C(=O)N[C@@H](CO)C(=O)OCCOCCOCCOCCOC(=O)c1ccc(-c2c3nc(c(-c4cccc(S(=O)(=O)[O-])c4F)c4ccc([nH]4)c(-c4cccc(S(=O)(=O)[O-])c4F)c4nc(c(-c5cccc(S(=O)(=O)[O-])c5F)c5ccc2[nH]5)C=C4)C=C3)cc1)c1ccc(F)cc1
REMARK SMILES IDX 30 1 29 2 28 3 27 4 26 5 24 6 25 7 21 8 20 9 18 10 19 11
REMARK SMILES IDX 15 13 14 14 12 15 13 16 4 18 3 19 1 20 2 21 104 23 105 24
REMARK SMILES IDX 110 25 106 26 109 27 107 28 108 29 5 30 6 31 7 32 11 33 8 34
REMARK SMILES IDX 10 35 9 36 16 37 17 38 22 40 23 41 31 43 32 44 33 45 34 46
REMARK SMILES IDX 35 47 36 48 37 49 38 50 39 51 40 52 41 53 42 54 103 55 43 56
REMARK SMILES IDX 102 57 44 58 45 59 46 60 96 61 47 62 101 63 95 64 97 65
REMARK SMILES IDX 48 66 100 67 94 68 93 69 49 71 81 72 61 73 80 74 62 75 65 76
REMARK SMILES IDX 79 77 98 78 63 79 64 80 78 82 99 83 66 84 50 85 51 86 59 87
REMARK SMILES IDX 52 88 54 89 60 90 53 91 55 92 56 93 57 94 58 95 82 96 83 97
REMARK SMILES IDX 91 98 84 99 86 100 92 101 85 102 87 103 88 104 89 105 90 106
REMARK SMILES IDX 67 107 68 108 76 109 69 110 71 111 77 112 70 113 72 114
REMARK SMILES IDX 73 115 74 116 75 117
REMARK H PARENT 20 12 14 17 3 22 17 39 23 42 97 70 65 81
REMARK Flexibility Score: inf
ROOT
ATOM      1  C   UNL A   1      40.019  22.690  26.895  1.00  0.00     0.188 C 
ENDROOT
BRANCH   1   2
ATOM      2  O   UNL A   1      38.987  22.644  25.918  1.00  0.00    -0.376 OA
BRANCH   2   3
ATOM      3  C   UNL A   1      38.215  21.462  25.744  1.00  0.00     0.202 C 
BRANCH   3   4
ATOM      4  C   UNL A   1      36.732  21.520  25.341  1.00  0.00     0.261 C 
BRANCH   4   5
ATOM      5  O   UNL A   1      36.484  21.928  23.990  1.00  0.00    -0.462 OA
BRANCH   5   6
ATOM      6  C   UNL A   1      35.313  22.574  23.750  1.00  0.00     0.331 C 
ATOM      7  O   UNL A   1      35.107  23.349  22.823  1.00  0.00    -0.250 OA
BRANCH   6   8
ATOM      8  C   UNL A   1      34.250  22.248  24.811  1.00  0.00     0.218 C 
BRANCH   8   9
ATOM      9  N   UNL A   1      33.868  23.377  25.671  1.00  0.00    -0.339 N 
ATOM     10  C   UNL A   1      33.801  24.658  25.218  1.00  0.00     0.244 C 
ATOM     11  O   UNL A   1      34.804  25.363  25.363  1.00  0.00    -0.273 OA
ATOM     12  H   UNL A   1      33.652  23.199  26.615  1.00  0.00     0.164 HD
BRANCH  10  13
ATOM     13  C   UNL A   1      32.536  25.198  24.486  1.00  0.00     0.181 C 
BRANCH  13  14
ATOM     14  N   UNL A   1      32.919  25.511  23.116  1.00  0.00    -0.342 N 
ATOM     15  C   UNL A   1      32.918  26.722  22.490  1.00  0.00     0.243 C 
ATOM     16  O   UNL A   1      33.746  26.859  21.581  1.00  0.00    -0.273 OA
ATOM     17  H   UNL A   1      33.218  24.749  22.571  1.00  0.00     0.164 HD
BRANCH  15  18
ATOM     18  C   UNL A   1      31.904  27.860  22.787  1.00  0.00     0.176 C 
BRANCH  18  19
ATOM     19  N   UNL A   1      30.632  27.327  23.291  1.00  0.00    -0.340 N 
ATOM     20  O   UNL A   1      28.443  27.382  23.855  1.00  0.00    -0.269 OA
ATOM     21  C   UNL A   1      29.411  27.961  23.373  1.00  0.00     0.251 C 
ATOM     22  H   UNL A   1      30.655  26.397  23.612  1.00  0.00     0.164 HD
BRANCH  21  23
ATOM     23  C   UNL A   1      29.287  29.383  22.970  1.00  0.00     0.040 A 
ATOM     24  C   UNL A   1      29.361  30.424  23.905  1.00  0.00     0.017 A 
ATOM     25  C   UNL A   1      29.021  29.665  21.625  1.00  0.00     0.017 A 
ATOM     26  C   UNL A   1      29.043  31.727  23.517  1.00  0.00     0.040 A 
ATOM     27  C   UNL A   1      28.735  30.975  21.235  1.00  0.00     0.040 A 
ATOM     28  C   UNL A   1      28.721  31.988  22.190  1.00  0.00     0.123 A 
ATOM     29  F   UNL A   1      28.387  33.232  21.825  1.00  0.00    -0.207 F 
ENDBRANCH  21  23
ENDBRANCH  18  19
BRANCH  18  30
ATOM     30  C   UNL A   1      32.376  29.175  23.437  1.00  0.00     0.070 C 
BRANCH  30  31
ATOM     31  C   UNL A   1      32.809  29.180  24.879  1.00  0.00    -0.045 A 
ATOM     32  C   UNL A   1      32.014  29.827  25.835  1.00  0.00     0.004 A 
ATOM     33  C   UNL A   1      33.992  28.553  25.295  1.00  0.00     0.004 A 
ATOM     34  C   UNL A   1      32.437  29.931  27.159  1.00  0.00     0.000 A 
ATOM     35  C   UNL A   1      34.395  28.628  26.631  1.00  0.00     0.000 A 
ATOM     36  C   UNL A   1      33.628  29.335  27.556  1.00  0.00     0.000 A 
ENDBRANCH  30  31
ENDBRANCH  18  30
ENDBRANCH  15  18
ENDBRANCH  13  14
BRANCH  13  37
ATOM     37  C   UNL A   1      31.168  24.535  24.648  1.00  0.00     0.101 C 
BRANCH  37  38
ATOM     38  S   UNL A   1      30.548  24.222  26.327  1.00  0.00    -0.177 SA
ATOM     39  H   UNL A   1      31.138  25.085  27.197  1.00  0.00     0.102 HD
ENDBRANCH  37  38
ENDBRANCH  13  37
ENDBRANCH  10  13
ENDBRANCH   8   9
BRANCH   8  40
ATOM     40  C   UNL A   1      33.017  21.708  24.073  1.00  0.00     0.193 C 
BRANCH  40  41
ATOM     41  O   UNL A   1      33.129  20.300  23.880  1.00  0.00    -0.394 OA
ATOM     42  H   UNL A   1      33.792  20.118  23.196  1.00  0.00     0.210 HD
ENDBRANCH  40  41
ENDBRANCH   8  40
ENDBRANCH   6   8
ENDBRANCH   5   6
ENDBRANCH   4   5
ENDBRANCH   3   4
ENDBRANCH   2   3
ENDBRANCH   1   2
BRANCH   1  43
ATOM     43  C   UNL A   1      41.331  21.903  26.711  1.00  0.00     0.188 C 
BRANCH  43  44
ATOM     44  O   UNL A   1      41.801  21.886  25.382  1.00  0.00    -0.377 OA
BRANCH  44  45
ATOM     45  C   UNL A   1      43.038  22.563  25.193  1.00  0.00     0.188 C 
BRANCH  45  46
ATOM     46  C   UNL A   1      43.778  23.024  26.473  1.00  0.00     0.188 C 
BRANCH  46  47
ATOM     47  O   UNL A   1      45.127  23.397  26.245  1.00  0.00    -0.376 OA
BRANCH  47  48
ATOM     48  C   UNL A   1      45.774  24.408  26.991  1.00  0.00     0.202 C 
BRANCH  48  49
ATOM     49  C   UNL A   1      45.598  24.625  28.505  1.00  0.00     0.261 C 
BRANCH  49  50
ATOM     50  O   UNL A   1      45.811  25.934  29.028  1.00  0.00    -0.460 OA
BRANCH  50  51
ATOM     51  C   UNL A   1      47.084  26.387  29.008  1.00  0.00     0.338 C 
ATOM     52  O   UNL A   1      48.098  25.708  29.104  1.00  0.00    -0.246 OA
BRANCH  51  53
ATOM     53  C   UNL A   1      47.067  27.813  28.629  1.00  0.00     0.060 A 
ATOM     54  C   UNL A   1      47.539  28.756  29.553  1.00  0.00     0.016 A 
ATOM     55  C   UNL A   1      46.594  28.222  27.380  1.00  0.00     0.016 A 
ATOM     56  C   UNL A   1      47.507  30.115  29.249  1.00  0.00     0.010 A 
ATOM     57  C   UNL A   1      46.529  29.587  27.089  1.00  0.00     0.010 A 
ATOM     58  C   UNL A   1      46.948  30.537  28.039  1.00  0.00    -0.014 A 
BRANCH  58  59
ATOM     59  C   UNL A   1      46.579  31.961  27.861  1.00  0.00     0.031 A 
ATOM     60  C   UNL A   1      47.623  32.888  27.304  1.00  0.00     0.074 A 
ATOM     61  C   UNL A   1      45.364  32.423  28.202  1.00  0.00     0.049 A 
ATOM     62  N   UNL A   1      47.590  34.186  27.167  1.00  0.00    -0.248 NA
ATOM     63  C   UNL A   1      48.878  32.265  26.845  1.00  0.00     0.031 C 
ATOM     64  C   UNL A   1      44.263  31.615  28.719  1.00  0.00     0.029 A 
ATOM     65  N   UNL A   1      44.871  33.705  28.196  1.00  0.00    -0.354 N 
ATOM     66  C   UNL A   1      48.832  34.541  26.652  1.00  0.00     0.074 A 
ATOM     67  C   UNL A   1      49.595  33.322  26.496  1.00  0.00     0.031 C 
ATOM     68  C   UNL A   1      43.237  32.427  29.030  1.00  0.00     0.029 A 
ATOM     69  C   UNL A   1      43.625  33.812  28.767  1.00  0.00     0.049 A 
ATOM     70  H   UNL A   1      45.360  34.472  27.819  1.00  0.00     0.167 HD
ATOM     71  C   UNL A   1      49.295  35.772  26.339  1.00  0.00     0.034 A 
ATOM     72  C   UNL A   1      42.904  34.908  29.083  1.00  0.00     0.034 A 
ATOM     73  C   UNL A   1      48.527  36.976  26.482  1.00  0.00     0.049 A 
ATOM     74  C   UNL A   1      43.460  36.273  28.759  1.00  0.00     0.074 A 
ATOM     75  C   UNL A   1      48.889  38.269  26.148  1.00  0.00     0.029 A 
ATOM     76  N   UNL A   1      47.252  37.041  27.020  1.00  0.00    -0.354 N 
ATOM     77  N   UNL A   1      44.595  36.588  28.183  1.00  0.00    -0.248 NA
ATOM     78  C   UNL A   1      42.624  37.434  29.103  1.00  0.00     0.031 C 
ATOM     79  C   UNL A   1      47.848  39.121  26.525  1.00  0.00     0.029 A 
ATOM     80  C   UNL A   1      46.817  38.353  27.044  1.00  0.00     0.049 A 
ATOM     81  H   UNL A   1      46.733  36.268  27.338  1.00  0.00     0.167 HD
ATOM     82  C   UNL A   1      44.588  37.974  28.054  1.00  0.00     0.074 A 
ATOM     83  C   UNL A   1      43.331  38.437  28.603  1.00  0.00     0.031 C 
ATOM     84  C   UNL A   1      45.537  38.791  27.535  1.00  0.00     0.034 A 
BRANCH  71  85
ATOM     85  C   UNL A   1      50.699  35.884  25.813  1.00  0.00     0.023 A 
ATOM     86  C   UNL A   1      50.947  35.772  24.431  1.00  0.00     0.012 A 
ATOM     87  C   UNL A   1      51.766  36.171  26.687  1.00  0.00     0.148 A 
ATOM     88  C   UNL A   1      52.240  35.920  23.929  1.00  0.00     0.002 A 
ATOM     89  C   UNL A   1      53.041  36.367  26.176  1.00  0.00     0.091 A 
ATOM     90  F   UNL A   1      51.509  36.248  28.001  1.00  0.00    -0.205 F 
ATOM     91  C   UNL A   1      53.283  36.231  24.799  1.00  0.00     0.022 A 
BRANCH  89  92
ATOM     92  S   UNL A   1      54.433  36.849  27.202  1.00  0.00     0.127 S 
ATOM     93  O   UNL A   1      53.827  37.865  28.063  1.00  0.00    -0.237 OA
ATOM     94  O   UNL A   1      54.762  35.595  27.878  1.00  0.00    -0.237 OA
ATOM     95  O   UNL A   1      55.457  37.340  26.291  1.00  0.00    -0.744 OA
ENDBRANCH  89  92
ENDBRANCH  71  85
BRANCH  72  96
ATOM     96  C   UNL A   1      41.578  34.770  29.751  1.00  0.00     0.023 A 
ATOM     97  C   UNL A   1      40.396  34.918  29.000  1.00  0.00     0.012 A 
ATOM     98  C   UNL A   1      41.486  34.511  31.133  1.00  0.00     0.148 A 
ATOM     99  C   UNL A   1      39.148  34.853  29.619  1.00  0.00     0.002 A 
ATOM    100  C   UNL A   1      40.239  34.388  31.732  1.00  0.00     0.091 A 
ATOM    101  F   UNL A   1      42.622  34.390  31.834  1.00  0.00    -0.205 F 
ATOM    102  C   UNL A   1      39.068  34.579  30.982  1.00  0.00     0.022 A 
BRANCH 100 103
ATOM    103  S   UNL A   1      40.040  33.917  33.454  1.00  0.00     0.127 S 
ATOM    104  O   UNL A   1      41.162  33.003  33.646  1.00  0.00    -0.237 OA
ATOM    105  O   UNL A   1      40.171  35.206  34.133  1.00  0.00    -0.237 OA
ATOM    106  O   UNL A   1      38.714  33.319  33.548  1.00  0.00    -0.744 OA
ENDBRANCH 100 103
ENDBRANCH  72  96
BRANCH  84 107
ATOM    107  C   UNL A   1      45.242  40.266  27.459  1.00  0.00     0.023 A 
ATOM    108  C   UNL A   1      45.195  41.045  28.632  1.00  0.00     0.012 A 
ATOM    109  C   UNL A   1      45.117  40.896  26.204  1.00  0.00     0.148 A 
ATOM    110  C   UNL A   1      45.001  42.424  28.557  1.00  0.00     0.002 A 
ATOM    111  C   UNL A   1      44.979  42.276  26.135  1.00  0.00     0.091 A 
ATOM    112  F   UNL A   1      45.151  40.134  25.101  1.00  0.00    -0.205 F 
ATOM    113  C   UNL A   1      44.908  43.040  27.311  1.00  0.00     0.022 A 
BRANCH 111 114
ATOM    114  S   UNL A   1      44.958  43.167  24.576  1.00  0.00     0.127 S 
ATOM    115  O   UNL A   1      43.682  42.737  24.005  1.00  0.00    -0.237 OA
ATOM    116  O   UNL A   1      44.990  44.561  25.017  1.00  0.00    -0.237 OA
ATOM    117  O   UNL A   1      46.141  42.733  23.845  1.00  0.00    -0.744 OA
ENDBRANCH 111 114
ENDBRANCH  84 107
ENDBRANCH  58  59
ENDBRANCH  51  53
ENDBRANCH  50  51
ENDBRANCH  49  50
ENDBRANCH  48  49
ENDBRANCH  47  48
ENDBRANCH  46  47
ENDBRANCH  45  46
ENDBRANCH  44  45
ENDBRANCH  43  44
ENDBRANCH   1  43
TORSDOF 35
ENDMDL
