MODEL 1
REMARK VINA RESULT:     -11.3      0.000      0.000
REMARK SMILES CN1C(=O)C[C@@H](C(=O)OCCOCCOCCOCCOC(=O)c2ccc(-c3c4nc(c(-c5cccc(S(=O)(=O)[O-])c5F)c5ccc([nH]5)c(-c5cccc(S(=O)(=O)[O-])c5F)c5nc(c(-c6cccc(S(=O)(=O)[O-])c6F)c6ccc3[nH]6)C=C5)C=C4)cc2)C12CCN(c1ccc(Cl)cn1)CC2
REMARK SMILES IDX 16 1 15 2 14 3 13 4 12 5 11 6 10 7 9 8 7 9 8 10 6 11 1 12
REMARK SMILES IDX 2 13 3 14 87 15 4 16 5 17 88 18 99 19 89 20 98 21 90 22
REMARK SMILES IDX 91 23 92 24 97 25 93 26 96 27 94 28 95 29 17 30 18 31 19 32
REMARK SMILES IDX 20 33 21 34 22 35 23 36 24 37 25 38 86 39 26 40 85 41 27 42
REMARK SMILES IDX 28 43 29 44 79 45 30 46 84 47 78 48 80 49 31 50 83 51 77 52
REMARK SMILES IDX 76 53 32 55 64 56 44 57 63 58 45 59 48 60 62 61 81 62 46 63
REMARK SMILES IDX 47 64 61 66 82 67 49 68 33 69 34 70 42 71 35 72 37 73 43 74
REMARK SMILES IDX 36 75 38 76 39 77 40 78 41 79 65 80 66 81 74 82 67 83 69 84
REMARK SMILES IDX 75 85 68 86 70 87 71 88 72 89 73 90 50 91 51 92 59 93 52 94
REMARK SMILES IDX 54 95 60 96 53 97 55 98 56 99 57 100 58 101
REMARK H PARENT 80 54 48 65
REMARK Flexibility Score: inf
ROOT
ATOM      1  C   UNL A   1      31.777  29.261  25.522  1.00  0.00     0.188 C 
ENDROOT
BRANCH   1   2
ATOM      2  O   UNL A   1      30.987  29.459  24.351  1.00  0.00    -0.377 OA
BRANCH   2   3
ATOM      3  C   UNL A   1      31.364  28.898  23.107  1.00  0.00     0.188 C 
BRANCH   3   4
ATOM      4  C   UNL A   1      30.560  27.699  22.613  1.00  0.00     0.188 C 
BRANCH   4   5
ATOM      5  O   UNL A   1      29.264  27.502  23.129  1.00  0.00    -0.376 OA
BRANCH   5   6
ATOM      6  C   UNL A   1      29.074  26.524  24.149  1.00  0.00     0.202 C 
BRANCH   6   7
ATOM      7  C   UNL A   1      30.161  25.480  24.500  1.00  0.00     0.261 C 
BRANCH   7   8
ATOM      8  O   UNL A   1      30.992  25.733  25.673  1.00  0.00    -0.463 OA
BRANCH   8   9
ATOM      9  C   UNL A   1      31.537  24.640  26.241  1.00  0.00     0.311 C 
ATOM     10  O   UNL A   1      31.050  24.094  27.236  1.00  0.00    -0.252 OA
BRANCH   9  11
ATOM     11  C   UNL A   1      32.836  24.062  25.681  1.00  0.00     0.134 C 
ATOM     12  C   UNL A   1      33.248  24.069  21.962  1.00  0.00     0.147 C 
ATOM     13  N   UNL A   1      33.340  24.271  23.400  1.00  0.00    -0.339 N 
ATOM     14  C   UNL A   1      33.676  25.492  23.951  1.00  0.00     0.223 C 
ATOM     15  C   UNL A   1      33.132  23.210  24.407  1.00  0.00     0.060 C 
ATOM     16  O   UNL A   1      33.959  26.517  23.357  1.00  0.00    -0.275 OA
ATOM     17  C   UNL A   1      33.699  25.330  25.442  1.00  0.00     0.118 C 
ATOM     18  C   UNL A   1      32.115  22.185  23.890  1.00  0.00     0.051 C 
ATOM     19  C   UNL A   1      34.506  22.457  24.639  1.00  0.00     0.051 C 
ATOM     20  C   UNL A   1      32.128  20.815  24.538  1.00  0.00     0.120 C 
ATOM     21  C   UNL A   1      34.379  21.129  25.411  1.00  0.00     0.120 C 
ATOM     22  N   UNL A   1      33.477  20.274  24.659  1.00  0.00    -0.356 N 
BRANCH  22  23
ATOM     23  C   UNL A   1      33.446  18.903  24.947  1.00  0.00     0.128 A 
ATOM     24  C   UNL A   1      34.155  18.040  24.100  1.00  0.00     0.048 A 
ATOM     25  N   UNL A   1      32.644  18.419  25.920  1.00  0.00    -0.238 NA
ATOM     26  C   UNL A   1      34.000  16.659  24.201  1.00  0.00     0.026 A 
ATOM     27  C   UNL A   1      32.510  17.065  26.004  1.00  0.00     0.134 A 
ATOM     28  C   UNL A   1      33.144  16.159  25.165  1.00  0.00     0.059 A 
ATOM     29  Cl  UNL A   1      32.860  14.472  25.290  1.00  0.00    -0.083 Cl
ENDBRANCH  22  23
ENDBRANCH   9  11
ENDBRANCH   8   9
ENDBRANCH   7   8
ENDBRANCH   6   7
ENDBRANCH   5   6
ENDBRANCH   4   5
ENDBRANCH   3   4
ENDBRANCH   2   3
ENDBRANCH   1   2
BRANCH   1  30
ATOM     30  C   UNL A   1      32.134  30.477  26.380  1.00  0.00     0.188 C 
BRANCH  30  31
ATOM     31  O   UNL A   1      31.181  31.543  26.482  1.00  0.00    -0.376 OA
BRANCH  31  32
ATOM     32  C   UNL A   1      31.659  32.881  26.569  1.00  0.00     0.202 C 
BRANCH  32  33
ATOM     33  C   UNL A   1      32.732  33.139  27.621  1.00  0.00     0.261 C 
BRANCH  33  34
ATOM     34  O   UNL A   1      32.765  34.522  27.998  1.00  0.00    -0.460 OA
BRANCH  34  35
ATOM     35  C   UNL A   1      33.291  34.756  29.219  1.00  0.00     0.338 C 
ATOM     36  O   UNL A   1      32.819  35.457  30.105  1.00  0.00    -0.246 OA
BRANCH  35  37
ATOM     37  C   UNL A   1      34.465  33.897  29.422  1.00  0.00     0.060 A 
ATOM     38  C   UNL A   1      34.282  32.719  30.155  1.00  0.00     0.016 A 
ATOM     39  C   UNL A   1      35.735  34.276  28.976  1.00  0.00     0.016 A 
ATOM     40  C   UNL A   1      35.379  31.947  30.510  1.00  0.00     0.010 A 
ATOM     41  C   UNL A   1      36.838  33.507  29.343  1.00  0.00     0.010 A 
ATOM     42  C   UNL A   1      36.663  32.375  30.158  1.00  0.00    -0.014 A 
BRANCH  42  43
ATOM     43  C   UNL A   1      37.821  31.768  30.844  1.00  0.00     0.031 A 
ATOM     44  C   UNL A   1      38.616  30.728  30.104  1.00  0.00     0.074 A 
ATOM     45  C   UNL A   1      38.172  32.166  32.077  1.00  0.00     0.049 A 
ATOM     46  N   UNL A   1      39.652  30.041  30.501  1.00  0.00    -0.248 NA
ATOM     47  C   UNL A   1      38.179  30.422  28.731  1.00  0.00     0.031 C 
ATOM     48  C   UNL A   1      37.484  33.190  32.862  1.00  0.00     0.029 A 
ATOM     49  N   UNL A   1      39.185  31.737  32.890  1.00  0.00    -0.354 N 
ATOM     50  C   UNL A   1      39.971  29.198  29.444  1.00  0.00     0.074 A 
ATOM     51  C   UNL A   1      39.011  29.449  28.392  1.00  0.00     0.031 C 
ATOM     52  C   UNL A   1      38.082  33.291  34.060  1.00  0.00     0.029 A 
ATOM     53  C   UNL A   1      39.170  32.319  34.134  1.00  0.00     0.049 A 
ATOM     54  H   UNL A   1      39.861  31.076  32.611  1.00  0.00     0.167 HD
ATOM     55  C   UNL A   1      40.979  28.301  29.354  1.00  0.00     0.034 A 
ATOM     56  C   UNL A   1      39.931  32.066  35.215  1.00  0.00     0.034 A 
ATOM     57  C   UNL A   1      41.928  28.069  30.408  1.00  0.00     0.049 A 
ATOM     58  C   UNL A   1      41.019  31.030  35.108  1.00  0.00     0.074 A 
ATOM     59  C   UNL A   1      43.011  27.209  30.420  1.00  0.00     0.029 A 
ATOM     60  N   UNL A   1      41.893  28.687  31.650  1.00  0.00    -0.354 N 
ATOM     61  N   UNL A   1      41.368  30.302  34.075  1.00  0.00    -0.248 NA
ATOM     62  C   UNL A   1      41.836  30.802  36.308  1.00  0.00     0.031 C 
ATOM     63  C   UNL A   1      43.604  27.276  31.685  1.00  0.00     0.029 A 
ATOM     64  C   UNL A   1      42.923  28.215  32.444  1.00  0.00     0.049 A 
ATOM     65  H   UNL A   1      41.232  29.363  31.926  1.00  0.00     0.167 HD
ATOM     66  C   UNL A   1      42.469  29.559  34.484  1.00  0.00     0.074 A 
ATOM     67  C   UNL A   1      42.737  29.939  35.858  1.00  0.00     0.031 C 
ATOM     68  C   UNL A   1      43.192  28.641  33.794  1.00  0.00     0.034 A 
BRANCH  55  69
ATOM     69  C   UNL A   1      41.095  27.505  28.081  1.00  0.00     0.023 A 
ATOM     70  C   UNL A   1      41.669  28.087  26.931  1.00  0.00     0.012 A 
ATOM     71  C   UNL A   1      40.654  26.169  28.029  1.00  0.00     0.148 A 
ATOM     72  C   UNL A   1      41.760  27.366  25.740  1.00  0.00     0.002 A 
ATOM     73  C   UNL A   1      40.795  25.440  26.855  1.00  0.00     0.091 A 
ATOM     74  F   UNL A   1      40.087  25.640  29.124  1.00  0.00    -0.205 F 
ATOM     75  C   UNL A   1      41.333  26.041  25.705  1.00  0.00     0.022 A 
BRANCH  73  76
ATOM     76  S   UNL A   1      40.346  23.706  26.730  1.00  0.00     0.127 S 
ATOM     77  O   UNL A   1      39.018  23.787  26.124  1.00  0.00    -0.237 OA
ATOM     78  O   UNL A   1      41.389  23.183  25.847  1.00  0.00    -0.237 OA
ATOM     79  O   UNL A   1      40.381  23.182  28.088  1.00  0.00    -0.744 OA
ENDBRANCH  73  76
ENDBRANCH  55  69
BRANCH  56  80
ATOM     80  C   UNL A   1      39.703  32.820  36.478  1.00  0.00     0.023 A 
ATOM     81  C   UNL A   1      40.412  34.011  36.720  1.00  0.00     0.012 A 
ATOM     82  C   UNL A   1      38.765  32.372  37.429  1.00  0.00     0.148 A 
ATOM     83  C   UNL A   1      40.212  34.729  37.899  1.00  0.00     0.002 A 
ATOM     84  C   UNL A   1      38.530  33.121  38.575  1.00  0.00     0.091 A 
ATOM     85  F   UNL A   1      38.107  31.230  37.181  1.00  0.00    -0.205 F 
ATOM     86  C   UNL A   1      39.265  34.291  38.820  1.00  0.00     0.022 A 
BRANCH  84  87
ATOM     87  S   UNL A   1      37.244  32.700  39.756  1.00  0.00     0.127 S 
ATOM     88  O   UNL A   1      37.715  31.414  40.262  1.00  0.00    -0.237 OA
ATOM     89  O   UNL A   1      37.339  33.811  40.704  1.00  0.00    -0.237 OA
ATOM     90  O   UNL A   1      36.005  32.662  38.992  1.00  0.00    -0.744 OA
ENDBRANCH  84  87
ENDBRANCH  56  80
BRANCH  68  91
ATOM     91  C   UNL A   1      44.374  28.019  34.491  1.00  0.00     0.023 A 
ATOM     92  C   UNL A   1      45.634  28.647  34.448  1.00  0.00     0.012 A 
ATOM     93  C   UNL A   1      44.210  26.845  35.253  1.00  0.00     0.148 A 
ATOM     94  C   UNL A   1      46.722  28.094  35.121  1.00  0.00     0.002 A 
ATOM     95  C   UNL A   1      45.285  26.332  35.968  1.00  0.00     0.091 A 
ATOM     96  F   UNL A   1      43.006  26.255  35.269  1.00  0.00    -0.205 F 
ATOM     97  C   UNL A   1      46.545  26.946  35.891  1.00  0.00     0.022 A 
BRANCH  95  98
ATOM     98  S   UNL A   1      45.125  24.920  37.067  1.00  0.00     0.127 S 
ATOM     99  O   UNL A   1      45.196  23.803  36.127  1.00  0.00    -0.237 OA
ATOM    100  O   UNL A   1      46.297  25.069  37.930  1.00  0.00    -0.237 OA
ATOM    101  O   UNL A   1      43.848  25.080  37.747  1.00  0.00    -0.744 OA
ENDBRANCH  95  98
ENDBRANCH  68  91
ENDBRANCH  42  43
ENDBRANCH  35  37
ENDBRANCH  34  35
ENDBRANCH  33  34
ENDBRANCH  32  33
ENDBRANCH  31  32
ENDBRANCH  30  31
ENDBRANCH   1  30
TORSDOF 24
ENDMDL
MODEL 2
REMARK VINA RESULT:     -10.3      1.150      7.250
REMARK SMILES CN1C(=O)C[C@@H](C(=O)OCCOCCOCCOCCOC(=O)c2ccc(-c3c4nc(c(-c5cccc(S(=O)(=O)[O-])c5F)c5ccc([nH]5)c(-c5cccc(S(=O)(=O)[O-])c5F)c5nc(c(-c6cccc(S(=O)(=O)[O-])c6F)c6ccc3[nH]6)C=C5)C=C4)cc2)C12CCN(c1ccc(Cl)cn1)CC2
REMARK SMILES IDX 16 1 15 2 14 3 13 4 12 5 11 6 10 7 9 8 7 9 8 10 6 11 1 12
REMARK SMILES IDX 2 13 3 14 87 15 4 16 5 17 88 18 99 19 89 20 98 21 90 22
REMARK SMILES IDX 91 23 92 24 97 25 93 26 96 27 94 28 95 29 17 30 18 31 19 32
REMARK SMILES IDX 20 33 21 34 22 35 23 36 24 37 25 38 86 39 26 40 85 41 27 42
REMARK SMILES IDX 28 43 29 44 79 45 30 46 84 47 78 48 80 49 31 50 83 51 77 52
REMARK SMILES IDX 76 53 32 55 64 56 44 57 63 58 45 59 48 60 62 61 81 62 46 63
REMARK SMILES IDX 47 64 61 66 82 67 49 68 33 69 34 70 42 71 35 72 37 73 43 74
REMARK SMILES IDX 36 75 38 76 39 77 40 78 41 79 65 80 66 81 74 82 67 83 69 84
REMARK SMILES IDX 75 85 68 86 70 87 71 88 72 89 73 90 50 91 51 92 59 93 52 94
REMARK SMILES IDX 54 95 60 96 53 97 55 98 56 99 57 100 58 101
REMARK H PARENT 80 54 48 65
REMARK Flexibility Score: inf
ROOT
ATOM      1  C   UNL A   1      31.278  29.434  24.415  1.00  0.00     0.188 C 
ENDROOT
BRANCH   1   2
ATOM      2  O   UNL A   1      30.205  30.089  23.740  1.00  0.00    -0.377 OA
BRANCH   2   3
ATOM      3  C   UNL A   1      29.794  29.685  22.447  1.00  0.00     0.188 C 
BRANCH   3   4
ATOM      4  C   UNL A   1      28.457  28.957  22.339  1.00  0.00     0.188 C 
BRANCH   4   5
ATOM      5  O   UNL A   1      27.938  28.332  23.490  1.00  0.00    -0.376 OA
BRANCH   5   6
ATOM      6  C   UNL A   1      28.213  26.949  23.702  1.00  0.00     0.202 C 
BRANCH   6   7
ATOM      7  C   UNL A   1      29.654  26.384  23.683  1.00  0.00     0.261 C 
BRANCH   7   8
ATOM      8  O   UNL A   1      30.007  25.388  24.690  1.00  0.00    -0.463 OA
BRANCH   8   9
ATOM      9  C   UNL A   1      30.702  24.328  24.235  1.00  0.00     0.311 C 
ATOM     10  O   UNL A   1      30.426  23.755  23.176  1.00  0.00    -0.252 OA
BRANCH   9  11
ATOM     11  C   UNL A   1      31.852  23.763  25.067  1.00  0.00     0.134 C 
ATOM     12  C   UNL A   1      35.312  24.158  23.698  1.00  0.00     0.147 C 
ATOM     13  N   UNL A   1      34.077  24.199  24.467  1.00  0.00    -0.339 N 
ATOM     14  C   UNL A   1      33.658  25.338  25.125  1.00  0.00     0.223 C 
ATOM     15  C   UNL A   1      33.176  23.043  24.661  1.00  0.00     0.060 C 
ATOM     16  O   UNL A   1      34.233  26.410  25.185  1.00  0.00    -0.275 OA
ATOM     17  C   UNL A   1      32.371  25.014  25.825  1.00  0.00     0.118 C 
ATOM     18  C   UNL A   1      33.229  22.122  23.436  1.00  0.00     0.051 C 
ATOM     19  C   UNL A   1      33.679  22.216  25.914  1.00  0.00     0.051 C 
ATOM     20  C   UNL A   1      32.772  20.690  23.631  1.00  0.00     0.120 C 
ATOM     21  C   UNL A   1      33.044  20.818  26.047  1.00  0.00     0.120 C 
ATOM     22  N   UNL A   1      33.345  20.086  24.829  1.00  0.00    -0.356 N 
BRANCH  22  23
ATOM     23  C   UNL A   1      33.183  18.695  24.818  1.00  0.00     0.128 A 
ATOM     24  C   UNL A   1      32.501  18.107  25.893  1.00  0.00     0.048 A 
ATOM     25  N   UNL A   1      33.787  17.935  23.878  1.00  0.00    -0.238 NA
ATOM     26  C   UNL A   1      32.485  16.722  26.051  1.00  0.00     0.026 A 
ATOM     27  C   UNL A   1      33.756  16.584  24.052  1.00  0.00     0.134 A 
ATOM     28  C   UNL A   1      33.143  15.942  25.119  1.00  0.00     0.059 A 
ATOM     29  Cl  UNL A   1      33.215  14.238  25.301  1.00  0.00    -0.083 Cl
ENDBRANCH  22  23
ENDBRANCH   9  11
ENDBRANCH   8   9
ENDBRANCH   7   8
ENDBRANCH   6   7
ENDBRANCH   5   6
ENDBRANCH   4   5
ENDBRANCH   3   4
ENDBRANCH   2   3
ENDBRANCH   1   2
BRANCH   1  30
ATOM     30  C   UNL A   1      31.757  30.002  25.754  1.00  0.00     0.188 C 
BRANCH  30  31
ATOM     31  O   UNL A   1      30.959  31.004  26.394  1.00  0.00    -0.376 OA
BRANCH  31  32
ATOM     32  C   UNL A   1      31.505  32.307  26.568  1.00  0.00     0.202 C 
BRANCH  32  33
ATOM     33  C   UNL A   1      32.756  32.394  27.436  1.00  0.00     0.261 C 
BRANCH  33  34
ATOM     34  O   UNL A   1      33.128  33.759  27.670  1.00  0.00    -0.460 OA
BRANCH  34  35
ATOM     35  C   UNL A   1      33.728  33.979  28.860  1.00  0.00     0.338 C 
ATOM     36  O   UNL A   1      33.312  34.669  29.781  1.00  0.00    -0.246 OA
BRANCH  35  37
ATOM     37  C   UNL A   1      34.913  33.119  28.979  1.00  0.00     0.060 A 
ATOM     38  C   UNL A   1      34.736  31.858  29.562  1.00  0.00     0.016 A 
ATOM     39  C   UNL A   1      36.183  33.566  28.605  1.00  0.00     0.016 A 
ATOM     40  C   UNL A   1      35.840  31.065  29.842  1.00  0.00     0.010 A 
ATOM     41  C   UNL A   1      37.293  32.774  28.897  1.00  0.00     0.010 A 
ATOM     42  C   UNL A   1      37.123  31.549  29.567  1.00  0.00    -0.014 A 
BRANCH  42  43
ATOM     43  C   UNL A   1      38.278  30.881  30.197  1.00  0.00     0.031 A 
ATOM     44  C   UNL A   1      38.632  31.260  31.608  1.00  0.00     0.074 A 
ATOM     45  C   UNL A   1      38.964  29.934  29.538  1.00  0.00     0.049 A 
ATOM     46  N   UNL A   1      39.609  30.833  32.360  1.00  0.00    -0.248 NA
ATOM     47  C   UNL A   1      37.766  32.261  32.256  1.00  0.00     0.031 C 
ATOM     48  C   UNL A   1      38.678  29.474  28.180  1.00  0.00     0.029 A 
ATOM     49  N   UNL A   1      40.059  29.206  29.920  1.00  0.00    -0.354 N 
ATOM     50  C   UNL A   1      39.498  31.534  33.555  1.00  0.00     0.074 A 
ATOM     51  C   UNL A   1      38.367  32.425  33.424  1.00  0.00     0.031 C 
ATOM     52  C   UNL A   1      39.594  28.557  27.831  1.00  0.00     0.029 A 
ATOM     53  C   UNL A   1      40.546  28.392  28.928  1.00  0.00     0.049 A 
ATOM     54  H   UNL A   1      40.458  29.260  30.819  1.00  0.00     0.167 HD
ATOM     55  C   UNL A   1      40.265  31.437  34.664  1.00  0.00     0.034 A 
ATOM     56  C   UNL A   1      41.654  27.627  28.904  1.00  0.00     0.034 A 
ATOM     57  C   UNL A   1      41.383  30.541  34.778  1.00  0.00     0.049 A 
ATOM     58  C   UNL A   1      42.520  27.570  30.135  1.00  0.00     0.074 A 
ATOM     59  C   UNL A   1      42.213  30.332  35.864  1.00  0.00     0.029 A 
ATOM     60  N   UNL A   1      41.840  29.718  33.759  1.00  0.00    -0.354 N 
ATOM     61  N   UNL A   1      42.355  28.169  31.290  1.00  0.00    -0.248 NA
ATOM     62  C   UNL A   1      43.707  26.707  30.068  1.00  0.00     0.031 C 
ATOM     63  C   UNL A   1      43.199  29.415  35.485  1.00  0.00     0.029 A 
ATOM     64  C   UNL A   1      42.952  29.012  34.181  1.00  0.00     0.049 A 
ATOM     65  H   UNL A   1      41.432  29.646  32.865  1.00  0.00     0.167 HD
ATOM     66  C   UNL A   1      43.393  27.727  32.102  1.00  0.00     0.074 A 
ATOM     67  C   UNL A   1      44.172  26.796  31.307  1.00  0.00     0.031 C 
ATOM     68  C   UNL A   1      43.684  28.061  33.384  1.00  0.00     0.034 A 
BRANCH  55  69
ATOM     69  C   UNL A   1      39.923  32.327  35.830  1.00  0.00     0.023 A 
ATOM     70  C   UNL A   1      40.563  33.575  35.980  1.00  0.00     0.012 A 
ATOM     71  C   UNL A   1      38.949  31.936  36.768  1.00  0.00     0.148 A 
ATOM     72  C   UNL A   1      40.270  34.397  37.068  1.00  0.00     0.002 A 
ATOM     73  C   UNL A   1      38.625  32.782  37.822  1.00  0.00     0.091 A 
ATOM     74  F   UNL A   1      38.369  30.735  36.625  1.00  0.00    -0.205 F 
ATOM     75  C   UNL A   1      39.296  34.006  37.982  1.00  0.00     0.022 A 
BRANCH  73  76
ATOM     76  S   UNL A   1      37.331  32.404  39.007  1.00  0.00     0.127 S 
ATOM     77  O   UNL A   1      36.140  32.883  38.308  1.00  0.00    -0.237 OA
ATOM     78  O   UNL A   1      37.431  30.948  39.115  1.00  0.00    -0.237 OA
ATOM     79  O   UNL A   1      37.674  33.128  40.223  1.00  0.00    -0.744 OA
ENDBRANCH  73  76
ENDBRANCH  55  69
BRANCH  56  80
ATOM     80  C   UNL A   1      41.991  26.845  27.684  1.00  0.00     0.023 A 
ATOM     81  C   UNL A   1      42.576  27.489  26.578  1.00  0.00     0.012 A 
ATOM     82  C   UNL A   1      41.757  25.456  27.627  1.00  0.00     0.148 A 
ATOM     83  C   UNL A   1      42.896  26.771  25.426  1.00  0.00     0.002 A 
ATOM     84  C   UNL A   1      42.129  24.738  26.498  1.00  0.00     0.091 A 
ATOM     85  F   UNL A   1      41.191  24.865  28.689  1.00  0.00    -0.205 F 
ATOM     86  C   UNL A   1      42.683  25.396  25.389  1.00  0.00     0.022 A 
BRANCH  84  87
ATOM     87  S   UNL A   1      42.006  22.948  26.410  1.00  0.00     0.127 S 
ATOM     88  O   UNL A   1      40.573  22.739  26.599  1.00  0.00    -0.237 OA
ATOM     89  O   UNL A   1      42.497  22.685  25.056  1.00  0.00    -0.237 OA
ATOM     90  O   UNL A   1      42.863  22.441  27.472  1.00  0.00    -0.744 OA
ENDBRANCH  84  87
ENDBRANCH  56  80
BRANCH  68  91
ATOM     91  C   UNL A   1      44.863  27.382  34.030  1.00  0.00     0.023 A 
ATOM     92  C   UNL A   1      46.132  27.996  34.015  1.00  0.00     0.012 A 
ATOM     93  C   UNL A   1      44.691  26.165  34.719  1.00  0.00     0.148 A 
ATOM     94  C   UNL A   1      47.218  27.389  34.642  1.00  0.00     0.002 A 
ATOM     95  C   UNL A   1      45.765  25.596  35.391  1.00  0.00     0.091 A 
ATOM     96  F   UNL A   1      43.480  25.591  34.709  1.00  0.00    -0.205 F 
ATOM     97  C   UNL A   1      47.033  26.198  35.340  1.00  0.00     0.022 A 
BRANCH  95  98
ATOM     98  S   UNL A   1      45.596  24.120  36.401  1.00  0.00     0.127 S 
ATOM     99  O   UNL A   1      46.771  24.215  37.265  1.00  0.00    -0.237 OA
ATOM    100  O   UNL A   1      44.320  24.354  37.077  1.00  0.00    -0.237 OA
ATOM    101  O   UNL A   1      45.594  22.996  35.475  1.00  0.00    -0.744 OA
ENDBRANCH  95  98
ENDBRANCH  68  91
ENDBRANCH  42  43
ENDBRANCH  35  37
ENDBRANCH  34  35
ENDBRANCH  33  34
ENDBRANCH  32  33
ENDBRANCH  31  32
ENDBRANCH  30  31
ENDBRANCH   1  30
TORSDOF 24
ENDMDL
MODEL 3
REMARK VINA RESULT:     -10.1      1.613      2.165
REMARK SMILES CN1C(=O)C[C@@H](C(=O)OCCOCCOCCOCCOC(=O)c2ccc(-c3c4nc(c(-c5cccc(S(=O)(=O)[O-])c5F)c5ccc([nH]5)c(-c5cccc(S(=O)(=O)[O-])c5F)c5nc(c(-c6cccc(S(=O)(=O)[O-])c6F)c6ccc3[nH]6)C=C5)C=C4)cc2)C12CCN(c1ccc(Cl)cn1)CC2
REMARK SMILES IDX 16 1 15 2 14 3 13 4 12 5 11 6 10 7 9 8 7 9 8 10 6 11 1 12
REMARK SMILES IDX 2 13 3 14 87 15 4 16 5 17 88 18 99 19 89 20 98 21 90 22
REMARK SMILES IDX 91 23 92 24 97 25 93 26 96 27 94 28 95 29 17 30 18 31 19 32
REMARK SMILES IDX 20 33 21 34 22 35 23 36 24 37 25 38 86 39 26 40 85 41 27 42
REMARK SMILES IDX 28 43 29 44 79 45 30 46 84 47 78 48 80 49 31 50 83 51 77 52
REMARK SMILES IDX 76 53 32 55 64 56 44 57 63 58 45 59 48 60 62 61 81 62 46 63
REMARK SMILES IDX 47 64 61 66 82 67 49 68 33 69 34 70 42 71 35 72 37 73 43 74
REMARK SMILES IDX 36 75 38 76 39 77 40 78 41 79 65 80 66 81 74 82 67 83 69 84
REMARK SMILES IDX 75 85 68 86 70 87 71 88 72 89 73 90 50 91 51 92 59 93 52 94
REMARK SMILES IDX 54 95 60 96 53 97 55 98 56 99 57 100 58 101
REMARK H PARENT 80 54 48 65
REMARK Flexibility Score: inf
ROOT
ATOM      1  C   UNL A   1      31.231  29.606  24.287  1.00  0.00     0.188 C 
ENDROOT
BRANCH   1   2
ATOM      2  O   UNL A   1      29.973  30.113  23.843  1.00  0.00    -0.377 OA
BRANCH   2   3
ATOM      3  C   UNL A   1      29.630  30.127  22.470  1.00  0.00     0.188 C 
BRANCH   3   4
ATOM      4  C   UNL A   1      28.198  29.745  22.107  1.00  0.00     0.188 C 
BRANCH   4   5
ATOM      5  O   UNL A   1      27.279  29.522  23.151  1.00  0.00    -0.376 OA
BRANCH   5   6
ATOM      6  C   UNL A   1      27.112  28.195  23.645  1.00  0.00     0.202 C 
BRANCH   6   7
ATOM      7  C   UNL A   1      28.141  27.075  23.361  1.00  0.00     0.261 C 
BRANCH   7   8
ATOM      8  O   UNL A   1      29.174  26.830  24.363  1.00  0.00    -0.463 OA
BRANCH   8   9
ATOM      9  C   UNL A   1      29.871  25.688  24.208  1.00  0.00     0.311 C 
ATOM     10  O   UNL A   1      29.919  25.078  23.135  1.00  0.00    -0.252 OA
BRANCH   9  11
ATOM     11  C   UNL A   1      30.599  25.077  25.404  1.00  0.00     0.134 C 
ATOM     12  C   UNL A   1      34.059  26.312  26.115  1.00  0.00     0.147 C 
ATOM     13  N   UNL A   1      32.645  25.966  26.127  1.00  0.00    -0.339 N 
ATOM     14  C   UNL A   1      31.687  26.806  26.657  1.00  0.00     0.223 C 
ATOM     15  C   UNL A   1      32.094  24.689  25.625  1.00  0.00     0.060 C 
ATOM     16  O   UNL A   1      31.866  27.887  27.190  1.00  0.00    -0.275 OA
ATOM     17  C   UNL A   1      30.357  26.125  26.523  1.00  0.00     0.118 C 
ATOM     18  C   UNL A   1      32.953  24.164  24.468  1.00  0.00     0.051 C 
ATOM     19  C   UNL A   1      32.148  23.622  26.793  1.00  0.00     0.051 C 
ATOM     20  C   UNL A   1      32.848  22.686  24.148  1.00  0.00     0.120 C 
ATOM     21  C   UNL A   1      31.914  22.169  26.336  1.00  0.00     0.120 C 
ATOM     22  N   UNL A   1      32.928  21.856  25.345  1.00  0.00    -0.356 N 
BRANCH  22  23
ATOM     23  C   UNL A   1      33.159  20.515  25.013  1.00  0.00     0.128 A 
ATOM     24  C   UNL A   1      34.487  20.063  25.000  1.00  0.00     0.048 A 
ATOM     25  N   UNL A   1      32.152  19.726  24.580  1.00  0.00    -0.238 NA
ATOM     26  C   UNL A   1      34.805  18.809  24.481  1.00  0.00     0.026 A 
ATOM     27  C   UNL A   1      32.486  18.503  24.080  1.00  0.00     0.134 A 
ATOM     28  C   UNL A   1      33.782  18.017  23.993  1.00  0.00     0.059 A 
ATOM     29  Cl  UNL A   1      34.123  16.494  23.279  1.00  0.00    -0.083 Cl
ENDBRANCH  22  23
ENDBRANCH   9  11
ENDBRANCH   8   9
ENDBRANCH   7   8
ENDBRANCH   6   7
ENDBRANCH   5   6
ENDBRANCH   4   5
ENDBRANCH   3   4
ENDBRANCH   2   3
ENDBRANCH   1   2
BRANCH   1  30
ATOM     30  C   UNL A   1      31.962  30.343  25.412  1.00  0.00     0.188 C 
BRANCH  30  31
ATOM     31  O   UNL A   1      31.182  31.045  26.388  1.00  0.00    -0.376 OA
BRANCH  31  32
ATOM     32  C   UNL A   1      31.406  32.439  26.569  1.00  0.00     0.202 C 
BRANCH  32  33
ATOM     33  C   UNL A   1      32.593  32.813  27.451  1.00  0.00     0.261 C 
BRANCH  33  34
ATOM     34  O   UNL A   1      32.673  34.233  27.636  1.00  0.00    -0.460 OA
BRANCH  34  35
ATOM     35  C   UNL A   1      33.261  34.615  28.789  1.00  0.00     0.338 C 
ATOM     36  O   UNL A   1      32.859  35.458  29.580  1.00  0.00    -0.246 OA
BRANCH  35  37
ATOM     37  C   UNL A   1      34.406  33.738  29.071  1.00  0.00     0.060 A 
ATOM     38  C   UNL A   1      34.187  32.647  29.920  1.00  0.00     0.016 A 
ATOM     39  C   UNL A   1      35.684  34.023  28.581  1.00  0.00     0.016 A 
ATOM     40  C   UNL A   1      35.260  31.875  30.345  1.00  0.00     0.010 A 
ATOM     41  C   UNL A   1      36.763  33.255  29.017  1.00  0.00     0.010 A 
ATOM     42  C   UNL A   1      36.555  32.218  29.943  1.00  0.00    -0.014 A 
BRANCH  42  43
ATOM     43  C   UNL A   1      37.696  31.641  30.681  1.00  0.00     0.031 A 
ATOM     44  C   UNL A   1      38.539  30.608  29.984  1.00  0.00     0.074 A 
ATOM     45  C   UNL A   1      37.993  32.060  31.921  1.00  0.00     0.049 A 
ATOM     46  N   UNL A   1      39.572  29.946  30.428  1.00  0.00    -0.248 NA
ATOM     47  C   UNL A   1      38.161  30.277  28.599  1.00  0.00     0.031 C 
ATOM     48  C   UNL A   1      37.256  33.079  32.666  1.00  0.00     0.029 A 
ATOM     49  N   UNL A   1      38.982  31.659  32.778  1.00  0.00    -0.354 N 
ATOM     50  C   UNL A   1      39.946  29.096  29.394  1.00  0.00     0.074 A 
ATOM     51  C   UNL A   1      39.023  29.317  28.304  1.00  0.00     0.031 C 
ATOM     52  C   UNL A   1      37.806  33.206  33.885  1.00  0.00     0.029 A 
ATOM     53  C   UNL A   1      38.908  32.255  34.012  1.00  0.00     0.049 A 
ATOM     54  H   UNL A   1      39.680  31.008  32.533  1.00  0.00     0.167 HD
ATOM     55  C   UNL A   1      40.974  28.218  29.354  1.00  0.00     0.034 A 
ATOM     56  C   UNL A   1      39.632  32.029  35.125  1.00  0.00     0.034 A 
ATOM     57  C   UNL A   1      41.885  28.016  30.446  1.00  0.00     0.049 A 
ATOM     58  C   UNL A   1      40.742  31.013  35.072  1.00  0.00     0.074 A 
ATOM     59  C   UNL A   1      42.984  27.178  30.509  1.00  0.00     0.029 A 
ATOM     60  N   UNL A   1      41.792  28.648  31.679  1.00  0.00    -0.354 N 
ATOM     61  N   UNL A   1      41.144  30.280  34.062  1.00  0.00    -0.248 NA
ATOM     62  C   UNL A   1      41.517  30.815  36.304  1.00  0.00     0.031 C 
ATOM     63  C   UNL A   1      43.526  27.270  31.795  1.00  0.00     0.029 A 
ATOM     64  C   UNL A   1      42.799  28.205  32.517  1.00  0.00     0.049 A 
ATOM     65  H   UNL A   1      41.108  29.314  31.921  1.00  0.00     0.167 HD
ATOM     66  C   UNL A   1      42.243  29.563  34.521  1.00  0.00     0.074 A 
ATOM     67  C   UNL A   1      42.451  29.964  35.900  1.00  0.00     0.031 C 
ATOM     68  C   UNL A   1      43.008  28.651  33.870  1.00  0.00     0.034 A 
BRANCH  55  69
ATOM     69  C   UNL A   1      41.153  27.410  28.096  1.00  0.00     0.023 A 
ATOM     70  C   UNL A   1      41.713  28.004  26.946  1.00  0.00     0.012 A 
ATOM     71  C   UNL A   1      40.786  26.051  28.060  1.00  0.00     0.148 A 
ATOM     72  C   UNL A   1      41.862  27.271  25.768  1.00  0.00     0.002 A 
ATOM     73  C   UNL A   1      40.985  25.313  26.899  1.00  0.00     0.091 A 
ATOM     74  F   UNL A   1      40.232  25.509  29.154  1.00  0.00    -0.205 F 
ATOM     75  C   UNL A   1      41.509  25.925  25.749  1.00  0.00     0.022 A 
BRANCH  73  76
ATOM     76  S   UNL A   1      40.634  23.555  26.796  1.00  0.00     0.127 S 
ATOM     77  O   UNL A   1      40.975  23.106  28.145  1.00  0.00    -0.237 OA
ATOM     78  O   UNL A   1      39.203  23.546  26.494  1.00  0.00    -0.237 OA
ATOM     79  O   UNL A   1      41.484  23.036  25.733  1.00  0.00    -0.744 OA
ENDBRANCH  73  76
ENDBRANCH  55  69
BRANCH  56  80
ATOM     80  C   UNL A   1      39.342  32.793  36.369  1.00  0.00     0.023 A 
ATOM     81  C   UNL A   1      39.937  34.052  36.572  1.00  0.00     0.012 A 
ATOM     82  C   UNL A   1      38.455  32.286  37.339  1.00  0.00     0.148 A 
ATOM     83  C   UNL A   1      39.677  34.780  37.733  1.00  0.00     0.002 A 
ATOM     84  C   UNL A   1      38.159  33.040  38.467  1.00  0.00     0.091 A 
ATOM     85  F   UNL A   1      37.907  31.080  37.129  1.00  0.00    -0.205 F 
ATOM     86  C   UNL A   1      38.782  34.280  38.674  1.00  0.00     0.022 A 
BRANCH  84  87
ATOM     87  S   UNL A   1      36.925  32.533  39.670  1.00  0.00     0.127 S 
ATOM     88  O   UNL A   1      35.705  32.547  38.868  1.00  0.00    -0.237 OA
ATOM     89  O   UNL A   1      37.406  31.203  40.043  1.00  0.00    -0.237 OA
ATOM     90  O   UNL A   1      36.988  33.520  40.739  1.00  0.00    -0.744 OA
ENDBRANCH  84  87
ENDBRANCH  56  80
BRANCH  68  91
ATOM     91  C   UNL A   1      44.174  28.059  34.619  1.00  0.00     0.023 A 
ATOM     92  C   UNL A   1      43.977  26.972  35.493  1.00  0.00     0.012 A 
ATOM     93  C   UNL A   1      45.479  28.540  34.394  1.00  0.00     0.148 A 
ATOM     94  C   UNL A   1      45.058  26.397  36.161  1.00  0.00     0.002 A 
ATOM     95  C   UNL A   1      46.557  27.925  35.018  1.00  0.00     0.091 A 
ATOM     96  F   UNL A   1      45.642  29.585  33.570  1.00  0.00    -0.205 F 
ATOM     97  C   UNL A   1      46.347  26.864  35.914  1.00  0.00     0.022 A 
BRANCH  95  98
ATOM     98  S   UNL A   1      48.259  28.391  34.682  1.00  0.00     0.127 S 
ATOM     99  O   UNL A   1      48.308  28.305  33.224  1.00  0.00    -0.237 OA
ATOM    100  O   UNL A   1      48.316  29.752  35.216  1.00  0.00    -0.237 OA
ATOM    101  O   UNL A   1      49.089  27.426  35.390  1.00  0.00    -0.744 OA
ENDBRANCH  95  98
ENDBRANCH  68  91
ENDBRANCH  42  43
ENDBRANCH  35  37
ENDBRANCH  34  35
ENDBRANCH  33  34
ENDBRANCH  32  33
ENDBRANCH  31  32
ENDBRANCH  30  31
ENDBRANCH   1  30
TORSDOF 24
ENDMDL
