MODEL 1
REMARK VINA RESULT:      -9.1      0.000      0.000
REMARK SMILES CCOC(=O)[C@@]1(C)C/C(=N/c2cccc(C(=O)OCCOCCOCCOCCOC(=O)c3ccc(-c4c5nc(c(-c6cccc(S(=O)(=O)[O-])c6F)c6ccc([nH]6)c(-c6cccc(S(=O)(=O)[O-])c6F)c6nc(c(-c7cccc(S(=O)(=O)[O-])c7F)c7ccc4[nH]7)C=C6)C=C5)cc3)c2)C(=O)N1c1ccccc1
REMARK SMILES IDX 23 1 22 2 21 3 20 4 19 5 18 6 16 7 17 8 15 9 11 10 12 11
REMARK SMILES IDX 96 12 13 13 14 14 10 15 6 16 7 17 8 18 99 19 9 20 97 21
REMARK SMILES IDX 98 22 4 23 5 24 3 25 2 26 1 27 100 28 101 29 105 30 102 31
REMARK SMILES IDX 104 32 103 33 24 34 25 35 26 36 27 37 28 38 29 39 30 40
REMARK SMILES IDX 31 41 32 42 33 43 34 44 95 45 35 46 94 47 36 48 37 49 38 50
REMARK SMILES IDX 88 51 39 52 93 53 87 54 89 55 40 56 92 57 86 58 85 59 41 61
REMARK SMILES IDX 73 62 53 63 72 64 54 65 57 66 71 67 90 68 55 69 56 70 70 72
REMARK SMILES IDX 91 73 58 74 42 75 43 76 51 77 44 78 46 79 52 80 45 81 47 82
REMARK SMILES IDX 48 83 49 84 50 85 74 86 75 87 83 88 76 89 78 90 84 91 77 92
REMARK SMILES IDX 79 93 80 94 81 95 82 96 59 97 60 98 68 99 61 100 63 101
REMARK SMILES IDX 69 102 62 103 64 104 65 105 66 106 67 107
REMARK H PARENT 89 60 57 71
REMARK Flexibility Score: inf
ROOT
ATOM      1  C   UNL A   1      33.278  35.956  29.368  1.00  0.00     0.188 C 
ENDROOT
BRANCH   1   2
ATOM      2  C   UNL A   1      33.159  34.482  28.947  1.00  0.00     0.188 C 
BRANCH   2   3
ATOM      3  O   UNL A   1      34.335  33.986  28.297  1.00  0.00    -0.376 OA
BRANCH   3   4
ATOM      4  C   UNL A   1      34.117  32.951  27.336  1.00  0.00     0.202 C 
BRANCH   4   5
ATOM      5  C   UNL A   1      33.886  31.546  27.907  1.00  0.00     0.261 C 
BRANCH   5   6
ATOM      6  O   UNL A   1      33.802  30.500  26.924  1.00  0.00    -0.460 OA
BRANCH   6   7
ATOM      7  C   UNL A   1      32.578  30.114  26.504  1.00  0.00     0.338 C 
ATOM      8  O   UNL A   1      31.505  30.575  26.852  1.00  0.00    -0.246 OA
BRANCH   7   9
ATOM      9  C   UNL A   1      32.744  29.104  25.430  1.00  0.00     0.062 A 
ATOM     10  C   UNL A   1      32.167  26.976  24.410  1.00  0.00     0.064 A 
ATOM     11  C   UNL A   1      33.086  27.235  23.390  1.00  0.00     0.028 A 
ATOM     12  C   UNL A   1      32.038  27.897  25.457  1.00  0.00     0.044 A 
ATOM     13  C   UNL A   1      33.821  28.424  23.375  1.00  0.00     0.003 A 
ATOM     14  C   UNL A   1      33.636  29.370  24.385  1.00  0.00     0.016 A 
BRANCH  10  15
ATOM     15  N   UNL A   1      31.440  25.775  24.408  1.00  0.00    -0.248 NA
ATOM     16  C   UNL A   1      32.702  22.535  24.204  1.00  0.00     0.148 C 
ATOM     17  C   UNL A   1      32.854  22.602  22.673  1.00  0.00     0.048 C 
ATOM     18  C   UNL A   1      31.426  23.339  24.594  1.00  0.00     0.103 C 
ATOM     19  N   UNL A   1      33.820  23.241  24.895  1.00  0.00    -0.290 N 
ATOM     20  C   UNL A   1      32.024  24.680  24.794  1.00  0.00     0.109 C 
ATOM     21  C   UNL A   1      33.414  24.495  25.348  1.00  0.00     0.273 C 
ATOM     22  O   UNL A   1      33.946  25.328  26.039  1.00  0.00    -0.267 OA
BRANCH  16  23
ATOM     23  C   UNL A   1      32.365  21.104  24.679  1.00  0.00     0.332 C 
ATOM     24  O   UNL A   1      31.455  20.852  25.460  1.00  0.00    -0.249 OA
BRANCH  23  25
ATOM     25  O   UNL A   1      33.285  20.192  24.257  1.00  0.00    -0.464 OA
BRANCH  25  26
ATOM     26  C   UNL A   1      32.798  18.855  24.081  1.00  0.00     0.229 C 
ATOM     27  C   UNL A   1      32.182  18.690  22.704  1.00  0.00     0.049 C 
ENDBRANCH  25  26
ENDBRANCH  23  25
ENDBRANCH  16  23
BRANCH  19  28
ATOM     28  C   UNL A   1      35.161  22.745  24.999  1.00  0.00     0.045 A 
ATOM     29  C   UNL A   1      36.270  23.604  24.892  1.00  0.00     0.026 A 
ATOM     30  C   UNL A   1      35.437  21.384  25.190  1.00  0.00     0.026 A 
ATOM     31  C   UNL A   1      37.585  23.125  24.966  1.00  0.00     0.002 A 
ATOM     32  C   UNL A   1      36.749  20.899  25.259  1.00  0.00     0.002 A 
ATOM     33  C   UNL A   1      37.825  21.769  25.144  1.00  0.00     0.000 A 
ENDBRANCH  19  28
ENDBRANCH  10  15
ENDBRANCH   7   9
ENDBRANCH   6   7
ENDBRANCH   5   6
ENDBRANCH   4   5
ENDBRANCH   3   4
ENDBRANCH   2   3
ENDBRANCH   1   2
BRANCH   1  34
ATOM     34  O   UNL A   1      33.339  36.093  30.787  1.00  0.00    -0.377 OA
BRANCH  34  35
ATOM     35  C   UNL A   1      34.171  35.170  31.495  1.00  0.00     0.188 C 
BRANCH  35  36
ATOM     36  C   UNL A   1      33.859  34.938  32.986  1.00  0.00     0.188 C 
BRANCH  36  37
ATOM     37  O   UNL A   1      34.793  34.030  33.594  1.00  0.00    -0.376 OA
BRANCH  37  38
ATOM     38  C   UNL A   1      34.775  32.703  33.058  1.00  0.00     0.202 C 
BRANCH  38  39
ATOM     39  C   UNL A   1      36.153  32.240  32.566  1.00  0.00     0.261 C 
BRANCH  39  40
ATOM     40  O   UNL A   1      36.643  31.058  33.217  1.00  0.00    -0.460 OA
BRANCH  40  41
ATOM     41  C   UNL A   1      37.314  30.178  32.439  1.00  0.00     0.338 C 
ATOM     42  O   UNL A   1      36.977  29.038  32.173  1.00  0.00    -0.246 OA
BRANCH  41  43
ATOM     43  C   UNL A   1      38.482  30.858  31.841  1.00  0.00     0.060 A 
ATOM     44  C   UNL A   1      38.691  30.728  30.462  1.00  0.00     0.016 A 
ATOM     45  C   UNL A   1      39.389  31.573  32.632  1.00  0.00     0.016 A 
ATOM     46  C   UNL A   1      39.835  31.272  29.879  1.00  0.00     0.010 A 
ATOM     47  C   UNL A   1      40.541  32.102  32.051  1.00  0.00     0.010 A 
ATOM     48  C   UNL A   1      40.785  31.924  30.679  1.00  0.00    -0.014 A 
BRANCH  48  49
ATOM     49  C   UNL A   1      42.116  32.262  30.131  1.00  0.00     0.031 A 
ATOM     50  C   UNL A   1      42.389  33.689  29.740  1.00  0.00     0.074 A 
ATOM     51  C   UNL A   1      43.045  31.309  29.936  1.00  0.00     0.049 A 
ATOM     52  N   UNL A   1      43.476  34.214  29.240  1.00  0.00    -0.248 NA
ATOM     53  C   UNL A   1      41.292  34.651  29.945  1.00  0.00     0.031 C 
ATOM     54  C   UNL A   1      42.884  29.895  30.266  1.00  0.00     0.029 A 
ATOM     55  N   UNL A   1      44.299  31.388  29.386  1.00  0.00    -0.354 N 
ATOM     56  C   UNL A   1      43.196  35.564  29.073  1.00  0.00     0.074 A 
ATOM     57  C   UNL A   1      41.837  35.780  29.517  1.00  0.00     0.031 C 
ATOM     58  C   UNL A   1      43.991  29.231  29.889  1.00  0.00     0.029 A 
ATOM     59  C   UNL A   1      44.932  30.172  29.284  1.00  0.00     0.049 A 
ATOM     60  H   UNL A   1      44.707  32.235  29.093  1.00  0.00     0.167 HD
ATOM     61  C   UNL A   1      44.008  36.543  28.611  1.00  0.00     0.034 A 
ATOM     62  C   UNL A   1      46.136  29.861  28.760  1.00  0.00     0.034 A 
ATOM     63  C   UNL A   1      45.356  36.331  28.168  1.00  0.00     0.049 A 
ATOM     64  C   UNL A   1      47.001  30.966  28.207  1.00  0.00     0.074 A 
ATOM     65  C   UNL A   1      46.271  37.263  27.714  1.00  0.00     0.029 A 
ATOM     66  N   UNL A   1      45.976  35.094  28.110  1.00  0.00    -0.354 N 
ATOM     67  N   UNL A   1      46.782  32.259  28.199  1.00  0.00    -0.248 NA
ATOM     68  C   UNL A   1      48.287  30.573  27.612  1.00  0.00     0.031 C 
ATOM     69  C   UNL A   1      47.452  36.585  27.384  1.00  0.00     0.029 A 
ATOM     70  C   UNL A   1      47.260  35.232  27.617  1.00  0.00     0.049 A 
ATOM     71  H   UNL A   1      45.563  34.241  28.380  1.00  0.00     0.167 HD
ATOM     72  C   UNL A   1      47.912  32.836  27.630  1.00  0.00     0.074 A 
ATOM     73  C   UNL A   1      48.819  31.751  27.312  1.00  0.00     0.031 C 
ATOM     74  C   UNL A   1      48.171  34.142  27.374  1.00  0.00     0.034 A 
BRANCH  61  75
ATOM     75  C   UNL A   1      43.467  37.942  28.635  1.00  0.00     0.023 A 
ATOM     76  C   UNL A   1      42.883  38.456  27.459  1.00  0.00     0.012 A 
ATOM     77  C   UNL A   1      43.525  38.741  29.790  1.00  0.00     0.148 A 
ATOM     78  C   UNL A   1      42.370  39.752  27.433  1.00  0.00     0.002 A 
ATOM     79  C   UNL A   1      42.999  40.030  29.759  1.00  0.00     0.091 A 
ATOM     80  F   UNL A   1      44.127  38.254  30.885  1.00  0.00    -0.205 F 
ATOM     81  C   UNL A   1      42.421  40.537  28.584  1.00  0.00     0.022 A 
BRANCH  79  82
ATOM     82  S   UNL A   1      43.029  41.069  31.228  1.00  0.00     0.127 S 
ATOM     83  O   UNL A   1      41.975  42.036  30.937  1.00  0.00    -0.237 OA
ATOM     84  O   UNL A   1      42.709  40.130  32.305  1.00  0.00    -0.237 OA
ATOM     85  O   UNL A   1      44.388  41.590  31.278  1.00  0.00    -0.744 OA
ENDBRANCH  79  82
ENDBRANCH  61  75
BRANCH  62  86
ATOM     86  C   UNL A   1      46.624  28.454  28.811  1.00  0.00     0.023 A 
ATOM     87  C   UNL A   1      47.458  28.059  29.875  1.00  0.00     0.012 A 
ATOM     88  C   UNL A   1      46.243  27.494  27.855  1.00  0.00     0.148 A 
ATOM     89  C   UNL A   1      47.915  26.743  29.974  1.00  0.00     0.002 A 
ATOM     90  C   UNL A   1      46.671  26.174  27.981  1.00  0.00     0.091 A 
ATOM     91  F   UNL A   1      45.449  27.869  26.840  1.00  0.00    -0.205 F 
ATOM     92  C   UNL A   1      47.516  25.796  29.033  1.00  0.00     0.022 A 
BRANCH  90  93
ATOM     93  S   UNL A   1      46.077  24.940  26.822  1.00  0.00     0.127 S 
ATOM     94  O   UNL A   1      47.019  23.840  27.002  1.00  0.00    -0.237 OA
ATOM     95  O   UNL A   1      44.717  24.653  27.288  1.00  0.00    -0.237 OA
ATOM     96  O   UNL A   1      46.119  25.637  25.538  1.00  0.00    -0.744 OA
ENDBRANCH  90  93
ENDBRANCH  62  86
BRANCH  74  97
ATOM     97  C   UNL A   1      49.482  34.485  26.726  1.00  0.00     0.023 A 
ATOM     98  C   UNL A   1      49.549  34.551  25.321  1.00  0.00     0.012 A 
ATOM     99  C   UNL A   1      50.604  34.850  27.494  1.00  0.00     0.148 A 
ATOM    100  C   UNL A   1      50.718  34.973  24.689  1.00  0.00     0.002 A 
ATOM    101  C   UNL A   1      51.759  35.296  26.857  1.00  0.00     0.091 A 
ATOM    102  F   UNL A   1      50.532  34.759  28.830  1.00  0.00    -0.205 F 
ATOM    103  C   UNL A   1      51.818  35.358  25.456  1.00  0.00     0.022 A 
BRANCH 101 104
ATOM    104  S   UNL A   1      53.166  35.875  27.816  1.00  0.00     0.127 S 
ATOM    105  O   UNL A   1      54.106  36.271  26.771  1.00  0.00    -0.237 OA
ATOM    106  O   UNL A   1      52.611  36.988  28.587  1.00  0.00    -0.237 OA
ATOM    107  O   UNL A   1      53.551  34.727  28.628  1.00  0.00    -0.744 OA
ENDBRANCH 101 104
ENDBRANCH  74  97
ENDBRANCH  48  49
ENDBRANCH  41  43
ENDBRANCH  40  41
ENDBRANCH  39  40
ENDBRANCH  38  39
ENDBRANCH  37  38
ENDBRANCH  36  37
ENDBRANCH  35  36
ENDBRANCH  34  35
ENDBRANCH   1  34
TORSDOF 28
ENDMDL
MODEL 2
REMARK VINA RESULT:      -8.7      3.658      8.575
REMARK SMILES CCOC(=O)[C@@]1(C)C/C(=N/c2cccc(C(=O)OCCOCCOCCOCCOC(=O)c3ccc(-c4c5nc(c(-c6cccc(S(=O)(=O)[O-])c6F)c6ccc([nH]6)c(-c6cccc(S(=O)(=O)[O-])c6F)c6nc(c(-c7cccc(S(=O)(=O)[O-])c7F)c7ccc4[nH]7)C=C6)C=C5)cc3)c2)C(=O)N1c1ccccc1
REMARK SMILES IDX 23 1 22 2 21 3 20 4 19 5 18 6 16 7 17 8 15 9 11 10 12 11
REMARK SMILES IDX 96 12 13 13 14 14 10 15 6 16 7 17 8 18 99 19 9 20 97 21
REMARK SMILES IDX 98 22 4 23 5 24 3 25 2 26 1 27 100 28 101 29 105 30 102 31
REMARK SMILES IDX 104 32 103 33 24 34 25 35 26 36 27 37 28 38 29 39 30 40
REMARK SMILES IDX 31 41 32 42 33 43 34 44 95 45 35 46 94 47 36 48 37 49 38 50
REMARK SMILES IDX 88 51 39 52 93 53 87 54 89 55 40 56 92 57 86 58 85 59 41 61
REMARK SMILES IDX 73 62 53 63 72 64 54 65 57 66 71 67 90 68 55 69 56 70 70 72
REMARK SMILES IDX 91 73 58 74 42 75 43 76 51 77 44 78 46 79 52 80 45 81 47 82
REMARK SMILES IDX 48 83 49 84 50 85 74 86 75 87 83 88 76 89 78 90 84 91 77 92
REMARK SMILES IDX 79 93 80 94 81 95 82 96 59 97 60 98 68 99 61 100 63 101
REMARK SMILES IDX 69 102 62 103 64 104 65 105 66 106 67 107
REMARK H PARENT 89 60 57 71
REMARK Flexibility Score: inf
ROOT
ATOM      1  C   UNL A   1      34.943  24.491  25.818  1.00  0.00     0.188 C 
ENDROOT
BRANCH   1   2
ATOM      2  C   UNL A   1      34.117  25.640  25.216  1.00  0.00     0.188 C 
BRANCH   2   3
ATOM      3  O   UNL A   1      33.956  26.746  26.111  1.00  0.00    -0.376 OA
BRANCH   3   4
ATOM      4  C   UNL A   1      32.874  27.631  25.810  1.00  0.00     0.202 C 
BRANCH   4   5
ATOM      5  C   UNL A   1      33.261  29.089  25.527  1.00  0.00     0.261 C 
BRANCH   5   6
ATOM      6  O   UNL A   1      33.242  29.952  26.676  1.00  0.00    -0.460 OA
BRANCH   6   7
ATOM      7  C   UNL A   1      34.401  30.168  27.334  1.00  0.00     0.338 C 
ATOM      8  O   UNL A   1      35.413  29.492  27.275  1.00  0.00    -0.246 OA
BRANCH   7   9
ATOM      9  C   UNL A   1      34.299  31.458  28.059  1.00  0.00     0.062 A 
ATOM     10  C   UNL A   1      34.700  32.822  30.029  1.00  0.00     0.064 A 
ATOM     11  C   UNL A   1      34.088  33.901  29.386  1.00  0.00     0.028 A 
ATOM     12  C   UNL A   1      34.757  31.586  29.375  1.00  0.00     0.044 A 
ATOM     13  C   UNL A   1      33.597  33.771  28.084  1.00  0.00     0.003 A 
ATOM     14  C   UNL A   1      33.720  32.554  27.411  1.00  0.00     0.016 A 
BRANCH  10  15
ATOM     15  N   UNL A   1      35.186  32.973  31.338  1.00  0.00    -0.248 NA
ATOM     16  C   UNL A   1      38.109  31.638  32.680  1.00  0.00     0.148 C 
ATOM     17  C   UNL A   1      37.463  30.264  32.934  1.00  0.00     0.048 C 
ATOM     18  C   UNL A   1      37.027  32.730  32.926  1.00  0.00     0.103 C 
ATOM     19  N   UNL A   1      38.495  31.802  31.247  1.00  0.00    -0.290 N 
ATOM     20  C   UNL A   1      36.458  32.834  31.561  1.00  0.00     0.109 C 
ATOM     21  C   UNL A   1      37.572  32.600  30.572  1.00  0.00     0.273 C 
ATOM     22  O   UNL A   1      37.555  33.072  29.462  1.00  0.00    -0.267 OA
BRANCH  16  23
ATOM     23  C   UNL A   1      39.179  31.968  33.744  1.00  0.00     0.332 C 
ATOM     24  O   UNL A   1      39.852  31.113  34.309  1.00  0.00    -0.249 OA
BRANCH  23  25
ATOM     25  O   UNL A   1      39.175  33.286  34.087  1.00  0.00    -0.464 OA
BRANCH  25  26
ATOM     26  C   UNL A   1      39.671  33.589  35.398  1.00  0.00     0.229 C 
ATOM     27  C   UNL A   1      39.957  35.074  35.528  1.00  0.00     0.049 C 
ENDBRANCH  25  26
ENDBRANCH  23  25
ENDBRANCH  16  23
BRANCH  19  28
ATOM     28  C   UNL A   1      39.608  31.154  30.619  1.00  0.00     0.045 A 
ATOM     29  C   UNL A   1      40.922  31.624  30.792  1.00  0.00     0.026 A 
ATOM     30  C   UNL A   1      39.444  30.037  29.788  1.00  0.00     0.026 A 
ATOM     31  C   UNL A   1      42.014  31.013  30.160  1.00  0.00     0.002 A 
ATOM     32  C   UNL A   1      40.531  29.426  29.149  1.00  0.00     0.002 A 
ATOM     33  C   UNL A   1      41.817  29.915  29.333  1.00  0.00     0.000 A 
ENDBRANCH  19  28
ENDBRANCH  10  15
ENDBRANCH   7   9
ENDBRANCH   6   7
ENDBRANCH   5   6
ENDBRANCH   4   5
ENDBRANCH   3   4
ENDBRANCH   2   3
ENDBRANCH   1   2
BRANCH   1  34
ATOM     34  O   UNL A   1      35.934  24.024  24.904  1.00  0.00    -0.377 OA
BRANCH  34  35
ATOM     35  C   UNL A   1      36.552  22.769  25.199  1.00  0.00     0.188 C 
BRANCH  35  36
ATOM     36  C   UNL A   1      37.935  22.804  25.876  1.00  0.00     0.188 C 
BRANCH  36  37
ATOM     37  O   UNL A   1      38.579  21.519  25.846  1.00  0.00    -0.376 OA
BRANCH  37  38
ATOM     38  C   UNL A   1      39.989  21.548  26.088  1.00  0.00     0.202 C 
BRANCH  38  39
ATOM     39  C   UNL A   1      40.371  22.437  27.280  1.00  0.00     0.261 C 
BRANCH  39  40
ATOM     40  O   UNL A   1      41.455  23.340  27.017  1.00  0.00    -0.460 OA
BRANCH  40  41
ATOM     41  C   UNL A   1      41.363  24.568  27.575  1.00  0.00     0.338 C 
ATOM     42  O   UNL A   1      40.419  25.013  28.205  1.00  0.00    -0.246 OA
BRANCH  41  43
ATOM     43  C   UNL A   1      42.656  25.268  27.416  1.00  0.00     0.060 A 
ATOM     44  C   UNL A   1      43.293  25.754  28.564  1.00  0.00     0.016 A 
ATOM     45  C   UNL A   1      43.211  25.486  26.150  1.00  0.00     0.016 A 
ATOM     46  C   UNL A   1      44.463  26.504  28.445  1.00  0.00     0.010 A 
ATOM     47  C   UNL A   1      44.371  26.251  26.030  1.00  0.00     0.010 A 
ATOM     48  C   UNL A   1      44.981  26.791  27.174  1.00  0.00    -0.014 A 
BRANCH  48  49
ATOM     49  C   UNL A   1      46.051  27.800  27.015  1.00  0.00     0.031 A 
ATOM     50  C   UNL A   1      45.658  29.245  26.877  1.00  0.00     0.074 A 
ATOM     51  C   UNL A   1      47.342  27.432  26.942  1.00  0.00     0.049 A 
ATOM     52  N   UNL A   1      46.418  30.297  26.726  1.00  0.00    -0.248 NA
ATOM     53  C   UNL A   1      44.215  29.545  26.919  1.00  0.00     0.031 C 
ATOM     54  C   UNL A   1      47.835  26.060  27.051  1.00  0.00     0.029 A 
ATOM     55  N   UNL A   1      48.471  28.182  26.731  1.00  0.00    -0.354 N 
ATOM     56  C   UNL A   1      45.551  31.380  26.658  1.00  0.00     0.074 A 
ATOM     57  C   UNL A   1      44.207  30.862  26.777  1.00  0.00     0.031 C 
ATOM     58  C   UNL A   1      49.170  26.064  26.881  1.00  0.00     0.029 A 
ATOM     59  C   UNL A   1      49.621  27.433  26.644  1.00  0.00     0.049 A 
ATOM     60  H   UNL A   1      48.459  29.163  26.651  1.00  0.00     0.167 HD
ATOM     61  C   UNL A   1      45.850  32.693  26.530  1.00  0.00     0.034 A 
ATOM     62  C   UNL A   1      50.890  27.817  26.399  1.00  0.00     0.034 A 
ATOM     63  C   UNL A   1      47.183  33.210  26.411  1.00  0.00     0.049 A 
ATOM     64  C   UNL A   1      51.189  29.284  26.211  1.00  0.00     0.074 A 
ATOM     65  C   UNL A   1      47.592  34.526  26.310  1.00  0.00     0.029 A 
ATOM     66  N   UNL A   1      48.324  32.426  26.359  1.00  0.00    -0.354 N 
ATOM     67  N   UNL A   1      50.376  30.309  26.305  1.00  0.00    -0.248 NA
ATOM     68  C   UNL A   1      52.580  29.649  25.909  1.00  0.00     0.031 C 
ATOM     69  C   UNL A   1      48.989  34.539  26.202  1.00  0.00     0.029 A 
ATOM     70  C   UNL A   1      49.441  33.228  26.218  1.00  0.00     0.049 A 
ATOM     71  H   UNL A   1      48.339  31.443  26.416  1.00  0.00     0.167 HD
ATOM     72  C   UNL A   1      51.160  31.440  26.104  1.00  0.00     0.074 A 
ATOM     73  C   UNL A   1      52.516  30.975  25.892  1.00  0.00     0.031 C 
ATOM     74  C   UNL A   1      50.791  32.744  26.078  1.00  0.00     0.034 A 
BRANCH  61  75
ATOM     75  C   UNL A   1      44.704  33.659  26.587  1.00  0.00     0.023 A 
ATOM     76  C   UNL A   1      44.082  34.035  25.378  1.00  0.00     0.012 A 
ATOM     77  C   UNL A   1      44.238  34.188  27.803  1.00  0.00     0.148 A 
ATOM     78  C   UNL A   1      43.016  34.933  25.382  1.00  0.00     0.002 A 
ATOM     79  C   UNL A   1      43.163  35.074  27.799  1.00  0.00     0.091 A 
ATOM     80  F   UNL A   1      44.871  33.857  28.938  1.00  0.00    -0.205 F 
ATOM     81  C   UNL A   1      42.552  35.447  26.592  1.00  0.00     0.022 A 
BRANCH  79  82
ATOM     82  S   UNL A   1      42.523  35.746  29.340  1.00  0.00     0.127 S 
ATOM     83  O   UNL A   1      43.376  36.914  29.539  1.00  0.00    -0.237 OA
ATOM     84  O   UNL A   1      41.131  36.062  29.012  1.00  0.00    -0.237 OA
ATOM     85  O   UNL A   1      42.676  34.663  30.302  1.00  0.00    -0.744 OA
ENDBRANCH  79  82
ENDBRANCH  61  75
BRANCH  62  86
ATOM     86  C   UNL A   1      51.984  26.804  26.400  1.00  0.00     0.023 A 
ATOM     87  C   UNL A   1      52.096  25.921  25.308  1.00  0.00     0.012 A 
ATOM     88  C   UNL A   1      52.935  26.729  27.434  1.00  0.00     0.148 A 
ATOM     89  C   UNL A   1      53.123  24.976  25.258  1.00  0.00     0.002 A 
ATOM     90  C   UNL A   1      53.979  25.810  27.358  1.00  0.00     0.091 A 
ATOM     91  F   UNL A   1      52.827  27.570  28.475  1.00  0.00    -0.205 F 
ATOM     92  C   UNL A   1      54.070  24.923  26.278  1.00  0.00     0.022 A 
BRANCH  90  93
ATOM     93  S   UNL A   1      55.249  25.813  28.626  1.00  0.00     0.127 S 
ATOM     94  O   UNL A   1      54.481  25.932  29.860  1.00  0.00    -0.237 OA
ATOM     95  O   UNL A   1      55.916  24.519  28.451  1.00  0.00    -0.237 OA
ATOM     96  O   UNL A   1      56.086  26.955  28.261  1.00  0.00    -0.744 OA
ENDBRANCH  90  93
ENDBRANCH  62  86
BRANCH  74  97
ATOM     97  C   UNL A   1      51.857  33.771  25.817  1.00  0.00     0.023 A 
ATOM     98  C   UNL A   1      52.096  34.182  24.493  1.00  0.00     0.012 A 
ATOM     99  C   UNL A   1      52.535  34.405  26.876  1.00  0.00     0.148 A 
ATOM    100  C   UNL A   1      52.998  35.211  24.224  1.00  0.00     0.002 A 
ATOM    101  C   UNL A   1      53.414  35.449  26.603  1.00  0.00     0.091 A 
ATOM    102  F   UNL A   1      52.315  33.985  28.131  1.00  0.00    -0.205 F 
ATOM    103  C   UNL A   1      53.648  35.853  25.279  1.00  0.00     0.022 A 
BRANCH 101 104
ATOM    104  S   UNL A   1      54.207  36.350  27.942  1.00  0.00     0.127 S 
ATOM    105  O   UNL A   1      53.092  36.585  28.856  1.00  0.00    -0.237 OA
ATOM    106  O   UNL A   1      55.207  35.403  28.437  1.00  0.00    -0.237 OA
ATOM    107  O   UNL A   1      54.776  37.530  27.303  1.00  0.00    -0.744 OA
ENDBRANCH 101 104
ENDBRANCH  74  97
ENDBRANCH  48  49
ENDBRANCH  41  43
ENDBRANCH  40  41
ENDBRANCH  39  40
ENDBRANCH  38  39
ENDBRANCH  37  38
ENDBRANCH  36  37
ENDBRANCH  35  36
ENDBRANCH  34  35
ENDBRANCH   1  34
TORSDOF 28
ENDMDL
MODEL 3
REMARK VINA RESULT:      -8.5      4.036      6.377
REMARK SMILES CCOC(=O)[C@@]1(C)C/C(=N/c2cccc(C(=O)OCCOCCOCCOCCOC(=O)c3ccc(-c4c5nc(c(-c6cccc(S(=O)(=O)[O-])c6F)c6ccc([nH]6)c(-c6cccc(S(=O)(=O)[O-])c6F)c6nc(c(-c7cccc(S(=O)(=O)[O-])c7F)c7ccc4[nH]7)C=C6)C=C5)cc3)c2)C(=O)N1c1ccccc1
REMARK SMILES IDX 23 1 22 2 21 3 20 4 19 5 18 6 16 7 17 8 15 9 11 10 12 11
REMARK SMILES IDX 96 12 13 13 14 14 10 15 6 16 7 17 8 18 99 19 9 20 97 21
REMARK SMILES IDX 98 22 4 23 5 24 3 25 2 26 1 27 100 28 101 29 105 30 102 31
REMARK SMILES IDX 104 32 103 33 24 34 25 35 26 36 27 37 28 38 29 39 30 40
REMARK SMILES IDX 31 41 32 42 33 43 34 44 95 45 35 46 94 47 36 48 37 49 38 50
REMARK SMILES IDX 88 51 39 52 93 53 87 54 89 55 40 56 92 57 86 58 85 59 41 61
REMARK SMILES IDX 73 62 53 63 72 64 54 65 57 66 71 67 90 68 55 69 56 70 70 72
REMARK SMILES IDX 91 73 58 74 42 75 43 76 51 77 44 78 46 79 52 80 45 81 47 82
REMARK SMILES IDX 48 83 49 84 50 85 74 86 75 87 83 88 76 89 78 90 84 91 77 92
REMARK SMILES IDX 79 93 80 94 81 95 82 96 59 97 60 98 68 99 61 100 63 101
REMARK SMILES IDX 69 102 62 103 64 104 65 105 66 106 67 107
REMARK H PARENT 89 60 57 71
REMARK Flexibility Score: inf
ROOT
ATOM      1  C   UNL A   1      33.721  37.336  32.375  1.00  0.00     0.188 C 
ENDROOT
BRANCH   1   2
ATOM      2  C   UNL A   1      33.055  36.667  31.161  1.00  0.00     0.188 C 
BRANCH   2   3
ATOM      3  O   UNL A   1      33.216  37.413  29.949  1.00  0.00    -0.376 OA
BRANCH   3   4
ATOM      4  C   UNL A   1      33.486  36.637  28.779  1.00  0.00     0.202 C 
BRANCH   4   5
ATOM      5  C   UNL A   1      32.874  35.230  28.754  1.00  0.00     0.261 C 
BRANCH   5   6
ATOM      6  O   UNL A   1      33.700  34.222  28.148  1.00  0.00    -0.460 OA
BRANCH   6   7
ATOM      7  C   UNL A   1      33.123  33.059  27.778  1.00  0.00     0.338 C 
ATOM      8  O   UNL A   1      31.962  32.888  27.450  1.00  0.00    -0.246 OA
BRANCH   7   9
ATOM      9  C   UNL A   1      34.173  32.013  27.706  1.00  0.00     0.062 A 
ATOM     10  C   UNL A   1      34.845  29.698  27.407  1.00  0.00     0.064 A 
ATOM     11  C   UNL A   1      36.178  30.080  27.574  1.00  0.00     0.028 A 
ATOM     12  C   UNL A   1      33.841  30.666  27.525  1.00  0.00     0.044 A 
ATOM     13  C   UNL A   1      36.515  31.420  27.789  1.00  0.00     0.003 A 
ATOM     14  C   UNL A   1      35.513  32.391  27.835  1.00  0.00     0.016 A 
BRANCH  10  15
ATOM     15  N   UNL A   1      34.527  28.347  27.193  1.00  0.00    -0.248 NA
ATOM     16  C   UNL A   1      31.762  27.061  25.512  1.00  0.00     0.148 C 
ATOM     17  C   UNL A   1      30.840  27.223  26.734  1.00  0.00     0.048 C 
ATOM     18  C   UNL A   1      33.179  26.675  26.028  1.00  0.00     0.103 C 
ATOM     19  N   UNL A   1      31.958  28.358  24.801  1.00  0.00    -0.290 N 
ATOM     20  C   UNL A   1      33.766  28.026  26.191  1.00  0.00     0.109 C 
ATOM     21  C   UNL A   1      33.198  28.915  25.113  1.00  0.00     0.273 C 
ATOM     22  O   UNL A   1      33.797  29.870  24.686  1.00  0.00    -0.267 OA
BRANCH  16  23
ATOM     23  C   UNL A   1      31.362  25.838  24.657  1.00  0.00     0.332 C 
ATOM     24  O   UNL A   1      30.255  25.315  24.708  1.00  0.00    -0.249 OA
BRANCH  23  25
ATOM     25  O   UNL A   1      32.419  25.323  23.970  1.00  0.00    -0.464 OA
BRANCH  25  26
ATOM     26  C   UNL A   1      32.194  25.080  22.574  1.00  0.00     0.229 C 
ATOM     27  C   UNL A   1      33.101  25.957  21.730  1.00  0.00     0.049 C 
ENDBRANCH  25  26
ENDBRANCH  23  25
ENDBRANCH  16  23
BRANCH  19  28
ATOM     28  C   UNL A   1      30.972  29.001  23.982  1.00  0.00     0.045 A 
ATOM     29  C   UNL A   1      30.332  30.182  24.397  1.00  0.00     0.026 A 
ATOM     30  C   UNL A   1      30.583  28.477  22.741  1.00  0.00     0.026 A 
ATOM     31  C   UNL A   1      29.348  30.802  23.616  1.00  0.00     0.002 A 
ATOM     32  C   UNL A   1      29.596  29.091  21.958  1.00  0.00     0.002 A 
ATOM     33  C   UNL A   1      28.976  30.253  22.397  1.00  0.00     0.000 A 
ENDBRANCH  19  28
ENDBRANCH  10  15
ENDBRANCH   7   9
ENDBRANCH   6   7
ENDBRANCH   5   6
ENDBRANCH   4   5
ENDBRANCH   3   4
ENDBRANCH   2   3
ENDBRANCH   1   2
BRANCH   1  34
ATOM     34  O   UNL A   1      34.139  36.373  33.340  1.00  0.00    -0.377 OA
BRANCH  34  35
ATOM     35  C   UNL A   1      34.040  34.995  32.972  1.00  0.00     0.188 C 
BRANCH  35  36
ATOM     36  C   UNL A   1      35.319  34.142  33.074  1.00  0.00     0.188 C 
BRANCH  36  37
ATOM     37  O   UNL A   1      35.299  33.282  34.226  1.00  0.00    -0.376 OA
BRANCH  37  38
ATOM     38  C   UNL A   1      36.354  33.511  35.165  1.00  0.00     0.202 C 
BRANCH  38  39
ATOM     39  C   UNL A   1      37.601  34.131  34.521  1.00  0.00     0.261 C 
BRANCH  39  40
ATOM     40  O   UNL A   1      38.787  34.036  35.326  1.00  0.00    -0.460 OA
BRANCH  40  41
ATOM     41  C   UNL A   1      39.881  34.682  34.863  1.00  0.00     0.338 C 
ATOM     42  O   UNL A   1      40.074  35.885  34.871  1.00  0.00    -0.246 OA
BRANCH  41  43
ATOM     43  C   UNL A   1      40.889  33.683  34.448  1.00  0.00     0.060 A 
ATOM     44  C   UNL A   1      42.224  33.897  34.814  1.00  0.00     0.016 A 
ATOM     45  C   UNL A   1      40.535  32.577  33.667  1.00  0.00     0.016 A 
ATOM     46  C   UNL A   1      43.217  33.030  34.358  1.00  0.00     0.010 A 
ATOM     47  C   UNL A   1      41.531  31.721  33.197  1.00  0.00     0.010 A 
ATOM     48  C   UNL A   1      42.878  31.964  33.512  1.00  0.00    -0.014 A 
BRANCH  48  49
ATOM     49  C   UNL A   1      43.935  31.207  32.806  1.00  0.00     0.031 A 
ATOM     50  C   UNL A   1      44.356  31.672  31.439  1.00  0.00     0.074 A 
ATOM     51  C   UNL A   1      44.469  30.099  33.347  1.00  0.00     0.049 A 
ATOM     52  N   UNL A   1      45.256  31.167  30.637  1.00  0.00    -0.248 NA
ATOM     53  C   UNL A   1      43.677  32.867  30.908  1.00  0.00     0.031 C 
ATOM     54  C   UNL A   1      44.127  29.552  34.658  1.00  0.00     0.029 A 
ATOM     55  N   UNL A   1      45.396  29.221  32.846  1.00  0.00    -0.354 N 
ATOM     56  C   UNL A   1      45.253  31.981  29.511  1.00  0.00     0.074 A 
ATOM     57  C   UNL A   1      44.260  33.009  29.727  1.00  0.00     0.031 C 
ATOM     58  C   UNL A   1      44.818  28.413  34.848  1.00  0.00     0.029 A 
ATOM     59  C   UNL A   1      45.642  28.150  33.671  1.00  0.00     0.049 A 
ATOM     60  H   UNL A   1      45.843  29.348  31.977  1.00  0.00     0.167 HD
ATOM     61  C   UNL A   1      46.025  31.893  28.404  1.00  0.00     0.034 A 
ATOM     62  C   UNL A   1      46.444  27.080  33.490  1.00  0.00     0.034 A 
ATOM     63  C   UNL A   1      47.011  30.872  28.187  1.00  0.00     0.049 A 
ATOM     64  C   UNL A   1      47.258  26.982  32.224  1.00  0.00     0.074 A 
ATOM     65  C   UNL A   1      47.868  30.716  27.113  1.00  0.00     0.029 A 
ATOM     66  N   UNL A   1      47.256  29.824  29.058  1.00  0.00    -0.354 N 
ATOM     67  N   UNL A   1      47.358  27.842  31.238  1.00  0.00    -0.248 NA
ATOM     68  C   UNL A   1      48.087  25.779  32.054  1.00  0.00     0.031 C 
ATOM     69  C   UNL A   1      48.639  29.569  27.339  1.00  0.00     0.029 A 
ATOM     70  C   UNL A   1      48.246  29.006  28.544  1.00  0.00     0.049 A 
ATOM     71  H   UNL A   1      46.795  29.681  29.916  1.00  0.00     0.167 HD
ATOM     72  C   UNL A   1      48.281  27.302  30.349  1.00  0.00     0.074 A 
ATOM     73  C   UNL A   1      48.719  26.043  30.917  1.00  0.00     0.031 C 
ATOM     74  C   UNL A   1      48.714  27.792  29.162  1.00  0.00     0.034 A 
BRANCH  61  75
ATOM     75  C   UNL A   1      45.874  32.980  27.381  1.00  0.00     0.023 A 
ATOM     76  C   UNL A   1      44.882  32.835  26.389  1.00  0.00     0.012 A 
ATOM     77  C   UNL A   1      46.685  34.127  27.391  1.00  0.00     0.148 A 
ATOM     78  C   UNL A   1      44.707  33.817  25.417  1.00  0.00     0.002 A 
ATOM     79  C   UNL A   1      46.495  35.111  26.423  1.00  0.00     0.091 A 
ATOM     80  F   UNL A   1      47.655  34.227  28.312  1.00  0.00    -0.205 F 
ATOM     81  C   UNL A   1      45.508  34.958  25.437  1.00  0.00     0.022 A 
BRANCH  79  82
ATOM     82  S   UNL A   1      47.495  36.606  26.426  1.00  0.00     0.127 S 
ATOM     83  O   UNL A   1      47.583  36.910  27.851  1.00  0.00    -0.237 OA
ATOM     84  O   UNL A   1      48.754  36.165  25.822  1.00  0.00    -0.237 OA
ATOM     85  O   UNL A   1      46.743  37.549  25.609  1.00  0.00    -0.744 OA
ENDBRANCH  79  82
ENDBRANCH  61  75
BRANCH  62  86
ATOM     86  C   UNL A   1      46.575  26.062  34.570  1.00  0.00     0.023 A 
ATOM     87  C   UNL A   1      47.298  26.391  35.733  1.00  0.00     0.012 A 
ATOM     88  C   UNL A   1      45.963  24.797  34.486  1.00  0.00     0.148 A 
ATOM     89  C   UNL A   1      47.422  25.474  36.780  1.00  0.00     0.002 A 
ATOM     90  C   UNL A   1      46.058  23.903  35.550  1.00  0.00     0.091 A 
ATOM     91  F   UNL A   1      45.274  24.483  33.377  1.00  0.00    -0.205 F 
ATOM     92  C   UNL A   1      46.796  24.233  36.694  1.00  0.00     0.022 A 
BRANCH  90  93
ATOM     93  S   UNL A   1      45.169  22.346  35.474  1.00  0.00     0.127 S 
ATOM     94  O   UNL A   1      45.487  21.724  36.756  1.00  0.00    -0.237 OA
ATOM     95  O   UNL A   1      43.769  22.753  35.331  1.00  0.00    -0.237 OA
ATOM     96  O   UNL A   1      45.716  21.704  34.280  1.00  0.00    -0.744 OA
ENDBRANCH  90  93
ENDBRANCH  62  86
BRANCH  74  97
ATOM     97  C   UNL A   1      49.715  26.980  28.390  1.00  0.00     0.023 A 
ATOM     98  C   UNL A   1      49.248  26.018  27.474  1.00  0.00     0.012 A 
ATOM     99  C   UNL A   1      51.096  27.241  28.481  1.00  0.00     0.148 A 
ATOM    100  C   UNL A   1      50.143  25.324  26.661  1.00  0.00     0.002 A 
ATOM    101  C   UNL A   1      51.981  26.564  27.648  1.00  0.00     0.091 A 
ATOM    102  F   UNL A   1      51.526  28.143  29.376  1.00  0.00    -0.205 F 
ATOM    103  C   UNL A   1      51.508  25.605  26.738  1.00  0.00     0.022 A 
BRANCH 101 104
ATOM    104  S   UNL A   1      53.736  26.958  27.665  1.00  0.00     0.127 S 
ATOM    105  O   UNL A   1      54.201  26.342  26.425  1.00  0.00    -0.237 OA
ATOM    106  O   UNL A   1      53.750  28.422  27.657  1.00  0.00    -0.237 OA
ATOM    107  O   UNL A   1      54.231  26.368  28.902  1.00  0.00    -0.744 OA
ENDBRANCH 101 104
ENDBRANCH  74  97
ENDBRANCH  48  49
ENDBRANCH  41  43
ENDBRANCH  40  41
ENDBRANCH  39  40
ENDBRANCH  38  39
ENDBRANCH  37  38
ENDBRANCH  36  37
ENDBRANCH  35  36
ENDBRANCH  34  35
ENDBRANCH   1  34
TORSDOF 28
ENDMDL
