MODEL 1
REMARK VINA RESULT:      -7.8      0.000      0.000
REMARK SMILES O=C(OCCOCCOCCOCCOC(=O)[C@@H]1CCCC[C@H]1C(=O)Nc1ccccc1C(=O)N1CCOCC1)c1ccc(-c2c3nc(c(-c4cccc(S(=O)(=O)[O-])c4F)c4ccc([nH]4)c(-c4cccc(S(=O)(=O)[O-])c4F)c4nc(c(-c5cccc(S(=O)(=O)[O-])c5F)c5ccc2[nH]5)C=C4)C=C3)cc1
REMARK SMILES IDX 9 1 8 2 7 3 6 4 5 5 4 6 3 7 2 8 1 9 41 10 42 11 103 12 43 13
REMARK SMILES IDX 102 14 44 15 45 16 46 17 96 18 47 19 101 20 95 21 97 22
REMARK SMILES IDX 48 23 100 24 94 25 93 26 49 28 81 29 61 30 80 31 62 32 65 33
REMARK SMILES IDX 79 34 98 35 63 36 64 37 78 39 99 40 66 41 50 42 51 43 59 44
REMARK SMILES IDX 52 45 54 46 60 47 53 48 55 49 56 50 57 51 58 52 82 53 83 54
REMARK SMILES IDX 91 55 84 56 86 57 92 58 85 59 87 60 88 61 89 62 90 63 67 64
REMARK SMILES IDX 68 65 76 66 69 67 71 68 77 69 70 70 72 71 73 72 74 73 75 74
REMARK SMILES IDX 10 75 11 76 12 77 13 78 14 79 15 80 16 81 17 82 18 83 19 84
REMARK SMILES IDX 23 85 20 86 22 87 21 88 24 89 25 90 26 91 27 93 28 94 32 95
REMARK SMILES IDX 29 96 31 97 30 98 33 99 34 100 35 101 36 102 40 103 37 104
REMARK SMILES IDX 39 105 38 106
REMARK H PARENT 97 27 65 38 26 92
REMARK Flexibility Score: inf
ROOT
ATOM      1  O   UNL A   1      49.307  39.006  29.074  1.00  0.00    -0.377 OA
ENDROOT
BRANCH   1   2
ATOM      2  C   UNL A   1      50.369  39.833  29.516  1.00  0.00     0.188 C 
BRANCH   2   3
ATOM      3  C   UNL A   1      51.604  39.751  28.597  1.00  0.00     0.188 C 
BRANCH   3   4
ATOM      4  O   UNL A   1      51.282  38.850  27.552  1.00  0.00    -0.376 OA
BRANCH   4   5
ATOM      5  C   UNL A   1      51.955  37.654  27.238  1.00  0.00     0.202 C 
BRANCH   5   6
ATOM      6  C   UNL A   1      52.137  37.129  25.818  1.00  0.00     0.261 C 
BRANCH   6   7
ATOM      7  O   UNL A   1      51.436  35.926  25.448  1.00  0.00    -0.460 OA
BRANCH   7   8
ATOM      8  C   UNL A   1      50.131  35.834  25.065  1.00  0.00     0.338 C 
ATOM      9  O   UNL A   1      49.730  36.377  24.052  1.00  0.00    -0.246 OA
BRANCH   8  10
ATOM     10  C   UNL A   1      49.189  35.117  25.953  1.00  0.00     0.060 A 
ATOM     11  C   UNL A   1      47.845  35.068  25.636  1.00  0.00     0.016 A 
ATOM     12  C   UNL A   1      49.622  34.410  27.065  1.00  0.00     0.016 A 
ATOM     13  C   UNL A   1      46.891  34.682  26.538  1.00  0.00     0.010 A 
ATOM     14  C   UNL A   1      48.672  33.787  27.883  1.00  0.00     0.010 A 
ATOM     15  C   UNL A   1      47.294  33.981  27.653  1.00  0.00    -0.014 A 
BRANCH  15  16
ATOM     16  C   UNL A   1      46.261  33.521  28.595  1.00  0.00     0.031 A 
ATOM     17  C   UNL A   1      45.648  32.188  28.329  1.00  0.00     0.074 A 
ATOM     18  C   UNL A   1      45.926  34.260  29.673  1.00  0.00     0.049 A 
ATOM     19  N   UNL A   1      44.515  31.707  28.742  1.00  0.00    -0.248 NA
ATOM     20  C   UNL A   1      46.410  31.280  27.448  1.00  0.00     0.031 C 
ATOM     21  C   UNL A   1      46.590  35.494  30.115  1.00  0.00     0.029 A 
ATOM     22  N   UNL A   1      44.925  34.089  30.592  1.00  0.00    -0.354 N 
ATOM     23  C   UNL A   1      44.355  30.511  28.057  1.00  0.00     0.074 A 
ATOM     24  C   UNL A   1      45.542  30.297  27.263  1.00  0.00     0.031 C 
ATOM     25  C   UNL A   1      45.983  35.963  31.213  1.00  0.00     0.029 A 
ATOM     26  C   UNL A   1      44.800  35.159  31.452  1.00  0.00     0.049 A 
ATOM     27  H   UNL A   1      44.355  33.287  30.634  1.00  0.00     0.167 HD
ATOM     28  C   UNL A   1      43.271  29.708  28.068  1.00  0.00     0.034 A 
ATOM     29  C   UNL A   1      43.776  35.510  32.251  1.00  0.00     0.034 A 
ATOM     30  C   UNL A   1      42.142  29.968  28.915  1.00  0.00     0.049 A 
ATOM     31  C   UNL A   1      42.566  34.619  32.223  1.00  0.00     0.074 A 
ATOM     32  C   UNL A   1      40.964  29.259  29.033  1.00  0.00     0.029 A 
ATOM     33  N   UNL A   1      42.062  31.044  29.791  1.00  0.00    -0.354 N 
ATOM     34  N   UNL A   1      42.379  33.506  31.552  1.00  0.00    -0.248 NA
ATOM     35  C   UNL A   1      41.421  35.031  33.042  1.00  0.00     0.031 C 
ATOM     36  C   UNL A   1      40.158  29.931  29.958  1.00  0.00     0.029 A 
ATOM     37  C   UNL A   1      40.850  31.033  30.446  1.00  0.00     0.049 A 
ATOM     38  H   UNL A   1      42.769  31.716  29.925  1.00  0.00     0.167 HD
ATOM     39  C   UNL A   1      41.104  33.071  31.879  1.00  0.00     0.074 A 
ATOM     40  C   UNL A   1      40.577  34.031  32.832  1.00  0.00     0.031 C 
ATOM     41  C   UNL A   1      40.413  31.996  31.427  1.00  0.00     0.034 A 
BRANCH  28  42
ATOM     42  C   UNL A   1      43.239  28.573  27.086  1.00  0.00     0.023 A 
ATOM     43  C   UNL A   1      42.581  28.703  25.847  1.00  0.00     0.012 A 
ATOM     44  C   UNL A   1      43.845  27.345  27.422  1.00  0.00     0.148 A 
ATOM     45  C   UNL A   1      42.494  27.616  24.976  1.00  0.00     0.002 A 
ATOM     46  C   UNL A   1      43.794  26.282  26.530  1.00  0.00     0.091 A 
ATOM     47  F   UNL A   1      44.435  27.232  28.620  1.00  0.00    -0.205 F 
ATOM     48  C   UNL A   1      43.106  26.410  25.313  1.00  0.00     0.022 A 
BRANCH  46  49
ATOM     49  S   UNL A   1      44.601  24.711  26.853  1.00  0.00     0.127 S 
ATOM     50  O   UNL A   1      44.073  24.378  28.181  1.00  0.00    -0.237 OA
ATOM     51  O   UNL A   1      44.074  23.876  25.767  1.00  0.00    -0.237 OA
ATOM     52  O   UNL A   1      46.024  24.963  26.800  1.00  0.00    -0.744 OA
ENDBRANCH  46  49
ENDBRANCH  28  42
BRANCH  29  53
ATOM     53  C   UNL A   1      43.818  36.773  33.047  1.00  0.00     0.023 A 
ATOM     54  C   UNL A   1      44.088  36.715  34.427  1.00  0.00     0.012 A 
ATOM     55  C   UNL A   1      43.604  38.035  32.450  1.00  0.00     0.148 A 
ATOM     56  C   UNL A   1      44.112  37.878  35.201  1.00  0.00     0.002 A 
ATOM     57  C   UNL A   1      43.687  39.195  33.214  1.00  0.00     0.091 A 
ATOM     58  F   UNL A   1      43.329  38.081  31.139  1.00  0.00    -0.205 F 
ATOM     59  C   UNL A   1      43.922  39.117  34.594  1.00  0.00     0.022 A 
BRANCH  57  60
ATOM     60  S   UNL A   1      43.571  40.837  32.491  1.00  0.00     0.127 S 
ATOM     61  O   UNL A   1      43.881  41.690  33.634  1.00  0.00    -0.237 OA
ATOM     62  O   UNL A   1      44.609  40.791  31.458  1.00  0.00    -0.237 OA
ATOM     63  O   UNL A   1      42.215  40.939  31.969  1.00  0.00    -0.744 OA
ENDBRANCH  57  60
ENDBRANCH  29  53
BRANCH  41  64
ATOM     64  C   UNL A   1      39.044  31.781  31.997  1.00  0.00     0.023 A 
ATOM     65  C   UNL A   1      38.901  31.268  33.299  1.00  0.00     0.012 A 
ATOM     66  C   UNL A   1      37.914  32.211  31.279  1.00  0.00     0.148 A 
ATOM     67  C   UNL A   1      37.637  31.171  33.875  1.00  0.00     0.002 A 
ATOM     68  C   UNL A   1      36.667  32.166  31.881  1.00  0.00     0.091 A 
ATOM     69  F   UNL A   1      38.087  32.675  30.032  1.00  0.00    -0.205 F 
ATOM     70  C   UNL A   1      36.525  31.637  33.174  1.00  0.00     0.022 A 
BRANCH  68  71
ATOM     71  S   UNL A   1      35.206  32.856  31.104  1.00  0.00     0.127 S 
ATOM     72  O   UNL A   1      35.619  34.238  30.868  1.00  0.00    -0.237 OA
ATOM     73  O   UNL A   1      35.085  32.038  29.897  1.00  0.00    -0.237 OA
ATOM     74  O   UNL A   1      34.120  32.687  32.060  1.00  0.00    -0.744 OA
ENDBRANCH  68  71
ENDBRANCH  41  64
ENDBRANCH  15  16
ENDBRANCH   8  10
ENDBRANCH   7   8
ENDBRANCH   6   7
ENDBRANCH   5   6
ENDBRANCH   4   5
ENDBRANCH   3   4
ENDBRANCH   2   3
ENDBRANCH   1   2
BRANCH   1  75
ATOM     75  C   UNL A   1      48.184  39.624  28.435  1.00  0.00     0.188 C 
BRANCH  75  76
ATOM     76  C   UNL A   1      48.114  39.702  26.925  1.00  0.00     0.188 C 
BRANCH  76  77
ATOM     77  O   UNL A   1      47.846  38.501  26.222  1.00  0.00    -0.376 OA
BRANCH  77  78
ATOM     78  C   UNL A   1      47.021  38.576  25.064  1.00  0.00     0.202 C 
BRANCH  78  79
ATOM     79  C   UNL A   1      46.895  40.013  24.473  1.00  0.00     0.261 C 
BRANCH  79  80
ATOM     80  O   UNL A   1      47.243  40.359  23.070  1.00  0.00    -0.463 OA
BRANCH  80  81
ATOM     81  C   UNL A   1      46.505  41.382  22.521  1.00  0.00     0.309 C 
ATOM     82  O   UNL A   1      46.142  41.361  21.337  1.00  0.00    -0.252 OA
BRANCH  81  83
ATOM     83  C   UNL A   1      46.429  42.790  23.251  1.00  0.00     0.111 C 
ATOM     84  C   UNL A   1      47.812  43.370  22.796  1.00  0.00     0.016 C 
ATOM     85  C   UNL A   1      46.138  43.333  24.719  1.00  0.00     0.093 C 
ATOM     86  C   UNL A   1      47.870  44.887  22.819  1.00  0.00     0.001 C 
ATOM     87  C   UNL A   1      46.255  44.902  24.661  1.00  0.00     0.014 C 
ATOM     88  C   UNL A   1      47.609  45.389  24.216  1.00  0.00     0.001 C 
BRANCH  85  89
ATOM     89  C   UNL A   1      44.943  43.345  25.744  1.00  0.00     0.228 C 
ATOM     90  O   UNL A   1      45.219  43.654  26.920  1.00  0.00    -0.274 OA
ATOM     91  N   UNL A   1      43.609  43.383  25.519  1.00  0.00    -0.325 N 
ATOM     92  H   UNL A   1      43.073  43.685  26.288  1.00  0.00     0.169 HD
BRANCH  91  93
ATOM     93  C   UNL A   1      42.872  43.072  24.391  1.00  0.00     0.054 A 
ATOM     94  C   UNL A   1      42.927  43.983  23.333  1.00  0.00     0.027 A 
ATOM     95  C   UNL A   1      42.147  41.899  24.265  1.00  0.00     0.063 A 
ATOM     96  C   UNL A   1      42.564  43.567  22.058  1.00  0.00     0.002 A 
ATOM     97  C   UNL A   1      41.869  41.440  22.971  1.00  0.00     0.016 A 
ATOM     98  C   UNL A   1      42.128  42.257  21.866  1.00  0.00     0.001 A 
BRANCH  95  99
ATOM     99  C   UNL A   1      41.548  41.216  25.462  1.00  0.00     0.256 C 
ATOM    100  O   UNL A   1      40.448  41.575  25.840  1.00  0.00    -0.269 OA
ATOM    101  N   UNL A   1      42.343  40.288  26.149  1.00  0.00    -0.334 N 
ATOM    102  C   UNL A   1      43.248  40.826  27.145  1.00  0.00     0.148 C 
ATOM    103  C   UNL A   1      41.912  38.928  26.508  1.00  0.00     0.148 C 
ATOM    104  C   UNL A   1      44.421  39.866  27.364  1.00  0.00     0.181 C 
ATOM    105  C   UNL A   1      43.066  37.972  26.843  1.00  0.00     0.181 C 
ATOM    106  O   UNL A   1      44.007  38.547  27.753  1.00  0.00    -0.378 OA
ENDBRANCH  95  99
ENDBRANCH  91  93
ENDBRANCH  85  89
ENDBRANCH  81  83
ENDBRANCH  80  81
ENDBRANCH  79  80
ENDBRANCH  78  79
ENDBRANCH  77  78
ENDBRANCH  76  77
ENDBRANCH  75  76
ENDBRANCH   1  75
TORSDOF 26
ENDMDL
MODEL 2
REMARK VINA RESULT:      -7.6      6.400     11.736
REMARK SMILES O=C(OCCOCCOCCOCCOC(=O)[C@@H]1CCCC[C@H]1C(=O)Nc1ccccc1C(=O)N1CCOCC1)c1ccc(-c2c3nc(c(-c4cccc(S(=O)(=O)[O-])c4F)c4ccc([nH]4)c(-c4cccc(S(=O)(=O)[O-])c4F)c4nc(c(-c5cccc(S(=O)(=O)[O-])c5F)c5ccc2[nH]5)C=C4)C=C3)cc1
REMARK SMILES IDX 9 1 8 2 7 3 6 4 5 5 4 6 3 7 2 8 1 9 41 10 42 11 103 12 43 13
REMARK SMILES IDX 102 14 44 15 45 16 46 17 96 18 47 19 101 20 95 21 97 22
REMARK SMILES IDX 48 23 100 24 94 25 93 26 49 28 81 29 61 30 80 31 62 32 65 33
REMARK SMILES IDX 79 34 98 35 63 36 64 37 78 39 99 40 66 41 50 42 51 43 59 44
REMARK SMILES IDX 52 45 54 46 60 47 53 48 55 49 56 50 57 51 58 52 82 53 83 54
REMARK SMILES IDX 91 55 84 56 86 57 92 58 85 59 87 60 88 61 89 62 90 63 67 64
REMARK SMILES IDX 68 65 76 66 69 67 71 68 77 69 70 70 72 71 73 72 74 73 75 74
REMARK SMILES IDX 10 75 11 76 12 77 13 78 14 79 15 80 16 81 17 82 18 83 19 84
REMARK SMILES IDX 23 85 20 86 22 87 21 88 24 89 25 90 26 91 27 93 28 94 32 95
REMARK SMILES IDX 29 96 31 97 30 98 33 99 34 100 35 101 36 102 40 103 37 104
REMARK SMILES IDX 39 105 38 106
REMARK H PARENT 97 27 65 38 26 92
REMARK Flexibility Score: inf
ROOT
ATOM      1  O   UNL A   1      46.886  35.552  28.847  1.00  0.00    -0.377 OA
ENDROOT
BRANCH   1   2
ATOM      2  C   UNL A   1      48.096  35.033  29.371  1.00  0.00     0.188 C 
BRANCH   2   3
ATOM      3  C   UNL A   1      49.289  35.988  29.162  1.00  0.00     0.188 C 
BRANCH   3   4
ATOM      4  O   UNL A   1      50.466  35.209  29.278  1.00  0.00    -0.376 OA
BRANCH   4   5
ATOM      5  C   UNL A   1      51.679  35.604  29.875  1.00  0.00     0.202 C 
BRANCH   5   6
ATOM      6  C   UNL A   1      51.816  35.989  31.344  1.00  0.00     0.261 C 
BRANCH   6   7
ATOM      7  O   UNL A   1      52.386  35.020  32.244  1.00  0.00    -0.460 OA
BRANCH   7   8
ATOM      8  C   UNL A   1      51.722  34.317  33.205  1.00  0.00     0.338 C 
ATOM      9  O   UNL A   1      51.846  34.590  34.386  1.00  0.00    -0.246 OA
BRANCH   8  10
ATOM     10  C   UNL A   1      50.900  33.160  32.786  1.00  0.00     0.060 A 
ATOM     11  C   UNL A   1      51.241  31.887  33.200  1.00  0.00     0.016 A 
ATOM     12  C   UNL A   1      49.734  33.316  32.052  1.00  0.00     0.016 A 
ATOM     13  C   UNL A   1      50.711  30.762  32.627  1.00  0.00     0.010 A 
ATOM     14  C   UNL A   1      49.026  32.175  31.657  1.00  0.00     0.010 A 
ATOM     15  C   UNL A   1      49.555  30.889  31.890  1.00  0.00    -0.014 A 
BRANCH  15  16
ATOM     16  C   UNL A   1      48.957  29.671  31.319  1.00  0.00     0.031 A 
ATOM     17  C   UNL A   1      49.666  29.047  30.165  1.00  0.00     0.074 A 
ATOM     18  C   UNL A   1      47.845  29.127  31.854  1.00  0.00     0.049 A 
ATOM     19  N   UNL A   1      49.209  28.232  29.264  1.00  0.00    -0.248 NA
ATOM     20  C   UNL A   1      51.084  29.419  29.987  1.00  0.00     0.031 C 
ATOM     21  C   UNL A   1      47.177  29.564  33.088  1.00  0.00     0.029 A 
ATOM     22  N   UNL A   1      47.063  28.092  31.416  1.00  0.00    -0.354 N 
ATOM     23  C   UNL A   1      50.230  28.111  28.330  1.00  0.00     0.074 A 
ATOM     24  C   UNL A   1      51.358  28.871  28.813  1.00  0.00     0.031 C 
ATOM     25  C   UNL A   1      46.095  28.805  33.308  1.00  0.00     0.029 A 
ATOM     26  C   UNL A   1      45.906  27.946  32.154  1.00  0.00     0.049 A 
ATOM     27  H   UNL A   1      47.300  27.513  30.657  1.00  0.00     0.167 HD
ATOM     28  C   UNL A   1      50.178  27.458  27.151  1.00  0.00     0.034 A 
ATOM     29  C   UNL A   1      44.771  27.288  31.859  1.00  0.00     0.034 A 
ATOM     30  C   UNL A   1      49.030  26.691  26.757  1.00  0.00     0.049 A 
ATOM     31  C   UNL A   1      44.723  26.595  30.525  1.00  0.00     0.074 A 
ATOM     32  C   UNL A   1      48.817  25.984  25.592  1.00  0.00     0.029 A 
ATOM     33  N   UNL A   1      47.891  26.544  27.540  1.00  0.00    -0.354 N 
ATOM     34  N   UNL A   1      45.662  26.503  29.611  1.00  0.00    -0.248 NA
ATOM     35  C   UNL A   1      43.465  25.931  30.169  1.00  0.00     0.031 C 
ATOM     36  C   UNL A   1      47.530  25.439  25.658  1.00  0.00     0.029 A 
ATOM     37  C   UNL A   1      46.960  25.771  26.881  1.00  0.00     0.049 A 
ATOM     38  H   UNL A   1      47.767  26.935  28.435  1.00  0.00     0.167 HD
ATOM     39  C   UNL A   1      45.119  25.755  28.579  1.00  0.00     0.074 A 
ATOM     40  C   UNL A   1      43.775  25.397  28.996  1.00  0.00     0.031 C 
ATOM     41  C   UNL A   1      45.658  25.409  27.384  1.00  0.00     0.034 A 
BRANCH  28  42
ATOM     42  C   UNL A   1      51.331  27.638  26.207  1.00  0.00     0.023 A 
ATOM     43  C   UNL A   1      51.339  28.680  25.260  1.00  0.00     0.012 A 
ATOM     44  C   UNL A   1      52.408  26.729  26.246  1.00  0.00     0.148 A 
ATOM     45  C   UNL A   1      52.382  28.791  24.339  1.00  0.00     0.002 A 
ATOM     46  C   UNL A   1      53.465  26.874  25.356  1.00  0.00     0.091 A 
ATOM     47  F   UNL A   1      52.364  25.725  27.131  1.00  0.00    -0.205 F 
ATOM     48  C   UNL A   1      53.446  27.894  24.392  1.00  0.00     0.022 A 
BRANCH  46  49
ATOM     49  S   UNL A   1      54.905  25.802  25.386  1.00  0.00     0.127 S 
ATOM     50  O   UNL A   1      55.604  26.285  26.582  1.00  0.00    -0.237 OA
ATOM     51  O   UNL A   1      54.290  24.479  25.540  1.00  0.00    -0.237 OA
ATOM     52  O   UNL A   1      55.602  26.015  24.136  1.00  0.00    -0.744 OA
ENDBRANCH  46  49
ENDBRANCH  28  42
BRANCH  29  53
ATOM     53  C   UNL A   1      43.594  27.331  32.777  1.00  0.00     0.023 A 
ATOM     54  C   UNL A   1      42.618  28.330  32.605  1.00  0.00     0.012 A 
ATOM     55  C   UNL A   1      43.423  26.386  33.812  1.00  0.00     0.148 A 
ATOM     56  C   UNL A   1      41.517  28.409  33.462  1.00  0.00     0.002 A 
ATOM     57  C   UNL A   1      42.295  26.434  34.626  1.00  0.00     0.091 A 
ATOM     58  F   UNL A   1      44.367  25.448  33.981  1.00  0.00    -0.205 F 
ATOM     59  C   UNL A   1      41.350  27.456  34.464  1.00  0.00     0.022 A 
BRANCH  57  60
ATOM     60  S   UNL A   1      41.945  25.177  35.862  1.00  0.00     0.127 S 
ATOM     61  O   UNL A   1      42.185  23.946  35.114  1.00  0.00    -0.237 OA
ATOM     62  O   UNL A   1      42.940  25.474  36.894  1.00  0.00    -0.237 OA
ATOM     63  O   UNL A   1      40.568  25.411  36.277  1.00  0.00    -0.744 OA
ENDBRANCH  57  60
ENDBRANCH  29  53
BRANCH  41  64
ATOM     64  C   UNL A   1      44.813  24.564  26.478  1.00  0.00     0.023 A 
ATOM     65  C   UNL A   1      43.825  25.168  25.679  1.00  0.00     0.012 A 
ATOM     66  C   UNL A   1      45.095  23.194  26.339  1.00  0.00     0.148 A 
ATOM     67  C   UNL A   1      43.114  24.406  24.755  1.00  0.00     0.002 A 
ATOM     68  C   UNL A   1      44.425  22.456  25.376  1.00  0.00     0.091 A 
ATOM     69  F   UNL A   1      46.029  22.650  27.133  1.00  0.00    -0.205 F 
ATOM     70  C   UNL A   1      43.427  23.057  24.592  1.00  0.00     0.022 A 
BRANCH  68  71
ATOM     71  S   UNL A   1      44.849  20.752  25.014  1.00  0.00     0.127 S 
ATOM     72  O   UNL A   1      44.572  20.675  23.581  1.00  0.00    -0.237 OA
ATOM     73  O   UNL A   1      46.268  20.707  25.367  1.00  0.00    -0.237 OA
ATOM     74  O   UNL A   1      43.989  19.932  25.858  1.00  0.00    -0.744 OA
ENDBRANCH  68  71
ENDBRANCH  41  64
ENDBRANCH  15  16
ENDBRANCH   8  10
ENDBRANCH   7   8
ENDBRANCH   6   7
ENDBRANCH   5   6
ENDBRANCH   4   5
ENDBRANCH   3   4
ENDBRANCH   2   3
ENDBRANCH   1   2
BRANCH   1  75
ATOM     75  C   UNL A   1      45.664  35.249  29.530  1.00  0.00     0.188 C 
BRANCH  75  76
ATOM     76  C   UNL A   1      45.039  33.877  29.398  1.00  0.00     0.188 C 
BRANCH  76  77
ATOM     77  O   UNL A   1      44.319  33.378  30.513  1.00  0.00    -0.376 OA
BRANCH  77  78
ATOM     78  C   UNL A   1      43.967  31.999  30.518  1.00  0.00     0.202 C 
BRANCH  78  79
ATOM     79  C   UNL A   1      42.477  31.731  30.892  1.00  0.00     0.261 C 
BRANCH  79  80
ATOM     80  O   UNL A   1      41.352  31.852  29.929  1.00  0.00    -0.463 OA
BRANCH  80  81
ATOM     81  C   UNL A   1      40.122  31.478  30.418  1.00  0.00     0.309 C 
ATOM     82  O   UNL A   1      39.386  32.277  31.012  1.00  0.00    -0.252 OA
BRANCH  81  83
ATOM     83  C   UNL A   1      39.770  29.940  30.594  1.00  0.00     0.111 C 
ATOM     84  C   UNL A   1      40.159  29.439  29.160  1.00  0.00     0.016 C 
ATOM     85  C   UNL A   1      38.528  29.072  31.086  1.00  0.00     0.093 C 
ATOM     86  C   UNL A   1      40.495  27.960  29.105  1.00  0.00     0.001 C 
ATOM     87  C   UNL A   1      38.946  27.559  30.961  1.00  0.00     0.014 C 
ATOM     88  C   UNL A   1      39.308  27.148  29.558  1.00  0.00     0.001 C 
BRANCH  85  89
ATOM     89  C   UNL A   1      37.708  28.855  32.412  1.00  0.00     0.228 C 
ATOM     90  O   UNL A   1      37.835  27.748  32.973  1.00  0.00    -0.274 OA
ATOM     91  N   UNL A   1      37.126  29.763  33.229  1.00  0.00    -0.325 N 
ATOM     92  H   UNL A   1      36.935  29.433  34.137  1.00  0.00     0.169 HD
BRANCH  91  93
ATOM     93  C   UNL A   1      36.756  31.077  33.006  1.00  0.00     0.054 A 
ATOM     94  C   UNL A   1      35.928  31.318  31.907  1.00  0.00     0.027 A 
ATOM     95  C   UNL A   1      37.130  32.118  33.840  1.00  0.00     0.063 A 
ATOM     96  C   UNL A   1      35.200  32.501  31.852  1.00  0.00     0.002 A 
ATOM     97  C   UNL A   1      36.332  33.269  33.844  1.00  0.00     0.016 A 
ATOM     98  C   UNL A   1      35.333  33.433  32.879  1.00  0.00     0.001 A 
BRANCH  95  99
ATOM     99  C   UNL A   1      38.421  32.082  34.606  1.00  0.00     0.256 C 
ATOM    100  O   UNL A   1      39.371  31.506  34.107  1.00  0.00    -0.269 OA
ATOM    101  N   UNL A   1      38.425  32.608  35.906  1.00  0.00    -0.334 N 
ATOM    102  C   UNL A   1      37.993  31.716  36.964  1.00  0.00     0.148 C 
ATOM    103  C   UNL A   1      39.406  33.582  36.406  1.00  0.00     0.148 C 
ATOM    104  C   UNL A   1      37.475  32.526  38.156  1.00  0.00     0.181 C 
ATOM    105  C   UNL A   1      38.959  34.331  37.670  1.00  0.00     0.181 C 
ATOM    106  O   UNL A   1      38.443  33.452  38.673  1.00  0.00    -0.378 OA
ENDBRANCH  95  99
ENDBRANCH  91  93
ENDBRANCH  85  89
ENDBRANCH  81  83
ENDBRANCH  80  81
ENDBRANCH  79  80
ENDBRANCH  78  79
ENDBRANCH  77  78
ENDBRANCH  76  77
ENDBRANCH  75  76
ENDBRANCH   1  75
TORSDOF 26
ENDMDL
MODEL 3
REMARK VINA RESULT:      -7.6      6.317     11.507
REMARK SMILES O=C(OCCOCCOCCOCCOC(=O)[C@@H]1CCCC[C@H]1C(=O)Nc1ccccc1C(=O)N1CCOCC1)c1ccc(-c2c3nc(c(-c4cccc(S(=O)(=O)[O-])c4F)c4ccc([nH]4)c(-c4cccc(S(=O)(=O)[O-])c4F)c4nc(c(-c5cccc(S(=O)(=O)[O-])c5F)c5ccc2[nH]5)C=C4)C=C3)cc1
REMARK SMILES IDX 9 1 8 2 7 3 6 4 5 5 4 6 3 7 2 8 1 9 41 10 42 11 103 12 43 13
REMARK SMILES IDX 102 14 44 15 45 16 46 17 96 18 47 19 101 20 95 21 97 22
REMARK SMILES IDX 48 23 100 24 94 25 93 26 49 28 81 29 61 30 80 31 62 32 65 33
REMARK SMILES IDX 79 34 98 35 63 36 64 37 78 39 99 40 66 41 50 42 51 43 59 44
REMARK SMILES IDX 52 45 54 46 60 47 53 48 55 49 56 50 57 51 58 52 82 53 83 54
REMARK SMILES IDX 91 55 84 56 86 57 92 58 85 59 87 60 88 61 89 62 90 63 67 64
REMARK SMILES IDX 68 65 76 66 69 67 71 68 77 69 70 70 72 71 73 72 74 73 75 74
REMARK SMILES IDX 10 75 11 76 12 77 13 78 14 79 15 80 16 81 17 82 18 83 19 84
REMARK SMILES IDX 23 85 20 86 22 87 21 88 24 89 25 90 26 91 27 93 28 94 32 95
REMARK SMILES IDX 29 96 31 97 30 98 33 99 34 100 35 101 36 102 40 103 37 104
REMARK SMILES IDX 39 105 38 106
REMARK H PARENT 97 27 65 38 26 92
REMARK Flexibility Score: inf
ROOT
ATOM      1  O   UNL A   1      46.996  35.513  28.884  1.00  0.00    -0.377 OA
ENDROOT
BRANCH   1   2
ATOM      2  C   UNL A   1      48.208  35.035  29.441  1.00  0.00     0.188 C 
BRANCH   2   3
ATOM      3  C   UNL A   1      49.348  36.070  29.354  1.00  0.00     0.188 C 
BRANCH   3   4
ATOM      4  O   UNL A   1      50.562  35.362  29.529  1.00  0.00    -0.376 OA
BRANCH   4   5
ATOM      5  C   UNL A   1      51.688  35.793  30.257  1.00  0.00     0.202 C 
BRANCH   5   6
ATOM      6  C   UNL A   1      51.683  36.037  31.763  1.00  0.00     0.261 C 
BRANCH   6   7
ATOM      7  O   UNL A   1      52.248  35.020  32.612  1.00  0.00    -0.460 OA
BRANCH   7   8
ATOM      8  C   UNL A   1      51.584  34.282  33.546  1.00  0.00     0.338 C 
ATOM      9  O   UNL A   1      51.704  34.514  34.736  1.00  0.00    -0.246 OA
BRANCH   8  10
ATOM     10  C   UNL A   1      50.768  33.138  33.084  1.00  0.00     0.060 A 
ATOM     11  C   UNL A   1      51.063  31.860  33.521  1.00  0.00     0.016 A 
ATOM     12  C   UNL A   1      49.649  33.310  32.284  1.00  0.00     0.016 A 
ATOM     13  C   UNL A   1      50.547  30.742  32.923  1.00  0.00     0.010 A 
ATOM     14  C   UNL A   1      48.944  32.179  31.853  1.00  0.00     0.010 A 
ATOM     15  C   UNL A   1      49.438  30.885  32.121  1.00  0.00    -0.014 A 
BRANCH  15  16
ATOM     16  C   UNL A   1      48.853  29.675  31.521  1.00  0.00     0.031 A 
ATOM     17  C   UNL A   1      49.571  29.083  30.356  1.00  0.00     0.074 A 
ATOM     18  C   UNL A   1      47.743  29.110  32.040  1.00  0.00     0.049 A 
ATOM     19  N   UNL A   1      49.124  28.284  29.435  1.00  0.00    -0.248 NA
ATOM     20  C   UNL A   1      50.986  29.472  30.190  1.00  0.00     0.031 C 
ATOM     21  C   UNL A   1      47.067  29.512  33.281  1.00  0.00     0.029 A 
ATOM     22  N   UNL A   1      46.972  28.077  31.576  1.00  0.00    -0.354 N 
ATOM     23  C   UNL A   1      50.149  28.193  28.503  1.00  0.00     0.074 A 
ATOM     24  C   UNL A   1      51.269  28.953  29.006  1.00  0.00     0.031 C 
ATOM     25  C   UNL A   1      45.992  28.739  33.480  1.00  0.00     0.029 A 
ATOM     26  C   UNL A   1      45.815  27.905  32.306  1.00  0.00     0.049 A 
ATOM     27  H   UNL A   1      47.217  27.517  30.805  1.00  0.00     0.167 HD
ATOM     28  C   UNL A   1      50.107  27.566  27.309  1.00  0.00     0.034 A 
ATOM     29  C   UNL A   1      44.687  27.243  31.992  1.00  0.00     0.034 A 
ATOM     30  C   UNL A   1      48.968  26.799  26.894  1.00  0.00     0.049 A 
ATOM     31  C   UNL A   1      44.649  26.580  30.644  1.00  0.00     0.074 A 
ATOM     32  C   UNL A   1      48.765  26.116  25.713  1.00  0.00     0.029 A 
ATOM     33  N   UNL A   1      47.827  26.624  27.669  1.00  0.00    -0.354 N 
ATOM     34  N   UNL A   1      45.591  26.516  29.731  1.00  0.00    -0.248 NA
ATOM     35  C   UNL A   1      43.399  25.912  30.269  1.00  0.00     0.031 C 
ATOM     36  C   UNL A   1      47.483  25.558  25.762  1.00  0.00     0.029 A 
ATOM     37  C   UNL A   1      46.905  25.857  26.990  1.00  0.00     0.049 A 
ATOM     38  H   UNL A   1      47.696  26.993  28.572  1.00  0.00     0.167 HD
ATOM     39  C   UNL A   1      45.059  25.787  28.681  1.00  0.00     0.074 A 
ATOM     40  C   UNL A   1      43.717  25.407  29.085  1.00  0.00     0.031 C 
ATOM     41  C   UNL A   1      45.605  25.473  27.480  1.00  0.00     0.034 A 
BRANCH  28  42
ATOM     42  C   UNL A   1      51.262  27.778  26.373  1.00  0.00     0.023 A 
ATOM     43  C   UNL A   1      51.242  28.811  25.417  1.00  0.00     0.012 A 
ATOM     44  C   UNL A   1      52.369  26.907  26.430  1.00  0.00     0.148 A 
ATOM     45  C   UNL A   1      52.289  28.949  24.504  1.00  0.00     0.002 A 
ATOM     46  C   UNL A   1      53.428  27.080  25.547  1.00  0.00     0.091 A 
ATOM     47  F   UNL A   1      52.352  25.910  27.324  1.00  0.00    -0.205 F 
ATOM     48  C   UNL A   1      53.383  28.090  24.574  1.00  0.00     0.022 A 
BRANCH  46  49
ATOM     49  S   UNL A   1      54.905  26.059  25.600  1.00  0.00     0.127 S 
ATOM     50  O   UNL A   1      55.804  26.888  26.411  1.00  0.00    -0.237 OA
ATOM     51  O   UNL A   1      54.413  24.857  26.283  1.00  0.00    -0.237 OA
ATOM     52  O   UNL A   1      55.317  25.862  24.228  1.00  0.00    -0.744 OA
ENDBRANCH  46  49
ENDBRANCH  28  42
BRANCH  29  53
ATOM     53  C   UNL A   1      43.506  27.256  32.907  1.00  0.00     0.023 A 
ATOM     54  C   UNL A   1      42.537  28.268  32.775  1.00  0.00     0.012 A 
ATOM     55  C   UNL A   1      43.324  26.268  33.900  1.00  0.00     0.148 A 
ATOM     56  C   UNL A   1      41.433  28.318  33.631  1.00  0.00     0.002 A 
ATOM     57  C   UNL A   1      42.193  26.289  34.711  1.00  0.00     0.091 A 
ATOM     58  F   UNL A   1      44.260  25.317  34.032  1.00  0.00    -0.205 F 
ATOM     59  C   UNL A   1      41.256  27.324  34.590  1.00  0.00     0.022 A 
BRANCH  57  60
ATOM     60  S   UNL A   1      41.829  24.982  35.891  1.00  0.00     0.127 S 
ATOM     61  O   UNL A   1      42.873  25.184  36.891  1.00  0.00    -0.237 OA
ATOM     62  O   UNL A   1      40.478  25.334  36.332  1.00  0.00    -0.237 OA
ATOM     63  O   UNL A   1      41.904  23.740  35.133  1.00  0.00    -0.744 OA
ENDBRANCH  57  60
ENDBRANCH  29  53
BRANCH  41  64
ATOM     64  C   UNL A   1      44.771  24.641  26.553  1.00  0.00     0.023 A 
ATOM     65  C   UNL A   1      43.783  25.254  25.761  1.00  0.00     0.012 A 
ATOM     66  C   UNL A   1      45.063  23.275  26.387  1.00  0.00     0.148 A 
ATOM     67  C   UNL A   1      43.082  24.506  24.818  1.00  0.00     0.002 A 
ATOM     68  C   UNL A   1      44.403  22.553  25.406  1.00  0.00     0.091 A 
ATOM     69  F   UNL A   1      45.997  22.722  27.175  1.00  0.00    -0.205 F 
ATOM     70  C   UNL A   1      43.405  23.162  24.629  1.00  0.00     0.022 A 
BRANCH  68  71
ATOM     71  S   UNL A   1      44.841  20.859  25.011  1.00  0.00     0.127 S 
ATOM     72  O   UNL A   1      44.563  20.807  23.577  1.00  0.00    -0.237 OA
ATOM     73  O   UNL A   1      46.261  20.820  25.362  1.00  0.00    -0.237 OA
ATOM     74  O   UNL A   1      43.990  20.017  25.841  1.00  0.00    -0.744 OA
ENDBRANCH  68  71
ENDBRANCH  41  64
ENDBRANCH  15  16
ENDBRANCH   8  10
ENDBRANCH   7   8
ENDBRANCH   6   7
ENDBRANCH   5   6
ENDBRANCH   4   5
ENDBRANCH   3   4
ENDBRANCH   2   3
ENDBRANCH   1   2
BRANCH   1  75
ATOM     75  C   UNL A   1      45.771  35.210  29.561  1.00  0.00     0.188 C 
BRANCH  75  76
ATOM     76  C   UNL A   1      45.287  33.779  29.657  1.00  0.00     0.188 C 
BRANCH  76  77
ATOM     77  O   UNL A   1      44.510  33.428  30.789  1.00  0.00    -0.376 OA
BRANCH  77  78
ATOM     78  C   UNL A   1      44.234  32.049  31.007  1.00  0.00     0.202 C 
BRANCH  78  79
ATOM     79  C   UNL A   1      42.712  31.713  31.064  1.00  0.00     0.261 C 
BRANCH  79  80
ATOM     80  O   UNL A   1      41.882  31.453  29.860  1.00  0.00    -0.463 OA
BRANCH  80  81
ATOM     81  C   UNL A   1      40.532  31.327  30.096  1.00  0.00     0.309 C 
ATOM     82  O   UNL A   1      39.796  32.315  30.216  1.00  0.00    -0.252 OA
BRANCH  81  83
ATOM     83  C   UNL A   1      39.942  29.947  30.614  1.00  0.00     0.111 C 
ATOM     84  C   UNL A   1      40.092  29.111  29.296  1.00  0.00     0.016 C 
ATOM     85  C   UNL A   1      38.626  29.442  31.357  1.00  0.00     0.093 C 
ATOM     86  C   UNL A   1      40.162  27.614  29.532  1.00  0.00     0.001 C 
ATOM     87  C   UNL A   1      38.764  27.882  31.527  1.00  0.00     0.014 C 
ATOM     88  C   UNL A   1      38.906  27.144  30.222  1.00  0.00     0.001 C 
BRANCH  85  89
ATOM     89  C   UNL A   1      37.920  29.647  32.749  1.00  0.00     0.228 C 
ATOM     90  O   UNL A   1      37.374  28.644  33.251  1.00  0.00    -0.274 OA
ATOM     91  N   UNL A   1      38.063  30.642  33.654  1.00  0.00    -0.325 N 
ATOM     92  H   UNL A   1      37.760  30.414  34.564  1.00  0.00     0.169 HD
BRANCH  91  93
ATOM     93  C   UNL A   1      38.563  31.924  33.520  1.00  0.00     0.054 A 
ATOM     94  C   UNL A   1      39.914  32.107  33.829  1.00  0.00     0.027 A 
ATOM     95  C   UNL A   1      37.803  32.985  33.055  1.00  0.00     0.063 A 
ATOM     96  C   UNL A   1      40.575  33.230  33.345  1.00  0.00     0.002 A 
ATOM     97  C   UNL A   1      38.479  34.070  32.483  1.00  0.00     0.016 A 
ATOM     98  C   UNL A   1      39.872  34.162  32.585  1.00  0.00     0.001 A 
BRANCH  95  99
ATOM     99  C   UNL A   1      36.320  33.044  33.284  1.00  0.00     0.256 C 
ATOM    100  O   UNL A   1      35.891  32.698  34.370  1.00  0.00    -0.269 OA
ATOM    101  N   UNL A   1      35.503  33.380  32.195  1.00  0.00    -0.334 N 
ATOM    102  C   UNL A   1      35.131  32.295  31.310  1.00  0.00     0.148 C 
ATOM    103  C   UNL A   1      34.460  34.417  32.226  1.00  0.00     0.148 C 
ATOM    104  C   UNL A   1      34.793  32.843  29.920  1.00  0.00     0.181 C 
ATOM    105  C   UNL A   1      34.021  34.906  30.838  1.00  0.00     0.181 C 
ATOM    106  O   UNL A   1      33.748  33.827  29.939  1.00  0.00    -0.378 OA
ENDBRANCH  95  99
ENDBRANCH  91  93
ENDBRANCH  85  89
ENDBRANCH  81  83
ENDBRANCH  80  81
ENDBRANCH  79  80
ENDBRANCH  78  79
ENDBRANCH  77  78
ENDBRANCH  76  77
ENDBRANCH  75  76
ENDBRANCH   1  75
TORSDOF 26
ENDMDL
