MODEL 1
REMARK VINA RESULT:      -6.2      0.000      0.000
REMARK SMILES CCN(CCC(=O)OCCOCCOCCOCCOC(=O)c1ccc(-c2c3nc(c(-c4cccc(S(=O)(=O)[O-])c4F)c4ccc([nH]4)c(-c4cccc(S(=O)(=O)[O-])c4F)c4nc(c(-c5cccc(S(=O)(=O)[O-])c5F)c5ccc2[nH]5)C=C4)C=C3)cc1)C(=O)N(C)CCc1cccs1
REMARK SMILES IDX 12 1 11 2 10 3 9 4 8 5 6 6 7 7 5 8 4 9 3 10 2 11 1 12 86 13
REMARK SMILES IDX 87 14 88 15 89 16 90 17 91 18 92 19 93 20 96 21 94 22 95 23
REMARK SMILES IDX 13 24 14 25 15 26 16 27 17 28 18 29 19 30 20 31 21 32 22 33
REMARK SMILES IDX 23 34 24 35 85 36 25 37 84 38 26 39 27 40 28 41 78 42 29 43
REMARK SMILES IDX 83 44 77 45 79 46 30 47 82 48 76 49 75 50 31 52 63 53 43 54
REMARK SMILES IDX 62 55 44 56 47 57 61 58 80 59 45 60 46 61 60 63 81 64 48 65
REMARK SMILES IDX 32 66 33 67 41 68 34 69 36 70 42 71 35 72 37 73 38 74 39 75
REMARK SMILES IDX 40 76 64 77 65 78 73 79 66 80 68 81 74 82 67 83 69 84 70 85
REMARK SMILES IDX 71 86 72 87 49 88 50 89 58 90 51 91 53 92 59 93 52 94 54 95
REMARK SMILES IDX 55 96 56 97 57 98
REMARK H PARENT 79 51 47 62
REMARK Flexibility Score: inf
ROOT
ATOM      1  C   UNL A   1      37.346  30.903  29.532  1.00  0.00     0.188 C 
ENDROOT
BRANCH   1   2
ATOM      2  O   UNL A   1      38.443  30.211  28.960  1.00  0.00    -0.376 OA
BRANCH   2   3
ATOM      3  C   UNL A   1      39.579  29.918  29.784  1.00  0.00     0.202 C 
BRANCH   3   4
ATOM      4  C   UNL A   1      40.556  28.791  29.399  1.00  0.00     0.261 C 
BRANCH   4   5
ATOM      5  O   UNL A   1      39.916  27.534  29.077  1.00  0.00    -0.463 OA
BRANCH   5   6
ATOM      6  C   UNL A   1      39.985  27.089  27.798  1.00  0.00     0.307 C 
ATOM      7  O   UNL A   1      40.295  27.792  26.841  1.00  0.00    -0.252 OA
BRANCH   6   8
ATOM      8  C   UNL A   1      39.596  25.632  27.649  1.00  0.00     0.144 C 
BRANCH   8   9
ATOM      9  C   UNL A   1      40.558  24.704  26.904  1.00  0.00     0.133 C 
BRANCH   9  10
ATOM     10  N   UNL A   1      41.613  24.042  27.708  1.00  0.00    -0.324 N 
BRANCH  10  11
ATOM     11  C   UNL A   1      41.411  22.622  28.033  1.00  0.00     0.118 C 
ATOM     12  C   UNL A   1      40.400  21.969  27.091  1.00  0.00     0.027 C 
ENDBRANCH  10  11
BRANCH  10  13
ATOM     13  C   UNL A   1      42.815  24.560  28.197  1.00  0.00     0.319 C 
ATOM     14  O   UNL A   1      42.774  25.443  29.045  1.00  0.00    -0.248 OA
BRANCH  13  15
ATOM     15  N   UNL A   1      44.000  23.934  27.852  1.00  0.00    -0.327 N 
ATOM     16  C   UNL A   1      44.988  23.859  28.873  1.00  0.00     0.148 C 
BRANCH  15  17
ATOM     17  C   UNL A   1      44.633  24.081  26.521  1.00  0.00     0.126 C 
BRANCH  17  18
ATOM     18  C   UNL A   1      44.329  25.283  25.630  1.00  0.00     0.068 C 
BRANCH  18  19
ATOM     19  C   UNL A   1      45.169  26.467  25.952  1.00  0.00     0.006 A 
ATOM     20  C   UNL A   1      45.124  27.268  27.077  1.00  0.00     0.015 A 
ATOM     21  S   UNL A   1      46.303  27.045  24.812  1.00  0.00    -0.149 S 
ATOM     22  C   UNL A   1      45.923  28.429  26.943  1.00  0.00     0.012 A 
ATOM     23  C   UNL A   1      46.584  28.450  25.738  1.00  0.00     0.065 A 
ENDBRANCH  18  19
ENDBRANCH  17  18
ENDBRANCH  15  17
ENDBRANCH  13  15
ENDBRANCH  10  13
ENDBRANCH   9  10
ENDBRANCH   8   9
ENDBRANCH   6   8
ENDBRANCH   5   6
ENDBRANCH   4   5
ENDBRANCH   3   4
ENDBRANCH   2   3
ENDBRANCH   1   2
BRANCH   1  24
ATOM     24  C   UNL A   1      36.335  31.547  28.566  1.00  0.00     0.188 C 
BRANCH  24  25
ATOM     25  O   UNL A   1      36.197  32.960  28.532  1.00  0.00    -0.377 OA
BRANCH  25  26
ATOM     26  C   UNL A   1      34.904  33.544  28.644  1.00  0.00     0.188 C 
BRANCH  26  27
ATOM     27  C   UNL A   1      34.614  34.338  29.907  1.00  0.00     0.188 C 
BRANCH  27  28
ATOM     28  O   UNL A   1      35.365  33.888  31.017  1.00  0.00    -0.376 OA
BRANCH  28  29
ATOM     29  C   UNL A   1      34.757  32.860  31.791  1.00  0.00     0.202 C 
BRANCH  29  30
ATOM     30  C   UNL A   1      35.276  32.598  33.221  1.00  0.00     0.261 C 
BRANCH  30  31
ATOM     31  O   UNL A   1      36.592  33.076  33.573  1.00  0.00    -0.460 OA
BRANCH  31  32
ATOM     32  C   UNL A   1      37.079  32.747  34.788  1.00  0.00     0.338 C 
ATOM     33  O   UNL A   1      36.560  32.969  35.865  1.00  0.00    -0.246 OA
BRANCH  32  34
ATOM     34  C   UNL A   1      38.336  31.978  34.630  1.00  0.00     0.060 A 
ATOM     35  C   UNL A   1      39.521  32.496  35.163  1.00  0.00     0.016 A 
ATOM     36  C   UNL A   1      38.368  30.830  33.835  1.00  0.00     0.016 A 
ATOM     37  C   UNL A   1      40.753  31.913  34.836  1.00  0.00     0.010 A 
ATOM     38  C   UNL A   1      39.604  30.248  33.509  1.00  0.00     0.010 A 
ATOM     39  C   UNL A   1      40.810  30.822  33.956  1.00  0.00    -0.014 A 
BRANCH  39  40
ATOM     40  C   UNL A   1      42.108  30.426  33.332  1.00  0.00     0.031 A 
ATOM     41  C   UNL A   1      42.857  29.251  33.908  1.00  0.00     0.074 A 
ATOM     42  C   UNL A   1      42.630  31.071  32.272  1.00  0.00     0.049 A 
ATOM     43  N   UNL A   1      43.992  28.725  33.527  1.00  0.00    -0.248 NA
ATOM     44  C   UNL A   1      42.237  28.573  35.057  1.00  0.00     0.031 C 
ATOM     45  C   UNL A   1      41.998  32.183  31.577  1.00  0.00     0.029 A 
ATOM     46  N   UNL A   1      43.821  30.899  31.607  1.00  0.00    -0.354 N 
ATOM     47  C   UNL A   1      44.234  27.672  34.399  1.00  0.00     0.074 A 
ATOM     48  C   UNL A   1      43.139  27.646  35.343  1.00  0.00     0.031 C 
ATOM     49  C   UNL A   1      42.828  32.637  30.621  1.00  0.00     0.029 A 
ATOM     50  C   UNL A   1      44.053  31.842  30.631  1.00  0.00     0.049 A 
ATOM     51  H   UNL A   1      44.450  30.168  31.810  1.00  0.00     0.167 HD
ATOM     52  C   UNL A   1      45.261  26.788  34.404  1.00  0.00     0.034 A 
ATOM     53  C   UNL A   1      45.123  32.046  29.836  1.00  0.00     0.034 A 
ATOM     54  C   UNL A   1      46.345  26.794  33.460  1.00  0.00     0.049 A 
ATOM     55  C   UNL A   1      46.281  31.081  29.897  1.00  0.00     0.074 A 
ATOM     56  C   UNL A   1      47.394  25.899  33.351  1.00  0.00     0.029 A 
ATOM     57  N   UNL A   1      46.535  27.753  32.477  1.00  0.00    -0.354 N 
ATOM     58  N   UNL A   1      46.423  30.007  30.635  1.00  0.00    -0.248 NA
ATOM     59  C   UNL A   1      47.402  31.324  28.974  1.00  0.00     0.031 C 
ATOM     60  C   UNL A   1      48.242  26.341  32.331  1.00  0.00     0.029 A 
ATOM     61  C   UNL A   1      47.698  27.486  31.773  1.00  0.00     0.049 A 
ATOM     62  H   UNL A   1      45.933  28.512  32.305  1.00  0.00     0.167 HD
ATOM     63  C   UNL A   1      47.616  29.416  30.228  1.00  0.00     0.074 A 
ATOM     64  C   UNL A   1      48.155  30.250  29.174  1.00  0.00     0.031 C 
ATOM     65  C   UNL A   1      48.207  28.286  30.689  1.00  0.00     0.034 A 
BRANCH  52  66
ATOM     66  C   UNL A   1      45.253  25.727  35.474  1.00  0.00     0.023 A 
ATOM     67  C   UNL A   1      44.740  24.445  35.189  1.00  0.00     0.012 A 
ATOM     68  C   UNL A   1      45.786  25.991  36.749  1.00  0.00     0.148 A 
ATOM     69  C   UNL A   1      44.719  23.456  36.172  1.00  0.00     0.002 A 
ATOM     70  C   UNL A   1      45.807  24.987  37.708  1.00  0.00     0.091 A 
ATOM     71  F   UNL A   1      46.248  27.224  37.007  1.00  0.00    -0.205 F 
ATOM     72  C   UNL A   1      45.261  23.724  37.426  1.00  0.00     0.022 A 
BRANCH  70  73
ATOM     73  S   UNL A   1      46.556  25.210  39.324  1.00  0.00     0.127 S 
ATOM     74  O   UNL A   1      46.440  23.867  39.891  1.00  0.00    -0.237 OA
ATOM     75  O   UNL A   1      47.920  25.610  38.979  1.00  0.00    -0.237 OA
ATOM     76  O   UNL A   1      45.772  26.241  39.991  1.00  0.00    -0.744 OA
ENDBRANCH  70  73
ENDBRANCH  52  66
BRANCH  53  77
ATOM     77  C   UNL A   1      45.130  33.169  28.851  1.00  0.00     0.023 A 
ATOM     78  C   UNL A   1      45.561  34.446  29.264  1.00  0.00     0.012 A 
ATOM     79  C   UNL A   1      44.695  32.989  27.522  1.00  0.00     0.148 A 
ATOM     80  C   UNL A   1      45.533  35.528  28.383  1.00  0.00     0.002 A 
ATOM     81  C   UNL A   1      44.698  34.067  26.640  1.00  0.00     0.091 A 
ATOM     82  F   UNL A   1      44.277  31.771  27.150  1.00  0.00    -0.205 F 
ATOM     83  C   UNL A   1      45.109  35.337  27.072  1.00  0.00     0.022 A 
BRANCH  81  84
ATOM     84  S   UNL A   1      44.205  33.922  24.919  1.00  0.00     0.127 S 
ATOM     85  O   UNL A   1      43.896  32.498  24.813  1.00  0.00    -0.237 OA
ATOM     86  O   UNL A   1      43.039  34.803  24.861  1.00  0.00    -0.237 OA
ATOM     87  O   UNL A   1      45.349  34.371  24.139  1.00  0.00    -0.744 OA
ENDBRANCH  81  84
ENDBRANCH  53  77
BRANCH  65  88
ATOM     88  C   UNL A   1      49.486  27.835  30.026  1.00  0.00     0.023 A 
ATOM     89  C   UNL A   1      50.733  28.210  30.563  1.00  0.00     0.012 A 
ATOM     90  C   UNL A   1      49.448  26.975  28.909  1.00  0.00     0.148 A 
ATOM     91  C   UNL A   1      51.920  27.768  29.979  1.00  0.00     0.002 A 
ATOM     92  C   UNL A   1      50.634  26.495  28.365  1.00  0.00     0.091 A 
ATOM     93  F   UNL A   1      48.254  26.641  28.398  1.00  0.00    -0.205 F 
ATOM     94  C   UNL A   1      51.871  26.902  28.889  1.00  0.00     0.022 A 
BRANCH  92  95
ATOM     95  S   UNL A   1      50.663  25.294  27.027  1.00  0.00     0.127 S 
ATOM     96  O   UNL A   1      49.957  24.163  27.627  1.00  0.00    -0.237 OA
ATOM     97  O   UNL A   1      49.921  25.986  25.973  1.00  0.00    -0.237 OA
ATOM     98  O   UNL A   1      52.070  25.066  26.724  1.00  0.00    -0.744 OA
ENDBRANCH  92  95
ENDBRANCH  65  88
ENDBRANCH  39  40
ENDBRANCH  32  34
ENDBRANCH  31  32
ENDBRANCH  30  31
ENDBRANCH  29  30
ENDBRANCH  28  29
ENDBRANCH  27  28
ENDBRANCH  26  27
ENDBRANCH  25  26
ENDBRANCH  24  25
ENDBRANCH   1  24
TORSDOF 31
ENDMDL
MODEL 2
REMARK VINA RESULT:      -5.9      3.564      6.351
REMARK SMILES CCN(CCC(=O)OCCOCCOCCOCCOC(=O)c1ccc(-c2c3nc(c(-c4cccc(S(=O)(=O)[O-])c4F)c4ccc([nH]4)c(-c4cccc(S(=O)(=O)[O-])c4F)c4nc(c(-c5cccc(S(=O)(=O)[O-])c5F)c5ccc2[nH]5)C=C4)C=C3)cc1)C(=O)N(C)CCc1cccs1
REMARK SMILES IDX 12 1 11 2 10 3 9 4 8 5 6 6 7 7 5 8 4 9 3 10 2 11 1 12 86 13
REMARK SMILES IDX 87 14 88 15 89 16 90 17 91 18 92 19 93 20 96 21 94 22 95 23
REMARK SMILES IDX 13 24 14 25 15 26 16 27 17 28 18 29 19 30 20 31 21 32 22 33
REMARK SMILES IDX 23 34 24 35 85 36 25 37 84 38 26 39 27 40 28 41 78 42 29 43
REMARK SMILES IDX 83 44 77 45 79 46 30 47 82 48 76 49 75 50 31 52 63 53 43 54
REMARK SMILES IDX 62 55 44 56 47 57 61 58 80 59 45 60 46 61 60 63 81 64 48 65
REMARK SMILES IDX 32 66 33 67 41 68 34 69 36 70 42 71 35 72 37 73 38 74 39 75
REMARK SMILES IDX 40 76 64 77 65 78 73 79 66 80 68 81 74 82 67 83 69 84 70 85
REMARK SMILES IDX 71 86 72 87 49 88 50 89 58 90 51 91 53 92 59 93 52 94 54 95
REMARK SMILES IDX 55 96 56 97 57 98
REMARK H PARENT 79 51 47 62
REMARK Flexibility Score: inf
ROOT
ATOM      1  C   UNL A   1      32.889  37.082  31.568  1.00  0.00     0.188 C 
ENDROOT
BRANCH   1   2
ATOM      2  O   UNL A   1      33.170  37.278  30.192  1.00  0.00    -0.376 OA
BRANCH   2   3
ATOM      3  C   UNL A   1      32.955  36.191  29.282  1.00  0.00     0.202 C 
BRANCH   3   4
ATOM      4  C   UNL A   1      33.768  34.888  29.413  1.00  0.00     0.261 C 
BRANCH   4   5
ATOM      5  O   UNL A   1      33.300  33.809  28.572  1.00  0.00    -0.463 OA
BRANCH   5   6
ATOM      6  C   UNL A   1      34.149  32.783  28.315  1.00  0.00     0.307 C 
ATOM      7  O   UNL A   1      34.152  32.138  27.270  1.00  0.00    -0.252 OA
BRANCH   6   8
ATOM      8  C   UNL A   1      35.078  32.471  29.471  1.00  0.00     0.144 C 
BRANCH   8   9
ATOM      9  C   UNL A   1      36.555  32.218  29.157  1.00  0.00     0.133 C 
BRANCH   9  10
ATOM     10  N   UNL A   1      37.212  31.098  29.871  1.00  0.00    -0.324 N 
BRANCH  10  11
ATOM     11  C   UNL A   1      37.414  31.257  31.319  1.00  0.00     0.118 C 
ATOM     12  C   UNL A   1      36.404  30.437  32.120  1.00  0.00     0.027 C 
ENDBRANCH  10  11
BRANCH  10  13
ATOM     13  C   UNL A   1      37.658  29.868  29.378  1.00  0.00     0.319 C 
ATOM     14  O   UNL A   1      37.027  29.332  28.475  1.00  0.00    -0.248 OA
BRANCH  13  15
ATOM     15  N   UNL A   1      38.891  29.393  29.790  1.00  0.00    -0.327 N 
ATOM     16  C   UNL A   1      40.018  30.180  29.424  1.00  0.00     0.148 C 
BRANCH  15  17
ATOM     17  C   UNL A   1      39.238  27.953  29.801  1.00  0.00     0.126 C 
BRANCH  17  18
ATOM     18  C   UNL A   1      40.654  27.479  29.484  1.00  0.00     0.068 C 
BRANCH  18  19
ATOM     19  C   UNL A   1      40.718  26.615  28.276  1.00  0.00     0.006 A 
ATOM     20  C   UNL A   1      41.514  26.764  27.157  1.00  0.00     0.015 A 
ATOM     21  S   UNL A   1      39.647  25.293  28.114  1.00  0.00    -0.149 S 
ATOM     22  C   UNL A   1      41.152  25.876  26.115  1.00  0.00     0.012 A 
ATOM     23  C   UNL A   1      40.120  25.050  26.493  1.00  0.00     0.065 A 
ENDBRANCH  18  19
ENDBRANCH  17  18
ENDBRANCH  15  17
ENDBRANCH  13  15
ENDBRANCH  10  13
ENDBRANCH   9  10
ENDBRANCH   8   9
ENDBRANCH   6   8
ENDBRANCH   5   6
ENDBRANCH   4   5
ENDBRANCH   3   4
ENDBRANCH   2   3
ENDBRANCH   1   2
BRANCH   1  24
ATOM     24  C   UNL A   1      33.946  37.558  32.581  1.00  0.00     0.188 C 
BRANCH  24  25
ATOM     25  O   UNL A   1      34.669  36.602  33.344  1.00  0.00    -0.377 OA
BRANCH  25  26
ATOM     26  C   UNL A   1      34.402  35.215  33.168  1.00  0.00     0.188 C 
BRANCH  26  27
ATOM     27  C   UNL A   1      35.598  34.278  33.171  1.00  0.00     0.188 C 
BRANCH  27  28
ATOM     28  O   UNL A   1      36.600  34.678  34.085  1.00  0.00    -0.376 OA
BRANCH  28  29
ATOM     29  C   UNL A   1      36.753  33.845  35.229  1.00  0.00     0.202 C 
BRANCH  29  30
ATOM     30  C   UNL A   1      37.530  32.518  35.085  1.00  0.00     0.261 C 
BRANCH  30  31
ATOM     31  O   UNL A   1      38.430  32.366  33.966  1.00  0.00    -0.460 OA
BRANCH  31  32
ATOM     32  C   UNL A   1      39.661  32.910  34.068  1.00  0.00     0.338 C 
ATOM     33  O   UNL A   1      39.938  34.003  34.523  1.00  0.00    -0.246 OA
BRANCH  32  34
ATOM     34  C   UNL A   1      40.677  31.933  33.611  1.00  0.00     0.060 A 
ATOM     35  C   UNL A   1      40.426  30.566  33.770  1.00  0.00     0.016 A 
ATOM     36  C   UNL A   1      41.928  32.368  33.165  1.00  0.00     0.016 A 
ATOM     37  C   UNL A   1      41.451  29.634  33.562  1.00  0.00     0.010 A 
ATOM     38  C   UNL A   1      42.953  31.431  32.958  1.00  0.00     0.010 A 
ATOM     39  C   UNL A   1      42.740  30.063  33.214  1.00  0.00    -0.014 A 
BRANCH  39  40
ATOM     40  C   UNL A   1      43.901  29.131  33.336  1.00  0.00     0.031 A 
ATOM     41  C   UNL A   1      44.325  28.679  34.710  1.00  0.00     0.074 A 
ATOM     42  C   UNL A   1      44.578  28.673  32.266  1.00  0.00     0.049 A 
ATOM     43  N   UNL A   1      45.293  27.870  35.055  1.00  0.00    -0.248 NA
ATOM     44  C   UNL A   1      43.544  29.198  35.844  1.00  0.00     0.031 C 
ATOM     45  C   UNL A   1      44.253  28.977  30.879  1.00  0.00     0.029 A 
ATOM     46  N   UNL A   1      45.693  27.872  32.178  1.00  0.00    -0.354 N 
ATOM     47  C   UNL A   1      45.254  27.800  36.441  1.00  0.00     0.074 A 
ATOM     48  C   UNL A   1      44.181  28.666  36.877  1.00  0.00     0.031 C 
ATOM     49  C   UNL A   1      45.179  28.422  30.076  1.00  0.00     0.029 A 
ATOM     50  C   UNL A   1      46.163  27.717  30.893  1.00  0.00     0.049 A 
ATOM     51  H   UNL A   1      46.115  27.449  32.960  1.00  0.00     0.167 HD
ATOM     52  C   UNL A   1      46.024  27.066  37.280  1.00  0.00     0.034 A 
ATOM     53  C   UNL A   1      47.257  27.082  30.423  1.00  0.00     0.034 A 
ATOM     54  C   UNL A   1      47.082  26.190  36.856  1.00  0.00     0.049 A 
ATOM     55  C   UNL A   1      48.132  26.315  31.383  1.00  0.00     0.074 A 
ATOM     56  C   UNL A   1      47.871  25.359  37.631  1.00  0.00     0.029 A 
ATOM     57  N   UNL A   1      47.516  26.046  35.547  1.00  0.00    -0.354 N 
ATOM     58  N   UNL A   1      47.992  26.148  32.675  1.00  0.00    -0.248 NA
ATOM     59  C   UNL A   1      49.285  25.602  30.810  1.00  0.00     0.031 C 
ATOM     60  C   UNL A   1      48.812  24.746  36.797  1.00  0.00     0.029 A 
ATOM     61  C   UNL A   1      48.579  25.159  35.495  1.00  0.00     0.049 A 
ATOM     62  H   UNL A   1      47.126  26.506  34.769  1.00  0.00     0.167 HD
ATOM     63  C   UNL A   1      49.000  25.269  33.060  1.00  0.00     0.074 A 
ATOM     64  C   UNL A   1      49.741  24.934  31.861  1.00  0.00     0.031 C 
ATOM     65  C   UNL A   1      49.283  24.786  34.295  1.00  0.00     0.034 A 
BRANCH  52  66
ATOM     66  C   UNL A   1      45.739  27.178  38.755  1.00  0.00     0.023 A 
ATOM     67  C   UNL A   1      44.838  26.285  39.368  1.00  0.00     0.012 A 
ATOM     68  C   UNL A   1      46.393  28.148  39.538  1.00  0.00     0.148 A 
ATOM     69  C   UNL A   1      44.560  26.383  40.731  1.00  0.00     0.002 A 
ATOM     70  C   UNL A   1      46.148  28.208  40.904  1.00  0.00     0.091 A 
ATOM     71  F   UNL A   1      47.228  29.005  38.931  1.00  0.00    -0.205 F 
ATOM     72  C   UNL A   1      45.221  27.337  41.499  1.00  0.00     0.022 A 
BRANCH  70  73
ATOM     73  S   UNL A   1      47.010  29.349  41.991  1.00  0.00     0.127 S 
ATOM     74  O   UNL A   1      47.331  30.443  41.075  1.00  0.00    -0.237 OA
ATOM     75  O   UNL A   1      45.983  29.665  42.983  1.00  0.00    -0.237 OA
ATOM     76  O   UNL A   1      48.154  28.615  42.515  1.00  0.00    -0.744 OA
ENDBRANCH  70  73
ENDBRANCH  52  66
BRANCH  53  77
ATOM     77  C   UNL A   1      47.555  27.073  28.959  1.00  0.00     0.023 A 
ATOM     78  C   UNL A   1      48.464  28.013  28.435  1.00  0.00     0.012 A 
ATOM     79  C   UNL A   1      46.932  26.159  28.084  1.00  0.00     0.148 A 
ATOM     80  C   UNL A   1      48.728  28.065  27.065  1.00  0.00     0.002 A 
ATOM     81  C   UNL A   1      47.223  26.196  26.723  1.00  0.00     0.091 A 
ATOM     82  F   UNL A   1      46.061  25.280  28.598  1.00  0.00    -0.205 F 
ATOM     83  C   UNL A   1      48.114  27.153  26.212  1.00  0.00     0.022 A 
BRANCH  81  84
ATOM     84  S   UNL A   1      46.514  25.044  25.541  1.00  0.00     0.127 S 
ATOM     85  O   UNL A   1      45.087  25.336  25.655  1.00  0.00    -0.237 OA
ATOM     86  O   UNL A   1      47.126  25.480  24.285  1.00  0.00    -0.237 OA
ATOM     87  O   UNL A   1      46.917  23.719  25.988  1.00  0.00    -0.744 OA
ENDBRANCH  81  84
ENDBRANCH  53  77
BRANCH  65  88
ATOM     88  C   UNL A   1      50.412  23.792  34.425  1.00  0.00     0.023 A 
ATOM     89  C   UNL A   1      51.728  24.240  34.653  1.00  0.00     0.012 A 
ATOM     90  C   UNL A   1      50.152  22.406  34.396  1.00  0.00     0.148 A 
ATOM     91  C   UNL A   1      52.771  23.328  34.812  1.00  0.00     0.002 A 
ATOM     92  C   UNL A   1      51.187  21.504  34.608  1.00  0.00     0.091 A 
ATOM     93  F   UNL A   1      48.898  21.995  34.160  1.00  0.00    -0.205 F 
ATOM     94  C   UNL A   1      52.500  21.962  34.801  1.00  0.00     0.022 A 
BRANCH  92  95
ATOM     95  S   UNL A   1      50.913  19.730  34.715  1.00  0.00     0.127 S 
ATOM     96  O   UNL A   1      49.697  19.568  33.918  1.00  0.00    -0.237 OA
ATOM     97  O   UNL A   1      52.123  19.191  34.094  1.00  0.00    -0.237 OA
ATOM     98  O   UNL A   1      50.777  19.430  36.134  1.00  0.00    -0.744 OA
ENDBRANCH  92  95
ENDBRANCH  65  88
ENDBRANCH  39  40
ENDBRANCH  32  34
ENDBRANCH  31  32
ENDBRANCH  30  31
ENDBRANCH  29  30
ENDBRANCH  28  29
ENDBRANCH  27  28
ENDBRANCH  26  27
ENDBRANCH  25  26
ENDBRANCH  24  25
ENDBRANCH   1  24
TORSDOF 31
ENDMDL
MODEL 3
REMARK VINA RESULT:      -5.6      3.615      8.485
REMARK SMILES CCN(CCC(=O)OCCOCCOCCOCCOC(=O)c1ccc(-c2c3nc(c(-c4cccc(S(=O)(=O)[O-])c4F)c4ccc([nH]4)c(-c4cccc(S(=O)(=O)[O-])c4F)c4nc(c(-c5cccc(S(=O)(=O)[O-])c5F)c5ccc2[nH]5)C=C4)C=C3)cc1)C(=O)N(C)CCc1cccs1
REMARK SMILES IDX 12 1 11 2 10 3 9 4 8 5 6 6 7 7 5 8 4 9 3 10 2 11 1 12 86 13
REMARK SMILES IDX 87 14 88 15 89 16 90 17 91 18 92 19 93 20 96 21 94 22 95 23
REMARK SMILES IDX 13 24 14 25 15 26 16 27 17 28 18 29 19 30 20 31 21 32 22 33
REMARK SMILES IDX 23 34 24 35 85 36 25 37 84 38 26 39 27 40 28 41 78 42 29 43
REMARK SMILES IDX 83 44 77 45 79 46 30 47 82 48 76 49 75 50 31 52 63 53 43 54
REMARK SMILES IDX 62 55 44 56 47 57 61 58 80 59 45 60 46 61 60 63 81 64 48 65
REMARK SMILES IDX 32 66 33 67 41 68 34 69 36 70 42 71 35 72 37 73 38 74 39 75
REMARK SMILES IDX 40 76 64 77 65 78 73 79 66 80 68 81 74 82 67 83 69 84 70 85
REMARK SMILES IDX 71 86 72 87 49 88 50 89 58 90 51 91 53 92 59 93 52 94 54 95
REMARK SMILES IDX 55 96 56 97 57 98
REMARK H PARENT 79 51 47 62
REMARK Flexibility Score: inf
ROOT
ATOM      1  C   UNL A   1      32.993  36.943  31.499  1.00  0.00     0.188 C 
ENDROOT
BRANCH   1   2
ATOM      2  O   UNL A   1      33.297  37.211  30.140  1.00  0.00    -0.376 OA
BRANCH   2   3
ATOM      3  C   UNL A   1      33.014  36.205  29.159  1.00  0.00     0.202 C 
BRANCH   3   4
ATOM      4  C   UNL A   1      33.765  34.860  29.178  1.00  0.00     0.261 C 
BRANCH   4   5
ATOM      5  O   UNL A   1      33.107  33.802  28.445  1.00  0.00    -0.463 OA
BRANCH   5   6
ATOM      6  C   UNL A   1      33.785  32.644  28.245  1.00  0.00     0.307 C 
ATOM      7  O   UNL A   1      33.437  31.772  27.453  1.00  0.00    -0.252 OA
BRANCH   6   8
ATOM      8  C   UNL A   1      35.006  32.503  29.132  1.00  0.00     0.144 C 
BRANCH   8   9
ATOM      9  C   UNL A   1      36.287  31.947  28.507  1.00  0.00     0.133 C 
BRANCH   9  10
ATOM     10  N   UNL A   1      37.376  31.562  29.436  1.00  0.00    -0.324 N 
BRANCH  10  11
ATOM     11  C   UNL A   1      38.095  32.654  30.110  1.00  0.00     0.118 C 
ATOM     12  C   UNL A   1      38.317  33.842  29.175  1.00  0.00     0.027 C 
ENDBRANCH  10  11
BRANCH  10  13
ATOM     13  C   UNL A   1      37.823  30.290  29.803  1.00  0.00     0.319 C 
ATOM     14  O   UNL A   1      37.166  29.645  30.611  1.00  0.00    -0.248 OA
BRANCH  13  15
ATOM     15  N   UNL A   1      38.880  29.729  29.108  1.00  0.00    -0.327 N 
ATOM     16  C   UNL A   1      38.721  29.635  27.698  1.00  0.00     0.148 C 
BRANCH  15  17
ATOM     17  C   UNL A   1      39.669  28.585  29.623  1.00  0.00     0.126 C 
BRANCH  17  18
ATOM     18  C   UNL A   1      40.958  28.141  28.937  1.00  0.00     0.068 C 
BRANCH  18  19
ATOM     19  C   UNL A   1      40.908  26.731  28.470  1.00  0.00     0.006 A 
ATOM     20  C   UNL A   1      39.840  26.048  27.921  1.00  0.00     0.015 A 
ATOM     21  S   UNL A   1      42.267  25.715  28.676  1.00  0.00    -0.149 S 
ATOM     22  C   UNL A   1      40.096  24.661  27.795  1.00  0.00     0.012 A 
ATOM     23  C   UNL A   1      41.366  24.342  28.211  1.00  0.00     0.065 A 
ENDBRANCH  18  19
ENDBRANCH  17  18
ENDBRANCH  15  17
ENDBRANCH  13  15
ENDBRANCH  10  13
ENDBRANCH   9  10
ENDBRANCH   8   9
ENDBRANCH   6   8
ENDBRANCH   5   6
ENDBRANCH   4   5
ENDBRANCH   3   4
ENDBRANCH   2   3
ENDBRANCH   1   2
BRANCH   1  24
ATOM     24  C   UNL A   1      34.008  37.414  32.557  1.00  0.00     0.188 C 
BRANCH  24  25
ATOM     25  O   UNL A   1      34.833  36.462  33.212  1.00  0.00    -0.377 OA
BRANCH  25  26
ATOM     26  C   UNL A   1      34.704  35.081  32.892  1.00  0.00     0.188 C 
BRANCH  26  27
ATOM     27  C   UNL A   1      35.989  34.307  32.651  1.00  0.00     0.188 C 
BRANCH  27  28
ATOM     28  O   UNL A   1      37.103  34.883  33.304  1.00  0.00    -0.376 OA
BRANCH  28  29
ATOM     29  C   UNL A   1      37.537  34.212  34.481  1.00  0.00     0.202 C 
BRANCH  29  30
ATOM     30  C   UNL A   1      38.559  33.062  34.348  1.00  0.00     0.261 C 
BRANCH  30  31
ATOM     31  O   UNL A   1      39.327  32.962  33.130  1.00  0.00    -0.460 OA
BRANCH  31  32
ATOM     32  C   UNL A   1      40.533  33.566  33.094  1.00  0.00     0.338 C 
ATOM     33  O   UNL A   1      40.786  34.707  33.427  1.00  0.00    -0.246 OA
BRANCH  32  34
ATOM     34  C   UNL A   1      41.564  32.595  32.655  1.00  0.00     0.060 A 
ATOM     35  C   UNL A   1      41.384  31.237  32.940  1.00  0.00     0.016 A 
ATOM     36  C   UNL A   1      42.765  33.040  32.098  1.00  0.00     0.016 A 
ATOM     37  C   UNL A   1      42.436  30.332  32.745  1.00  0.00     0.010 A 
ATOM     38  C   UNL A   1      43.817  32.131  31.904  1.00  0.00     0.010 A 
ATOM     39  C   UNL A   1      43.682  30.782  32.285  1.00  0.00    -0.014 A 
BRANCH  39  40
ATOM     40  C   UNL A   1      44.889  29.911  32.409  1.00  0.00     0.031 A 
ATOM     41  C   UNL A   1      45.325  29.105  31.211  1.00  0.00     0.074 A 
ATOM     42  C   UNL A   1      45.606  29.823  33.544  1.00  0.00     0.049 A 
ATOM     43  N   UNL A   1      46.341  28.292  31.085  1.00  0.00    -0.248 NA
ATOM     44  C   UNL A   1      44.515  29.248  29.991  1.00  0.00     0.031 C 
ATOM     45  C   UNL A   1      45.341  30.578  34.760  1.00  0.00     0.029 A 
ATOM     46  N   UNL A   1      46.692  29.044  33.868  1.00  0.00    -0.354 N 
ATOM     47  C   UNL A   1      46.281  27.808  29.784  1.00  0.00     0.074 A 
ATOM     48  C   UNL A   1      45.116  28.402  29.167  1.00  0.00     0.031 C 
ATOM     49  C   UNL A   1      46.198  30.188  35.720  1.00  0.00     0.029 A 
ATOM     50  C   UNL A   1      47.080  29.155  35.185  1.00  0.00     0.049 A 
ATOM     51  H   UNL A   1      47.150  28.461  33.220  1.00  0.00     0.167 HD
ATOM     52  C   UNL A   1      47.129  26.964  29.149  1.00  0.00     0.034 A 
ATOM     53  C   UNL A   1      48.033  28.503  35.883  1.00  0.00     0.034 A 
ATOM     54  C   UNL A   1      48.300  26.383  29.748  1.00  0.00     0.049 A 
ATOM     55  C   UNL A   1      48.932  27.525  35.167  1.00  0.00     0.074 A 
ATOM     56  C   UNL A   1      49.250  25.568  29.160  1.00  0.00     0.029 A 
ATOM     57  N   UNL A   1      48.668  26.532  31.076  1.00  0.00    -0.354 N 
ATOM     58  N   UNL A   1      48.944  27.190  33.900  1.00  0.00    -0.248 NA
ATOM     59  C   UNL A   1      49.985  26.879  35.966  1.00  0.00     0.031 C 
ATOM     60  C   UNL A   1      50.170  25.189  30.143  1.00  0.00     0.029 A 
ATOM     61  C   UNL A   1      49.819  25.804  31.333  1.00  0.00     0.049 A 
ATOM     62  H   UNL A   1      48.184  27.075  31.739  1.00  0.00     0.167 HD
ATOM     63  C   UNL A   1      50.036  26.342  33.738  1.00  0.00     0.074 A 
ATOM     64  C   UNL A   1      50.664  26.219  35.037  1.00  0.00     0.031 C 
ATOM     65  C   UNL A   1      50.474  25.724  32.613  1.00  0.00     0.034 A 
BRANCH  52  66
ATOM     66  C   UNL A   1      46.819  26.624  27.714  1.00  0.00     0.023 A 
ATOM     67  C   UNL A   1      47.178  27.518  26.685  1.00  0.00     0.012 A 
ATOM     68  C   UNL A   1      46.201  25.403  27.386  1.00  0.00     0.148 A 
ATOM     69  C   UNL A   1      46.890  27.218  25.354  1.00  0.00     0.002 A 
ATOM     70  C   UNL A   1      45.961  25.090  26.054  1.00  0.00     0.091 A 
ATOM     71  F   UNL A   1      45.845  24.577  28.382  1.00  0.00    -0.205 F 
ATOM     72  C   UNL A   1      46.291  26.002  25.039  1.00  0.00     0.022 A 
BRANCH  70  73
ATOM     73  S   UNL A   1      45.268  23.514  25.542  1.00  0.00     0.127 S 
ATOM     74  O   UNL A   1      43.950  23.553  26.174  1.00  0.00    -0.237 OA
ATOM     75  O   UNL A   1      45.251  23.644  24.085  1.00  0.00    -0.237 OA
ATOM     76  O   UNL A   1      46.175  22.494  26.050  1.00  0.00    -0.744 OA
ENDBRANCH  70  73
ENDBRANCH  52  66
BRANCH  53  77
ATOM     77  C   UNL A   1      48.249  28.803  37.330  1.00  0.00     0.023 A 
ATOM     78  C   UNL A   1      49.151  29.821  37.697  1.00  0.00     0.012 A 
ATOM     79  C   UNL A   1      47.586  28.077  38.342  1.00  0.00     0.148 A 
ATOM     80  C   UNL A   1      49.414  30.094  39.040  1.00  0.00     0.002 A 
ATOM     81  C   UNL A   1      47.830  28.375  39.680  1.00  0.00     0.091 A 
ATOM     82  F   UNL A   1      46.741  27.104  37.976  1.00  0.00    -0.205 F 
ATOM     83  C   UNL A   1      48.749  29.377  40.030  1.00  0.00     0.022 A 
BRANCH  81  84
ATOM     84  S   UNL A   1      47.000  27.536  41.034  1.00  0.00     0.127 S 
ATOM     85  O   UNL A   1      48.071  26.702  41.574  1.00  0.00    -0.237 OA
ATOM     86  O   UNL A   1      46.608  28.654  41.892  1.00  0.00    -0.237 OA
ATOM     87  O   UNL A   1      45.890  26.811  40.431  1.00  0.00    -0.744 OA
ENDBRANCH  81  84
ENDBRANCH  53  77
BRANCH  65  88
ATOM     88  C   UNL A   1      51.730  24.891  32.706  1.00  0.00     0.023 A 
ATOM     89  C   UNL A   1      51.652  23.526  33.042  1.00  0.00     0.012 A 
ATOM     90  C   UNL A   1      52.984  25.451  32.386  1.00  0.00     0.148 A 
ATOM     91  C   UNL A   1      52.804  22.740  33.094  1.00  0.00     0.002 A 
ATOM     92  C   UNL A   1      54.120  24.650  32.388  1.00  0.00     0.091 A 
ATOM     93  F   UNL A   1      53.045  26.757  32.086  1.00  0.00    -0.205 F 
ATOM     94  C   UNL A   1      54.035  23.298  32.756  1.00  0.00     0.022 A 
BRANCH  92  95
ATOM     95  S   UNL A   1      55.729  25.258  31.866  1.00  0.00     0.127 S 
ATOM     96  O   UNL A   1      55.450  25.708  30.503  1.00  0.00    -0.237 OA
ATOM     97  O   UNL A   1      55.979  26.336  32.824  1.00  0.00    -0.237 OA
ATOM     98  O   UNL A   1      56.641  24.128  31.979  1.00  0.00    -0.744 OA
ENDBRANCH  92  95
ENDBRANCH  65  88
ENDBRANCH  39  40
ENDBRANCH  32  34
ENDBRANCH  31  32
ENDBRANCH  30  31
ENDBRANCH  29  30
ENDBRANCH  28  29
ENDBRANCH  27  28
ENDBRANCH  26  27
ENDBRANCH  25  26
ENDBRANCH  24  25
ENDBRANCH   1  24
TORSDOF 31
ENDMDL
