MODEL 1
REMARK VINA RESULT:      -6.4      0.000      0.000
REMARK SMILES O=C(N[C@@H](Cc1c[nH]c2ccccc12)C(=O)N[C@@H](CS)C(=O)N[C@@H](CO)C(=O)OCCOCCOCCOCCOC(=O)c1ccc(-c2c3nc(c(-c4cccc(S(=O)(=O)[O-])c4F)c4ccc([nH]4)c(-c4cccc(S(=O)(=O)[O-])c4F)c4nc(c(-c5cccc(S(=O)(=O)[O-])c5F)c5ccc2[nH]5)C=C4)C=C3)cc1)c1ccc(F)cc1
REMARK SMILES IDX 33 1 32 2 31 3 30 4 29 5 27 6 28 7 24 8 23 9 21 10 22 11
REMARK SMILES IDX 18 13 17 14 15 15 16 16 4 18 3 19 1 20 2 21 107 23 108 24
REMARK SMILES IDX 113 25 109 26 112 27 110 28 111 29 5 30 6 31 7 32 14 33 8 34
REMARK SMILES IDX 9 35 13 36 10 38 12 39 11 40 19 41 20 42 25 44 26 45 34 47
REMARK SMILES IDX 35 48 36 49 37 50 38 51 39 52 40 53 41 54 42 55 43 56 44 57
REMARK SMILES IDX 45 58 106 59 46 60 105 61 47 62 48 63 49 64 99 65 50 66
REMARK SMILES IDX 104 67 98 68 100 69 51 70 103 71 97 72 96 73 52 75 84 76
REMARK SMILES IDX 64 77 83 78 65 79 68 80 82 81 101 82 66 83 67 84 81 86
REMARK SMILES IDX 102 87 69 88 53 89 54 90 62 91 55 92 57 93 63 94 56 95 58 96
REMARK SMILES IDX 59 97 60 98 61 99 85 100 86 101 94 102 87 103 89 104 95 105
REMARK SMILES IDX 88 106 90 107 91 108 92 109 93 110 70 111 71 112 79 113
REMARK SMILES IDX 72 114 74 115 80 116 73 117 75 118 76 119 77 120 78 121
REMARK H PARENT 23 12 17 17 3 22 8 37 20 43 26 46 100 74 68 85
REMARK Flexibility Score: inf
ROOT
ATOM      1  C   UNL A   1      35.866  29.764  28.258  1.00  0.00     0.188 C 
ENDROOT
BRANCH   1   2
ATOM      2  O   UNL A   1      37.235  29.843  27.876  1.00  0.00    -0.376 OA
BRANCH   2   3
ATOM      3  C   UNL A   1      38.209  29.433  28.834  1.00  0.00     0.202 C 
BRANCH   3   4
ATOM      4  C   UNL A   1      39.074  30.514  29.498  1.00  0.00     0.261 C 
BRANCH   4   5
ATOM      5  O   UNL A   1      40.390  30.048  29.833  1.00  0.00    -0.462 OA
BRANCH   5   6
ATOM      6  C   UNL A   1      40.989  29.138  29.019  1.00  0.00     0.331 C 
ATOM      7  O   UNL A   1      41.264  29.318  27.841  1.00  0.00    -0.250 OA
BRANCH   6   8
ATOM      8  C   UNL A   1      41.238  27.827  29.785  1.00  0.00     0.218 C 
BRANCH   8   9
ATOM      9  N   UNL A   1      42.071  26.890  28.994  1.00  0.00    -0.339 N 
ATOM     10  C   UNL A   1      41.520  26.038  28.087  1.00  0.00     0.244 C 
ATOM     11  O   UNL A   1      40.889  25.070  28.519  1.00  0.00    -0.273 OA
ATOM     12  H   UNL A   1      43.046  26.884  29.128  1.00  0.00     0.164 HD
BRANCH  10  13
ATOM     13  C   UNL A   1      41.716  26.282  26.551  1.00  0.00     0.181 C 
BRANCH  13  14
ATOM     14  N   UNL A   1      42.916  27.129  26.451  1.00  0.00    -0.342 N 
ATOM     15  C   UNL A   1      44.121  26.875  25.863  1.00  0.00     0.243 C 
ATOM     16  O   UNL A   1      44.652  27.830  25.285  1.00  0.00    -0.273 OA
ATOM     17  H   UNL A   1      42.837  28.015  26.873  1.00  0.00     0.164 HD
BRANCH  15  18
ATOM     18  C   UNL A   1      44.871  25.521  25.938  1.00  0.00     0.176 C 
BRANCH  18  19
ATOM     19  N   UNL A   1      46.088  25.493  25.122  1.00  0.00    -0.340 N 
ATOM     20  O   UNL A   1      47.648  24.541  23.780  1.00  0.00    -0.269 OA
ATOM     21  C   UNL A   1      46.606  24.425  24.416  1.00  0.00     0.251 C 
ATOM     22  H   UNL A   1      46.597  26.334  25.071  1.00  0.00     0.164 HD
BRANCH  21  23
ATOM     23  C   UNL A   1      45.950  23.092  24.485  1.00  0.00     0.040 A 
ATOM     24  C   UNL A   1      46.496  22.038  25.231  1.00  0.00     0.017 A 
ATOM     25  C   UNL A   1      44.768  22.897  23.758  1.00  0.00     0.017 A 
ATOM     26  C   UNL A   1      45.903  20.772  25.180  1.00  0.00     0.040 A 
ATOM     27  C   UNL A   1      44.173  21.633  23.721  1.00  0.00     0.040 A 
ATOM     28  C   UNL A   1      44.755  20.580  24.419  1.00  0.00     0.123 A 
ATOM     29  F   UNL A   1      44.200  19.361  24.356  1.00  0.00    -0.207 F 
ENDBRANCH  21  23
ENDBRANCH  18  19
BRANCH  18  30
ATOM     30  C   UNL A   1      44.940  24.754  27.274  1.00  0.00     0.072 C 
BRANCH  30  31
ATOM     31  C   UNL A   1      45.829  25.266  28.359  1.00  0.00    -0.020 A 
ATOM     32  C   UNL A   1      45.420  25.621  29.628  1.00  0.00     0.087 A 
ATOM     33  C   UNL A   1      47.267  25.267  28.409  1.00  0.00     0.003 A 
ATOM     34  N   UNL A   1      46.490  26.119  30.316  1.00  0.00    -0.361 N 
ATOM     35  C   UNL A   1      47.643  25.862  29.617  1.00  0.00     0.046 A 
ATOM     36  C   UNL A   1      48.292  24.771  27.574  1.00  0.00     0.010 A 
ATOM     37  H   UNL A   1      46.441  26.589  31.180  1.00  0.00     0.166 HD
ATOM     38  C   UNL A   1      48.975  26.061  29.995  1.00  0.00     0.026 A 
ATOM     39  C   UNL A   1      49.631  24.886  27.978  1.00  0.00     0.001 A 
ATOM     40  C   UNL A   1      49.965  25.542  29.160  1.00  0.00     0.002 A 
ENDBRANCH  30  31
ENDBRANCH  18  30
ENDBRANCH  15  18
ENDBRANCH  13  14
BRANCH  13  41
ATOM     41  C   UNL A   1      41.721  25.076  25.607  1.00  0.00     0.101 C 
BRANCH  41  42
ATOM     42  S   UNL A   1      41.722  23.426  26.367  1.00  0.00    -0.177 SA
ATOM     43  H   UNL A   1      41.178  23.499  27.611  1.00  0.00     0.102 HD
ENDBRANCH  41  42
ENDBRANCH  13  41
ENDBRANCH  10  13
ENDBRANCH   8   9
BRANCH   8  44
ATOM     44  C   UNL A   1      41.877  28.173  31.136  1.00  0.00     0.193 C 
BRANCH  44  45
ATOM     45  O   UNL A   1      43.028  28.994  30.955  1.00  0.00    -0.394 OA
ATOM     46  H   UNL A   1      43.240  29.049  30.011  1.00  0.00     0.210 HD
ENDBRANCH  44  45
ENDBRANCH   8  44
ENDBRANCH   6   8
ENDBRANCH   5   6
ENDBRANCH   4   5
ENDBRANCH   3   4
ENDBRANCH   2   3
ENDBRANCH   1   2
BRANCH   1  47
ATOM     47  C   UNL A   1      34.970  30.708  27.440  1.00  0.00     0.188 C 
BRANCH  47  48
ATOM     48  O   UNL A   1      35.330  32.067  27.567  1.00  0.00    -0.377 OA
BRANCH  48  49
ATOM     49  C   UNL A   1      35.657  32.535  28.876  1.00  0.00     0.188 C 
BRANCH  49  50
ATOM     50  C   UNL A   1      34.561  32.901  29.908  1.00  0.00     0.188 C 
BRANCH  50  51
ATOM     51  O   UNL A   1      35.030  33.528  31.102  1.00  0.00    -0.376 OA
BRANCH  51  52
ATOM     52  C   UNL A   1      34.073  34.243  31.876  1.00  0.00     0.202 C 
BRANCH  52  53
ATOM     53  C   UNL A   1      34.678  35.272  32.844  1.00  0.00     0.261 C 
BRANCH  53  54
ATOM     54  O   UNL A   1      36.038  35.007  33.222  1.00  0.00    -0.460 OA
BRANCH  54  55
ATOM     55  C   UNL A   1      36.223  34.130  34.233  1.00  0.00     0.338 C 
ATOM     56  O   UNL A   1      35.403  33.789  35.069  1.00  0.00    -0.246 OA
BRANCH  55  57
ATOM     57  C   UNL A   1      37.532  33.481  34.041  1.00  0.00     0.060 A 
ATOM     58  C   UNL A   1      38.660  34.067  34.630  1.00  0.00     0.016 A 
ATOM     59  C   UNL A   1      37.647  32.311  33.287  1.00  0.00     0.016 A 
ATOM     60  C   UNL A   1      39.918  33.507  34.425  1.00  0.00     0.010 A 
ATOM     61  C   UNL A   1      38.911  31.763  33.064  1.00  0.00     0.010 A 
ATOM     62  C   UNL A   1      40.053  32.383  33.599  1.00  0.00    -0.014 A 
BRANCH  62  63
ATOM     63  C   UNL A   1      41.400  32.001  33.115  1.00  0.00     0.031 A 
ATOM     64  C   UNL A   1      41.965  32.752  31.941  1.00  0.00     0.074 A 
ATOM     65  C   UNL A   1      42.108  31.024  33.705  1.00  0.00     0.049 A 
ATOM     66  N   UNL A   1      43.122  32.615  31.349  1.00  0.00    -0.248 NA
ATOM     67  C   UNL A   1      41.111  33.801  31.357  1.00  0.00     0.031 C 
ATOM     68  C   UNL A   1      41.668  30.231  34.851  1.00  0.00     0.029 A 
ATOM     69  N   UNL A   1      43.349  30.522  33.402  1.00  0.00    -0.354 N 
ATOM     70  C   UNL A   1      43.130  33.548  30.319  1.00  0.00     0.074 A 
ATOM     71  C   UNL A   1      41.857  34.233  30.353  1.00  0.00     0.031 C 
ATOM     72  C   UNL A   1      42.618  29.324  35.141  1.00  0.00     0.029 A 
ATOM     73  C   UNL A   1      43.723  29.463  34.193  1.00  0.00     0.049 A 
ATOM     74  H   UNL A   1      43.917  30.888  32.686  1.00  0.00     0.167 HD
ATOM     75  C   UNL A   1      44.116  33.826  29.436  1.00  0.00     0.034 A 
ATOM     76  C   UNL A   1      44.827  28.692  34.146  1.00  0.00     0.034 A 
ATOM     77  C   UNL A   1      45.381  33.148  29.403  1.00  0.00     0.049 A 
ATOM     78  C   UNL A   1      45.893  28.994  33.123  1.00  0.00     0.074 A 
ATOM     79  C   UNL A   1      46.458  33.375  28.564  1.00  0.00     0.029 A 
ATOM     80  N   UNL A   1      45.736  32.100  30.237  1.00  0.00    -0.354 N 
ATOM     81  N   UNL A   1      45.942  29.961  32.238  1.00  0.00    -0.248 NA
ATOM     82  C   UNL A   1      47.076  28.119  33.116  1.00  0.00     0.031 C 
ATOM     83  C   UNL A   1      47.456  32.448  28.878  1.00  0.00     0.029 A 
ATOM     84  C   UNL A   1      47.011  31.660  29.928  1.00  0.00     0.049 A 
ATOM     85  H   UNL A   1      45.165  31.724  30.945  1.00  0.00     0.167 HD
ATOM     86  C   UNL A   1      47.171  29.834  31.597  1.00  0.00     0.074 A 
ATOM     87  C   UNL A   1      47.844  28.707  32.209  1.00  0.00     0.031 C 
ATOM     88  C   UNL A   1      47.690  30.574  30.586  1.00  0.00     0.034 A 
BRANCH  75  89
ATOM     89  C   UNL A   1      43.867  34.934  28.450  1.00  0.00     0.023 A 
ATOM     90  C   UNL A   1      43.431  34.618  27.147  1.00  0.00     0.012 A 
ATOM     91  C   UNL A   1      44.034  36.283  28.816  1.00  0.00     0.148 A 
ATOM     92  C   UNL A   1      43.195  35.626  26.213  1.00  0.00     0.002 A 
ATOM     93  C   UNL A   1      43.758  37.284  27.893  1.00  0.00     0.091 A 
ATOM     94  F   UNL A   1      44.480  36.561  30.050  1.00  0.00    -0.205 F 
ATOM     95  C   UNL A   1      43.348  36.958  26.590  1.00  0.00     0.022 A 
BRANCH  93  96
ATOM     96  S   UNL A   1      43.862  39.029  28.303  1.00  0.00     0.127 S 
ATOM     97  O   UNL A   1      43.762  39.649  26.983  1.00  0.00    -0.237 OA
ATOM     98  O   UNL A   1      42.688  39.218  29.156  1.00  0.00    -0.237 OA
ATOM     99  O   UNL A   1      45.138  39.204  28.982  1.00  0.00    -0.744 OA
ENDBRANCH  93  96
ENDBRANCH  75  89
BRANCH  76 100
ATOM    100  C   UNL A   1      45.007  27.582  35.123  1.00  0.00     0.023 A 
ATOM    101  C   UNL A   1      45.478  27.867  36.420  1.00  0.00     0.012 A 
ATOM    102  C   UNL A   1      44.710  26.248  34.780  1.00  0.00     0.148 A 
ATOM    103  C   UNL A   1      45.678  26.843  37.346  1.00  0.00     0.002 A 
ATOM    104  C   UNL A   1      44.864  25.239  35.724  1.00  0.00     0.091 A 
ATOM    105  F   UNL A   1      44.284  25.993  33.534  1.00  0.00    -0.205 F 
ATOM    106  C   UNL A   1      45.362  25.531  37.002  1.00  0.00     0.022 A 
BRANCH 104 107
ATOM    107  S   UNL A   1      44.369  23.542  35.405  1.00  0.00     0.127 S 
ATOM    108  O   UNL A   1      44.995  22.834  36.519  1.00  0.00    -0.237 OA
ATOM    109  O   UNL A   1      42.910  23.635  35.476  1.00  0.00    -0.237 OA
ATOM    110  O   UNL A   1      44.887  23.225  34.081  1.00  0.00    -0.744 OA
ENDBRANCH 104 107
ENDBRANCH  76 100
BRANCH  88 111
ATOM    111  C   UNL A   1      49.069  30.220  30.092  1.00  0.00     0.023 A 
ATOM    112  C   UNL A   1      49.217  29.439  28.930  1.00  0.00     0.012 A 
ATOM    113  C   UNL A   1      50.216  30.734  30.730  1.00  0.00     0.148 A 
ATOM    114  C   UNL A   1      50.485  29.150  28.427  1.00  0.00     0.002 A 
ATOM    115  C   UNL A   1      51.473  30.481  30.197  1.00  0.00     0.091 A 
ATOM    116  F   UNL A   1      50.056  31.462  31.846  1.00  0.00    -0.205 F 
ATOM    117  C   UNL A   1      51.611  29.681  29.052  1.00  0.00     0.022 A 
BRANCH 115 118
ATOM    118  S   UNL A   1      52.969  31.206  30.880  1.00  0.00     0.127 S 
ATOM    119  O   UNL A   1      53.862  31.194  29.723  1.00  0.00    -0.237 OA
ATOM    120  O   UNL A   1      52.515  32.536  31.286  1.00  0.00    -0.237 OA
ATOM    121  O   UNL A   1      53.361  30.341  31.985  1.00  0.00    -0.744 OA
ENDBRANCH 115 118
ENDBRANCH  88 111
ENDBRANCH  62  63
ENDBRANCH  55  57
ENDBRANCH  54  55
ENDBRANCH  53  54
ENDBRANCH  52  53
ENDBRANCH  51  52
ENDBRANCH  50  51
ENDBRANCH  49  50
ENDBRANCH  48  49
ENDBRANCH  47  48
ENDBRANCH   1  47
TORSDOF 35
ENDMDL
MODEL 2
REMARK VINA RESULT:      -5.7      4.313     10.775
REMARK SMILES O=C(N[C@@H](Cc1c[nH]c2ccccc12)C(=O)N[C@@H](CS)C(=O)N[C@@H](CO)C(=O)OCCOCCOCCOCCOC(=O)c1ccc(-c2c3nc(c(-c4cccc(S(=O)(=O)[O-])c4F)c4ccc([nH]4)c(-c4cccc(S(=O)(=O)[O-])c4F)c4nc(c(-c5cccc(S(=O)(=O)[O-])c5F)c5ccc2[nH]5)C=C4)C=C3)cc1)c1ccc(F)cc1
REMARK SMILES IDX 33 1 32 2 31 3 30 4 29 5 27 6 28 7 24 8 23 9 21 10 22 11
REMARK SMILES IDX 18 13 17 14 15 15 16 16 4 18 3 19 1 20 2 21 107 23 108 24
REMARK SMILES IDX 113 25 109 26 112 27 110 28 111 29 5 30 6 31 7 32 14 33 8 34
REMARK SMILES IDX 9 35 13 36 10 38 12 39 11 40 19 41 20 42 25 44 26 45 34 47
REMARK SMILES IDX 35 48 36 49 37 50 38 51 39 52 40 53 41 54 42 55 43 56 44 57
REMARK SMILES IDX 45 58 106 59 46 60 105 61 47 62 48 63 49 64 99 65 50 66
REMARK SMILES IDX 104 67 98 68 100 69 51 70 103 71 97 72 96 73 52 75 84 76
REMARK SMILES IDX 64 77 83 78 65 79 68 80 82 81 101 82 66 83 67 84 81 86
REMARK SMILES IDX 102 87 69 88 53 89 54 90 62 91 55 92 57 93 63 94 56 95 58 96
REMARK SMILES IDX 59 97 60 98 61 99 85 100 86 101 94 102 87 103 89 104 95 105
REMARK SMILES IDX 88 106 90 107 91 108 92 109 93 110 70 111 71 112 79 113
REMARK SMILES IDX 72 114 74 115 80 116 73 117 75 118 76 119 77 120 78 121
REMARK H PARENT 23 12 17 17 3 22 8 37 20 43 26 46 100 74 68 85
REMARK Flexibility Score: inf
ROOT
ATOM      1  C   UNL A   1      43.599  42.662  35.334  1.00  0.00     0.188 C 
ENDROOT
BRANCH   1   2
ATOM      2  O   UNL A   1      42.543  43.257  34.587  1.00  0.00    -0.376 OA
BRANCH   2   3
ATOM      3  C   UNL A   1      42.198  42.653  33.342  1.00  0.00     0.202 C 
BRANCH   3   4
ATOM      4  C   UNL A   1      42.681  43.326  32.049  1.00  0.00     0.261 C 
BRANCH   4   5
ATOM      5  O   UNL A   1      43.659  42.545  31.345  1.00  0.00    -0.462 OA
BRANCH   5   6
ATOM      6  C   UNL A   1      43.261  41.811  30.272  1.00  0.00     0.331 C 
ATOM      7  O   UNL A   1      42.262  41.107  30.228  1.00  0.00    -0.250 OA
BRANCH   6   8
ATOM      8  C   UNL A   1      44.275  41.962  29.124  1.00  0.00     0.218 C 
BRANCH   8   9
ATOM      9  N   UNL A   1      43.665  41.617  27.817  1.00  0.00    -0.339 N 
ATOM     10  C   UNL A   1      44.133  40.587  27.062  1.00  0.00     0.244 C 
ATOM     11  O   UNL A   1      45.213  40.742  26.487  1.00  0.00    -0.273 OA
ATOM     12  H   UNL A   1      42.903  42.147  27.488  1.00  0.00     0.164 HD
BRANCH  10  13
ATOM     13  C   UNL A   1      43.299  39.268  26.919  1.00  0.00     0.181 C 
BRANCH  13  14
ATOM     14  N   UNL A   1      43.567  38.512  28.154  1.00  0.00    -0.342 N 
ATOM     15  C   UNL A   1      44.718  37.916  28.583  1.00  0.00     0.243 C 
ATOM     16  O   UNL A   1      44.943  37.988  29.797  1.00  0.00    -0.273 OA
ATOM     17  H   UNL A   1      42.800  38.424  28.764  1.00  0.00     0.164 HD
BRANCH  15  18
ATOM     18  C   UNL A   1      45.688  37.116  27.677  1.00  0.00     0.176 C 
BRANCH  18  19
ATOM     19  N   UNL A   1      45.019  36.491  26.532  1.00  0.00    -0.340 N 
ATOM     20  O   UNL A   1      44.256  34.758  25.286  1.00  0.00    -0.269 OA
ATOM     21  C   UNL A   1      44.827  35.143  26.301  1.00  0.00     0.251 C 
ATOM     22  H   UNL A   1      44.665  37.103  25.847  1.00  0.00     0.164 HD
BRANCH  21  23
ATOM     23  C   UNL A   1      45.385  34.134  27.241  1.00  0.00     0.040 A 
ATOM     24  C   UNL A   1      44.806  33.895  28.495  1.00  0.00     0.017 A 
ATOM     25  C   UNL A   1      46.534  33.433  26.853  1.00  0.00     0.017 A 
ATOM     26  C   UNL A   1      45.427  33.016  29.389  1.00  0.00     0.040 A 
ATOM     27  C   UNL A   1      47.143  32.546  27.746  1.00  0.00     0.040 A 
ATOM     28  C   UNL A   1      46.593  32.358  29.009  1.00  0.00     0.123 A 
ATOM     29  F   UNL A   1      47.196  31.531  29.874  1.00  0.00    -0.207 F 
ENDBRANCH  21  23
ENDBRANCH  18  19
BRANCH  18  30
ATOM     30  C   UNL A   1      47.110  37.650  27.414  1.00  0.00     0.072 C 
BRANCH  30  31
ATOM     31  C   UNL A   1      48.043  36.843  26.573  1.00  0.00    -0.020 A 
ATOM     32  C   UNL A   1      48.347  37.093  25.251  1.00  0.00     0.087 A 
ATOM     33  C   UNL A   1      48.979  35.835  26.993  1.00  0.00     0.003 A 
ATOM     34  N   UNL A   1      49.169  36.105  24.790  1.00  0.00    -0.361 N 
ATOM     35  C   UNL A   1      49.618  35.354  25.847  1.00  0.00     0.046 A 
ATOM     36  C   UNL A   1      49.389  35.317  28.241  1.00  0.00     0.010 A 
ATOM     37  H   UNL A   1      49.404  35.955  23.845  1.00  0.00     0.166 HD
ATOM     38  C   UNL A   1      50.578  34.336  25.871  1.00  0.00     0.026 A 
ATOM     39  C   UNL A   1      50.410  34.355  28.290  1.00  0.00     0.001 A 
ATOM     40  C   UNL A   1      50.978  33.858  27.120  1.00  0.00     0.002 A 
ENDBRANCH  30  31
ENDBRANCH  18  30
ENDBRANCH  15  18
ENDBRANCH  13  14
BRANCH  13  41
ATOM     41  C   UNL A   1      41.813  39.369  26.558  1.00  0.00     0.101 C 
BRANCH  41  42
ATOM     42  S   UNL A   1      41.248  40.917  25.794  1.00  0.00    -0.177 SA
ATOM     43  H   UNL A   1      40.214  40.656  24.951  1.00  0.00     0.102 HD
ENDBRANCH  41  42
ENDBRANCH  13  41
ENDBRANCH  10  13
ENDBRANCH   8   9
BRANCH   8  44
ATOM     44  C   UNL A   1      44.821  43.395  29.150  1.00  0.00     0.193 C 
BRANCH  44  45
ATOM     45  O   UNL A   1      45.895  43.510  30.079  1.00  0.00    -0.394 OA
ATOM     46  H   UNL A   1      46.554  42.822  29.898  1.00  0.00     0.210 HD
ENDBRANCH  44  45
ENDBRANCH   8  44
ENDBRANCH   6   8
ENDBRANCH   5   6
ENDBRANCH   4   5
ENDBRANCH   3   4
ENDBRANCH   2   3
ENDBRANCH   1   2
BRANCH   1  47
ATOM     47  C   UNL A   1      43.925  41.237  34.861  1.00  0.00     0.188 C 
BRANCH  47  48
ATOM     48  O   UNL A   1      45.082  40.700  35.466  1.00  0.00    -0.377 OA
BRANCH  48  49
ATOM     49  C   UNL A   1      45.175  40.794  36.889  1.00  0.00     0.188 C 
BRANCH  49  50
ATOM     50  C   UNL A   1      44.343  39.881  37.823  1.00  0.00     0.188 C 
BRANCH  50  51
ATOM     51  O   UNL A   1      44.470  38.480  37.580  1.00  0.00    -0.376 OA
BRANCH  51  52
ATOM     52  C   UNL A   1      45.783  37.979  37.350  1.00  0.00     0.202 C 
BRANCH  52  53
ATOM     53  C   UNL A   1      45.940  36.470  37.590  1.00  0.00     0.261 C 
BRANCH  53  54
ATOM     54  O   UNL A   1      45.667  35.653  36.440  1.00  0.00    -0.460 OA
BRANCH  54  55
ATOM     55  C   UNL A   1      44.531  34.922  36.476  1.00  0.00     0.338 C 
ATOM     56  O   UNL A   1      43.480  35.224  37.015  1.00  0.00    -0.246 OA
BRANCH  55  57
ATOM     57  C   UNL A   1      44.698  33.774  35.568  1.00  0.00     0.060 A 
ATOM     58  C   UNL A   1      44.945  34.027  34.213  1.00  0.00     0.016 A 
ATOM     59  C   UNL A   1      44.610  32.464  36.046  1.00  0.00     0.016 A 
ATOM     60  C   UNL A   1      45.057  32.965  33.319  1.00  0.00     0.010 A 
ATOM     61  C   UNL A   1      44.702  31.401  35.145  1.00  0.00     0.010 A 
ATOM     62  C   UNL A   1      44.884  31.651  33.774  1.00  0.00    -0.014 A 
BRANCH  62  63
ATOM     63  C   UNL A   1      44.667  30.568  32.788  1.00  0.00     0.031 A 
ATOM     64  C   UNL A   1      43.261  30.314  32.319  1.00  0.00     0.074 A 
ATOM     65  C   UNL A   1      45.688  29.837  32.311  1.00  0.00     0.049 A 
ATOM     66  N   UNL A   1      42.822  29.439  31.453  1.00  0.00    -0.248 NA
ATOM     67  C   UNL A   1      42.209  31.163  32.904  1.00  0.00     0.031 C 
ATOM     68  C   UNL A   1      47.092  29.994  32.686  1.00  0.00     0.029 A 
ATOM     69  N   UNL A   1      45.691  28.798  31.415  1.00  0.00    -0.354 N 
ATOM     70  C   UNL A   1      41.446  29.623  31.399  1.00  0.00     0.074 A 
ATOM     71  C   UNL A   1      41.118  30.678  32.332  1.00  0.00     0.031 C 
ATOM     72  C   UNL A   1      47.820  29.065  32.040  1.00  0.00     0.029 A 
ATOM     73  C   UNL A   1      46.932  28.241  31.220  1.00  0.00     0.049 A 
ATOM     74  H   UNL A   1      44.880  28.481  30.955  1.00  0.00     0.167 HD
ATOM     75  C   UNL A   1      40.536  28.986  30.627  1.00  0.00     0.034 A 
ATOM     76  C   UNL A   1      47.301  27.182  30.473  1.00  0.00     0.034 A 
ATOM     77  C   UNL A   1      40.860  27.940  29.699  1.00  0.00     0.049 A 
ATOM     78  C   UNL A   1      46.261  26.460  29.654  1.00  0.00     0.074 A 
ATOM     79  C   UNL A   1      40.014  27.250  28.850  1.00  0.00     0.029 A 
ATOM     80  N   UNL A   1      42.131  27.422  29.508  1.00  0.00    -0.354 N 
ATOM     81  N   UNL A   1      44.984  26.727  29.516  1.00  0.00    -0.248 NA
ATOM     82  C   UNL A   1      46.720  25.310  28.859  1.00  0.00     0.031 C 
ATOM     83  C   UNL A   1      40.772  26.298  28.159  1.00  0.00     0.029 A 
ATOM     84  C   UNL A   1      42.094  26.412  28.562  1.00  0.00     0.049 A 
ATOM     85  H   UNL A   1      42.941  27.727  29.975  1.00  0.00     0.167 HD
ATOM     86  C   UNL A   1      44.497  25.806  28.593  1.00  0.00     0.074 A 
ATOM     87  C   UNL A   1      45.621  24.986  28.192  1.00  0.00     0.031 C 
ATOM     88  C   UNL A   1      43.233  25.644  28.130  1.00  0.00     0.034 A 
BRANCH  75  89
ATOM     89  C   UNL A   1      39.103  29.430  30.740  1.00  0.00     0.023 A 
ATOM     90  C   UNL A   1      38.311  28.951  31.803  1.00  0.00     0.012 A 
ATOM     91  C   UNL A   1      38.549  30.338  29.817  1.00  0.00     0.148 A 
ATOM     92  C   UNL A   1      36.980  29.345  31.930  1.00  0.00     0.002 A 
ATOM     93  C   UNL A   1      37.234  30.758  29.973  1.00  0.00     0.091 A 
ATOM     94  F   UNL A   1      39.310  30.756  28.796  1.00  0.00    -0.205 F 
ATOM     95  C   UNL A   1      36.445  30.256  31.022  1.00  0.00     0.022 A 
BRANCH  93  96
ATOM     96  S   UNL A   1      36.477  31.977  28.894  1.00  0.00     0.127 S 
ATOM     97  O   UNL A   1      36.252  31.196  27.680  1.00  0.00    -0.237 OA
ATOM     98  O   UNL A   1      35.262  32.329  29.628  1.00  0.00    -0.237 OA
ATOM     99  O   UNL A   1      37.445  33.058  28.773  1.00  0.00    -0.744 OA
ENDBRANCH  93  96
ENDBRANCH  75  89
BRANCH  76 100
ATOM    100  C   UNL A   1      48.730  26.761  30.426  1.00  0.00     0.023 A 
ATOM    101  C   UNL A   1      49.217  25.847  31.380  1.00  0.00     0.012 A 
ATOM    102  C   UNL A   1      49.607  27.257  29.441  1.00  0.00     0.148 A 
ATOM    103  C   UNL A   1      50.556  25.455  31.373  1.00  0.00     0.002 A 
ATOM    104  C   UNL A   1      50.928  26.823  29.408  1.00  0.00     0.091 A 
ATOM    105  F   UNL A   1      49.131  28.144  28.555  1.00  0.00    -0.205 F 
ATOM    106  C   UNL A   1      51.409  25.935  30.382  1.00  0.00     0.022 A 
BRANCH 104 107
ATOM    107  S   UNL A   1      52.062  27.297  28.099  1.00  0.00     0.127 S 
ATOM    108  O   UNL A   1      53.282  26.597  28.492  1.00  0.00    -0.237 OA
ATOM    109  O   UNL A   1      51.396  26.757  26.913  1.00  0.00    -0.237 OA
ATOM    110  O   UNL A   1      52.124  28.751  28.142  1.00  0.00    -0.744 OA
ENDBRANCH 104 107
ENDBRANCH  76 100
BRANCH  88 111
ATOM    111  C   UNL A   1      42.991  24.565  27.107  1.00  0.00     0.023 A 
ATOM    112  C   UNL A   1      43.433  24.746  25.781  1.00  0.00     0.012 A 
ATOM    113  C   UNL A   1      42.405  23.339  27.479  1.00  0.00     0.148 A 
ATOM    114  C   UNL A   1      43.268  23.734  24.836  1.00  0.00     0.002 A 
ATOM    115  C   UNL A   1      42.286  22.319  26.543  1.00  0.00     0.091 A 
ATOM    116  F   UNL A   1      41.974  23.192  28.741  1.00  0.00    -0.205 F 
ATOM    117  C   UNL A   1      42.707  22.517  25.219  1.00  0.00     0.022 A 
BRANCH 115 118
ATOM    118  S   UNL A   1      41.666  20.688  26.974  1.00  0.00     0.127 S 
ATOM    119  O   UNL A   1      42.639  20.254  27.975  1.00  0.00    -0.237 OA
ATOM    120  O   UNL A   1      40.337  20.990  27.508  1.00  0.00    -0.237 OA
ATOM    121  O   UNL A   1      41.657  19.925  25.734  1.00  0.00    -0.744 OA
ENDBRANCH 115 118
ENDBRANCH  88 111
ENDBRANCH  62  63
ENDBRANCH  55  57
ENDBRANCH  54  55
ENDBRANCH  53  54
ENDBRANCH  52  53
ENDBRANCH  51  52
ENDBRANCH  50  51
ENDBRANCH  49  50
ENDBRANCH  48  49
ENDBRANCH  47  48
ENDBRANCH   1  47
TORSDOF 35
ENDMDL
MODEL 3
REMARK VINA RESULT:      -5.7      5.543     10.668
REMARK SMILES O=C(N[C@@H](Cc1c[nH]c2ccccc12)C(=O)N[C@@H](CS)C(=O)N[C@@H](CO)C(=O)OCCOCCOCCOCCOC(=O)c1ccc(-c2c3nc(c(-c4cccc(S(=O)(=O)[O-])c4F)c4ccc([nH]4)c(-c4cccc(S(=O)(=O)[O-])c4F)c4nc(c(-c5cccc(S(=O)(=O)[O-])c5F)c5ccc2[nH]5)C=C4)C=C3)cc1)c1ccc(F)cc1
REMARK SMILES IDX 33 1 32 2 31 3 30 4 29 5 27 6 28 7 24 8 23 9 21 10 22 11
REMARK SMILES IDX 18 13 17 14 15 15 16 16 4 18 3 19 1 20 2 21 107 23 108 24
REMARK SMILES IDX 113 25 109 26 112 27 110 28 111 29 5 30 6 31 7 32 14 33 8 34
REMARK SMILES IDX 9 35 13 36 10 38 12 39 11 40 19 41 20 42 25 44 26 45 34 47
REMARK SMILES IDX 35 48 36 49 37 50 38 51 39 52 40 53 41 54 42 55 43 56 44 57
REMARK SMILES IDX 45 58 106 59 46 60 105 61 47 62 48 63 49 64 99 65 50 66
REMARK SMILES IDX 104 67 98 68 100 69 51 70 103 71 97 72 96 73 52 75 84 76
REMARK SMILES IDX 64 77 83 78 65 79 68 80 82 81 101 82 66 83 67 84 81 86
REMARK SMILES IDX 102 87 69 88 53 89 54 90 62 91 55 92 57 93 63 94 56 95 58 96
REMARK SMILES IDX 59 97 60 98 61 99 85 100 86 101 94 102 87 103 89 104 95 105
REMARK SMILES IDX 88 106 90 107 91 108 92 109 93 110 70 111 71 112 79 113
REMARK SMILES IDX 72 114 74 115 80 116 73 117 75 118 76 119 77 120 78 121
REMARK H PARENT 23 12 17 17 3 22 8 37 20 43 26 46 100 74 68 85
REMARK Flexibility Score: inf
ROOT
ATOM      1  C   UNL A   1      45.491  36.588  27.018  1.00  0.00     0.188 C 
ENDROOT
BRANCH   1   2
ATOM      2  O   UNL A   1      45.158  35.549  26.103  1.00  0.00    -0.376 OA
BRANCH   2   3
ATOM      3  C   UNL A   1      44.799  34.282  26.652  1.00  0.00     0.202 C 
BRANCH   3   4
ATOM      4  C   UNL A   1      45.922  33.361  27.150  1.00  0.00     0.261 C 
BRANCH   4   5
ATOM      5  O   UNL A   1      45.493  32.003  27.328  1.00  0.00    -0.462 OA
BRANCH   5   6
ATOM      6  C   UNL A   1      45.675  31.413  28.540  1.00  0.00     0.331 C 
ATOM      7  O   UNL A   1      46.746  31.307  29.120  1.00  0.00    -0.250 OA
BRANCH   6   8
ATOM      8  C   UNL A   1      44.339  30.858  29.063  1.00  0.00     0.218 C 
BRANCH   8   9
ATOM      9  N   UNL A   1      44.528  29.561  29.756  1.00  0.00    -0.339 N 
ATOM     10  C   UNL A   1      43.671  28.520  29.566  1.00  0.00     0.244 C 
ATOM     11  O   UNL A   1      42.551  28.599  30.076  1.00  0.00    -0.273 OA
ATOM     12  H   UNL A   1      45.290  29.450  30.368  1.00  0.00     0.164 HD
BRANCH  10  13
ATOM     13  C   UNL A   1      44.124  27.262  28.747  1.00  0.00     0.181 C 
BRANCH  13  14
ATOM     14  N   UNL A   1      45.063  27.782  27.740  1.00  0.00    -0.342 N 
ATOM     15  C   UNL A   1      45.070  27.624  26.384  1.00  0.00     0.243 C 
ATOM     16  O   UNL A   1      45.420  28.611  25.727  1.00  0.00    -0.273 OA
ATOM     17  H   UNL A   1      45.800  28.328  28.099  1.00  0.00     0.164 HD
BRANCH  15  18
ATOM     18  C   UNL A   1      44.744  26.298  25.649  1.00  0.00     0.176 C 
BRANCH  18  19
ATOM     19  N   UNL A   1      45.363  25.128  26.279  1.00  0.00    -0.340 N 
ATOM     20  O   UNL A   1      47.081  23.765  26.854  1.00  0.00    -0.269 OA
ATOM     21  C   UNL A   1      46.702  24.789  26.296  1.00  0.00     0.251 C 
ATOM     22  H   UNL A   1      44.753  24.510  26.743  1.00  0.00     0.164 HD
BRANCH  21  23
ATOM     23  C   UNL A   1      47.695  25.620  25.563  1.00  0.00     0.040 A 
ATOM     24  C   UNL A   1      48.452  26.607  26.210  1.00  0.00     0.017 A 
ATOM     25  C   UNL A   1      47.845  25.412  24.186  1.00  0.00     0.017 A 
ATOM     26  C   UNL A   1      49.294  27.436  25.462  1.00  0.00     0.040 A 
ATOM     27  C   UNL A   1      48.698  26.235  23.445  1.00  0.00     0.040 A 
ATOM     28  C   UNL A   1      49.401  27.249  24.088  1.00  0.00     0.123 A 
ATOM     29  F   UNL A   1      50.195  28.057  23.371  1.00  0.00    -0.207 F 
ENDBRANCH  21  23
ENDBRANCH  18  19
BRANCH  18  30
ATOM     30  C   UNL A   1      43.342  26.076  25.050  1.00  0.00     0.072 C 
BRANCH  30  31
ATOM     31  C   UNL A   1      42.177  25.911  25.971  1.00  0.00    -0.020 A 
ATOM     32  C   UNL A   1      41.848  24.753  26.644  1.00  0.00     0.087 A 
ATOM     33  C   UNL A   1      41.330  26.930  26.530  1.00  0.00     0.003 A 
ATOM     34  N   UNL A   1      40.681  24.952  27.325  1.00  0.00    -0.361 N 
ATOM     35  C   UNL A   1      40.371  26.289  27.320  1.00  0.00     0.046 A 
ATOM     36  C   UNL A   1      41.313  28.342  26.491  1.00  0.00     0.010 A 
ATOM     37  H   UNL A   1      40.145  24.246  27.753  1.00  0.00     0.166 HD
ATOM     38  C   UNL A   1      39.356  26.970  28.001  1.00  0.00     0.026 A 
ATOM     39  C   UNL A   1      40.353  29.043  27.236  1.00  0.00     0.001 A 
ATOM     40  C   UNL A   1      39.377  28.365  27.960  1.00  0.00     0.002 A 
ENDBRANCH  30  31
ENDBRANCH  18  30
ENDBRANCH  15  18
ENDBRANCH  13  14
BRANCH  13  41
ATOM     41  C   UNL A   1      44.637  26.034  29.505  1.00  0.00     0.101 C 
BRANCH  41  42
ATOM     42  S   UNL A   1      45.925  26.308  30.756  1.00  0.00    -0.177 SA
ATOM     43  H   UNL A   1      46.956  25.446  30.543  1.00  0.00     0.102 HD
ENDBRANCH  41  42
ENDBRANCH  13  41
ENDBRANCH  10  13
ENDBRANCH   8   9
BRANCH   8  44
ATOM     44  C   UNL A   1      43.703  31.915  29.974  1.00  0.00     0.193 C 
BRANCH  44  45
ATOM     45  O   UNL A   1      44.557  33.048  30.106  1.00  0.00    -0.394 OA
ATOM     46  H   UNL A   1      44.121  33.827  29.727  1.00  0.00     0.210 HD
ENDBRANCH  44  45
ENDBRANCH   8  44
ENDBRANCH   6   8
ENDBRANCH   5   6
ENDBRANCH   4   5
ENDBRANCH   3   4
ENDBRANCH   2   3
ENDBRANCH   1   2
BRANCH   1  47
ATOM     47  C   UNL A   1      44.307  36.986  27.914  1.00  0.00     0.188 C 
BRANCH  47  48
ATOM     48  O   UNL A   1      43.917  38.333  27.756  1.00  0.00    -0.377 OA
BRANCH  48  49
ATOM     49  C   UNL A   1      44.327  38.994  26.557  1.00  0.00     0.188 C 
BRANCH  49  50
ATOM     50  C   UNL A   1      44.579  40.522  26.514  1.00  0.00     0.188 C 
BRANCH  50  51
ATOM     51  O   UNL A   1      45.809  40.923  25.912  1.00  0.00    -0.376 OA
BRANCH  51  52
ATOM     52  C   UNL A   1      46.838  39.942  25.826  1.00  0.00     0.202 C 
BRANCH  52  53
ATOM     53  C   UNL A   1      47.863  39.993  26.970  1.00  0.00     0.261 C 
BRANCH  53  54
ATOM     54  O   UNL A   1      47.435  39.351  28.182  1.00  0.00    -0.460 OA
BRANCH  54  55
ATOM     55  C   UNL A   1      46.976  40.160  29.162  1.00  0.00     0.338 C 
ATOM     56  O   UNL A   1      47.021  41.378  29.191  1.00  0.00    -0.246 OA
BRANCH  55  57
ATOM     57  C   UNL A   1      46.211  39.335  30.113  1.00  0.00     0.060 A 
ATOM     58  C   UNL A   1      44.961  39.799  30.542  1.00  0.00     0.016 A 
ATOM     59  C   UNL A   1      46.720  38.120  30.579  1.00  0.00     0.016 A 
ATOM     60  C   UNL A   1      44.235  39.068  31.479  1.00  0.00     0.010 A 
ATOM     61  C   UNL A   1      46.001  37.399  31.534  1.00  0.00     0.010 A 
ATOM     62  C   UNL A   1      44.776  37.893  32.016  1.00  0.00    -0.014 A 
BRANCH  62  63
ATOM     63  C   UNL A   1      44.172  37.311  33.236  1.00  0.00     0.031 A 
ATOM     64  C   UNL A   1      43.191  36.184  33.068  1.00  0.00     0.074 A 
ATOM     65  C   UNL A   1      44.490  37.761  34.461  1.00  0.00     0.049 A 
ATOM     66  N   UNL A   1      42.546  35.503  33.978  1.00  0.00    -0.248 NA
ATOM     67  C   UNL A   1      42.900  35.765  31.685  1.00  0.00     0.031 C 
ATOM     68  C   UNL A   1      45.430  38.842  34.750  1.00  0.00     0.029 A 
ATOM     69  N   UNL A   1      44.037  37.367  35.695  1.00  0.00    -0.354 N 
ATOM     70  C   UNL A   1      41.767  34.588  33.282  1.00  0.00     0.074 A 
ATOM     71  C   UNL A   1      42.003  34.811  31.872  1.00  0.00     0.031 C 
ATOM     72  C   UNL A   1      45.466  39.042  36.080  1.00  0.00     0.029 A 
ATOM     73  C   UNL A   1      44.543  38.114  36.732  1.00  0.00     0.049 A 
ATOM     74  H   UNL A   1      43.410  36.619  35.825  1.00  0.00     0.167 HD
ATOM     75  C   UNL A   1      40.942  33.633  33.769  1.00  0.00     0.034 A 
ATOM     76  C   UNL A   1      44.278  38.057  38.052  1.00  0.00     0.034 A 
ATOM     77  C   UNL A   1      40.709  33.409  35.167  1.00  0.00     0.049 A 
ATOM     78  C   UNL A   1      43.321  37.011  38.568  1.00  0.00     0.074 A 
ATOM     79  C   UNL A   1      39.913  32.448  35.765  1.00  0.00     0.029 A 
ATOM     80  N   UNL A   1      41.259  34.167  36.189  1.00  0.00    -0.354 N 
ATOM     81  N   UNL A   1      42.690  36.070  37.908  1.00  0.00    -0.248 NA
ATOM     82  C   UNL A   1      43.069  36.996  40.017  1.00  0.00     0.031 C 
ATOM     83  C   UNL A   1      39.966  32.639  37.149  1.00  0.00     0.029 A 
ATOM     84  C   UNL A   1      40.813  33.703  37.415  1.00  0.00     0.049 A 
ATOM     85  H   UNL A   1      41.876  34.922  36.062  1.00  0.00     0.167 HD
ATOM     86  C   UNL A   1      41.997  35.331  38.862  1.00  0.00     0.074 A 
ATOM     87  C   UNL A   1      42.302  35.922  40.148  1.00  0.00     0.031 C 
ATOM     88  C   UNL A   1      41.173  34.267  38.690  1.00  0.00     0.034 A 
BRANCH  75  89
ATOM     89  C   UNL A   1      40.255  32.740  32.772  1.00  0.00     0.023 A 
ATOM     90  C   UNL A   1      40.884  31.546  32.363  1.00  0.00     0.012 A 
ATOM     91  C   UNL A   1      38.983  33.063  32.264  1.00  0.00     0.148 A 
ATOM     92  C   UNL A   1      40.270  30.701  31.439  1.00  0.00     0.002 A 
ATOM     93  C   UNL A   1      38.359  32.196  31.374  1.00  0.00     0.091 A 
ATOM     94  F   UNL A   1      38.417  34.218  32.642  1.00  0.00    -0.205 F 
ATOM     95  C   UNL A   1      39.004  31.021  30.954  1.00  0.00     0.022 A 
BRANCH  93  96
ATOM     96  S   UNL A   1      36.703  32.488  30.745  1.00  0.00     0.127 S 
ATOM     97  O   UNL A   1      36.610  31.486  29.686  1.00  0.00    -0.237 OA
ATOM     98  O   UNL A   1      35.873  32.215  31.919  1.00  0.00    -0.237 OA
ATOM     99  O   UNL A   1      36.684  33.874  30.300  1.00  0.00    -0.744 OA
ENDBRANCH  93  96
ENDBRANCH  75  89
BRANCH  76 100
ATOM    100  C   UNL A   1      44.959  38.991  38.992  1.00  0.00     0.023 A 
ATOM    101  C   UNL A   1      46.119  38.571  39.671  1.00  0.00     0.012 A 
ATOM    102  C   UNL A   1      44.468  40.293  39.215  1.00  0.00     0.148 A 
ATOM    103  C   UNL A   1      46.762  39.417  40.575  1.00  0.00     0.002 A 
ATOM    104  C   UNL A   1      45.142  41.149  40.079  1.00  0.00     0.091 A 
ATOM    105  F   UNL A   1      43.349  40.668  38.577  1.00  0.00    -0.205 F 
ATOM    106  C   UNL A   1      46.279  40.709  40.772  1.00  0.00     0.022 A 
BRANCH 104 107
ATOM    107  S   UNL A   1      44.661  42.866  40.300  1.00  0.00     0.127 S 
ATOM    108  O   UNL A   1      43.334  42.729  40.895  1.00  0.00    -0.237 OA
ATOM    109  O   UNL A   1      45.697  43.354  41.210  1.00  0.00    -0.237 OA
ATOM    110  O   UNL A   1      44.701  43.457  38.970  1.00  0.00    -0.744 OA
ENDBRANCH 104 107
ENDBRANCH  76 100
BRANCH  88 111
ATOM    111  C   UNL A   1      40.565  33.642  39.919  1.00  0.00     0.023 A 
ATOM    112  C   UNL A   1      41.202  32.547  40.535  1.00  0.00     0.012 A 
ATOM    113  C   UNL A   1      39.412  34.194  40.511  1.00  0.00     0.148 A 
ATOM    114  C   UNL A   1      40.684  31.992  41.705  1.00  0.00     0.002 A 
ATOM    115  C   UNL A   1      38.928  33.666  41.702  1.00  0.00     0.091 A 
ATOM    116  F   UNL A   1      38.809  35.225  39.900  1.00  0.00    -0.205 F 
ATOM    117  C   UNL A   1      39.556  32.558  42.295  1.00  0.00     0.022 A 
BRANCH 115 118
ATOM    118  S   UNL A   1      37.540  34.393  42.580  1.00  0.00     0.127 S 
ATOM    119  O   UNL A   1      37.995  35.769  42.770  1.00  0.00    -0.237 OA
ATOM    120  O   UNL A   1      36.447  34.240  41.620  1.00  0.00    -0.237 OA
ATOM    121  O   UNL A   1      37.384  33.609  43.798  1.00  0.00    -0.744 OA
ENDBRANCH 115 118
ENDBRANCH  88 111
ENDBRANCH  62  63
ENDBRANCH  55  57
ENDBRANCH  54  55
ENDBRANCH  53  54
ENDBRANCH  52  53
ENDBRANCH  51  52
ENDBRANCH  50  51
ENDBRANCH  49  50
ENDBRANCH  48  49
ENDBRANCH  47  48
ENDBRANCH   1  47
TORSDOF 35
ENDMDL
