MODEL 1
REMARK VINA RESULT:      -8.8      0.000      0.000
REMARK SMILES C[C@@H]1CN(C(=O)Nc2ccc(O)c(C(=O)OCCOCCOCCOCCOC(=O)c3ccc(-c4c5nc(c(-c6cccc(S(=O)(=O)[O-])c6F)c6ccc([nH]6)c(-c6cccc(S(=O)(=O)[O-])c6F)c6nc(c(-c7cccc(S(=O)(=O)[O-])c7F)c7ccc4[nH]7)C=C6)C=C5)cc3)c2)C[C@@H]1C
REMARK SMILES IDX 23 1 22 2 21 3 20 4 19 5 18 6 17 7 16 8 14 9 15 10 13 11
REMARK SMILES IDX 8 12 9 13 94 14 10 15 11 16 7 17 5 18 6 19 4 21 1 22 2 23
REMARK SMILES IDX 3 24 96 25 95 26 97 27 12 28 24 30 25 31 26 32 27 33 28 34
REMARK SMILES IDX 29 35 30 36 31 37 32 38 93 39 33 40 92 41 34 42 35 43 36 44
REMARK SMILES IDX 86 45 37 46 91 47 85 48 87 49 38 50 90 51 84 52 83 53 39 55
REMARK SMILES IDX 71 56 51 57 70 58 52 59 55 60 69 61 88 62 53 63 54 64 68 66
REMARK SMILES IDX 89 67 56 68 40 69 41 70 49 71 42 72 44 73 50 74 43 75 45 76
REMARK SMILES IDX 46 77 47 78 48 79 72 80 73 81 81 82 74 83 76 84 82 85 75 86
REMARK SMILES IDX 77 87 78 88 79 89 80 90 57 91 58 92 66 93 59 94 61 95 67 96
REMARK SMILES IDX 60 97 62 98 63 99 64 100 65 101
REMARK H PARENT 7 20 12 29 87 54 55 65
REMARK Flexibility Score: inf
ROOT
ATOM      1  C   UNL A   1      38.588  28.257  29.806  1.00  0.00     0.188 C 
ENDROOT
BRANCH   1   2
ATOM      2  O   UNL A   1      37.807  29.438  29.722  1.00  0.00    -0.377 OA
BRANCH   2   3
ATOM      3  C   UNL A   1      37.668  30.107  28.475  1.00  0.00     0.188 C 
BRANCH   3   4
ATOM      4  C   UNL A   1      36.369  30.087  27.624  1.00  0.00     0.188 C 
BRANCH   4   5
ATOM      5  O   UNL A   1      35.300  29.337  28.161  1.00  0.00    -0.376 OA
BRANCH   5   6
ATOM      6  C   UNL A   1      34.175  29.008  27.370  1.00  0.00     0.202 C 
BRANCH   6   7
ATOM      7  C   UNL A   1      33.697  29.976  26.283  1.00  0.00     0.261 C 
BRANCH   7   8
ATOM      8  O   UNL A   1      33.021  29.357  25.193  1.00  0.00    -0.460 OA
BRANCH   8   9
ATOM      9  C   UNL A   1      31.675  29.439  25.157  1.00  0.00     0.342 C 
ATOM     10  O   UNL A   1      31.006  30.455  25.062  1.00  0.00    -0.246 OA
BRANCH   9  11
ATOM     11  C   UNL A   1      31.153  28.072  24.945  1.00  0.00     0.103 A 
ATOM     12  C   UNL A   1      30.727  25.902  25.895  1.00  0.00     0.044 A 
ATOM     13  C   UNL A   1      29.967  25.553  24.774  1.00  0.00     0.030 A 
ATOM     14  C   UNL A   1      31.252  27.183  26.024  1.00  0.00     0.045 A 
ATOM     15  C   UNL A   1      29.860  26.441  23.700  1.00  0.00     0.049 A 
ATOM     16  C   UNL A   1      30.490  27.682  23.772  1.00  0.00     0.130 A 
BRANCH  12  17
ATOM     17  N   UNL A   1      31.045  24.955  26.866  1.00  0.00    -0.308 N 
ATOM     18  C   UNL A   1      31.827  23.840  26.763  1.00  0.00     0.321 C 
ATOM     19  O   UNL A   1      31.858  23.087  27.743  1.00  0.00    -0.248 OA
ATOM     20  H   UNL A   1      30.649  25.112  27.754  1.00  0.00     0.171 HD
BRANCH  18  21
ATOM     21  N   UNL A   1      32.643  23.640  25.678  1.00  0.00    -0.324 N 
ATOM     22  C   UNL A   1      33.311  23.299  22.032  1.00  0.00     0.010 C 
ATOM     23  C   UNL A   1      33.604  23.258  23.526  1.00  0.00     0.010 C 
ATOM     24  C   UNL A   1      32.339  23.085  24.362  1.00  0.00     0.125 C 
ATOM     25  C   UNL A   1      34.252  24.495  24.164  1.00  0.00     0.010 C 
ATOM     26  C   UNL A   1      33.970  24.235  25.654  1.00  0.00     0.125 C 
ATOM     27  C   UNL A   1      33.661  25.831  23.697  1.00  0.00     0.010 C 
ENDBRANCH  18  21
ENDBRANCH  12  17
BRANCH  16  28
ATOM     28  O   UNL A   1      30.469  28.517  22.694  1.00  0.00    -0.507 OA
ATOM     29  H   UNL A   1      29.888  29.253  22.682  1.00  0.00     0.293 HD
ENDBRANCH  16  28
ENDBRANCH   9  11
ENDBRANCH   8   9
ENDBRANCH   7   8
ENDBRANCH   6   7
ENDBRANCH   5   6
ENDBRANCH   4   5
ENDBRANCH   3   4
ENDBRANCH   2   3
ENDBRANCH   1   2
BRANCH   1  30
ATOM     30  C   UNL A   1      39.562  27.982  28.642  1.00  0.00     0.188 C 
BRANCH  30  31
ATOM     31  O   UNL A   1      39.223  26.832  27.880  1.00  0.00    -0.376 OA
BRANCH  31  32
ATOM     32  C   UNL A   1      40.022  25.673  28.054  1.00  0.00     0.202 C 
BRANCH  32  33
ATOM     33  C   UNL A   1      40.829  25.109  26.873  1.00  0.00     0.261 C 
BRANCH  33  34
ATOM     34  O   UNL A   1      42.210  25.487  26.773  1.00  0.00    -0.460 OA
BRANCH  34  35
ATOM     35  C   UNL A   1      42.539  26.525  25.968  1.00  0.00     0.338 C 
ATOM     36  O   UNL A   1      42.456  26.573  24.762  1.00  0.00    -0.246 OA
BRANCH  35  37
ATOM     37  C   UNL A   1      42.838  27.671  26.862  1.00  0.00     0.060 A 
ATOM     38  C   UNL A   1      43.565  27.455  28.041  1.00  0.00     0.016 A 
ATOM     39  C   UNL A   1      42.459  28.963  26.496  1.00  0.00     0.016 A 
ATOM     40  C   UNL A   1      43.923  28.535  28.852  1.00  0.00     0.010 A 
ATOM     41  C   UNL A   1      42.793  30.039  27.323  1.00  0.00     0.010 A 
ATOM     42  C   UNL A   1      43.518  29.831  28.510  1.00  0.00    -0.014 A 
BRANCH  42  43
ATOM     43  C   UNL A   1      43.747  30.966  29.437  1.00  0.00     0.031 A 
ATOM     44  C   UNL A   1      42.661  31.333  30.409  1.00  0.00     0.074 A 
ATOM     45  C   UNL A   1      44.876  31.695  29.377  1.00  0.00     0.049 A 
ATOM     46  N   UNL A   1      42.590  32.354  31.222  1.00  0.00    -0.248 NA
ATOM     47  C   UNL A   1      41.498  30.432  30.467  1.00  0.00     0.031 C 
ATOM     48  C   UNL A   1      46.004  31.434  28.483  1.00  0.00     0.029 A 
ATOM     49  N   UNL A   1      45.238  32.836  30.053  1.00  0.00    -0.354 N 
ATOM     50  C   UNL A   1      41.359  32.245  31.857  1.00  0.00     0.074 A 
ATOM     51  C   UNL A   1      40.721  31.051  31.346  1.00  0.00     0.031 C 
ATOM     52  C   UNL A   1      46.910  32.418  28.627  1.00  0.00     0.029 A 
ATOM     53  C   UNL A   1      46.408  33.396  29.591  1.00  0.00     0.049 A 
ATOM     54  H   UNL A   1      44.713  33.215  30.793  1.00  0.00     0.167 HD
ATOM     55  C   UNL A   1      40.811  33.067  32.780  1.00  0.00     0.034 A 
ATOM     56  C   UNL A   1      46.980  34.585  29.875  1.00  0.00     0.034 A 
ATOM     57  C   UNL A   1      41.454  34.244  33.298  1.00  0.00     0.049 A 
ATOM     58  C   UNL A   1      46.326  35.499  30.882  1.00  0.00     0.074 A 
ATOM     59  C   UNL A   1      41.006  35.095  34.293  1.00  0.00     0.029 A 
ATOM     60  N   UNL A   1      42.658  34.754  32.845  1.00  0.00    -0.354 N 
ATOM     61  N   UNL A   1      45.234  35.311  31.583  1.00  0.00    -0.248 NA
ATOM     62  C   UNL A   1      46.995  36.782  31.154  1.00  0.00     0.031 C 
ATOM     63  C   UNL A   1      41.916  36.150  34.405  1.00  0.00     0.029 A 
ATOM     64  C   UNL A   1      42.953  35.930  33.513  1.00  0.00     0.049 A 
ATOM     65  H   UNL A   1      43.221  34.342  32.152  1.00  0.00     0.167 HD
ATOM     66  C   UNL A   1      45.100  36.436  32.392  1.00  0.00     0.074 A 
ATOM     67  C   UNL A   1      46.238  37.286  32.120  1.00  0.00     0.031 C 
ATOM     68  C   UNL A   1      44.112  36.747  33.267  1.00  0.00     0.034 A 
BRANCH  55  69
ATOM     69  C   UNL A   1      39.439  32.735  33.300  1.00  0.00     0.023 A 
ATOM     70  C   UNL A   1      39.292  31.860  34.395  1.00  0.00     0.012 A 
ATOM     71  C   UNL A   1      38.305  33.376  32.764  1.00  0.00     0.148 A 
ATOM     72  C   UNL A   1      38.031  31.616  34.939  1.00  0.00     0.002 A 
ATOM     73  C   UNL A   1      37.059  33.162  33.340  1.00  0.00     0.091 A 
ATOM     74  F   UNL A   1      38.469  34.186  31.709  1.00  0.00    -0.205 F 
ATOM     75  C   UNL A   1      36.919  32.277  34.421  1.00  0.00     0.022 A 
BRANCH  73  76
ATOM     76  S   UNL A   1      35.581  34.027  32.801  1.00  0.00     0.127 S 
ATOM     77  O   UNL A   1      35.579  33.742  31.366  1.00  0.00    -0.237 OA
ATOM     78  O   UNL A   1      34.534  33.344  33.560  1.00  0.00    -0.237 OA
ATOM     79  O   UNL A   1      35.778  35.426  33.153  1.00  0.00    -0.744 OA
ENDBRANCH  73  76
ENDBRANCH  55  69
BRANCH  56  80
ATOM     80  C   UNL A   1      48.232  35.004  29.178  1.00  0.00     0.023 A 
ATOM     81  C   UNL A   1      49.477  34.848  29.815  1.00  0.00     0.012 A 
ATOM     82  C   UNL A   1      48.188  35.581  27.892  1.00  0.00     0.148 A 
ATOM     83  C   UNL A   1      50.650  35.296  29.204  1.00  0.00     0.002 A 
ATOM     84  C   UNL A   1      49.365  35.966  27.263  1.00  0.00     0.091 A 
ATOM     85  F   UNL A   1      46.992  35.744  27.308  1.00  0.00    -0.205 F 
ATOM     86  C   UNL A   1      50.595  35.845  27.926  1.00  0.00     0.022 A 
BRANCH  84  87
ATOM     87  S   UNL A   1      49.397  36.559  25.567  1.00  0.00     0.127 S 
ATOM     88  O   UNL A   1      48.804  35.437  24.845  1.00  0.00    -0.237 OA
ATOM     89  O   UNL A   1      48.556  37.754  25.648  1.00  0.00    -0.237 OA
ATOM     90  O   UNL A   1      50.797  36.835  25.272  1.00  0.00    -0.744 OA
ENDBRANCH  84  87
ENDBRANCH  56  80
BRANCH  68  91
ATOM     91  C   UNL A   1      44.219  38.048  34.021  1.00  0.00     0.023 A 
ATOM     92  C   UNL A   1      44.969  38.108  35.213  1.00  0.00     0.012 A 
ATOM     93  C   UNL A   1      43.653  39.230  33.502  1.00  0.00     0.148 A 
ATOM     94  C   UNL A   1      45.128  39.316  35.891  1.00  0.00     0.002 A 
ATOM     95  C   UNL A   1      43.859  40.439  34.155  1.00  0.00     0.091 A 
ATOM     96  F   UNL A   1      42.935  39.151  32.372  1.00  0.00    -0.205 F 
ATOM     97  C   UNL A   1      44.585  40.482  35.357  1.00  0.00     0.022 A 
BRANCH  95  98
ATOM     98  S   UNL A   1      43.281  42.008  33.497  1.00  0.00     0.127 S 
ATOM     99  O   UNL A   1      43.735  41.934  32.109  1.00  0.00    -0.237 OA
ATOM    100  O   UNL A   1      41.833  41.901  33.673  1.00  0.00    -0.237 OA
ATOM    101  O   UNL A   1      43.917  43.043  34.302  1.00  0.00    -0.744 OA
ENDBRANCH  95  98
ENDBRANCH  68  91
ENDBRANCH  42  43
ENDBRANCH  35  37
ENDBRANCH  34  35
ENDBRANCH  33  34
ENDBRANCH  32  33
ENDBRANCH  31  32
ENDBRANCH  30  31
ENDBRANCH   1  30
TORSDOF 26
ENDMDL
MODEL 2
REMARK VINA RESULT:      -8.7      2.682      4.831
REMARK SMILES C[C@@H]1CN(C(=O)Nc2ccc(O)c(C(=O)OCCOCCOCCOCCOC(=O)c3ccc(-c4c5nc(c(-c6cccc(S(=O)(=O)[O-])c6F)c6ccc([nH]6)c(-c6cccc(S(=O)(=O)[O-])c6F)c6nc(c(-c7cccc(S(=O)(=O)[O-])c7F)c7ccc4[nH]7)C=C6)C=C5)cc3)c2)C[C@@H]1C
REMARK SMILES IDX 23 1 22 2 21 3 20 4 19 5 18 6 17 7 16 8 14 9 15 10 13 11
REMARK SMILES IDX 8 12 9 13 94 14 10 15 11 16 7 17 5 18 6 19 4 21 1 22 2 23
REMARK SMILES IDX 3 24 96 25 95 26 97 27 12 28 24 30 25 31 26 32 27 33 28 34
REMARK SMILES IDX 29 35 30 36 31 37 32 38 93 39 33 40 92 41 34 42 35 43 36 44
REMARK SMILES IDX 86 45 37 46 91 47 85 48 87 49 38 50 90 51 84 52 83 53 39 55
REMARK SMILES IDX 71 56 51 57 70 58 52 59 55 60 69 61 88 62 53 63 54 64 68 66
REMARK SMILES IDX 89 67 56 68 40 69 41 70 49 71 42 72 44 73 50 74 43 75 45 76
REMARK SMILES IDX 46 77 47 78 48 79 72 80 73 81 81 82 74 83 76 84 82 85 75 86
REMARK SMILES IDX 77 87 78 88 79 89 80 90 57 91 58 92 66 93 59 94 61 95 67 96
REMARK SMILES IDX 60 97 62 98 63 99 64 100 65 101
REMARK H PARENT 7 20 12 29 87 54 55 65
REMARK Flexibility Score: inf
ROOT
ATOM      1  C   UNL A   1      38.334  21.399  25.521  1.00  0.00     0.188 C 
ENDROOT
BRANCH   1   2
ATOM      2  O   UNL A   1      37.514  22.161  24.650  1.00  0.00    -0.377 OA
BRANCH   2   3
ATOM      3  C   UNL A   1      36.116  21.906  24.592  1.00  0.00     0.188 C 
BRANCH   3   4
ATOM      4  C   UNL A   1      35.403  20.803  25.420  1.00  0.00     0.188 C 
BRANCH   4   5
ATOM      5  O   UNL A   1      35.047  19.638  24.706  1.00  0.00    -0.376 OA
BRANCH   5   6
ATOM      6  C   UNL A   1      33.689  19.297  24.506  1.00  0.00     0.202 C 
BRANCH   6   7
ATOM      7  C   UNL A   1      32.607  19.916  25.396  1.00  0.00     0.261 C 
BRANCH   7   8
ATOM      8  O   UNL A   1      31.769  20.862  24.740  1.00  0.00    -0.460 OA
BRANCH   8   9
ATOM      9  C   UNL A   1      31.337  21.923  25.452  1.00  0.00     0.342 C 
ATOM     10  O   UNL A   1      30.385  21.954  26.215  1.00  0.00    -0.246 OA
BRANCH   9  11
ATOM     11  C   UNL A   1      32.390  22.960  25.387  1.00  0.00     0.103 A 
ATOM     12  C   UNL A   1      33.465  24.668  24.077  1.00  0.00     0.044 A 
ATOM     13  C   UNL A   1      34.147  25.118  25.211  1.00  0.00     0.030 A 
ATOM     14  C   UNL A   1      32.526  23.646  24.173  1.00  0.00     0.045 A 
ATOM     15  C   UNL A   1      34.006  24.439  26.424  1.00  0.00     0.049 A 
ATOM     16  C   UNL A   1      33.160  23.334  26.498  1.00  0.00     0.130 A 
BRANCH  12  17
ATOM     17  N   UNL A   1      33.766  25.173  22.814  1.00  0.00    -0.308 N 
ATOM     18  C   UNL A   1      33.067  26.063  22.050  1.00  0.00     0.321 C 
ATOM     19  O   UNL A   1      33.483  26.264  20.903  1.00  0.00    -0.248 OA
ATOM     20  H   UNL A   1      34.602  24.841  22.415  1.00  0.00     0.171 HD
BRANCH  18  21
ATOM     21  N   UNL A   1      32.036  26.799  22.578  1.00  0.00    -0.324 N 
ATOM     22  C   UNL A   1      28.505  27.294  23.650  1.00  0.00     0.010 C 
ATOM     23  C   UNL A   1      29.944  27.675  23.327  1.00  0.00     0.010 C 
ATOM     24  C   UNL A   1      30.597  26.702  22.347  1.00  0.00     0.125 C 
ATOM     25  C   UNL A   1      30.955  27.703  24.482  1.00  0.00     0.010 C 
ATOM     26  C   UNL A   1      32.283  27.682  23.706  1.00  0.00     0.125 C 
ATOM     27  C   UNL A   1      30.843  26.521  25.452  1.00  0.00     0.010 C 
ENDBRANCH  18  21
ENDBRANCH  12  17
BRANCH  16  28
ATOM     28  O   UNL A   1      33.086  22.611  27.651  1.00  0.00    -0.507 OA
ATOM     29  H   UNL A   1      32.595  22.938  28.380  1.00  0.00     0.293 HD
ENDBRANCH  16  28
ENDBRANCH   9  11
ENDBRANCH   8   9
ENDBRANCH   7   8
ENDBRANCH   6   7
ENDBRANCH   5   6
ENDBRANCH   4   5
ENDBRANCH   3   4
ENDBRANCH   2   3
ENDBRANCH   1   2
BRANCH   1  30
ATOM     30  C   UNL A   1      39.542  22.121  26.152  1.00  0.00     0.188 C 
BRANCH  30  31
ATOM     31  O   UNL A   1      40.084  21.442  27.275  1.00  0.00    -0.376 OA
BRANCH  31  32
ATOM     32  C   UNL A   1      41.212  20.612  27.055  1.00  0.00     0.202 C 
BRANCH  32  33
ATOM     33  C   UNL A   1      42.304  21.043  26.061  1.00  0.00     0.261 C 
BRANCH  33  34
ATOM     34  O   UNL A   1      43.093  22.192  26.399  1.00  0.00    -0.460 OA
BRANCH  34  35
ATOM     35  C   UNL A   1      43.260  23.160  25.467  1.00  0.00     0.338 C 
ATOM     36  O   UNL A   1      43.141  23.052  24.268  1.00  0.00    -0.246 OA
BRANCH  35  37
ATOM     37  C   UNL A   1      43.424  24.434  26.211  1.00  0.00     0.060 A 
ATOM     38  C   UNL A   1      43.709  24.400  27.583  1.00  0.00     0.016 A 
ATOM     39  C   UNL A   1      43.365  25.653  25.534  1.00  0.00     0.016 A 
ATOM     40  C   UNL A   1      43.946  25.589  28.280  1.00  0.00     0.010 A 
ATOM     41  C   UNL A   1      43.573  26.842  26.239  1.00  0.00     0.010 A 
ATOM     42  C   UNL A   1      43.856  26.818  27.616  1.00  0.00    -0.014 A 
BRANCH  42  43
ATOM     43  C   UNL A   1      43.942  28.093  28.369  1.00  0.00     0.031 A 
ATOM     44  C   UNL A   1      42.678  28.695  28.915  1.00  0.00     0.074 A 
ATOM     45  C   UNL A   1      45.116  28.735  28.513  1.00  0.00     0.049 A 
ATOM     46  N   UNL A   1      42.497  29.853  29.493  1.00  0.00    -0.248 NA
ATOM     47  C   UNL A   1      41.455  27.886  28.787  1.00  0.00     0.031 C 
ATOM     48  C   UNL A   1      46.410  28.250  28.035  1.00  0.00     0.029 A 
ATOM     49  N   UNL A   1      45.399  29.962  29.066  1.00  0.00    -0.354 N 
ATOM     50  C   UNL A   1      41.136  29.933  29.759  1.00  0.00     0.074 A 
ATOM     51  C   UNL A   1      40.539  28.701  29.291  1.00  0.00     0.031 C 
ATOM     52  C   UNL A   1      47.340  29.193  28.267  1.00  0.00     0.029 A 
ATOM     53  C   UNL A   1      46.702  30.361  28.872  1.00  0.00     0.049 A 
ATOM     54  H   UNL A   1      44.735  30.502  29.552  1.00  0.00     0.167 HD
ATOM     55  C   UNL A   1      40.447  30.943  30.337  1.00  0.00     0.034 A 
ATOM     56  C   UNL A   1      47.297  31.550  29.106  1.00  0.00     0.034 A 
ATOM     57  C   UNL A   1      41.045  32.159  30.815  1.00  0.00     0.049 A 
ATOM     58  C   UNL A   1      46.494  32.671  29.719  1.00  0.00     0.074 A 
ATOM     59  C   UNL A   1      40.436  33.206  31.485  1.00  0.00     0.029 A 
ATOM     60  N   UNL A   1      42.374  32.509  30.647  1.00  0.00    -0.354 N 
ATOM     61  N   UNL A   1      45.239  32.678  30.099  1.00  0.00    -0.248 NA
ATOM     62  C   UNL A   1      47.194  33.944  29.954  1.00  0.00     0.031 C 
ATOM     63  C   UNL A   1      41.388  34.212  31.676  1.00  0.00     0.029 A 
ATOM     64  C   UNL A   1      42.599  33.772  31.167  1.00  0.00     0.049 A 
ATOM     65  H   UNL A   1      43.058  31.944  30.222  1.00  0.00     0.167 HD
ATOM     66  C   UNL A   1      45.010  33.940  30.638  1.00  0.00     0.074 A 
ATOM     67  C   UNL A   1      46.262  34.661  30.566  1.00  0.00     0.031 C 
ATOM     68  C   UNL A   1      43.860  34.464  31.131  1.00  0.00     0.034 A 
BRANCH  55  69
ATOM     69  C   UNL A   1      38.959  30.790  30.491  1.00  0.00     0.023 A 
ATOM     70  C   UNL A   1      38.436  29.945  31.491  1.00  0.00     0.012 A 
ATOM     71  C   UNL A   1      38.082  31.566  29.709  1.00  0.00     0.148 A 
ATOM     72  C   UNL A   1      37.059  29.865  31.697  1.00  0.00     0.002 A 
ATOM     73  C   UNL A   1      36.716  31.515  29.951  1.00  0.00     0.091 A 
ATOM     74  F   UNL A   1      38.604  32.345  28.750  1.00  0.00    -0.205 F 
ATOM     75  C   UNL A   1      36.202  30.659  30.939  1.00  0.00     0.022 A 
BRANCH  73  76
ATOM     76  S   UNL A   1      35.538  32.558  29.086  1.00  0.00     0.127 S 
ATOM     77  O   UNL A   1      36.201  33.861  29.143  1.00  0.00    -0.237 OA
ATOM     78  O   UNL A   1      35.507  31.947  27.758  1.00  0.00    -0.237 OA
ATOM     79  O   UNL A   1      34.291  32.467  29.832  1.00  0.00    -0.744 OA
ENDBRANCH  73  76
ENDBRANCH  55  69
BRANCH  56  80
ATOM     80  C   UNL A   1      48.727  31.761  28.736  1.00  0.00     0.023 A 
ATOM     81  C   UNL A   1      49.748  31.352  29.615  1.00  0.00     0.012 A 
ATOM     82  C   UNL A   1      49.078  32.390  27.524  1.00  0.00     0.148 A 
ATOM     83  C   UNL A   1      51.089  31.604  29.314  1.00  0.00     0.002 A 
ATOM     84  C   UNL A   1      50.416  32.579  27.201  1.00  0.00     0.091 A 
ATOM     85  F   UNL A   1      48.093  32.794  26.709  1.00  0.00    -0.205 F 
ATOM     86  C   UNL A   1      51.422  32.207  28.105  1.00  0.00     0.022 A 
BRANCH  84  87
ATOM     87  S   UNL A   1      50.936  33.228  25.608  1.00  0.00     0.127 S 
ATOM     88  O   UNL A   1      51.084  32.008  24.821  1.00  0.00    -0.237 OA
ATOM     89  O   UNL A   1      49.796  34.067  25.237  1.00  0.00    -0.237 OA
ATOM     90  O   UNL A   1      52.163  33.970  25.866  1.00  0.00    -0.744 OA
ENDBRANCH  84  87
ENDBRANCH  56  80
BRANCH  68  91
ATOM     91  C   UNL A   1      43.894  35.877  31.658  1.00  0.00     0.023 A 
ATOM     92  C   UNL A   1      44.099  36.106  33.032  1.00  0.00     0.012 A 
ATOM     93  C   UNL A   1      43.816  36.975  30.778  1.00  0.00     0.148 A 
ATOM     94  C   UNL A   1      44.193  37.407  33.528  1.00  0.00     0.002 A 
ATOM     95  C   UNL A   1      43.962  38.266  31.271  1.00  0.00     0.091 A 
ATOM     96  F   UNL A   1      43.611  36.736  29.475  1.00  0.00    -0.205 F 
ATOM     97  C   UNL A   1      44.138  38.484  32.648  1.00  0.00     0.022 A 
BRANCH  95  98
ATOM     98  S   UNL A   1      44.001  39.712  30.206  1.00  0.00     0.127 S 
ATOM     99  O   UNL A   1      44.082  40.798  31.182  1.00  0.00    -0.237 OA
ATOM    100  O   UNL A   1      45.223  39.494  29.433  1.00  0.00    -0.237 OA
ATOM    101  O   UNL A   1      42.771  39.673  29.425  1.00  0.00    -0.744 OA
ENDBRANCH  95  98
ENDBRANCH  68  91
ENDBRANCH  42  43
ENDBRANCH  35  37
ENDBRANCH  34  35
ENDBRANCH  33  34
ENDBRANCH  32  33
ENDBRANCH  31  32
ENDBRANCH  30  31
ENDBRANCH   1  30
TORSDOF 26
ENDMDL
MODEL 3
REMARK VINA RESULT:      -8.3      1.730      3.593
REMARK SMILES C[C@@H]1CN(C(=O)Nc2ccc(O)c(C(=O)OCCOCCOCCOCCOC(=O)c3ccc(-c4c5nc(c(-c6cccc(S(=O)(=O)[O-])c6F)c6ccc([nH]6)c(-c6cccc(S(=O)(=O)[O-])c6F)c6nc(c(-c7cccc(S(=O)(=O)[O-])c7F)c7ccc4[nH]7)C=C6)C=C5)cc3)c2)C[C@@H]1C
REMARK SMILES IDX 23 1 22 2 21 3 20 4 19 5 18 6 17 7 16 8 14 9 15 10 13 11
REMARK SMILES IDX 8 12 9 13 94 14 10 15 11 16 7 17 5 18 6 19 4 21 1 22 2 23
REMARK SMILES IDX 3 24 96 25 95 26 97 27 12 28 24 30 25 31 26 32 27 33 28 34
REMARK SMILES IDX 29 35 30 36 31 37 32 38 93 39 33 40 92 41 34 42 35 43 36 44
REMARK SMILES IDX 86 45 37 46 91 47 85 48 87 49 38 50 90 51 84 52 83 53 39 55
REMARK SMILES IDX 71 56 51 57 70 58 52 59 55 60 69 61 88 62 53 63 54 64 68 66
REMARK SMILES IDX 89 67 56 68 40 69 41 70 49 71 42 72 44 73 50 74 43 75 45 76
REMARK SMILES IDX 46 77 47 78 48 79 72 80 73 81 81 82 74 83 76 84 82 85 75 86
REMARK SMILES IDX 77 87 78 88 79 89 80 90 57 91 58 92 66 93 59 94 61 95 67 96
REMARK SMILES IDX 60 97 62 98 63 99 64 100 65 101
REMARK H PARENT 7 20 12 29 87 54 55 65
REMARK Flexibility Score: inf
ROOT
ATOM      1  C   UNL A   1      39.417  21.935  25.923  1.00  0.00     0.188 C 
ENDROOT
BRANCH   1   2
ATOM      2  O   UNL A   1      38.065  21.561  26.129  1.00  0.00    -0.377 OA
BRANCH   2   3
ATOM      3  C   UNL A   1      37.235  21.262  25.014  1.00  0.00     0.188 C 
BRANCH   3   4
ATOM      4  C   UNL A   1      36.281  20.038  24.951  1.00  0.00     0.188 C 
BRANCH   4   5
ATOM      5  O   UNL A   1      34.938  20.328  24.620  1.00  0.00    -0.376 OA
BRANCH   5   6
ATOM      6  C   UNL A   1      33.968  19.301  24.565  1.00  0.00     0.202 C 
BRANCH   6   7
ATOM      7  C   UNL A   1      32.478  19.655  24.622  1.00  0.00     0.261 C 
BRANCH   7   8
ATOM      8  O   UNL A   1      32.204  21.040  24.800  1.00  0.00    -0.460 OA
BRANCH   8   9
ATOM      9  C   UNL A   1      32.445  21.869  23.763  1.00  0.00     0.342 C 
ATOM     10  O   UNL A   1      32.043  21.745  22.618  1.00  0.00    -0.246 OA
BRANCH   9  11
ATOM     11  C   UNL A   1      33.024  23.113  24.315  1.00  0.00     0.103 A 
ATOM     12  C   UNL A   1      32.820  24.903  25.910  1.00  0.00     0.044 A 
ATOM     13  C   UNL A   1      34.126  25.312  25.629  1.00  0.00     0.030 A 
ATOM     14  C   UNL A   1      32.292  23.759  25.319  1.00  0.00     0.045 A 
ATOM     15  C   UNL A   1      34.861  24.664  24.633  1.00  0.00     0.049 A 
ATOM     16  C   UNL A   1      34.291  23.592  23.948  1.00  0.00     0.130 A 
BRANCH  12  17
ATOM     17  N   UNL A   1      31.988  25.673  26.721  1.00  0.00    -0.308 N 
ATOM     18  C   UNL A   1      31.603  26.975  26.575  1.00  0.00     0.321 C 
ATOM     19  O   UNL A   1      30.951  27.472  27.500  1.00  0.00    -0.248 OA
ATOM     20  H   UNL A   1      31.627  25.213  27.513  1.00  0.00     0.171 HD
BRANCH  18  21
ATOM     21  N   UNL A   1      31.812  27.652  25.399  1.00  0.00    -0.324 N 
ATOM     22  C   UNL A   1      33.922  28.857  22.580  1.00  0.00     0.010 C 
ATOM     23  C   UNL A   1      32.686  28.738  23.461  1.00  0.00     0.010 C 
ATOM     24  C   UNL A   1      33.023  28.278  24.877  1.00  0.00     0.125 C 
ATOM     25  C   UNL A   1      31.600  27.737  23.042  1.00  0.00     0.010 C 
ATOM     26  C   UNL A   1      30.804  27.606  24.351  1.00  0.00     0.125 C 
ATOM     27  C   UNL A   1      32.137  26.383  22.563  1.00  0.00     0.010 C 
ENDBRANCH  18  21
ENDBRANCH  12  17
BRANCH  16  28
ATOM     28  O   UNL A   1      34.963  23.012  22.913  1.00  0.00    -0.507 OA
ATOM     29  H   UNL A   1      35.347  23.546  22.245  1.00  0.00     0.293 HD
ENDBRANCH  16  28
ENDBRANCH   9  11
ENDBRANCH   8   9
ENDBRANCH   7   8
ENDBRANCH   6   7
ENDBRANCH   5   6
ENDBRANCH   4   5
ENDBRANCH   3   4
ENDBRANCH   2   3
ENDBRANCH   1   2
BRANCH   1  30
ATOM     30  C   UNL A   1      40.097  22.743  27.047  1.00  0.00     0.188 C 
BRANCH  30  31
ATOM     31  O   UNL A   1      39.248  23.719  27.634  1.00  0.00    -0.376 OA
BRANCH  31  32
ATOM     32  C   UNL A   1      39.691  25.067  27.615  1.00  0.00     0.202 C 
BRANCH  32  33
ATOM     33  C   UNL A   1      40.509  25.592  26.423  1.00  0.00     0.261 C 
BRANCH  33  34
ATOM     34  O   UNL A   1      41.930  25.696  26.589  1.00  0.00    -0.460 OA
BRANCH  34  35
ATOM     35  C   UNL A   1      42.602  26.616  25.857  1.00  0.00     0.338 C 
ATOM     36  O   UNL A   1      42.796  26.604  24.663  1.00  0.00    -0.246 OA
BRANCH  35  37
ATOM     37  C   UNL A   1      42.888  27.751  26.770  1.00  0.00     0.060 A 
ATOM     38  C   UNL A   1      43.752  27.561  27.857  1.00  0.00     0.016 A 
ATOM     39  C   UNL A   1      42.355  29.014  26.506  1.00  0.00     0.016 A 
ATOM     40  C   UNL A   1      44.094  28.640  28.678  1.00  0.00     0.010 A 
ATOM     41  C   UNL A   1      42.675  30.084  27.345  1.00  0.00     0.010 A 
ATOM     42  C   UNL A   1      43.539  29.903  28.440  1.00  0.00    -0.014 A 
BRANCH  42  43
ATOM     43  C   UNL A   1      43.760  31.018  29.392  1.00  0.00     0.031 A 
ATOM     44  C   UNL A   1      42.664  31.371  30.357  1.00  0.00     0.074 A 
ATOM     45  C   UNL A   1      44.893  31.744  29.360  1.00  0.00     0.049 A 
ATOM     46  N   UNL A   1      42.586  32.376  31.189  1.00  0.00    -0.248 NA
ATOM     47  C   UNL A   1      41.496  30.474  30.384  1.00  0.00     0.031 C 
ATOM     48  C   UNL A   1      46.031  31.496  28.475  1.00  0.00     0.029 A 
ATOM     49  N   UNL A   1      45.251  32.870  30.062  1.00  0.00    -0.354 N 
ATOM     50  C   UNL A   1      41.347  32.259  31.807  1.00  0.00     0.074 A 
ATOM     51  C   UNL A   1      40.711  31.079  31.264  1.00  0.00     0.031 C 
ATOM     52  C   UNL A   1      46.938  32.474  28.650  1.00  0.00     0.029 A 
ATOM     53  C   UNL A   1      46.428  33.435  29.626  1.00  0.00     0.049 A 
ATOM     54  H   UNL A   1      44.718  33.237  30.804  1.00  0.00     0.167 HD
ATOM     55  C   UNL A   1      40.791  33.066  32.739  1.00  0.00     0.034 A 
ATOM     56  C   UNL A   1      47.001  34.616  29.940  1.00  0.00     0.034 A 
ATOM     57  C   UNL A   1      41.431  34.230  33.288  1.00  0.00     0.049 A 
ATOM     58  C   UNL A   1      46.338  35.513  30.957  1.00  0.00     0.074 A 
ATOM     59  C   UNL A   1      40.974  35.064  34.293  1.00  0.00     0.029 A 
ATOM     60  N   UNL A   1      42.643  34.744  32.859  1.00  0.00    -0.354 N 
ATOM     61  N   UNL A   1      45.236  35.315  31.640  1.00  0.00    -0.248 NA
ATOM     62  C   UNL A   1      47.007  36.788  31.262  1.00  0.00     0.031 C 
ATOM     63  C   UNL A   1      41.887  36.113  34.437  1.00  0.00     0.029 A 
ATOM     64  C   UNL A   1      42.934  35.906  33.553  1.00  0.00     0.049 A 
ATOM     65  H   UNL A   1      43.213  34.343  32.165  1.00  0.00     0.167 HD
ATOM     66  C   UNL A   1      45.096  36.425  32.469  1.00  0.00     0.074 A 
ATOM     67  C   UNL A   1      46.241  37.275  32.228  1.00  0.00     0.031 C 
ATOM     68  C   UNL A   1      44.098  36.723  33.338  1.00  0.00     0.034 A 
BRANCH  55  69
ATOM     69  C   UNL A   1      39.411  32.729  33.235  1.00  0.00     0.023 A 
ATOM     70  C   UNL A   1      39.245  31.803  34.283  1.00  0.00     0.012 A 
ATOM     71  C   UNL A   1      38.289  33.414  32.728  1.00  0.00     0.148 A 
ATOM     72  C   UNL A   1      37.978  31.551  34.808  1.00  0.00     0.002 A 
ATOM     73  C   UNL A   1      37.038  33.190  33.286  1.00  0.00     0.091 A 
ATOM     74  F   UNL A   1      38.471  34.274  31.716  1.00  0.00    -0.205 F 
ATOM     75  C   UNL A   1      36.879  32.254  34.321  1.00  0.00     0.022 A 
BRANCH  73  76
ATOM     76  S   UNL A   1      35.575  34.105  32.785  1.00  0.00     0.127 S 
ATOM     77  O   UNL A   1      35.557  33.864  31.342  1.00  0.00    -0.237 OA
ATOM     78  O   UNL A   1      34.519  33.422  33.530  1.00  0.00    -0.237 OA
ATOM     79  O   UNL A   1      35.807  35.488  33.178  1.00  0.00    -0.744 OA
ENDBRANCH  73  76
ENDBRANCH  55  69
BRANCH  56  80
ATOM     80  C   UNL A   1      48.263  35.044  29.267  1.00  0.00     0.023 A 
ATOM     81  C   UNL A   1      49.504  34.815  29.890  1.00  0.00     0.012 A 
ATOM     82  C   UNL A   1      48.233  35.699  28.019  1.00  0.00     0.148 A 
ATOM     83  C   UNL A   1      50.688  35.269  29.304  1.00  0.00     0.002 A 
ATOM     84  C   UNL A   1      49.419  36.091  27.412  1.00  0.00     0.091 A 
ATOM     85  F   UNL A   1      47.041  35.931  27.450  1.00  0.00    -0.205 F 
ATOM     86  C   UNL A   1      50.646  35.897  28.063  1.00  0.00     0.022 A 
BRANCH  84  87
ATOM     87  S   UNL A   1      49.465  36.787  25.756  1.00  0.00     0.127 S 
ATOM     88  O   UNL A   1      49.013  35.661  24.944  1.00  0.00    -0.237 OA
ATOM     89  O   UNL A   1      48.511  37.891  25.865  1.00  0.00    -0.237 OA
ATOM     90  O   UNL A   1      50.843  37.210  25.544  1.00  0.00    -0.744 OA
ENDBRANCH  84  87
ENDBRANCH  56  80
BRANCH  68  91
ATOM     91  C   UNL A   1      44.201  38.009  34.119  1.00  0.00     0.023 A 
ATOM     92  C   UNL A   1      44.926  38.039  35.326  1.00  0.00     0.012 A 
ATOM     93  C   UNL A   1      43.657  39.205  33.610  1.00  0.00     0.148 A 
ATOM     94  C   UNL A   1      45.081  39.233  36.031  1.00  0.00     0.002 A 
ATOM     95  C   UNL A   1      43.860  40.400  34.289  1.00  0.00     0.091 A 
ATOM     96  F   UNL A   1      42.963  39.154  32.463  1.00  0.00    -0.205 F 
ATOM     97  C   UNL A   1      44.560  40.414  35.507  1.00  0.00     0.022 A 
BRANCH  95  98
ATOM     98  S   UNL A   1      43.311  41.986  33.649  1.00  0.00     0.127 S 
ATOM     99  O   UNL A   1      44.041  42.066  32.385  1.00  0.00    -0.237 OA
ATOM    100  O   UNL A   1      41.869  41.780  33.508  1.00  0.00    -0.237 OA
ATOM    101  O   UNL A   1      43.689  42.979  34.646  1.00  0.00    -0.744 OA
ENDBRANCH  95  98
ENDBRANCH  68  91
ENDBRANCH  42  43
ENDBRANCH  35  37
ENDBRANCH  34  35
ENDBRANCH  33  34
ENDBRANCH  32  33
ENDBRANCH  31  32
ENDBRANCH  30  31
ENDBRANCH   1  30
TORSDOF 26
ENDMDL
