MODEL 1
REMARK VINA RESULT:      -6.7      0.000      0.000
REMARK SMILES CC[C@](C)(Nc1cccc(Cl)c1C(N)=O)C(=O)OCCOCCOCCOCCOC(=O)c1ccc(-c2c3nc(c(-c4cccc(S(=O)(=O)[O-])c4F)c4ccc([nH]4)c(-c4cccc(S(=O)(=O)[O-])c4F)c4nc(c(-c5cccc(S(=O)(=O)[O-])c5F)c5ccc2[nH]5)C=C4)C=C3)cc1
REMARK SMILES IDX 24 1 23 2 22 3 21 4 20 5 19 6 18 7 16 8 17 9 3 10 4 11 2 12
REMARK SMILES IDX 1 13 5 14 6 16 7 17 12 18 8 19 10 20 9 21 11 22 13 23 14 24
REMARK SMILES IDX 15 25 25 28 26 29 27 30 28 31 29 32 30 33 31 34 32 35 33 36
REMARK SMILES IDX 34 37 95 38 35 39 94 40 36 41 37 42 38 43 88 44 39 45 93 46
REMARK SMILES IDX 87 47 89 48 40 49 92 50 86 51 85 52 41 54 73 55 53 56 72 57
REMARK SMILES IDX 54 58 57 59 71 60 90 61 55 62 56 63 70 65 91 66 58 67 42 68
REMARK SMILES IDX 43 69 51 70 44 71 46 72 52 73 45 74 47 75 48 76 49 77 50 78
REMARK SMILES IDX 74 79 75 80 83 81 76 82 78 83 84 84 77 85 79 86 80 87 81 88
REMARK SMILES IDX 82 89 59 90 60 91 68 92 61 93 63 94 69 95 62 96 64 97 65 98
REMARK SMILES IDX 66 99 67 100
REMARK H PARENT 5 15 14 26 14 27 89 53 57 64
REMARK Flexibility Score: inf
ROOT
ATOM      1  O   UNL A   1      37.229  33.288  43.146  1.00  0.00    -0.377 OA
ENDROOT
BRANCH   1   2
ATOM      2  C   UNL A   1      36.096  33.130  42.315  1.00  0.00     0.188 C 
BRANCH   2   3
ATOM      3  C   UNL A   1      36.085  31.941  41.346  1.00  0.00     0.188 C 
BRANCH   3   4
ATOM      4  O   UNL A   1      37.096  31.838  40.356  1.00  0.00    -0.376 OA
BRANCH   4   5
ATOM      5  C   UNL A   1      36.849  32.403  39.066  1.00  0.00     0.202 C 
BRANCH   5   6
ATOM      6  C   UNL A   1      37.945  32.225  38.019  1.00  0.00     0.261 C 
BRANCH   6   7
ATOM      7  O   UNL A   1      37.374  31.823  36.755  1.00  0.00    -0.462 OA
BRANCH   7   8
ATOM      8  C   UNL A   1      38.150  31.111  35.918  1.00  0.00     0.331 C 
ATOM      9  O   UNL A   1      38.911  30.226  36.316  1.00  0.00    -0.249 OA
BRANCH   8  10
ATOM     10  C   UNL A   1      38.099  31.519  34.426  1.00  0.00     0.133 C 
ATOM     11  C   UNL A   1      39.432  31.011  33.823  1.00  0.00     0.047 C 
BRANCH  10  12
ATOM     12  C   UNL A   1      38.014  33.075  34.384  1.00  0.00     0.037 C 
ATOM     13  C   UNL A   1      38.966  33.789  33.430  1.00  0.00     0.007 C 
ENDBRANCH  10  12
BRANCH  10  14
ATOM     14  N   UNL A   1      37.042  31.017  33.483  1.00  0.00    -0.369 N 
ATOM     15  H   UNL A   1      36.185  30.822  33.929  1.00  0.00     0.161 HD
BRANCH  14  16
ATOM     16  C   UNL A   1      37.010  30.769  32.112  1.00  0.00     0.049 A 
ATOM     17  C   UNL A   1      37.373  29.491  31.648  1.00  0.00     0.026 A 
ATOM     18  C   UNL A   1      36.307  31.623  31.198  1.00  0.00     0.081 A 
ATOM     19  C   UNL A   1      37.171  29.088  30.329  1.00  0.00     0.004 A 
ATOM     20  C   UNL A   1      36.019  31.157  29.891  1.00  0.00     0.055 A 
ATOM     21  C   UNL A   1      36.482  29.914  29.458  1.00  0.00     0.021 A 
ATOM     22  Cl  UNL A   1      34.952  31.963  28.779  1.00  0.00    -0.083 Cl
BRANCH  18  23
ATOM     23  C   UNL A   1      35.861  33.016  31.563  1.00  0.00     0.252 C 
ATOM     24  N   UNL A   1      36.449  34.069  30.927  1.00  0.00    -0.365 N 
ATOM     25  O   UNL A   1      34.978  33.266  32.377  1.00  0.00    -0.269 OA
ATOM     26  H   UNL A   1      37.162  33.910  30.267  1.00  0.00     0.159 HD
ATOM     27  H   UNL A   1      36.162  34.990  31.129  1.00  0.00     0.159 HD
ENDBRANCH  18  23
ENDBRANCH  14  16
ENDBRANCH  10  14
ENDBRANCH   8  10
ENDBRANCH   7   8
ENDBRANCH   6   7
ENDBRANCH   5   6
ENDBRANCH   4   5
ENDBRANCH   3   4
ENDBRANCH   2   3
ENDBRANCH   1   2
BRANCH   1  28
ATOM     28  C   UNL A   1      37.928  34.517  43.012  1.00  0.00     0.188 C 
BRANCH  28  29
ATOM     29  C   UNL A   1      37.910  35.213  41.641  1.00  0.00     0.188 C 
BRANCH  29  30
ATOM     30  O   UNL A   1      38.806  34.768  40.630  1.00  0.00    -0.376 OA
BRANCH  30  31
ATOM     31  C   UNL A   1      40.056  34.213  41.045  1.00  0.00     0.202 C 
BRANCH  31  32
ATOM     32  C   UNL A   1      41.132  35.234  41.399  1.00  0.00     0.261 C 
BRANCH  32  33
ATOM     33  O   UNL A   1      41.907  35.556  40.228  1.00  0.00    -0.460 OA
BRANCH  33  34
ATOM     34  C   UNL A   1      41.331  36.386  39.341  1.00  0.00     0.338 C 
ATOM     35  O   UNL A   1      40.775  37.453  39.564  1.00  0.00    -0.246 OA
BRANCH  34  36
ATOM     36  C   UNL A   1      41.597  35.892  37.984  1.00  0.00     0.060 A 
ATOM     37  C   UNL A   1      40.626  35.093  37.374  1.00  0.00     0.016 A 
ATOM     38  C   UNL A   1      42.834  36.113  37.372  1.00  0.00     0.016 A 
ATOM     39  C   UNL A   1      40.920  34.442  36.181  1.00  0.00     0.010 A 
ATOM     40  C   UNL A   1      43.122  35.467  36.167  1.00  0.00     0.010 A 
ATOM     41  C   UNL A   1      42.190  34.579  35.602  1.00  0.00    -0.014 A 
BRANCH  41  42
ATOM     42  C   UNL A   1      42.596  33.626  34.539  1.00  0.00     0.031 A 
ATOM     43  C   UNL A   1      42.735  32.167  34.887  1.00  0.00     0.074 A 
ATOM     44  C   UNL A   1      42.781  34.041  33.273  1.00  0.00     0.049 A 
ATOM     45  N   UNL A   1      43.012  31.153  34.109  1.00  0.00    -0.248 NA
ATOM     46  C   UNL A   1      42.535  31.801  36.300  1.00  0.00     0.031 C 
ATOM     47  C   UNL A   1      42.692  35.425  32.813  1.00  0.00     0.029 A 
ATOM     48  N   UNL A   1      43.093  33.328  32.142  1.00  0.00    -0.354 N 
ATOM     49  C   UNL A   1      43.034  30.036  34.937  1.00  0.00     0.074 A 
ATOM     50  C   UNL A   1      42.780  30.499  36.282  1.00  0.00     0.031 C 
ATOM     51  C   UNL A   1      42.965  35.466  31.499  1.00  0.00     0.029 A 
ATOM     52  C   UNL A   1      43.255  34.112  31.026  1.00  0.00     0.049 A 
ATOM     53  H   UNL A   1      43.192  32.349  32.132  1.00  0.00     0.167 HD
ATOM     54  C   UNL A   1      43.213  28.735  34.606  1.00  0.00     0.034 A 
ATOM     55  C   UNL A   1      43.602  33.775  29.768  1.00  0.00     0.034 A 
ATOM     56  C   UNL A   1      43.444  28.268  33.266  1.00  0.00     0.049 A 
ATOM     57  C   UNL A   1      43.796  32.320  29.423  1.00  0.00     0.074 A 
ATOM     58  C   UNL A   1      43.609  26.968  32.823  1.00  0.00     0.029 A 
ATOM     59  N   UNL A   1      43.548  29.086  32.153  1.00  0.00    -0.354 N 
ATOM     60  N   UNL A   1      43.688  31.264  30.195  1.00  0.00    -0.248 NA
ATOM     61  C   UNL A   1      44.113  32.005  28.022  1.00  0.00     0.031 C 
ATOM     62  C   UNL A   1      43.829  27.001  31.442  1.00  0.00     0.029 A 
ATOM     63  C   UNL A   1      43.776  28.321  31.022  1.00  0.00     0.049 A 
ATOM     64  H   UNL A   1      43.471  30.068  32.163  1.00  0.00     0.167 HD
ATOM     65  C   UNL A   1      43.894  30.163  29.370  1.00  0.00     0.074 A 
ATOM     66  C   UNL A   1      44.098  30.680  28.032  1.00  0.00     0.031 C 
ATOM     67  C   UNL A   1      43.929  28.846  29.689  1.00  0.00     0.034 A 
BRANCH  54  68
ATOM     68  C   UNL A   1      43.119  27.717  35.713  1.00  0.00     0.023 A 
ATOM     69  C   UNL A   1      41.858  27.193  36.066  1.00  0.00     0.012 A 
ATOM     70  C   UNL A   1      44.271  27.245  36.370  1.00  0.00     0.148 A 
ATOM     71  C   UNL A   1      41.741  26.240  37.077  1.00  0.00     0.002 A 
ATOM     72  C   UNL A   1      44.151  26.262  37.346  1.00  0.00     0.091 A 
ATOM     73  F   UNL A   1      45.458  27.772  36.037  1.00  0.00    -0.205 F 
ATOM     74  C   UNL A   1      42.888  25.767  37.708  1.00  0.00     0.022 A 
BRANCH  72  75
ATOM     75  S   UNL A   1      45.572  25.530  38.166  1.00  0.00     0.127 S 
ATOM     76  O   UNL A   1      46.129  26.680  38.876  1.00  0.00    -0.237 OA
ATOM     77  O   UNL A   1      44.946  24.525  39.026  1.00  0.00    -0.237 OA
ATOM     78  O   UNL A   1      46.412  24.986  37.106  1.00  0.00    -0.744 OA
ENDBRANCH  72  75
ENDBRANCH  54  68
BRANCH  55  79
ATOM     79  C   UNL A   1      43.749  34.831  28.727  1.00  0.00     0.023 A 
ATOM     80  C   UNL A   1      42.635  35.225  27.960  1.00  0.00     0.012 A 
ATOM     81  C   UNL A   1      44.993  35.453  28.499  1.00  0.00     0.148 A 
ATOM     82  C   UNL A   1      42.765  36.188  26.959  1.00  0.00     0.002 A 
ATOM     83  C   UNL A   1      45.101  36.457  27.543  1.00  0.00     0.091 A 
ATOM     84  F   UNL A   1      46.046  35.054  29.226  1.00  0.00    -0.205 F 
ATOM     85  C   UNL A   1      43.995  36.812  26.758  1.00  0.00     0.022 A 
BRANCH  83  86
ATOM     86  S   UNL A   1      46.609  37.408  27.322  1.00  0.00     0.127 S 
ATOM     87  O   UNL A   1      46.333  38.124  26.081  1.00  0.00    -0.237 OA
ATOM     88  O   UNL A   1      46.620  38.240  28.526  1.00  0.00    -0.237 OA
ATOM     89  O   UNL A   1      47.685  36.427  27.267  1.00  0.00    -0.744 OA
ENDBRANCH  83  86
ENDBRANCH  55  79
BRANCH  67  90
ATOM     90  C   UNL A   1      44.174  27.865  28.571  1.00  0.00     0.023 A 
ATOM     91  C   UNL A   1      45.494  27.510  28.226  1.00  0.00     0.012 A 
ATOM     92  C   UNL A   1      43.097  27.255  27.895  1.00  0.00     0.148 A 
ATOM     93  C   UNL A   1      45.740  26.602  27.197  1.00  0.00     0.002 A 
ATOM     94  C   UNL A   1      43.349  26.313  26.904  1.00  0.00     0.091 A 
ATOM     95  F   UNL A   1      41.848  27.616  28.223  1.00  0.00    -0.205 F 
ATOM     96  C   UNL A   1      44.669  25.997  26.543  1.00  0.00     0.022 A 
BRANCH  94  97
ATOM     97  S   UNL A   1      42.031  25.416  26.077  1.00  0.00     0.127 S 
ATOM     98  O   UNL A   1      42.783  24.455  25.273  1.00  0.00    -0.237 OA
ATOM     99  O   UNL A   1      41.298  24.830  27.200  1.00  0.00    -0.237 OA
ATOM    100  O   UNL A   1      41.282  26.415  25.327  1.00  0.00    -0.744 OA
ENDBRANCH  94  97
ENDBRANCH  67  90
ENDBRANCH  41  42
ENDBRANCH  34  36
ENDBRANCH  33  34
ENDBRANCH  32  33
ENDBRANCH  31  32
ENDBRANCH  30  31
ENDBRANCH  29  30
ENDBRANCH  28  29
ENDBRANCH   1  28
TORSDOF 27
ENDMDL
MODEL 2
REMARK VINA RESULT:      -6.6      6.051     12.687
REMARK SMILES CC[C@](C)(Nc1cccc(Cl)c1C(N)=O)C(=O)OCCOCCOCCOCCOC(=O)c1ccc(-c2c3nc(c(-c4cccc(S(=O)(=O)[O-])c4F)c4ccc([nH]4)c(-c4cccc(S(=O)(=O)[O-])c4F)c4nc(c(-c5cccc(S(=O)(=O)[O-])c5F)c5ccc2[nH]5)C=C4)C=C3)cc1
REMARK SMILES IDX 24 1 23 2 22 3 21 4 20 5 19 6 18 7 16 8 17 9 3 10 4 11 2 12
REMARK SMILES IDX 1 13 5 14 6 16 7 17 12 18 8 19 10 20 9 21 11 22 13 23 14 24
REMARK SMILES IDX 15 25 25 28 26 29 27 30 28 31 29 32 30 33 31 34 32 35 33 36
REMARK SMILES IDX 34 37 95 38 35 39 94 40 36 41 37 42 38 43 88 44 39 45 93 46
REMARK SMILES IDX 87 47 89 48 40 49 92 50 86 51 85 52 41 54 73 55 53 56 72 57
REMARK SMILES IDX 54 58 57 59 71 60 90 61 55 62 56 63 70 65 91 66 58 67 42 68
REMARK SMILES IDX 43 69 51 70 44 71 46 72 52 73 45 74 47 75 48 76 49 77 50 78
REMARK SMILES IDX 74 79 75 80 83 81 76 82 78 83 84 84 77 85 79 86 80 87 81 88
REMARK SMILES IDX 82 89 59 90 60 91 68 92 61 93 63 94 69 95 62 96 64 97 65 98
REMARK SMILES IDX 66 99 67 100
REMARK H PARENT 5 15 14 26 14 27 89 53 57 64
REMARK Flexibility Score: inf
ROOT
ATOM      1  O   UNL A   1      35.423  29.085  27.213  1.00  0.00    -0.377 OA
ENDROOT
BRANCH   1   2
ATOM      2  C   UNL A   1      34.333  29.653  26.514  1.00  0.00     0.188 C 
BRANCH   2   3
ATOM      3  C   UNL A   1      33.030  29.879  27.291  1.00  0.00     0.188 C 
BRANCH   3   4
ATOM      4  O   UNL A   1      32.038  30.741  26.755  1.00  0.00    -0.376 OA
BRANCH   4   5
ATOM      5  C   UNL A   1      31.499  30.443  25.465  1.00  0.00     0.202 C 
BRANCH   5   6
ATOM      6  C   UNL A   1      31.021  29.012  25.236  1.00  0.00     0.261 C 
BRANCH   6   7
ATOM      7  O   UNL A   1      31.843  28.358  24.245  1.00  0.00    -0.462 OA
BRANCH   7   8
ATOM      8  C   UNL A   1      31.351  27.251  23.659  1.00  0.00     0.331 C 
ATOM      9  O   UNL A   1      30.347  27.273  22.944  1.00  0.00    -0.249 OA
BRANCH   8  10
ATOM     10  C   UNL A   1      32.070  25.923  23.998  1.00  0.00     0.133 C 
ATOM     11  C   UNL A   1      33.036  26.271  25.158  1.00  0.00     0.047 C 
BRANCH  10  12
ATOM     12  C   UNL A   1      32.850  25.490  22.720  1.00  0.00     0.037 C 
ATOM     13  C   UNL A   1      33.606  26.585  21.974  1.00  0.00     0.007 C 
ENDBRANCH  10  12
BRANCH  10  14
ATOM     14  N   UNL A   1      31.335  24.701  24.473  1.00  0.00    -0.369 N 
ATOM     15  H   UNL A   1      30.548  24.912  25.026  1.00  0.00     0.161 HD
BRANCH  14  16
ATOM     16  C   UNL A   1      31.525  23.331  24.298  1.00  0.00     0.049 A 
ATOM     17  C   UNL A   1      31.647  22.827  22.991  1.00  0.00     0.026 A 
ATOM     18  C   UNL A   1      31.945  22.476  25.372  1.00  0.00     0.081 A 
ATOM     19  C   UNL A   1      32.047  21.518  22.726  1.00  0.00     0.004 A 
ATOM     20  C   UNL A   1      32.447  21.184  25.078  1.00  0.00     0.055 A 
ATOM     21  C   UNL A   1      32.461  20.705  23.767  1.00  0.00     0.021 A 
ATOM     22  Cl  UNL A   1      33.236  20.155  26.236  1.00  0.00    -0.083 Cl
BRANCH  18  23
ATOM     23  C   UNL A   1      31.868  22.889  26.820  1.00  0.00     0.252 C 
ATOM     24  N   UNL A   1      32.982  22.739  27.593  1.00  0.00    -0.365 N 
ATOM     25  O   UNL A   1      30.875  23.381  27.346  1.00  0.00    -0.269 OA
ATOM     26  H   UNL A   1      33.799  22.347  27.208  1.00  0.00     0.159 HD
ATOM     27  H   UNL A   1      32.969  23.021  28.537  1.00  0.00     0.159 HD
ENDBRANCH  18  23
ENDBRANCH  14  16
ENDBRANCH  10  14
ENDBRANCH   8  10
ENDBRANCH   7   8
ENDBRANCH   6   7
ENDBRANCH   5   6
ENDBRANCH   4   5
ENDBRANCH   3   4
ENDBRANCH   2   3
ENDBRANCH   1   2
BRANCH   1  28
ATOM     28  C   UNL A   1      35.876  29.807  28.349  1.00  0.00     0.188 C 
BRANCH  28  29
ATOM     29  C   UNL A   1      37.186  29.357  29.016  1.00  0.00     0.188 C 
BRANCH  29  30
ATOM     30  O   UNL A   1      38.056  28.484  28.309  1.00  0.00    -0.376 OA
BRANCH  30  31
ATOM     31  C   UNL A   1      39.166  27.930  29.019  1.00  0.00     0.202 C 
BRANCH  31  32
ATOM     32  C   UNL A   1      39.540  28.658  30.304  1.00  0.00     0.261 C 
BRANCH  32  33
ATOM     33  O   UNL A   1      39.443  27.757  31.424  1.00  0.00    -0.460 OA
BRANCH  33  34
ATOM     34  C   UNL A   1      38.725  28.188  32.476  1.00  0.00     0.338 C 
ATOM     35  O   UNL A   1      37.742  27.660  32.979  1.00  0.00    -0.246 OA
BRANCH  34  36
ATOM     36  C   UNL A   1      39.394  29.355  33.064  1.00  0.00     0.060 A 
ATOM     37  C   UNL A   1      38.672  30.548  33.154  1.00  0.00     0.016 A 
ATOM     38  C   UNL A   1      40.747  29.306  33.410  1.00  0.00     0.016 A 
ATOM     39  C   UNL A   1      39.325  31.722  33.515  1.00  0.00     0.010 A 
ATOM     40  C   UNL A   1      41.398  30.485  33.783  1.00  0.00     0.010 A 
ATOM     41  C   UNL A   1      40.703  31.707  33.773  1.00  0.00    -0.014 A 
BRANCH  41  42
ATOM     42  C   UNL A   1      41.435  32.998  33.816  1.00  0.00     0.031 A 
ATOM     43  C   UNL A   1      41.935  33.591  32.524  1.00  0.00     0.074 A 
ATOM     44  C   UNL A   1      41.601  33.660  34.975  1.00  0.00     0.049 A 
ATOM     45  N   UNL A   1      42.538  34.733  32.317  1.00  0.00    -0.248 NA
ATOM     46  C   UNL A   1      41.731  32.791  31.304  1.00  0.00     0.031 C 
ATOM     47  C   UNL A   1      41.177  33.186  36.290  1.00  0.00     0.029 A 
ATOM     48  N   UNL A   1      42.184  34.877  35.226  1.00  0.00    -0.354 N 
ATOM     49  C   UNL A   1      42.796  34.782  30.951  1.00  0.00     0.074 A 
ATOM     50  C   UNL A   1      42.320  33.541  30.385  1.00  0.00     0.031 C 
ATOM     51  C   UNL A   1      41.533  34.092  37.215  1.00  0.00     0.029 A 
ATOM     52  C   UNL A   1      42.215  35.207  36.559  1.00  0.00     0.049 A 
ATOM     53  H   UNL A   1      42.545  35.459  34.518  1.00  0.00     0.167 HD
ATOM     54  C   UNL A   1      43.346  35.783  30.224  1.00  0.00     0.034 A 
ATOM     55  C   UNL A   1      42.740  36.284  37.178  1.00  0.00     0.034 A 
ATOM     56  C   UNL A   1      43.801  37.028  30.781  1.00  0.00     0.049 A 
ATOM     57  C   UNL A   1      43.348  37.385  36.347  1.00  0.00     0.074 A 
ATOM     58  C   UNL A   1      44.347  38.117  30.125  1.00  0.00     0.029 A 
ATOM     59  N   UNL A   1      43.768  37.348  32.129  1.00  0.00    -0.354 N 
ATOM     60  N   UNL A   1      43.469  37.470  35.043  1.00  0.00    -0.248 NA
ATOM     61  C   UNL A   1      43.849  38.563  37.070  1.00  0.00     0.031 C 
ATOM     62  C   UNL A   1      44.659  39.091  31.081  1.00  0.00     0.029 A 
ATOM     63  C   UNL A   1      44.284  38.617  32.328  1.00  0.00     0.049 A 
ATOM     64  H   UNL A   1      43.427  36.760  32.841  1.00  0.00     0.167 HD
ATOM     65  C   UNL A   1      44.029  38.717  34.790  1.00  0.00     0.074 A 
ATOM     66  C   UNL A   1      44.192  39.368  36.074  1.00  0.00     0.031 C 
ATOM     67  C   UNL A   1      44.395  39.270  33.607  1.00  0.00     0.034 A 
BRANCH  54  68
ATOM     68  C   UNL A   1      43.443  35.588  28.733  1.00  0.00     0.023 A 
ATOM     69  C   UNL A   1      42.510  36.226  27.889  1.00  0.00     0.012 A 
ATOM     70  C   UNL A   1      44.475  34.818  28.165  1.00  0.00     0.148 A 
ATOM     71  C   UNL A   1      42.583  36.074  26.506  1.00  0.00     0.002 A 
ATOM     72  C   UNL A   1      44.568  34.707  26.782  1.00  0.00     0.091 A 
ATOM     73  F   UNL A   1      45.338  34.200  28.984  1.00  0.00    -0.205 F 
ATOM     74  C   UNL A   1      43.617  35.325  25.952  1.00  0.00     0.022 A 
BRANCH  72  75
ATOM     75  S   UNL A   1      45.906  33.830  25.965  1.00  0.00     0.127 S 
ATOM     76  O   UNL A   1      45.364  32.475  25.882  1.00  0.00    -0.237 OA
ATOM     77  O   UNL A   1      45.996  34.531  24.684  1.00  0.00    -0.237 OA
ATOM     78  O   UNL A   1      47.072  33.983  26.825  1.00  0.00    -0.744 OA
ENDBRANCH  72  75
ENDBRANCH  54  68
BRANCH  55  79
ATOM     79  C   UNL A   1      42.678  36.393  38.662  1.00  0.00     0.023 A 
ATOM     80  C   UNL A   1      43.741  35.909  39.449  1.00  0.00     0.012 A 
ATOM     81  C   UNL A   1      41.568  36.984  39.298  1.00  0.00     0.148 A 
ATOM     82  C   UNL A   1      43.682  35.976  40.842  1.00  0.00     0.002 A 
ATOM     83  C   UNL A   1      41.544  37.103  40.683  1.00  0.00     0.091 A 
ATOM     84  F   UNL A   1      40.557  37.424  38.534  1.00  0.00    -0.205 F 
ATOM     85  C   UNL A   1      42.590  36.581  41.458  1.00  0.00     0.022 A 
BRANCH  83  86
ATOM     86  S   UNL A   1      40.245  37.996  41.543  1.00  0.00     0.127 S 
ATOM     87  O   UNL A   1      40.443  39.357  41.055  1.00  0.00    -0.237 OA
ATOM     88  O   UNL A   1      39.040  37.330  41.047  1.00  0.00    -0.237 OA
ATOM     89  O   UNL A   1      40.500  37.785  42.962  1.00  0.00    -0.744 OA
ENDBRANCH  83  86
ENDBRANCH  55  79
BRANCH  67  90
ATOM     90  C   UNL A   1      44.985  40.658  33.639  1.00  0.00     0.023 A 
ATOM     91  C   UNL A   1      46.384  40.824  33.670  1.00  0.00     0.012 A 
ATOM     92  C   UNL A   1      44.156  41.797  33.587  1.00  0.00     0.148 A 
ATOM     93  C   UNL A   1      46.947  42.099  33.697  1.00  0.00     0.002 A 
ATOM     94  C   UNL A   1      44.726  43.064  33.564  1.00  0.00     0.091 A 
ATOM     95  F   UNL A   1      42.826  41.622  33.576  1.00  0.00    -0.205 F 
ATOM     96  C   UNL A   1      46.120  43.218  33.634  1.00  0.00     0.022 A 
BRANCH  94  97
ATOM     97  S   UNL A   1      43.741  44.556  33.389  1.00  0.00     0.127 S 
ATOM     98  O   UNL A   1      42.720  44.362  34.418  1.00  0.00    -0.237 OA
ATOM     99  O   UNL A   1      44.712  45.609  33.685  1.00  0.00    -0.237 OA
ATOM    100  O   UNL A   1      43.257  44.553  32.015  1.00  0.00    -0.744 OA
ENDBRANCH  94  97
ENDBRANCH  67  90
ENDBRANCH  41  42
ENDBRANCH  34  36
ENDBRANCH  33  34
ENDBRANCH  32  33
ENDBRANCH  31  32
ENDBRANCH  30  31
ENDBRANCH  29  30
ENDBRANCH  28  29
ENDBRANCH   1  28
TORSDOF 27
ENDMDL
MODEL 3
REMARK VINA RESULT:      -6.6      5.666     10.389
REMARK SMILES CC[C@](C)(Nc1cccc(Cl)c1C(N)=O)C(=O)OCCOCCOCCOCCOC(=O)c1ccc(-c2c3nc(c(-c4cccc(S(=O)(=O)[O-])c4F)c4ccc([nH]4)c(-c4cccc(S(=O)(=O)[O-])c4F)c4nc(c(-c5cccc(S(=O)(=O)[O-])c5F)c5ccc2[nH]5)C=C4)C=C3)cc1
REMARK SMILES IDX 24 1 23 2 22 3 21 4 20 5 19 6 18 7 16 8 17 9 3 10 4 11 2 12
REMARK SMILES IDX 1 13 5 14 6 16 7 17 12 18 8 19 10 20 9 21 11 22 13 23 14 24
REMARK SMILES IDX 15 25 25 28 26 29 27 30 28 31 29 32 30 33 31 34 32 35 33 36
REMARK SMILES IDX 34 37 95 38 35 39 94 40 36 41 37 42 38 43 88 44 39 45 93 46
REMARK SMILES IDX 87 47 89 48 40 49 92 50 86 51 85 52 41 54 73 55 53 56 72 57
REMARK SMILES IDX 54 58 57 59 71 60 90 61 55 62 56 63 70 65 91 66 58 67 42 68
REMARK SMILES IDX 43 69 51 70 44 71 46 72 52 73 45 74 47 75 48 76 49 77 50 78
REMARK SMILES IDX 74 79 75 80 83 81 76 82 78 83 84 84 77 85 79 86 80 87 81 88
REMARK SMILES IDX 82 89 59 90 60 91 68 92 61 93 63 94 69 95 62 96 64 97 65 98
REMARK SMILES IDX 66 99 67 100
REMARK H PARENT 5 15 14 26 14 27 89 53 57 64
REMARK Flexibility Score: inf
ROOT
ATOM      1  O   UNL A   1      35.595  28.947  27.232  1.00  0.00    -0.377 OA
ENDROOT
BRANCH   1   2
ATOM      2  C   UNL A   1      34.392  28.869  26.491  1.00  0.00     0.188 C 
BRANCH   2   3
ATOM      3  C   UNL A   1      33.082  28.727  27.276  1.00  0.00     0.188 C 
BRANCH   3   4
ATOM      4  O   UNL A   1      32.042  29.671  27.074  1.00  0.00    -0.376 OA
BRANCH   4   5
ATOM      5  C   UNL A   1      31.747  30.087  25.738  1.00  0.00     0.202 C 
BRANCH   5   6
ATOM      6  C   UNL A   1      31.028  29.075  24.849  1.00  0.00     0.261 C 
BRANCH   6   7
ATOM      7  O   UNL A   1      31.927  28.557  23.846  1.00  0.00    -0.462 OA
BRANCH   7   8
ATOM      8  C   UNL A   1      31.951  27.225  23.657  1.00  0.00     0.331 C 
ATOM      9  O   UNL A   1      31.236  26.455  24.301  1.00  0.00    -0.249 OA
BRANCH   8  10
ATOM     10  C   UNL A   1      32.991  26.698  22.639  1.00  0.00     0.133 C 
ATOM     11  C   UNL A   1      34.113  27.765  22.619  1.00  0.00     0.047 C 
BRANCH  10  12
ATOM     12  C   UNL A   1      32.270  26.607  21.260  1.00  0.00     0.037 C 
ATOM     13  C   UNL A   1      32.517  25.345  20.440  1.00  0.00     0.007 C 
ENDBRANCH  10  12
BRANCH  10  14
ATOM     14  N   UNL A   1      33.714  25.393  22.820  1.00  0.00    -0.369 N 
ATOM     15  H   UNL A   1      34.183  25.094  22.007  1.00  0.00     0.161 HD
BRANCH  14  16
ATOM     16  C   UNL A   1      33.866  24.513  23.891  1.00  0.00     0.049 A 
ATOM     17  C   UNL A   1      34.778  24.841  24.910  1.00  0.00     0.026 A 
ATOM     18  C   UNL A   1      32.906  23.485  24.176  1.00  0.00     0.081 A 
ATOM     19  C   UNL A   1      34.842  24.138  26.112  1.00  0.00     0.004 A 
ATOM     20  C   UNL A   1      32.920  22.851  25.443  1.00  0.00     0.055 A 
ATOM     21  C   UNL A   1      33.905  23.156  26.382  1.00  0.00     0.021 A 
ATOM     22  Cl  UNL A   1      31.665  21.795  26.021  1.00  0.00    -0.083 Cl
BRANCH  18  23
ATOM     23  C   UNL A   1      31.872  23.035  23.174  1.00  0.00     0.252 C 
ATOM     24  N   UNL A   1      30.685  23.706  23.127  1.00  0.00    -0.365 N 
ATOM     25  O   UNL A   1      32.039  22.121  22.373  1.00  0.00    -0.269 OA
ATOM     26  H   UNL A   1      30.513  24.446  23.753  1.00  0.00     0.159 HD
ATOM     27  H   UNL A   1      30.000  23.449  22.467  1.00  0.00     0.159 HD
ENDBRANCH  18  23
ENDBRANCH  14  16
ENDBRANCH  10  14
ENDBRANCH   8  10
ENDBRANCH   7   8
ENDBRANCH   6   7
ENDBRANCH   5   6
ENDBRANCH   4   5
ENDBRANCH   3   4
ENDBRANCH   2   3
ENDBRANCH   1   2
BRANCH   1  28
ATOM     28  C   UNL A   1      35.574  29.810  28.359  1.00  0.00     0.188 C 
BRANCH  28  29
ATOM     29  C   UNL A   1      36.170  31.218  28.201  1.00  0.00     0.188 C 
BRANCH  29  30
ATOM     30  O   UNL A   1      35.380  32.239  27.606  1.00  0.00    -0.376 OA
BRANCH  30  31
ATOM     31  C   UNL A   1      34.451  32.935  28.441  1.00  0.00     0.202 C 
BRANCH  31  32
ATOM     32  C   UNL A   1      34.724  32.833  29.938  1.00  0.00     0.261 C 
BRANCH  32  33
ATOM     33  O   UNL A   1      35.718  33.801  30.321  1.00  0.00    -0.460 OA
BRANCH  33  34
ATOM     34  C   UNL A   1      36.340  33.586  31.494  1.00  0.00     0.338 C 
ATOM     35  O   UNL A   1      36.018  33.998  32.601  1.00  0.00    -0.246 OA
BRANCH  34  36
ATOM     36  C   UNL A   1      37.427  32.621  31.287  1.00  0.00     0.060 A 
ATOM     37  C   UNL A   1      37.372  31.411  31.983  1.00  0.00     0.016 A 
ATOM     38  C   UNL A   1      38.542  32.955  30.513  1.00  0.00     0.016 A 
ATOM     39  C   UNL A   1      38.472  30.560  31.973  1.00  0.00     0.010 A 
ATOM     40  C   UNL A   1      39.642  32.093  30.496  1.00  0.00     0.010 A 
ATOM     41  C   UNL A   1      39.634  30.925  31.278  1.00  0.00    -0.014 A 
BRANCH  41  42
ATOM     42  C   UNL A   1      40.893  30.188  31.555  1.00  0.00     0.031 A 
ATOM     43  C   UNL A   1      41.326  29.107  30.598  1.00  0.00     0.074 A 
ATOM     44  C   UNL A   1      41.668  30.514  32.605  1.00  0.00     0.049 A 
ATOM     45  N   UNL A   1      42.415  28.383  30.605  1.00  0.00    -0.248 NA
ATOM     46  C   UNL A   1      40.408  28.799  29.487  1.00  0.00     0.031 C 
ATOM     47  C   UNL A   1      41.353  31.528  33.608  1.00  0.00     0.029 A 
ATOM     48  N   UNL A   1      42.882  30.010  33.002  1.00  0.00    -0.354 N 
ATOM     49  C   UNL A   1      42.308  27.529  29.513  1.00  0.00     0.074 A 
ATOM     50  C   UNL A   1      41.033  27.796  28.889  1.00  0.00     0.031 C 
ATOM     51  C   UNL A   1      42.339  31.559  34.521  1.00  0.00     0.029 A 
ATOM     52  C   UNL A   1      43.350  30.562  34.169  1.00  0.00     0.049 A 
ATOM     53  H   UNL A   1      43.370  29.320  32.498  1.00  0.00     0.167 HD
ATOM     54  C   UNL A   1      43.204  26.627  29.048  1.00  0.00     0.034 A 
ATOM     55  C   UNL A   1      44.466  30.290  34.875  1.00  0.00     0.034 A 
ATOM     56  C   UNL A   1      44.483  26.373  29.654  1.00  0.00     0.049 A 
ATOM     57  C   UNL A   1      45.449  29.281  34.337  1.00  0.00     0.074 A 
ATOM     58  C   UNL A   1      45.474  25.501  29.242  1.00  0.00     0.029 A 
ATOM     59  N   UNL A   1      44.946  26.991  30.805  1.00  0.00    -0.354 N 
ATOM     60  N   UNL A   1      45.389  28.573  33.234  1.00  0.00    -0.248 NA
ATOM     61  C   UNL A   1      46.677  29.068  35.117  1.00  0.00     0.031 C 
ATOM     62  C   UNL A   1      46.531  25.578  30.156  1.00  0.00     0.029 A 
ATOM     63  C   UNL A   1      46.208  26.518  31.122  1.00  0.00     0.049 A 
ATOM     64  H   UNL A   1      44.450  27.666  31.323  1.00  0.00     0.167 HD
ATOM     65  C   UNL A   1      46.580  27.857  33.173  1.00  0.00     0.074 A 
ATOM     66  C   UNL A   1      47.356  28.243  34.333  1.00  0.00     0.031 C 
ATOM     67  C   UNL A   1      46.989  26.948  32.253  1.00  0.00     0.034 A 
BRANCH  54  68
ATOM     68  C   UNL A   1      42.847  25.878  27.790  1.00  0.00     0.023 A 
ATOM     69  C   UNL A   1      43.061  26.489  26.536  1.00  0.00     0.012 A 
ATOM     70  C   UNL A   1      42.348  24.563  27.841  1.00  0.00     0.148 A 
ATOM     71  C   UNL A   1      42.752  25.815  25.356  1.00  0.00     0.002 A 
ATOM     72  C   UNL A   1      42.085  23.881  26.658  1.00  0.00     0.091 A 
ATOM     73  F   UNL A   1      42.131  24.008  29.042  1.00  0.00    -0.205 F 
ATOM     74  C   UNL A   1      42.276  24.509  25.416  1.00  0.00     0.022 A 
BRANCH  72  75
ATOM     75  S   UNL A   1      41.543  22.169  26.624  1.00  0.00     0.127 S 
ATOM     76  O   UNL A   1      40.089  22.320  26.594  1.00  0.00    -0.237 OA
ATOM     77  O   UNL A   1      42.132  21.685  25.375  1.00  0.00    -0.237 OA
ATOM     78  O   UNL A   1      42.080  21.552  27.829  1.00  0.00    -0.744 OA
ENDBRANCH  72  75
ENDBRANCH  54  68
BRANCH  55  79
ATOM     79  C   UNL A   1      44.735  31.012  36.150  1.00  0.00     0.023 A 
ATOM     80  C   UNL A   1      44.285  30.475  37.372  1.00  0.00     0.012 A 
ATOM     81  C   UNL A   1      45.445  32.229  36.156  1.00  0.00     0.148 A 
ATOM     82  C   UNL A   1      44.501  31.156  38.571  1.00  0.00     0.002 A 
ATOM     83  C   UNL A   1      45.711  32.870  37.360  1.00  0.00     0.091 A 
ATOM     84  F   UNL A   1      45.852  32.733  34.982  1.00  0.00    -0.205 F 
ATOM     85  C   UNL A   1      45.223  32.348  38.566  1.00  0.00     0.022 A 
BRANCH  83  86
ATOM     86  S   UNL A   1      46.755  34.329  37.456  1.00  0.00     0.127 S 
ATOM     87  O   UNL A   1      47.851  33.972  36.560  1.00  0.00    -0.237 OA
ATOM     88  O   UNL A   1      45.862  35.373  36.953  1.00  0.00    -0.237 OA
ATOM     89  O   UNL A   1      47.102  34.470  38.863  1.00  0.00    -0.744 OA
ENDBRANCH  83  86
ENDBRANCH  55  79
BRANCH  67  90
ATOM     90  C   UNL A   1      48.348  26.324  32.447  1.00  0.00     0.023 A 
ATOM     91  C   UNL A   1      48.498  25.228  33.320  1.00  0.00     0.012 A 
ATOM     92  C   UNL A   1      49.467  26.791  31.727  1.00  0.00     0.148 A 
ATOM     93  C   UNL A   1      49.746  24.637  33.510  1.00  0.00     0.002 A 
ATOM     94  C   UNL A   1      50.698  26.164  31.883  1.00  0.00     0.091 A 
ATOM     95  F   UNL A   1      49.311  27.845  30.913  1.00  0.00    -0.205 F 
ATOM     96  C   UNL A   1      50.843  25.098  32.785  1.00  0.00     0.022 A 
BRANCH  94  97
ATOM     97  S   UNL A   1      52.140  26.631  30.920  1.00  0.00     0.127 S 
ATOM     98  O   UNL A   1      51.654  26.461  29.552  1.00  0.00    -0.237 OA
ATOM     99  O   UNL A   1      52.349  28.022  31.324  1.00  0.00    -0.237 OA
ATOM    100  O   UNL A   1      53.201  25.721  31.329  1.00  0.00    -0.744 OA
ENDBRANCH  94  97
ENDBRANCH  67  90
ENDBRANCH  41  42
ENDBRANCH  34  36
ENDBRANCH  33  34
ENDBRANCH  32  33
ENDBRANCH  31  32
ENDBRANCH  30  31
ENDBRANCH  29  30
ENDBRANCH  28  29
ENDBRANCH   1  28
TORSDOF 27
ENDMDL
