MODEL 1
REMARK VINA RESULT:      -9.6      0.000      0.000
REMARK SMILES C[C@@H](C(=O)OCCOCCOCCOCCOC(=O)c1ccc(-c2c3nc(c(-c4cccc(S(=O)(=O)[O-])c4F)c4ccc([nH]4)c(-c4cccc(S(=O)(=O)[O-])c4F)c4nc(c(-c5cccc(S(=O)(=O)[O-])c5F)c5ccc2[nH]5)C=C4)C=C3)cc1)c1ccc(-c2ccccc2)c(F)c1
REMARK SMILES IDX 12 1 11 2 10 3 9 4 8 5 7 6 6 7 5 8 3 9 4 10 2 11 1 12 83 13
REMARK SMILES IDX 84 14 95 15 85 16 93 17 86 18 94 19 87 20 88 21 92 22 89 23
REMARK SMILES IDX 91 24 90 25 13 26 14 27 15 28 16 29 17 30 18 31 19 32 20 33
REMARK SMILES IDX 21 34 82 35 22 36 81 37 23 38 24 39 25 40 75 41 26 42 80 43
REMARK SMILES IDX 74 44 76 45 27 46 79 47 73 48 72 49 28 51 60 52 40 53 59 54
REMARK SMILES IDX 41 55 44 56 58 57 77 58 42 59 43 60 57 62 78 63 45 64 29 65
REMARK SMILES IDX 30 66 38 67 31 68 33 69 39 70 32 71 34 72 35 73 36 74 37 75
REMARK SMILES IDX 61 76 62 77 70 78 63 79 65 80 71 81 64 82 66 83 67 84 68 85
REMARK SMILES IDX 69 86 46 87 47 88 55 89 48 90 50 91 56 92 49 93 51 94 52 95
REMARK SMILES IDX 53 96 54 97
REMARK H PARENT 76 50 44 61
REMARK Flexibility Score: inf
ROOT
ATOM      1  C   UNL A   1      40.680  20.628  26.686  1.00  0.00     0.188 C 
ENDROOT
BRANCH   1   2
ATOM      2  O   UNL A   1      40.109  21.562  25.778  1.00  0.00    -0.377 OA
BRANCH   2   3
ATOM      3  C   UNL A   1      38.849  22.122  26.082  1.00  0.00     0.188 C 
BRANCH   3   4
ATOM      4  C   UNL A   1      37.652  21.456  25.386  1.00  0.00     0.188 C 
BRANCH   4   5
ATOM      5  O   UNL A   1      37.156  22.037  24.197  1.00  0.00    -0.376 OA
BRANCH   5   6
ATOM      6  C   UNL A   1      36.806  23.414  24.137  1.00  0.00     0.202 C 
BRANCH   6   7
ATOM      7  C   UNL A   1      35.489  24.039  24.648  1.00  0.00     0.261 C 
BRANCH   7   8
ATOM      8  O   UNL A   1      34.531  24.419  23.657  1.00  0.00    -0.463 OA
BRANCH   8   9
ATOM      9  C   UNL A   1      33.257  24.633  24.055  1.00  0.00     0.313 C 
ATOM     10  O   UNL A   1      32.914  25.517  24.835  1.00  0.00    -0.252 OA
BRANCH   9  11
ATOM     11  C   UNL A   1      32.251  23.730  23.324  1.00  0.00     0.126 C 
ATOM     12  C   UNL A   1      30.826  24.317  23.324  1.00  0.00     0.025 C 
BRANCH  11  13
ATOM     13  C   UNL A   1      32.382  22.242  23.695  1.00  0.00    -0.031 A 
ATOM     14  C   UNL A   1      32.193  21.203  22.768  1.00  0.00     0.005 A 
ATOM     15  C   UNL A   1      32.789  21.869  24.989  1.00  0.00     0.044 A 
ATOM     16  C   UNL A   1      32.420  19.858  23.118  1.00  0.00     0.012 A 
ATOM     17  C   UNL A   1      32.999  20.531  25.335  1.00  0.00     0.131 A 
ATOM     18  C   UNL A   1      32.851  19.499  24.406  1.00  0.00     0.017 A 
ATOM     19  F   UNL A   1      33.397  20.262  26.588  1.00  0.00    -0.206 F 
BRANCH  18  20
ATOM     20  C   UNL A   1      33.218  18.112  24.739  1.00  0.00    -0.015 A 
ATOM     21  C   UNL A   1      32.268  17.248  25.315  1.00  0.00     0.009 A 
ATOM     22  C   UNL A   1      34.487  17.587  24.444  1.00  0.00     0.009 A 
ATOM     23  C   UNL A   1      32.571  15.910  25.576  1.00  0.00     0.001 A 
ATOM     24  C   UNL A   1      34.793  16.248  24.709  1.00  0.00     0.001 A 
ATOM     25  C   UNL A   1      33.834  15.409  25.272  1.00  0.00     0.000 A 
ENDBRANCH  18  20
ENDBRANCH  11  13
ENDBRANCH   9  11
ENDBRANCH   8   9
ENDBRANCH   7   8
ENDBRANCH   6   7
ENDBRANCH   5   6
ENDBRANCH   4   5
ENDBRANCH   3   4
ENDBRANCH   2   3
ENDBRANCH   1   2
BRANCH   1  26
ATOM     26  C   UNL A   1      41.334  19.327  26.176  1.00  0.00     0.188 C 
BRANCH  26  27
ATOM     27  O   UNL A   1      42.288  19.496  25.137  1.00  0.00    -0.376 OA
BRANCH  27  28
ATOM     28  C   UNL A   1      43.668  19.451  25.468  1.00  0.00     0.202 C 
BRANCH  28  29
ATOM     29  C   UNL A   1      44.452  20.773  25.441  1.00  0.00     0.261 C 
BRANCH  29  30
ATOM     30  O   UNL A   1      43.888  21.864  26.186  1.00  0.00    -0.460 OA
BRANCH  30  31
ATOM     31  C   UNL A   1      43.374  22.902  25.495  1.00  0.00     0.338 C 
ATOM     32  O   UNL A   1      42.993  22.897  24.335  1.00  0.00    -0.246 OA
BRANCH  31  33
ATOM     33  C   UNL A   1      43.152  24.011  26.445  1.00  0.00     0.060 A 
ATOM     34  C   UNL A   1      43.863  25.206  26.271  1.00  0.00     0.016 A 
ATOM     35  C   UNL A   1      42.245  23.874  27.499  1.00  0.00     0.016 A 
ATOM     36  C   UNL A   1      43.703  26.253  27.177  1.00  0.00     0.010 A 
ATOM     37  C   UNL A   1      42.102  24.918  28.418  1.00  0.00     0.010 A 
ATOM     38  C   UNL A   1      42.859  26.095  28.283  1.00  0.00    -0.014 A 
BRANCH  38  39
ATOM     39  C   UNL A   1      42.925  27.068  29.401  1.00  0.00     0.031 A 
ATOM     40  C   UNL A   1      43.849  26.771  30.551  1.00  0.00     0.074 A 
ATOM     41  C   UNL A   1      42.187  28.193  29.399  1.00  0.00     0.049 A 
ATOM     42  N   UNL A   1      44.041  27.441  31.656  1.00  0.00    -0.248 NA
ATOM     43  C   UNL A   1      44.666  25.551  30.436  1.00  0.00     0.031 C 
ATOM     44  C   UNL A   1      41.267  28.599  28.340  1.00  0.00     0.029 A 
ATOM     45  N   UNL A   1      42.079  29.184  30.342  1.00  0.00    -0.354 N 
ATOM     46  C   UNL A   1      44.974  26.710  32.382  1.00  0.00     0.074 A 
ATOM     47  C   UNL A   1      45.299  25.538  31.599  1.00  0.00     0.031 C 
ATOM     48  C   UNL A   1      40.660  29.741  28.708  1.00  0.00     0.029 A 
ATOM     49  C   UNL A   1      41.127  30.128  30.039  1.00  0.00     0.049 A 
ATOM     50  H   UNL A   1      42.631  29.218  31.157  1.00  0.00     0.167 HD
ATOM     51  C   UNL A   1      45.522  26.993  33.587  1.00  0.00     0.034 A 
ATOM     52  C   UNL A   1      40.662  31.164  30.766  1.00  0.00     0.034 A 
ATOM     53  C   UNL A   1      45.202  28.160  34.362  1.00  0.00     0.049 A 
ATOM     54  C   UNL A   1      41.257  31.437  32.125  1.00  0.00     0.074 A 
ATOM     55  C   UNL A   1      45.729  28.556  35.579  1.00  0.00     0.029 A 
ATOM     56  N   UNL A   1      44.257  29.111  34.007  1.00  0.00    -0.354 N 
ATOM     57  N   UNL A   1      42.212  30.795  32.755  1.00  0.00    -0.248 NA
ATOM     58  C   UNL A   1      40.733  32.599  32.860  1.00  0.00     0.031 C 
ATOM     59  C   UNL A   1      45.073  29.724  35.979  1.00  0.00     0.029 A 
ATOM     60  C   UNL A   1      44.173  30.084  34.988  1.00  0.00     0.049 A 
ATOM     61  H   UNL A   1      43.724  29.096  33.180  1.00  0.00     0.167 HD
ATOM     62  C   UNL A   1      42.429  31.495  33.938  1.00  0.00     0.074 A 
ATOM     63  C   UNL A   1      41.518  32.621  33.929  1.00  0.00     0.031 C 
ATOM     64  C   UNL A   1      43.296  31.226  34.946  1.00  0.00     0.034 A 
BRANCH  51  65
ATOM     65  C   UNL A   1      46.532  26.020  34.140  1.00  0.00     0.023 A 
ATOM     66  C   UNL A   1      47.906  26.219  33.895  1.00  0.00     0.012 A 
ATOM     67  C   UNL A   1      46.121  24.933  34.935  1.00  0.00     0.148 A 
ATOM     68  C   UNL A   1      48.853  25.330  34.401  1.00  0.00     0.002 A 
ATOM     69  C   UNL A   1      47.075  24.079  35.478  1.00  0.00     0.091 A 
ATOM     70  F   UNL A   1      44.810  24.748  35.138  1.00  0.00    -0.205 F 
ATOM     71  C   UNL A   1      48.438  24.268  35.201  1.00  0.00     0.022 A 
BRANCH  69  72
ATOM     72  S   UNL A   1      46.649  22.731  36.585  1.00  0.00     0.127 S 
ATOM     73  O   UNL A   1      45.240  22.515  36.257  1.00  0.00    -0.237 OA
ATOM     74  O   UNL A   1      47.549  21.670  36.133  1.00  0.00    -0.237 OA
ATOM     75  O   UNL A   1      46.907  23.217  37.932  1.00  0.00    -0.744 OA
ENDBRANCH  69  72
ENDBRANCH  51  65
BRANCH  52  76
ATOM     76  C   UNL A   1      39.578  32.031  30.222  1.00  0.00     0.023 A 
ATOM     77  C   UNL A   1      39.872  33.345  29.808  1.00  0.00     0.012 A 
ATOM     78  C   UNL A   1      38.257  31.556  30.111  1.00  0.00     0.148 A 
ATOM     79  C   UNL A   1      38.864  34.179  29.323  1.00  0.00     0.002 A 
ATOM     80  C   UNL A   1      37.270  32.371  29.573  1.00  0.00     0.091 A 
ATOM     81  F   UNL A   1      37.996  30.308  30.527  1.00  0.00    -0.205 F 
ATOM     82  C   UNL A   1      37.566  33.690  29.196  1.00  0.00     0.022 A 
BRANCH  80  83
ATOM     83  S   UNL A   1      35.602  31.786  29.256  1.00  0.00     0.127 S 
ATOM     84  O   UNL A   1      34.907  32.187  30.476  1.00  0.00    -0.237 OA
ATOM     85  O   UNL A   1      35.241  32.550  28.060  1.00  0.00    -0.237 OA
ATOM     86  O   UNL A   1      35.720  30.351  29.041  1.00  0.00    -0.744 OA
ENDBRANCH  80  83
ENDBRANCH  52  76
BRANCH  64  87
ATOM     87  C   UNL A   1      43.351  32.189  36.106  1.00  0.00     0.023 A 
ATOM     88  C   UNL A   1      44.189  33.319  36.050  1.00  0.00     0.012 A 
ATOM     89  C   UNL A   1      42.510  32.007  37.223  1.00  0.00     0.148 A 
ATOM     90  C   UNL A   1      44.215  34.235  37.103  1.00  0.00     0.002 A 
ATOM     91  C   UNL A   1      42.502  32.951  38.242  1.00  0.00     0.091 A 
ATOM     92  F   UNL A   1      41.730  30.917  37.265  1.00  0.00    -0.205 F 
ATOM     93  C   UNL A   1      43.365  34.057  38.192  1.00  0.00     0.022 A 
BRANCH  91  94
ATOM     94  S   UNL A   1      41.370  32.859  39.635  1.00  0.00     0.127 S 
ATOM     95  O   UNL A   1      41.562  34.165  40.261  1.00  0.00    -0.237 OA
ATOM     96  O   UNL A   1      40.079  32.683  38.970  1.00  0.00    -0.237 OA
ATOM     97  O   UNL A   1      41.803  31.717  40.431  1.00  0.00    -0.744 OA
ENDBRANCH  91  94
ENDBRANCH  64  87
ENDBRANCH  38  39
ENDBRANCH  31  33
ENDBRANCH  30  31
ENDBRANCH  29  30
ENDBRANCH  28  29
ENDBRANCH  27  28
ENDBRANCH  26  27
ENDBRANCH   1  26
TORSDOF 25
ENDMDL
MODEL 2
REMARK VINA RESULT:      -9.3      5.206      7.927
REMARK SMILES C[C@@H](C(=O)OCCOCCOCCOCCOC(=O)c1ccc(-c2c3nc(c(-c4cccc(S(=O)(=O)[O-])c4F)c4ccc([nH]4)c(-c4cccc(S(=O)(=O)[O-])c4F)c4nc(c(-c5cccc(S(=O)(=O)[O-])c5F)c5ccc2[nH]5)C=C4)C=C3)cc1)c1ccc(-c2ccccc2)c(F)c1
REMARK SMILES IDX 12 1 11 2 10 3 9 4 8 5 7 6 6 7 5 8 3 9 4 10 2 11 1 12 83 13
REMARK SMILES IDX 84 14 95 15 85 16 93 17 86 18 94 19 87 20 88 21 92 22 89 23
REMARK SMILES IDX 91 24 90 25 13 26 14 27 15 28 16 29 17 30 18 31 19 32 20 33
REMARK SMILES IDX 21 34 82 35 22 36 81 37 23 38 24 39 25 40 75 41 26 42 80 43
REMARK SMILES IDX 74 44 76 45 27 46 79 47 73 48 72 49 28 51 60 52 40 53 59 54
REMARK SMILES IDX 41 55 44 56 58 57 77 58 42 59 43 60 57 62 78 63 45 64 29 65
REMARK SMILES IDX 30 66 38 67 31 68 33 69 39 70 32 71 34 72 35 73 36 74 37 75
REMARK SMILES IDX 61 76 62 77 70 78 63 79 65 80 71 81 64 82 66 83 67 84 68 85
REMARK SMILES IDX 69 86 46 87 47 88 55 89 48 90 50 91 56 92 49 93 51 94 52 95
REMARK SMILES IDX 53 96 54 97
REMARK H PARENT 76 50 44 61
REMARK Flexibility Score: inf
ROOT
ATOM      1  C   UNL A   1      42.563  18.688  26.204  1.00  0.00     0.188 C 
ENDROOT
BRANCH   1   2
ATOM      2  O   UNL A   1      41.340  19.353  25.913  1.00  0.00    -0.377 OA
BRANCH   2   3
ATOM      3  C   UNL A   1      40.805  20.241  26.872  1.00  0.00     0.188 C 
BRANCH   3   4
ATOM      4  C   UNL A   1      40.401  21.621  26.332  1.00  0.00     0.188 C 
BRANCH   4   5
ATOM      5  O   UNL A   1      39.045  21.846  26.003  1.00  0.00    -0.376 OA
BRANCH   5   6
ATOM      6  C   UNL A   1      38.452  23.130  26.146  1.00  0.00     0.202 C 
BRANCH   6   7
ATOM      7  C   UNL A   1      37.322  23.712  25.268  1.00  0.00     0.261 C 
BRANCH   7   8
ATOM      8  O   UNL A   1      36.281  24.419  25.946  1.00  0.00    -0.463 OA
BRANCH   8   9
ATOM      9  C   UNL A   1      35.002  24.163  25.588  1.00  0.00     0.313 C 
ATOM     10  O   UNL A   1      34.019  24.514  26.236  1.00  0.00    -0.252 OA
BRANCH   9  11
ATOM     11  C   UNL A   1      34.897  23.494  24.209  1.00  0.00     0.126 C 
ATOM     12  C   UNL A   1      34.001  24.287  23.238  1.00  0.00     0.025 C 
BRANCH  11  13
ATOM     13  C   UNL A   1      34.658  21.975  24.281  1.00  0.00    -0.031 A 
ATOM     14  C   UNL A   1      35.610  21.075  24.787  1.00  0.00     0.005 A 
ATOM     15  C   UNL A   1      33.412  21.436  23.912  1.00  0.00     0.044 A 
ATOM     16  C   UNL A   1      35.319  19.704  24.932  1.00  0.00     0.012 A 
ATOM     17  C   UNL A   1      33.133  20.074  24.045  1.00  0.00     0.131 A 
ATOM     18  C   UNL A   1      34.063  19.182  24.585  1.00  0.00     0.017 A 
ATOM     19  F   UNL A   1      31.915  19.643  23.680  1.00  0.00    -0.206 F 
BRANCH  18  20
ATOM     20  C   UNL A   1      33.707  17.779  24.857  1.00  0.00    -0.015 A 
ATOM     21  C   UNL A   1      34.629  16.750  24.591  1.00  0.00     0.009 A 
ATOM     22  C   UNL A   1      32.479  17.424  25.441  1.00  0.00     0.009 A 
ATOM     23  C   UNL A   1      34.341  15.420  24.906  1.00  0.00     0.001 A 
ATOM     24  C   UNL A   1      32.188  16.091  25.753  1.00  0.00     0.001 A 
ATOM     25  C   UNL A   1      33.120  15.091  25.487  1.00  0.00     0.000 A 
ENDBRANCH  18  20
ENDBRANCH  11  13
ENDBRANCH   9  11
ENDBRANCH   8   9
ENDBRANCH   7   8
ENDBRANCH   6   7
ENDBRANCH   5   6
ENDBRANCH   4   5
ENDBRANCH   3   4
ENDBRANCH   2   3
ENDBRANCH   1   2
BRANCH   1  26
ATOM     26  C   UNL A   1      43.810  18.904  25.321  1.00  0.00     0.188 C 
BRANCH  26  27
ATOM     27  O   UNL A   1      43.794  20.083  24.530  1.00  0.00    -0.376 OA
BRANCH  27  28
ATOM     28  C   UNL A   1      44.114  21.321  25.149  1.00  0.00     0.202 C 
BRANCH  28  29
ATOM     29  C   UNL A   1      43.515  22.599  24.540  1.00  0.00     0.261 C 
BRANCH  29  30
ATOM     30  O   UNL A   1      43.509  23.763  25.381  1.00  0.00    -0.460 OA
BRANCH  30  31
ATOM     31  C   UNL A   1      44.543  24.623  25.277  1.00  0.00     0.338 C 
ATOM     32  O   UNL A   1      45.470  24.566  24.483  1.00  0.00    -0.246 OA
BRANCH  31  33
ATOM     33  C   UNL A   1      44.262  25.775  26.157  1.00  0.00     0.060 A 
ATOM     34  C   UNL A   1      43.908  27.001  25.577  1.00  0.00     0.016 A 
ATOM     35  C   UNL A   1      44.343  25.647  27.546  1.00  0.00     0.016 A 
ATOM     36  C   UNL A   1      43.678  28.115  26.383  1.00  0.00     0.010 A 
ATOM     37  C   UNL A   1      44.131  26.770  28.350  1.00  0.00     0.010 A 
ATOM     38  C   UNL A   1      43.838  28.017  27.770  1.00  0.00    -0.014 A 
BRANCH  38  39
ATOM     39  C   UNL A   1      43.901  29.251  28.590  1.00  0.00     0.031 A 
ATOM     40  C   UNL A   1      42.639  29.732  29.254  1.00  0.00     0.074 A 
ATOM     41  C   UNL A   1      45.050  29.932  28.749  1.00  0.00     0.049 A 
ATOM     42  N   UNL A   1      42.436  30.803  29.974  1.00  0.00    -0.248 NA
ATOM     43  C   UNL A   1      41.444  28.888  29.078  1.00  0.00     0.031 C 
ATOM     44  C   UNL A   1      46.340  29.562  28.170  1.00  0.00     0.029 A 
ATOM     45  N   UNL A   1      45.305  31.099  29.426  1.00  0.00    -0.354 N 
ATOM     46  C   UNL A   1      41.088  30.780  30.311  1.00  0.00     0.074 A 
ATOM     47  C   UNL A   1      40.518  29.597  29.705  1.00  0.00     0.031 C 
ATOM     48  C   UNL A   1      47.244  30.505  28.488  1.00  0.00     0.029 A 
ATOM     49  C   UNL A   1      46.590  31.557  29.266  1.00  0.00     0.049 A 
ATOM     50  H   UNL A   1      44.631  31.563  29.974  1.00  0.00     0.167 HD
ATOM     51  C   UNL A   1      40.387  31.657  31.067  1.00  0.00     0.034 A 
ATOM     52  C   UNL A   1      47.164  32.708  29.673  1.00  0.00     0.034 A 
ATOM     53  C   UNL A   1      40.955  32.829  31.673  1.00  0.00     0.049 A 
ATOM     54  C   UNL A   1      46.353  33.691  30.479  1.00  0.00     0.074 A 
ATOM     55  C   UNL A   1      40.338  33.762  32.487  1.00  0.00     0.029 A 
ATOM     56  N   UNL A   1      42.269  33.243  31.517  1.00  0.00    -0.354 N 
ATOM     57  N   UNL A   1      45.106  33.607  30.876  1.00  0.00    -0.248 NA
ATOM     58  C   UNL A   1      47.040  34.915  30.922  1.00  0.00     0.031 C 
ATOM     59  C   UNL A   1      41.268  34.762  32.790  1.00  0.00     0.029 A 
ATOM     60  C   UNL A   1      42.479  34.426  32.206  1.00  0.00     0.049 A 
ATOM     61  H   UNL A   1      42.953  32.766  30.994  1.00  0.00     0.167 HD
ATOM     62  C   UNL A   1      44.871  34.743  31.646  1.00  0.00     0.074 A 
ATOM     63  C   UNL A   1      46.110  35.491  31.673  1.00  0.00     0.031 C 
ATOM     64  C   UNL A   1      43.730  35.137  32.265  1.00  0.00     0.034 A 
BRANCH  51  65
ATOM     65  C   UNL A   1      38.922  31.376  31.285  1.00  0.00     0.023 A 
ATOM     66  C   UNL A   1      38.519  30.511  32.323  1.00  0.00     0.012 A 
ATOM     67  C   UNL A   1      37.945  32.000  30.486  1.00  0.00     0.148 A 
ATOM     68  C   UNL A   1      37.168  30.242  32.539  1.00  0.00     0.002 A 
ATOM     69  C   UNL A   1      36.598  31.766  30.740  1.00  0.00     0.091 A 
ATOM     70  F   UNL A   1      38.348  32.801  29.490  1.00  0.00    -0.205 F 
ATOM     71  C   UNL A   1      36.210  30.878  31.755  1.00  0.00     0.022 A 
BRANCH  69  72
ATOM     72  S   UNL A   1      35.285  32.598  29.839  1.00  0.00     0.127 S 
ATOM     73  O   UNL A   1      34.952  31.603  28.820  1.00  0.00    -0.237 OA
ATOM     74  O   UNL A   1      34.267  32.771  30.877  1.00  0.00    -0.237 OA
ATOM     75  O   UNL A   1      35.861  33.836  29.337  1.00  0.00    -0.744 OA
ENDBRANCH  69  72
ENDBRANCH  51  65
BRANCH  52  76
ATOM     76  C   UNL A   1      48.587  32.993  29.333  1.00  0.00     0.023 A 
ATOM     77  C   UNL A   1      49.606  32.665  30.248  1.00  0.00     0.012 A 
ATOM     78  C   UNL A   1      48.933  33.587  28.103  1.00  0.00     0.148 A 
ATOM     79  C   UNL A   1      50.941  32.951  29.957  1.00  0.00     0.002 A 
ATOM     80  C   UNL A   1      50.267  33.816  27.795  1.00  0.00     0.091 A 
ATOM     81  F   UNL A   1      47.946  33.907  27.254  1.00  0.00    -0.205 F 
ATOM     82  C   UNL A   1      51.273  33.516  28.728  1.00  0.00     0.022 A 
BRANCH  80  83
ATOM     83  S   UNL A   1      50.798  34.423  26.191  1.00  0.00     0.127 S 
ATOM     84  O   UNL A   1      50.185  33.455  25.286  1.00  0.00    -0.237 OA
ATOM     85  O   UNL A   1      50.198  35.759  26.165  1.00  0.00    -0.237 OA
ATOM     86  O   UNL A   1      52.253  34.418  26.227  1.00  0.00    -0.744 OA
ENDBRANCH  80  83
ENDBRANCH  52  76
BRANCH  64  87
ATOM     87  C   UNL A   1      43.770  36.408  33.076  1.00  0.00     0.023 A 
ATOM     88  C   UNL A   1      43.983  36.355  34.467  1.00  0.00     0.012 A 
ATOM     89  C   UNL A   1      43.670  37.662  32.440  1.00  0.00     0.148 A 
ATOM     90  C   UNL A   1      44.061  37.529  35.218  1.00  0.00     0.002 A 
ATOM     91  C   UNL A   1      43.802  38.827  33.186  1.00  0.00     0.091 A 
ATOM     92  F   UNL A   1      43.452  37.692  31.117  1.00  0.00    -0.205 F 
ATOM     93  C   UNL A   1      43.982  38.763  34.576  1.00  0.00     0.022 A 
BRANCH  91  94
ATOM     94  S   UNL A   1      43.814  40.459  32.433  1.00  0.00     0.127 S 
ATOM     95  O   UNL A   1      42.424  40.601  32.008  1.00  0.00    -0.237 OA
ATOM     96  O   UNL A   1      44.200  41.313  33.557  1.00  0.00    -0.237 OA
ATOM     97  O   UNL A   1      44.793  40.398  31.355  1.00  0.00    -0.744 OA
ENDBRANCH  91  94
ENDBRANCH  64  87
ENDBRANCH  38  39
ENDBRANCH  31  33
ENDBRANCH  30  31
ENDBRANCH  29  30
ENDBRANCH  28  29
ENDBRANCH  27  28
ENDBRANCH  26  27
ENDBRANCH   1  26
TORSDOF 25
ENDMDL
MODEL 3
REMARK VINA RESULT:      -9.1      5.211      8.633
REMARK SMILES C[C@@H](C(=O)OCCOCCOCCOCCOC(=O)c1ccc(-c2c3nc(c(-c4cccc(S(=O)(=O)[O-])c4F)c4ccc([nH]4)c(-c4cccc(S(=O)(=O)[O-])c4F)c4nc(c(-c5cccc(S(=O)(=O)[O-])c5F)c5ccc2[nH]5)C=C4)C=C3)cc1)c1ccc(-c2ccccc2)c(F)c1
REMARK SMILES IDX 12 1 11 2 10 3 9 4 8 5 7 6 6 7 5 8 3 9 4 10 2 11 1 12 83 13
REMARK SMILES IDX 84 14 95 15 85 16 93 17 86 18 94 19 87 20 88 21 92 22 89 23
REMARK SMILES IDX 91 24 90 25 13 26 14 27 15 28 16 29 17 30 18 31 19 32 20 33
REMARK SMILES IDX 21 34 82 35 22 36 81 37 23 38 24 39 25 40 75 41 26 42 80 43
REMARK SMILES IDX 74 44 76 45 27 46 79 47 73 48 72 49 28 51 60 52 40 53 59 54
REMARK SMILES IDX 41 55 44 56 58 57 77 58 42 59 43 60 57 62 78 63 45 64 29 65
REMARK SMILES IDX 30 66 38 67 31 68 33 69 39 70 32 71 34 72 35 73 36 74 37 75
REMARK SMILES IDX 61 76 62 77 70 78 63 79 65 80 71 81 64 82 66 83 67 84 68 85
REMARK SMILES IDX 69 86 46 87 47 88 55 89 48 90 50 91 56 92 49 93 51 94 52 95
REMARK SMILES IDX 53 96 54 97
REMARK H PARENT 76 50 44 61
REMARK Flexibility Score: inf
ROOT
ATOM      1  C   UNL A   1      42.819  18.673  26.097  1.00  0.00     0.188 C 
ENDROOT
BRANCH   1   2
ATOM      2  O   UNL A   1      41.556  19.205  25.718  1.00  0.00    -0.377 OA
BRANCH   2   3
ATOM      3  C   UNL A   1      40.811  19.931  26.674  1.00  0.00     0.188 C 
BRANCH   3   4
ATOM      4  C   UNL A   1      40.061  21.154  26.126  1.00  0.00     0.188 C 
BRANCH   4   5
ATOM      5  O   UNL A   1      38.816  20.951  25.489  1.00  0.00    -0.376 OA
BRANCH   5   6
ATOM      6  C   UNL A   1      37.850  21.991  25.403  1.00  0.00     0.202 C 
BRANCH   6   7
ATOM      7  C   UNL A   1      36.988  22.330  24.166  1.00  0.00     0.261 C 
BRANCH   7   8
ATOM      8  O   UNL A   1      36.488  23.665  24.078  1.00  0.00    -0.463 OA
BRANCH   8   9
ATOM      9  C   UNL A   1      35.167  23.835  23.839  1.00  0.00     0.313 C 
ATOM     10  O   UNL A   1      34.595  23.462  22.819  1.00  0.00    -0.252 OA
BRANCH   9  11
ATOM     11  C   UNL A   1      34.422  24.435  25.042  1.00  0.00     0.126 C 
ATOM     12  C   UNL A   1      33.938  23.356  26.029  1.00  0.00     0.025 C 
BRANCH  11  13
ATOM     13  C   UNL A   1      33.402  25.519  24.652  1.00  0.00    -0.031 A 
ATOM     14  C   UNL A   1      33.162  25.901  23.322  1.00  0.00     0.005 A 
ATOM     15  C   UNL A   1      32.595  26.118  25.637  1.00  0.00     0.044 A 
ATOM     16  C   UNL A   1      32.150  26.824  22.995  1.00  0.00     0.012 A 
ATOM     17  C   UNL A   1      31.601  27.044  25.308  1.00  0.00     0.131 A 
ATOM     18  C   UNL A   1      31.333  27.396  23.983  1.00  0.00     0.017 A 
ATOM     19  F   UNL A   1      30.868  27.559  26.307  1.00  0.00    -0.206 F 
BRANCH  18  20
ATOM     20  C   UNL A   1      30.190  28.257  23.638  1.00  0.00    -0.015 A 
ATOM     21  C   UNL A   1      28.927  27.690  23.386  1.00  0.00     0.009 A 
ATOM     22  C   UNL A   1      30.296  29.658  23.608  1.00  0.00     0.009 A 
ATOM     23  C   UNL A   1      27.813  28.490  23.125  1.00  0.00     0.001 A 
ATOM     24  C   UNL A   1      29.181  30.460  23.343  1.00  0.00     0.001 A 
ATOM     25  C   UNL A   1      27.939  29.876  23.104  1.00  0.00     0.000 A 
ENDBRANCH  18  20
ENDBRANCH  11  13
ENDBRANCH   9  11
ENDBRANCH   8   9
ENDBRANCH   7   8
ENDBRANCH   6   7
ENDBRANCH   5   6
ENDBRANCH   4   5
ENDBRANCH   3   4
ENDBRANCH   2   3
ENDBRANCH   1   2
BRANCH   1  26
ATOM     26  C   UNL A   1      44.058  18.859  25.194  1.00  0.00     0.188 C 
BRANCH  26  27
ATOM     27  O   UNL A   1      44.064  20.044  24.412  1.00  0.00    -0.376 OA
BRANCH  27  28
ATOM     28  C   UNL A   1      44.314  21.284  25.058  1.00  0.00     0.202 C 
BRANCH  28  29
ATOM     29  C   UNL A   1      43.742  22.554  24.410  1.00  0.00     0.261 C 
BRANCH  29  30
ATOM     30  O   UNL A   1      43.735  23.738  25.223  1.00  0.00    -0.460 OA
BRANCH  30  31
ATOM     31  C   UNL A   1      44.787  24.577  25.127  1.00  0.00     0.338 C 
ATOM     32  O   UNL A   1      45.729  24.489  24.356  1.00  0.00    -0.246 OA
BRANCH  31  33
ATOM     33  C   UNL A   1      44.507  25.750  25.980  1.00  0.00     0.060 A 
ATOM     34  C   UNL A   1      44.126  26.955  25.372  1.00  0.00     0.016 A 
ATOM     35  C   UNL A   1      44.614  25.662  27.370  1.00  0.00     0.016 A 
ATOM     36  C   UNL A   1      43.897  28.088  26.151  1.00  0.00     0.010 A 
ATOM     37  C   UNL A   1      44.403  26.804  28.146  1.00  0.00     0.010 A 
ATOM     38  C   UNL A   1      44.083  28.031  27.537  1.00  0.00    -0.014 A 
BRANCH  38  39
ATOM     39  C   UNL A   1      44.146  29.289  28.321  1.00  0.00     0.031 A 
ATOM     40  C   UNL A   1      42.878  29.801  28.950  1.00  0.00     0.074 A 
ATOM     41  C   UNL A   1      45.299  29.963  28.478  1.00  0.00     0.049 A 
ATOM     42  N   UNL A   1      42.674  30.894  29.634  1.00  0.00    -0.248 NA
ATOM     43  C   UNL A   1      41.678  28.964  28.779  1.00  0.00     0.031 C 
ATOM     44  C   UNL A   1      46.593  29.564  27.932  1.00  0.00     0.029 A 
ATOM     45  N   UNL A   1      45.554  31.147  29.124  1.00  0.00    -0.354 N 
ATOM     46  C   UNL A   1      41.320  30.894  29.950  1.00  0.00     0.074 A 
ATOM     47  C   UNL A   1      40.748  29.699  29.369  1.00  0.00     0.031 C 
ATOM     48  C   UNL A   1      47.502  30.507  28.237  1.00  0.00     0.029 A 
ATOM     49  C   UNL A   1      46.846  31.588  28.973  1.00  0.00     0.049 A 
ATOM     50  H   UNL A   1      44.876  31.634  29.647  1.00  0.00     0.167 HD
ATOM     51  C   UNL A   1      40.616  31.800  30.668  1.00  0.00     0.034 A 
ATOM     52  C   UNL A   1      47.424  32.745  29.354  1.00  0.00     0.034 A 
ATOM     53  C   UNL A   1      41.186  32.985  31.248  1.00  0.00     0.049 A 
ATOM     54  C   UNL A   1      46.611  33.760  30.118  1.00  0.00     0.074 A 
ATOM     55  C   UNL A   1      40.565  33.947  32.024  1.00  0.00     0.029 A 
ATOM     56  N   UNL A   1      42.506  33.381  31.101  1.00  0.00    -0.354 N 
ATOM     57  N   UNL A   1      45.357  33.699  30.496  1.00  0.00    -0.248 NA
ATOM     58  C   UNL A   1      47.302  34.989  30.535  1.00  0.00     0.031 C 
ATOM     59  C   UNL A   1      41.500  34.947  32.312  1.00  0.00     0.029 A 
ATOM     60  C   UNL A   1      42.717  34.582  31.757  1.00  0.00     0.049 A 
ATOM     61  H   UNL A   1      43.194  32.882  30.603  1.00  0.00     0.167 HD
ATOM     62  C   UNL A   1      45.120  34.860  31.227  1.00  0.00     0.074 A 
ATOM     63  C   UNL A   1      46.367  35.596  31.253  1.00  0.00     0.031 C 
ATOM     64  C   UNL A   1      43.974  35.283  31.816  1.00  0.00     0.034 A 
BRANCH  51  65
ATOM     65  C   UNL A   1      39.146  31.540  30.870  1.00  0.00     0.023 A 
ATOM     66  C   UNL A   1      38.718  30.695  31.915  1.00  0.00     0.012 A 
ATOM     67  C   UNL A   1      38.186  32.163  30.049  1.00  0.00     0.148 A 
ATOM     68  C   UNL A   1      37.361  30.445  32.116  1.00  0.00     0.002 A 
ATOM     69  C   UNL A   1      36.833  31.949  30.288  1.00  0.00     0.091 A 
ATOM     70  F   UNL A   1      38.612  32.945  29.047  1.00  0.00    -0.205 F 
ATOM     71  C   UNL A   1      36.421  31.081  31.311  1.00  0.00     0.022 A 
BRANCH  69  72
ATOM     72  S   UNL A   1      35.543  32.783  29.358  1.00  0.00     0.127 S 
ATOM     73  O   UNL A   1      35.941  34.184  29.492  1.00  0.00    -0.237 OA
ATOM     74  O   UNL A   1      35.724  32.224  28.018  1.00  0.00    -0.237 OA
ATOM     75  O   UNL A   1      34.287  32.428  30.002  1.00  0.00    -0.744 OA
ENDBRANCH  69  72
ENDBRANCH  51  65
BRANCH  52  76
ATOM     76  C   UNL A   1      48.856  33.007  29.029  1.00  0.00     0.023 A 
ATOM     77  C   UNL A   1      49.861  32.651  29.950  1.00  0.00     0.012 A 
ATOM     78  C   UNL A   1      49.224  33.605  27.808  1.00  0.00     0.148 A 
ATOM     79  C   UNL A   1      51.203  32.915  29.673  1.00  0.00     0.002 A 
ATOM     80  C   UNL A   1      50.565  33.811  27.514  1.00  0.00     0.091 A 
ATOM     81  F   UNL A   1      48.250  33.951  26.953  1.00  0.00    -0.205 F 
ATOM     82  C   UNL A   1      51.556  33.485  28.452  1.00  0.00     0.022 A 
BRANCH  80  83
ATOM     83  S   UNL A   1      51.121  34.423  25.919  1.00  0.00     0.127 S 
ATOM     84  O   UNL A   1      50.520  33.458  25.002  1.00  0.00    -0.237 OA
ATOM     85  O   UNL A   1      50.524  35.759  25.888  1.00  0.00    -0.237 OA
ATOM     86  O   UNL A   1      52.575  34.415  25.978  1.00  0.00    -0.744 OA
ENDBRANCH  80  83
ENDBRANCH  52  76
BRANCH  64  87
ATOM     87  C   UNL A   1      44.013  36.577  32.590  1.00  0.00     0.023 A 
ATOM     88  C   UNL A   1      43.779  37.802  31.935  1.00  0.00     0.012 A 
ATOM     89  C   UNL A   1      44.211  36.567  33.986  1.00  0.00     0.148 A 
ATOM     90  C   UNL A   1      43.774  38.999  32.651  1.00  0.00     0.002 A 
ATOM     91  C   UNL A   1      44.151  37.757  34.700  1.00  0.00     0.091 A 
ATOM     92  F   UNL A   1      44.447  35.393  34.589  1.00  0.00    -0.205 F 
ATOM     93  C   UNL A   1      43.949  38.975  34.034  1.00  0.00     0.022 A 
BRANCH  91  94
ATOM     94  S   UNL A   1      44.264  37.814  36.493  1.00  0.00     0.127 S 
ATOM     95  O   UNL A   1      44.171  39.249  36.751  1.00  0.00    -0.237 OA
ATOM     96  O   UNL A   1      43.090  37.043  36.899  1.00  0.00    -0.237 OA
ATOM     97  O   UNL A   1      45.541  37.200  36.836  1.00  0.00    -0.744 OA
ENDBRANCH  91  94
ENDBRANCH  64  87
ENDBRANCH  38  39
ENDBRANCH  31  33
ENDBRANCH  30  31
ENDBRANCH  29  30
ENDBRANCH  28  29
ENDBRANCH  27  28
ENDBRANCH  26  27
ENDBRANCH   1  26
TORSDOF 25
ENDMDL
