MODEL 1
REMARK VINA RESULT:      -6.7      0.000      0.000
REMARK SMILES Cc1cc(C(=O)Nc2cccc(C(=O)NCC(=O)OCCOCCOCCOCCOC(=O)c3ccc(-c4c5nc(c(-c6cccc(S(=O)(=O)[O-])c6F)c6ccc([nH]6)c(-c6cccc(S(=O)(=O)[O-])c6F)c6nc(c(-c7cccc(S(=O)(=O)[O-])c7F)c7ccc4[nH]7)C=C6)C=C5)cc3)c2)no1
REMARK SMILES IDX 24 1 23 2 22 3 21 4 20 5 19 6 17 7 18 8 16 9 15 10 13 11
REMARK SMILES IDX 14 12 12 14 8 15 9 16 97 17 10 18 11 19 7 20 5 21 6 22 4 24
REMARK SMILES IDX 1 25 2 26 3 27 99 28 98 29 25 30 26 31 27 32 28 33 29 34
REMARK SMILES IDX 30 35 31 36 32 37 33 38 34 39 35 40 96 41 36 42 95 43 37 44
REMARK SMILES IDX 38 45 39 46 89 47 40 48 94 49 88 50 90 51 41 52 93 53 87 54
REMARK SMILES IDX 86 55 42 57 74 58 54 59 73 60 55 61 58 62 72 63 91 64 56 65
REMARK SMILES IDX 57 66 71 68 92 69 59 70 43 71 44 72 52 73 45 74 47 75 53 76
REMARK SMILES IDX 46 77 48 78 49 79 50 80 51 81 75 82 76 83 84 84 77 85 79 86
REMARK SMILES IDX 85 87 78 88 80 89 81 90 82 91 83 92 60 93 61 94 69 95 62 96
REMARK SMILES IDX 64 97 70 98 63 99 65 100 66 101 67 102 68 103
REMARK H PARENT 15 13 7 23 90 56 58 67
REMARK Flexibility Score: inf
ROOT
ATOM      1  C   UNL A   1      34.930  33.420  29.655  1.00  0.00     0.188 C 
ENDROOT
BRANCH   1   2
ATOM      2  C   UNL A   1      35.038  31.908  29.901  1.00  0.00     0.188 C 
BRANCH   2   3
ATOM      3  O   UNL A   1      36.235  31.304  30.369  1.00  0.00    -0.376 OA
BRANCH   3   4
ATOM      4  C   UNL A   1      36.452  29.899  30.339  1.00  0.00     0.202 C 
BRANCH   4   5
ATOM      5  C   UNL A   1      37.857  29.277  30.354  1.00  0.00     0.261 C 
BRANCH   5   6
ATOM      6  O   UNL A   1      37.963  28.055  31.092  1.00  0.00    -0.462 OA
BRANCH   6   7
ATOM      7  C   UNL A   1      38.286  28.189  32.397  1.00  0.00     0.325 C 
ATOM      8  O   UNL A   1      37.494  28.469  33.289  1.00  0.00    -0.250 OA
BRANCH   7   9
ATOM      9  C   UNL A   1      39.747  27.827  32.686  1.00  0.00     0.239 C 
BRANCH   9  10
ATOM     10  N   UNL A   1      40.513  28.535  33.708  1.00  0.00    -0.341 N 
ATOM     11  C   UNL A   1      41.538  28.151  34.530  1.00  0.00     0.251 C 
ATOM     12  O   UNL A   1      42.145  29.040  35.127  1.00  0.00    -0.269 OA
ATOM     13  H   UNL A   1      40.239  29.473  33.829  1.00  0.00     0.164 HD
BRANCH  11  14
ATOM     14  C   UNL A   1      41.994  26.740  34.655  1.00  0.00     0.041 A 
ATOM     15  C   UNL A   1      43.698  25.033  34.429  1.00  0.00     0.042 A 
ATOM     16  C   UNL A   1      42.915  24.130  35.138  1.00  0.00     0.026 A 
ATOM     17  C   UNL A   1      43.162  26.262  34.071  1.00  0.00     0.040 A 
ATOM     18  C   UNL A   1      41.679  24.545  35.640  1.00  0.00     0.003 A 
ATOM     19  C   UNL A   1      41.244  25.860  35.442  1.00  0.00     0.014 A 
BRANCH  15  20
ATOM     20  N   UNL A   1      45.023  24.717  34.104  1.00  0.00    -0.321 N 
ATOM     21  C   UNL A   1      46.186  24.971  34.830  1.00  0.00     0.277 C 
ATOM     22  O   UNL A   1      47.258  24.904  34.222  1.00  0.00    -0.267 OA
ATOM     23  H   UNL A   1      45.151  24.254  33.245  1.00  0.00     0.170 HD
BRANCH  21  24
ATOM     24  C   UNL A   1      46.133  25.189  36.296  1.00  0.00     0.171 A 
ATOM     25  C   UNL A   1      45.428  24.746  39.890  1.00  0.00     0.091 C 
ATOM     26  C   UNL A   1      45.847  25.025  38.501  1.00  0.00     0.134 A 
ATOM     27  C   UNL A   1      46.036  24.254  37.377  1.00  0.00     0.082 A 
ATOM     28  O   UNL A   1      45.985  26.331  38.162  1.00  0.00    -0.361 OA
ATOM     29  N   UNL A   1      46.190  26.437  36.801  1.00  0.00    -0.074 NA
ENDBRANCH  21  24
ENDBRANCH  15  20
ENDBRANCH  11  14
ENDBRANCH   9  10
ENDBRANCH   7   9
ENDBRANCH   6   7
ENDBRANCH   5   6
ENDBRANCH   4   5
ENDBRANCH   3   4
ENDBRANCH   2   3
ENDBRANCH   1   2
BRANCH   1  30
ATOM     30  O   UNL A   1      33.620  33.933  29.636  1.00  0.00    -0.377 OA
BRANCH  30  31
ATOM     31  C   UNL A   1      33.314  34.884  28.622  1.00  0.00     0.188 C 
BRANCH  31  32
ATOM     32  C   UNL A   1      33.377  36.382  28.988  1.00  0.00     0.188 C 
BRANCH  32  33
ATOM     33  O   UNL A   1      32.569  36.767  30.095  1.00  0.00    -0.376 OA
BRANCH  33  34
ATOM     34  C   UNL A   1      33.191  37.168  31.309  1.00  0.00     0.202 C 
BRANCH  34  35
ATOM     35  C   UNL A   1      32.981  36.310  32.571  1.00  0.00     0.261 C 
BRANCH  35  36
ATOM     36  O   UNL A   1      34.147  35.684  33.125  1.00  0.00    -0.460 OA
BRANCH  36  37
ATOM     37  C   UNL A   1      34.174  34.336  33.171  1.00  0.00     0.338 C 
ATOM     38  O   UNL A   1      33.229  33.582  33.062  1.00  0.00    -0.246 OA
BRANCH  37  39
ATOM     39  C   UNL A   1      35.590  33.909  33.152  1.00  0.00     0.060 A 
ATOM     40  C   UNL A   1      35.890  32.592  33.525  1.00  0.00     0.016 A 
ATOM     41  C   UNL A   1      36.609  34.794  32.797  1.00  0.00     0.016 A 
ATOM     42  C   UNL A   1      37.214  32.176  33.610  1.00  0.00     0.010 A 
ATOM     43  C   UNL A   1      37.941  34.384  32.906  1.00  0.00     0.010 A 
ATOM     44  C   UNL A   1      38.246  33.090  33.367  1.00  0.00    -0.014 A 
BRANCH  44  45
ATOM     45  C   UNL A   1      39.608  32.763  33.847  1.00  0.00     0.031 A 
ATOM     46  C   UNL A   1      40.525  32.013  32.915  1.00  0.00     0.074 A 
ATOM     47  C   UNL A   1      40.047  33.167  35.052  1.00  0.00     0.049 A 
ATOM     48  N   UNL A   1      41.764  31.639  33.092  1.00  0.00    -0.248 NA
ATOM     49  C   UNL A   1      39.965  31.636  31.606  1.00  0.00     0.031 C 
ATOM     50  C   UNL A   1      39.263  33.914  36.032  1.00  0.00     0.029 A 
ATOM     51  N   UNL A   1      41.265  32.987  35.657  1.00  0.00    -0.354 N 
ATOM     52  C   UNL A   1      42.122  30.959  31.934  1.00  0.00     0.074 A 
ATOM     53  C   UNL A   1      40.965  30.958  31.066  1.00  0.00     0.031 C 
ATOM     54  C   UNL A   1      40.014  34.109  37.130  1.00  0.00     0.029 A 
ATOM     55  C   UNL A   1      41.321  33.483  36.937  1.00  0.00     0.049 A 
ATOM     56  H   UNL A   1      42.026  32.544  35.216  1.00  0.00     0.167 HD
ATOM     57  C   UNL A   1      43.312  30.401  31.611  1.00  0.00     0.034 A 
ATOM     58  C   UNL A   1      42.310  33.420  37.851  1.00  0.00     0.034 A 
ATOM     59  C   UNL A   1      44.464  30.413  32.467  1.00  0.00     0.049 A 
ATOM     60  C   UNL A   1      43.617  32.765  37.476  1.00  0.00     0.074 A 
ATOM     61  C   UNL A   1      45.726  29.906  32.219  1.00  0.00     0.029 A 
ATOM     62  N   UNL A   1      44.491  30.947  33.747  1.00  0.00    -0.354 N 
ATOM     63  N   UNL A   1      43.976  32.223  36.338  1.00  0.00    -0.248 NA
ATOM     64  C   UNL A   1      44.669  32.753  38.504  1.00  0.00     0.031 C 
ATOM     65  C   UNL A   1      46.507  30.100  33.364  1.00  0.00     0.029 A 
ATOM     66  C   UNL A   1      45.745  30.770  34.307  1.00  0.00     0.049 A 
ATOM     67  H   UNL A   1      43.731  31.387  34.192  1.00  0.00     0.167 HD
ATOM     68  C   UNL A   1      45.305  31.840  36.498  1.00  0.00     0.074 A 
ATOM     69  C   UNL A   1      45.691  32.237  37.837  1.00  0.00     0.031 C 
ATOM     70  C   UNL A   1      46.129  31.210  35.624  1.00  0.00     0.034 A 
BRANCH  57  71
ATOM     71  C   UNL A   1      43.422  29.731  30.266  1.00  0.00     0.023 A 
ATOM     72  C   UNL A   1      43.888  30.458  29.152  1.00  0.00     0.012 A 
ATOM     73  C   UNL A   1      43.099  28.368  30.115  1.00  0.00     0.148 A 
ATOM     74  C   UNL A   1      43.996  29.850  27.901  1.00  0.00     0.002 A 
ATOM     75  C   UNL A   1      43.257  27.756  28.878  1.00  0.00     0.091 A 
ATOM     76  F   UNL A   1      42.634  27.700  31.181  1.00  0.00    -0.205 F 
ATOM     77  C   UNL A   1      43.691  28.498  27.767  1.00  0.00     0.022 A 
BRANCH  75  78
ATOM     78  S   UNL A   1      42.969  26.002  28.622  1.00  0.00     0.127 S 
ATOM     79  O   UNL A   1      41.517  25.917  28.773  1.00  0.00    -0.237 OA
ATOM     80  O   UNL A   1      43.451  25.811  27.254  1.00  0.00    -0.237 OA
ATOM     81  O   UNL A   1      43.744  25.312  29.643  1.00  0.00    -0.744 OA
ENDBRANCH  75  78
ENDBRANCH  57  71
BRANCH  58  82
ATOM     82  C   UNL A   1      42.119  34.015  39.204  1.00  0.00     0.023 A 
ATOM     83  C   UNL A   1      42.386  35.383  39.412  1.00  0.00     0.012 A 
ATOM     84  C   UNL A   1      41.676  33.230  40.286  1.00  0.00     0.148 A 
ATOM     85  C   UNL A   1      42.254  35.948  40.681  1.00  0.00     0.002 A 
ATOM     86  C   UNL A   1      41.490  33.812  41.534  1.00  0.00     0.091 A 
ATOM     87  F   UNL A   1      41.441  31.928  40.071  1.00  0.00    -0.205 F 
ATOM     88  C   UNL A   1      41.797  35.166  41.738  1.00  0.00     0.022 A 
BRANCH  86  89
ATOM     89  S   UNL A   1      40.790  32.915  42.923  1.00  0.00     0.127 S 
ATOM     90  O   UNL A   1      41.811  31.900  43.170  1.00  0.00    -0.237 OA
ATOM     91  O   UNL A   1      40.704  33.962  43.942  1.00  0.00    -0.237 OA
ATOM     92  O   UNL A   1      39.503  32.414  42.465  1.00  0.00    -0.744 OA
ENDBRANCH  86  89
ENDBRANCH  58  82
BRANCH  70  93
ATOM     93  C   UNL A   1      47.550  30.953  36.062  1.00  0.00     0.023 A 
ATOM     94  C   UNL A   1      47.886  29.746  36.709  1.00  0.00     0.012 A 
ATOM     95  C   UNL A   1      48.564  31.891  35.786  1.00  0.00     0.148 A 
ATOM     96  C   UNL A   1      49.196  29.501  37.117  1.00  0.00     0.002 A 
ATOM     97  C   UNL A   1      49.878  31.615  36.145  1.00  0.00     0.091 A 
ATOM     98  F   UNL A   1      48.227  33.041  35.183  1.00  0.00    -0.205 F 
ATOM     99  C   UNL A   1      50.193  30.429  36.827  1.00  0.00     0.022 A 
BRANCH  97 100
ATOM    100  S   UNL A   1      51.240  32.706  35.720  1.00  0.00     0.127 S 
ATOM    101  O   UNL A   1      50.851  33.944  36.392  1.00  0.00    -0.237 OA
ATOM    102  O   UNL A   1      52.386  32.022  36.319  1.00  0.00    -0.237 OA
ATOM    103  O   UNL A   1      51.268  32.764  34.265  1.00  0.00    -0.744 OA
ENDBRANCH  97 100
ENDBRANCH  70  93
ENDBRANCH  44  45
ENDBRANCH  37  39
ENDBRANCH  36  37
ENDBRANCH  35  36
ENDBRANCH  34  35
ENDBRANCH  33  34
ENDBRANCH  32  33
ENDBRANCH  31  32
ENDBRANCH  30  31
ENDBRANCH   1  30
TORSDOF 27
ENDMDL
MODEL 2
REMARK VINA RESULT:      -6.7      8.084     12.486
REMARK SMILES Cc1cc(C(=O)Nc2cccc(C(=O)NCC(=O)OCCOCCOCCOCCOC(=O)c3ccc(-c4c5nc(c(-c6cccc(S(=O)(=O)[O-])c6F)c6ccc([nH]6)c(-c6cccc(S(=O)(=O)[O-])c6F)c6nc(c(-c7cccc(S(=O)(=O)[O-])c7F)c7ccc4[nH]7)C=C6)C=C5)cc3)c2)no1
REMARK SMILES IDX 24 1 23 2 22 3 21 4 20 5 19 6 17 7 18 8 16 9 15 10 13 11
REMARK SMILES IDX 14 12 12 14 8 15 9 16 97 17 10 18 11 19 7 20 5 21 6 22 4 24
REMARK SMILES IDX 1 25 2 26 3 27 99 28 98 29 25 30 26 31 27 32 28 33 29 34
REMARK SMILES IDX 30 35 31 36 32 37 33 38 34 39 35 40 96 41 36 42 95 43 37 44
REMARK SMILES IDX 38 45 39 46 89 47 40 48 94 49 88 50 90 51 41 52 93 53 87 54
REMARK SMILES IDX 86 55 42 57 74 58 54 59 73 60 55 61 58 62 72 63 91 64 56 65
REMARK SMILES IDX 57 66 71 68 92 69 59 70 43 71 44 72 52 73 45 74 47 75 53 76
REMARK SMILES IDX 46 77 48 78 49 79 50 80 51 81 75 82 76 83 84 84 77 85 79 86
REMARK SMILES IDX 85 87 78 88 80 89 81 90 82 91 83 92 60 93 61 94 69 95 62 96
REMARK SMILES IDX 64 97 70 98 63 99 65 100 66 101 67 102 68 103
REMARK H PARENT 15 13 7 23 90 56 58 67
REMARK Flexibility Score: inf
ROOT
ATOM      1  C   UNL A   1      34.142  30.753  27.458  1.00  0.00     0.188 C 
ENDROOT
BRANCH   1   2
ATOM      2  C   UNL A   1      33.014  30.081  26.661  1.00  0.00     0.188 C 
BRANCH   2   3
ATOM      3  O   UNL A   1      31.916  29.443  27.298  1.00  0.00    -0.376 OA
BRANCH   3   4
ATOM      4  C   UNL A   1      31.874  28.042  27.539  1.00  0.00     0.202 C 
BRANCH   4   5
ATOM      5  C   UNL A   1      31.337  27.040  26.506  1.00  0.00     0.261 C 
BRANCH   5   6
ATOM      6  O   UNL A   1      31.953  25.749  26.548  1.00  0.00    -0.462 OA
BRANCH   6   7
ATOM      7  C   UNL A   1      32.997  25.574  25.708  1.00  0.00     0.325 C 
ATOM      8  O   UNL A   1      34.127  26.010  25.897  1.00  0.00    -0.250 OA
BRANCH   7   9
ATOM      9  C   UNL A   1      32.663  24.652  24.531  1.00  0.00     0.239 C 
BRANCH   9  10
ATOM     10  N   UNL A   1      33.128  24.953  23.180  1.00  0.00    -0.341 N 
ATOM     11  C   UNL A   1      32.960  26.039  22.363  1.00  0.00     0.251 C 
ATOM     12  O   UNL A   1      33.673  26.108  21.362  1.00  0.00    -0.269 OA
ATOM     13  H   UNL A   1      33.669  24.236  22.778  1.00  0.00     0.164 HD
BRANCH  11  14
ATOM     14  C   UNL A   1      32.033  27.160  22.681  1.00  0.00     0.041 A 
ATOM     15  C   UNL A   1      29.808  28.018  23.103  1.00  0.00     0.042 A 
ATOM     16  C   UNL A   1      30.334  29.228  23.534  1.00  0.00     0.026 A 
ATOM     17  C   UNL A   1      30.653  27.069  22.544  1.00  0.00     0.040 A 
ATOM     18  C   UNL A   1      31.721  29.394  23.573  1.00  0.00     0.003 A 
ATOM     19  C   UNL A   1      32.567  28.345  23.196  1.00  0.00     0.014 A 
BRANCH  15  20
ATOM     20  N   UNL A   1      28.443  27.745  23.258  1.00  0.00    -0.321 N 
ATOM     21  C   UNL A   1      27.368  28.634  23.265  1.00  0.00     0.277 C 
ATOM     22  O   UNL A   1      26.301  28.228  23.735  1.00  0.00    -0.267 OA
ATOM     23  H   UNL A   1      28.209  26.797  23.379  1.00  0.00     0.170 HD
BRANCH  21  24
ATOM     24  C   UNL A   1      27.481  29.965  22.622  1.00  0.00     0.171 A 
ATOM     25  C   UNL A   1      28.434  32.683  20.316  1.00  0.00     0.091 C 
ATOM     26  C   UNL A   1      27.908  31.691  21.277  1.00  0.00     0.134 A 
ATOM     27  C   UNL A   1      27.740  30.326  21.260  1.00  0.00     0.082 A 
ATOM     28  O   UNL A   1      27.609  32.152  22.517  1.00  0.00    -0.361 OA
ATOM     29  N   UNL A   1      27.317  31.089  23.347  1.00  0.00    -0.074 NA
ENDBRANCH  21  24
ENDBRANCH  15  20
ENDBRANCH  11  14
ENDBRANCH   9  10
ENDBRANCH   7   9
ENDBRANCH   6   7
ENDBRANCH   5   6
ENDBRANCH   4   5
ENDBRANCH   3   4
ENDBRANCH   2   3
ENDBRANCH   1   2
BRANCH   1  30
ATOM     30  O   UNL A   1      35.178  29.896  27.870  1.00  0.00    -0.377 OA
BRANCH  30  31
ATOM     31  C   UNL A   1      36.497  30.431  27.867  1.00  0.00     0.188 C 
BRANCH  31  32
ATOM     32  C   UNL A   1      37.609  29.627  28.574  1.00  0.00     0.188 C 
BRANCH  32  33
ATOM     33  O   UNL A   1      38.637  30.413  29.167  1.00  0.00    -0.376 OA
BRANCH  33  34
ATOM     34  C   UNL A   1      38.794  30.409  30.579  1.00  0.00     0.202 C 
BRANCH  34  35
ATOM     35  C   UNL A   1      37.752  31.144  31.445  1.00  0.00     0.261 C 
BRANCH  35  36
ATOM     36  O   UNL A   1      38.157  32.397  32.014  1.00  0.00    -0.460 OA
BRANCH  36  37
ATOM     37  C   UNL A   1      37.885  33.520  31.317  1.00  0.00     0.338 C 
ATOM     38  O   UNL A   1      36.814  34.083  31.228  1.00  0.00    -0.246 OA
BRANCH  37  39
ATOM     39  C   UNL A   1      39.169  34.088  30.851  1.00  0.00     0.060 A 
ATOM     40  C   UNL A   1      39.356  34.260  29.473  1.00  0.00     0.016 A 
ATOM     41  C   UNL A   1      40.181  34.425  31.752  1.00  0.00     0.016 A 
ATOM     42  C   UNL A   1      40.582  34.705  28.987  1.00  0.00     0.010 A 
ATOM     43  C   UNL A   1      41.420  34.848  31.262  1.00  0.00     0.010 A 
ATOM     44  C   UNL A   1      41.639  34.935  29.875  1.00  0.00    -0.014 A 
BRANCH  44  45
ATOM     45  C   UNL A   1      43.015  35.006  29.332  1.00  0.00     0.031 A 
ATOM     46  C   UNL A   1      43.769  33.715  29.144  1.00  0.00     0.074 A 
ATOM     47  C   UNL A   1      43.566  36.174  28.959  1.00  0.00     0.049 A 
ATOM     48  N   UNL A   1      44.966  33.515  28.662  1.00  0.00    -0.248 NA
ATOM     49  C   UNL A   1      43.074  32.483  29.557  1.00  0.00     0.031 C 
ATOM     50  C   UNL A   1      42.931  37.485  29.072  1.00  0.00     0.029 A 
ATOM     51  N   UNL A   1      44.799  36.440  28.420  1.00  0.00    -0.354 N 
ATOM     52  C   UNL A   1      45.180  32.143  28.740  1.00  0.00     0.074 A 
ATOM     53  C   UNL A   1      43.995  31.560  29.329  1.00  0.00     0.031 C 
ATOM     54  C   UNL A   1      43.791  38.423  28.637  1.00  0.00     0.029 A 
ATOM     55  C   UNL A   1      45.041  37.780  28.235  1.00  0.00     0.049 A 
ATOM     56  H   UNL A   1      45.449  35.737  28.187  1.00  0.00     0.167 HD
ATOM     57  C   UNL A   1      46.257  31.428  28.340  1.00  0.00     0.034 A 
ATOM     58  C   UNL A   1      46.153  38.411  27.810  1.00  0.00     0.034 A 
ATOM     59  C   UNL A   1      47.429  32.006  27.743  1.00  0.00     0.049 A 
ATOM     60  C   UNL A   1      47.352  37.593  27.398  1.00  0.00     0.074 A 
ATOM     61  C   UNL A   1      48.559  31.365  27.271  1.00  0.00     0.029 A 
ATOM     62  N   UNL A   1      47.628  33.364  27.549  1.00  0.00    -0.354 N 
ATOM     63  N   UNL A   1      47.498  36.290  27.376  1.00  0.00    -0.248 NA
ATOM     64  C   UNL A   1      48.525  38.336  26.913  1.00  0.00     0.031 C 
ATOM     65  C   UNL A   1      49.459  32.339  26.827  1.00  0.00     0.029 A 
ATOM     66  C   UNL A   1      48.869  33.584  26.977  1.00  0.00     0.049 A 
ATOM     67  H   UNL A   1      46.981  34.070  27.783  1.00  0.00     0.167 HD
ATOM     68  C   UNL A   1      48.761  36.055  26.839  1.00  0.00     0.074 A 
ATOM     69  C   UNL A   1      49.327  37.353  26.528  1.00  0.00     0.031 C 
ATOM     70  C   UNL A   1      49.401  34.877  26.631  1.00  0.00     0.034 A 
BRANCH  57  71
ATOM     71  C   UNL A   1      46.212  29.935  28.537  1.00  0.00     0.023 A 
ATOM     72  C   UNL A   1      46.697  29.366  29.732  1.00  0.00     0.012 A 
ATOM     73  C   UNL A   1      45.652  29.099  27.550  1.00  0.00     0.148 A 
ATOM     74  C   UNL A   1      46.660  27.985  29.927  1.00  0.00     0.002 A 
ATOM     75  C   UNL A   1      45.573  27.730  27.773  1.00  0.00     0.091 A 
ATOM     76  F   UNL A   1      45.220  29.657  26.410  1.00  0.00    -0.205 F 
ATOM     77  C   UNL A   1      46.089  27.170  28.953  1.00  0.00     0.022 A 
BRANCH  75  78
ATOM     78  S   UNL A   1      44.784  26.606  26.616  1.00  0.00     0.127 S 
ATOM     79  O   UNL A   1      45.831  26.435  25.610  1.00  0.00    -0.237 OA
ATOM     80  O   UNL A   1      44.544  25.429  27.451  1.00  0.00    -0.237 OA
ATOM     81  O   UNL A   1      43.580  27.281  26.154  1.00  0.00    -0.744 OA
ENDBRANCH  75  78
ENDBRANCH  57  71
BRANCH  58  82
ATOM     82  C   UNL A   1      46.182  39.899  27.722  1.00  0.00     0.023 A 
ATOM     83  C   UNL A   1      46.680  40.655  28.801  1.00  0.00     0.012 A 
ATOM     84  C   UNL A   1      45.715  40.567  26.573  1.00  0.00     0.148 A 
ATOM     85  C   UNL A   1      46.676  42.050  28.753  1.00  0.00     0.002 A 
ATOM     86  C   UNL A   1      45.769  41.954  26.508  1.00  0.00     0.091 A 
ATOM     87  F   UNL A   1      45.232  39.830  25.562  1.00  0.00    -0.205 F 
ATOM     88  C   UNL A   1      46.230  42.698  27.604  1.00  0.00     0.022 A 
BRANCH  86  89
ATOM     89  S   UNL A   1      45.331  42.869  25.026  1.00  0.00     0.127 S 
ATOM     90  O   UNL A   1      45.697  41.926  23.972  1.00  0.00    -0.237 OA
ATOM     91  O   UNL A   1      43.892  43.063  25.208  1.00  0.00    -0.237 OA
ATOM     92  O   UNL A   1      46.114  44.096  25.071  1.00  0.00    -0.744 OA
ENDBRANCH  86  89
ENDBRANCH  58  82
BRANCH  70  93
ATOM     93  C   UNL A   1      50.766  34.926  25.991  1.00  0.00     0.023 A 
ATOM     94  C   UNL A   1      50.892  34.932  24.586  1.00  0.00     0.012 A 
ATOM     95  C   UNL A   1      51.925  35.018  26.785  1.00  0.00     0.148 A 
ATOM     96  C   UNL A   1      52.149  34.978  23.986  1.00  0.00     0.002 A 
ATOM     97  C   UNL A   1      53.173  35.120  26.179  1.00  0.00     0.091 A 
ATOM     98  F   UNL A   1      51.792  34.996  28.120  1.00  0.00    -0.205 F 
ATOM     99  C   UNL A   1      53.288  35.081  24.782  1.00  0.00     0.022 A 
BRANCH  97 100
ATOM    100  S   UNL A   1      54.682  35.360  27.123  1.00  0.00     0.127 S 
ATOM    101  O   UNL A   1      54.384  36.590  27.854  1.00  0.00    -0.237 OA
ATOM    102  O   UNL A   1      54.727  34.155  27.951  1.00  0.00    -0.237 OA
ATOM    103  O   UNL A   1      55.756  35.458  26.144  1.00  0.00    -0.744 OA
ENDBRANCH  97 100
ENDBRANCH  70  93
ENDBRANCH  44  45
ENDBRANCH  37  39
ENDBRANCH  36  37
ENDBRANCH  35  36
ENDBRANCH  34  35
ENDBRANCH  33  34
ENDBRANCH  32  33
ENDBRANCH  31  32
ENDBRANCH  30  31
ENDBRANCH   1  30
TORSDOF 27
ENDMDL
MODEL 3
REMARK VINA RESULT:      -6.6      6.789     12.220
REMARK SMILES Cc1cc(C(=O)Nc2cccc(C(=O)NCC(=O)OCCOCCOCCOCCOC(=O)c3ccc(-c4c5nc(c(-c6cccc(S(=O)(=O)[O-])c6F)c6ccc([nH]6)c(-c6cccc(S(=O)(=O)[O-])c6F)c6nc(c(-c7cccc(S(=O)(=O)[O-])c7F)c7ccc4[nH]7)C=C6)C=C5)cc3)c2)no1
REMARK SMILES IDX 24 1 23 2 22 3 21 4 20 5 19 6 17 7 18 8 16 9 15 10 13 11
REMARK SMILES IDX 14 12 12 14 8 15 9 16 97 17 10 18 11 19 7 20 5 21 6 22 4 24
REMARK SMILES IDX 1 25 2 26 3 27 99 28 98 29 25 30 26 31 27 32 28 33 29 34
REMARK SMILES IDX 30 35 31 36 32 37 33 38 34 39 35 40 96 41 36 42 95 43 37 44
REMARK SMILES IDX 38 45 39 46 89 47 40 48 94 49 88 50 90 51 41 52 93 53 87 54
REMARK SMILES IDX 86 55 42 57 74 58 54 59 73 60 55 61 58 62 72 63 91 64 56 65
REMARK SMILES IDX 57 66 71 68 92 69 59 70 43 71 44 72 52 73 45 74 47 75 53 76
REMARK SMILES IDX 46 77 48 78 49 79 50 80 51 81 75 82 76 83 84 84 77 85 79 86
REMARK SMILES IDX 85 87 78 88 80 89 81 90 82 91 83 92 60 93 61 94 69 95 62 96
REMARK SMILES IDX 64 97 70 98 63 99 65 100 66 101 67 102 68 103
REMARK H PARENT 15 13 7 23 90 56 58 67
REMARK Flexibility Score: inf
ROOT
ATOM      1  C   UNL A   1      39.214  29.302  28.043  1.00  0.00     0.188 C 
ENDROOT
BRANCH   1   2
ATOM      2  C   UNL A   1      37.914  29.693  28.761  1.00  0.00     0.188 C 
BRANCH   2   3
ATOM      3  O   UNL A   1      37.114  30.785  28.333  1.00  0.00    -0.376 OA
BRANCH   3   4
ATOM      4  C   UNL A   1      35.765  30.633  27.910  1.00  0.00     0.202 C 
BRANCH   4   5
ATOM      5  C   UNL A   1      35.224  29.319  27.324  1.00  0.00     0.261 C 
BRANCH   5   6
ATOM      6  O   UNL A   1      33.803  29.170  27.402  1.00  0.00    -0.462 OA
BRANCH   6   7
ATOM      7  C   UNL A   1      33.082  30.078  26.709  1.00  0.00     0.325 C 
ATOM      8  O   UNL A   1      32.698  31.153  27.154  1.00  0.00    -0.250 OA
BRANCH   7   9
ATOM      9  C   UNL A   1      32.891  29.686  25.240  1.00  0.00     0.239 C 
BRANCH   9  10
ATOM     10  N   UNL A   1      31.601  29.852  24.576  1.00  0.00    -0.341 N 
ATOM     11  C   UNL A   1      30.734  28.962  23.999  1.00  0.00     0.251 C 
ATOM     12  O   UNL A   1      29.605  29.369  23.728  1.00  0.00    -0.269 OA
ATOM     13  H   UNL A   1      31.292  30.786  24.536  1.00  0.00     0.164 HD
BRANCH  11  14
ATOM     14  C   UNL A   1      31.070  27.529  23.777  1.00  0.00     0.041 A 
ATOM     15  C   UNL A   1      30.910  25.192  24.394  1.00  0.00     0.042 A 
ATOM     16  C   UNL A   1      31.501  24.814  23.195  1.00  0.00     0.026 A 
ATOM     17  C   UNL A   1      30.848  26.538  24.726  1.00  0.00     0.040 A 
ATOM     18  C   UNL A   1      31.845  25.798  22.264  1.00  0.00     0.003 A 
ATOM     19  C   UNL A   1      31.584  27.145  22.534  1.00  0.00     0.014 A 
BRANCH  15  20
ATOM     20  N   UNL A   1      30.359  24.227  25.246  1.00  0.00    -0.321 N 
ATOM     21  C   UNL A   1      30.936  23.052  25.728  1.00  0.00     0.277 C 
ATOM     22  O   UNL A   1      30.176  22.198  26.192  1.00  0.00    -0.267 OA
ATOM     23  H   UNL A   1      29.437  24.400  25.545  1.00  0.00     0.170 HD
BRANCH  21  24
ATOM     24  C   UNL A   1      32.410  22.901  25.787  1.00  0.00     0.171 A 
ATOM     25  C   UNL A   1      36.017  23.663  25.921  1.00  0.00     0.091 C 
ATOM     26  C   UNL A   1      34.614  23.203  25.943  1.00  0.00     0.134 A 
ATOM     27  C   UNL A   1      33.417  23.769  26.320  1.00  0.00     0.082 A 
ATOM     28  O   UNL A   1      34.364  21.998  25.371  1.00  0.00    -0.361 OA
ATOM     29  N   UNL A   1      33.001  21.794  25.297  1.00  0.00    -0.074 NA
ENDBRANCH  21  24
ENDBRANCH  15  20
ENDBRANCH  11  14
ENDBRANCH   9  10
ENDBRANCH   7   9
ENDBRANCH   6   7
ENDBRANCH   5   6
ENDBRANCH   4   5
ENDBRANCH   3   4
ENDBRANCH   2   3
ENDBRANCH   1   2
BRANCH   1  30
ATOM     30  O   UNL A   1      40.111  28.529  28.802  1.00  0.00    -0.377 OA
BRANCH  30  31
ATOM     31  C   UNL A   1      39.756  27.171  29.034  1.00  0.00     0.188 C 
BRANCH  31  32
ATOM     32  C   UNL A   1      40.505  26.078  28.241  1.00  0.00     0.188 C 
BRANCH  32  33
ATOM     33  O   UNL A   1      40.788  26.405  26.885  1.00  0.00    -0.376 OA
BRANCH  33  34
ATOM     34  C   UNL A   1      41.512  25.483  26.081  1.00  0.00     0.202 C 
BRANCH  34  35
ATOM     35  C   UNL A   1      42.671  26.005  25.210  1.00  0.00     0.261 C 
BRANCH  35  36
ATOM     36  O   UNL A   1      43.289  27.230  25.629  1.00  0.00    -0.460 OA
BRANCH  36  37
ATOM     37  C   UNL A   1      44.255  27.157  26.569  1.00  0.00     0.338 C 
ATOM     38  O   UNL A   1      45.215  26.417  26.573  1.00  0.00    -0.246 OA
BRANCH  37  39
ATOM     39  C   UNL A   1      44.073  28.296  27.496  1.00  0.00     0.060 A 
ATOM     40  C   UNL A   1      43.134  29.279  27.161  1.00  0.00     0.016 A 
ATOM     41  C   UNL A   1      44.830  28.406  28.664  1.00  0.00     0.016 A 
ATOM     42  C   UNL A   1      42.996  30.412  27.957  1.00  0.00     0.010 A 
ATOM     43  C   UNL A   1      44.710  29.556  29.450  1.00  0.00     0.010 A 
ATOM     44  C   UNL A   1      43.832  30.586  29.066  1.00  0.00    -0.014 A 
BRANCH  44  45
ATOM     45  C   UNL A   1      43.959  31.942  29.649  1.00  0.00     0.031 A 
ATOM     46  C   UNL A   1      43.111  32.279  30.848  1.00  0.00     0.074 A 
ATOM     47  C   UNL A   1      44.843  32.834  29.170  1.00  0.00     0.049 A 
ATOM     48  N   UNL A   1      43.065  33.380  31.549  1.00  0.00    -0.248 NA
ATOM     49  C   UNL A   1      42.192  31.228  31.318  1.00  0.00     0.031 C 
ATOM     50  C   UNL A   1      45.731  32.620  28.030  1.00  0.00     0.029 A 
ATOM     51  N   UNL A   1      45.123  34.113  29.583  1.00  0.00    -0.354 N 
ATOM     52  C   UNL A   1      42.095  33.167  32.522  1.00  0.00     0.074 A 
ATOM     53  C   UNL A   1      41.566  31.837  32.312  1.00  0.00     0.031 C 
ATOM     54  C   UNL A   1      46.444  33.740  27.818  1.00  0.00     0.029 A 
ATOM     55  C   UNL A   1      46.046  34.755  28.793  1.00  0.00     0.049 A 
ATOM     56  H   UNL A   1      44.703  34.530  30.369  1.00  0.00     0.167 HD
ATOM     57  C   UNL A   1      41.690  33.995  33.513  1.00  0.00     0.034 A 
ATOM     58  C   UNL A   1      46.501  36.022  28.844  1.00  0.00     0.034 A 
ATOM     59  C   UNL A   1      42.225  35.310  33.730  1.00  0.00     0.049 A 
ATOM     60  C   UNL A   1      46.013  36.936  29.942  1.00  0.00     0.074 A 
ATOM     61  C   UNL A   1      41.908  36.215  34.726  1.00  0.00     0.029 A 
ATOM     62  N   UNL A   1      43.177  35.918  32.925  1.00  0.00    -0.354 N 
ATOM     63  N   UNL A   1      45.176  36.684  30.919  1.00  0.00    -0.248 NA
ATOM     64  C   UNL A   1      46.567  38.298  29.964  1.00  0.00     0.031 C 
ATOM     65  C   UNL A   1      42.641  37.384  34.503  1.00  0.00     0.029 A 
ATOM     66  C   UNL A   1      43.450  37.191  33.394  1.00  0.00     0.049 A 
ATOM     67  H   UNL A   1      43.597  35.505  32.136  1.00  0.00     0.167 HD
ATOM     68  C   UNL A   1      45.132  37.839  31.694  1.00  0.00     0.074 A 
ATOM     69  C   UNL A   1      46.047  38.782  31.083  1.00  0.00     0.031 C 
ATOM     70  C   UNL A   1      44.397  38.102  32.803  1.00  0.00     0.034 A 
BRANCH  57  71
ATOM     71  C   UNL A   1      40.616  33.493  34.443  1.00  0.00     0.023 A 
ATOM     72  C   UNL A   1      40.969  32.811  35.626  1.00  0.00     0.012 A 
ATOM     73  C   UNL A   1      39.256  33.730  34.162  1.00  0.00     0.148 A 
ATOM     74  C   UNL A   1      39.985  32.342  36.496  1.00  0.00     0.002 A 
ATOM     75  C   UNL A   1      38.284  33.304  35.058  1.00  0.00     0.091 A 
ATOM     76  F   UNL A   1      38.940  34.357  33.019  1.00  0.00    -0.205 F 
ATOM     77  C   UNL A   1      38.645  32.598  36.217  1.00  0.00     0.022 A 
BRANCH  75  78
ATOM     78  S   UNL A   1      36.538  33.655  34.830  1.00  0.00     0.127 S 
ATOM     79  O   UNL A   1      36.584  34.938  34.129  1.00  0.00    -0.237 OA
ATOM     80  O   UNL A   1      36.105  32.526  34.008  1.00  0.00    -0.237 OA
ATOM     81  O   UNL A   1      35.956  33.695  36.165  1.00  0.00    -0.744 OA
ENDBRANCH  75  78
ENDBRANCH  57  71
BRANCH  58  82
ATOM     82  C   UNL A   1      47.495  36.503  27.843  1.00  0.00     0.023 A 
ATOM     83  C   UNL A   1      47.054  37.156  26.675  1.00  0.00     0.012 A 
ATOM     84  C   UNL A   1      48.876  36.311  28.042  1.00  0.00     0.148 A 
ATOM     85  C   UNL A   1      47.968  37.575  25.707  1.00  0.00     0.002 A 
ATOM     86  C   UNL A   1      49.784  36.783  27.102  1.00  0.00     0.091 A 
ATOM     87  F   UNL A   1      49.275  35.674  29.153  1.00  0.00    -0.205 F 
ATOM     88  C   UNL A   1      49.332  37.396  25.924  1.00  0.00     0.022 A 
BRANCH  86  89
ATOM     89  S   UNL A   1      51.561  36.708  27.354  1.00  0.00     0.127 S 
ATOM     90  O   UNL A   1      51.811  35.270  27.304  1.00  0.00    -0.237 OA
ATOM     91  O   UNL A   1      52.058  37.460  26.201  1.00  0.00    -0.237 OA
ATOM     92  O   UNL A   1      51.807  37.346  28.639  1.00  0.00    -0.744 OA
ENDBRANCH  86  89
ENDBRANCH  58  82
BRANCH  70  93
ATOM     93  C   UNL A   1      44.585  39.445  33.465  1.00  0.00     0.023 A 
ATOM     94  C   UNL A   1      45.525  39.598  34.504  1.00  0.00     0.012 A 
ATOM     95  C   UNL A   1      43.863  40.569  33.019  1.00  0.00     0.148 A 
ATOM     96  C   UNL A   1      45.706  40.835  35.121  1.00  0.00     0.002 A 
ATOM     97  C   UNL A   1      44.089  41.811  33.601  1.00  0.00     0.091 A 
ATOM     98  F   UNL A   1      42.961  40.405  32.040  1.00  0.00    -0.205 F 
ATOM     99  C   UNL A   1      44.996  41.943  34.664  1.00  0.00     0.022 A 
BRANCH  97 100
ATOM    100  S   UNL A   1      43.295  43.309  33.007  1.00  0.00     0.127 S 
ATOM    101  O   UNL A   1      43.205  44.104  34.230  1.00  0.00    -0.237 OA
ATOM    102  O   UNL A   1      44.261  43.806  32.027  1.00  0.00    -0.237 OA
ATOM    103  O   UNL A   1      42.022  42.889  32.437  1.00  0.00    -0.744 OA
ENDBRANCH  97 100
ENDBRANCH  70  93
ENDBRANCH  44  45
ENDBRANCH  37  39
ENDBRANCH  36  37
ENDBRANCH  35  36
ENDBRANCH  34  35
ENDBRANCH  33  34
ENDBRANCH  32  33
ENDBRANCH  31  32
ENDBRANCH  30  31
ENDBRANCH   1  30
TORSDOF 27
ENDMDL
