MODEL 1
REMARK VINA RESULT:      -7.2      0.000      0.000
REMARK SMILES O=C(OCCOCCOCCOCCOC(=O)c1ccc(-c2c3nc(c(-c4cccc(S(=O)(=O)[O-])c4F)c4ccc([nH]4)c(-c4cccc(S(=O)(=O)[O-])c4F)c4nc(c(-c5cccc(S(=O)(=O)[O-])c5F)c5ccc2[nH]5)C=C4)C=C3)cc1)c1ccc(/[NH+]=C2\S[C@@H](Cc3ccc(F)cc3)C(=O)N2Cc2ccccc2)cc1
REMARK SMILES IDX 9 1 8 2 7 3 6 4 5 5 4 6 3 7 2 8 1 9 81 10 82 11 108 12 83 13
REMARK SMILES IDX 107 14 84 15 85 16 86 17 87 19 99 20 88 21 97 22 98 23
REMARK SMILES IDX 100 24 101 25 102 26 106 27 103 28 105 29 104 30 89 31 90 32
REMARK SMILES IDX 91 33 96 34 92 35 95 36 93 37 94 38 10 39 11 40 12 41 13 42
REMARK SMILES IDX 14 43 15 44 16 45 17 46 18 47 19 48 80 49 20 50 79 51 21 52
REMARK SMILES IDX 22 53 23 54 73 55 24 56 78 57 72 58 74 59 25 60 77 61 71 62
REMARK SMILES IDX 70 63 26 65 58 66 38 67 57 68 39 69 42 70 56 71 75 72 40 73
REMARK SMILES IDX 41 74 55 76 76 77 43 78 27 79 28 80 36 81 29 82 31 83 37 84
REMARK SMILES IDX 30 85 32 86 33 87 34 88 35 89 59 90 60 91 68 92 61 93 63 94
REMARK SMILES IDX 69 95 62 96 64 97 65 98 66 99 67 100 44 101 45 102 53 103
REMARK SMILES IDX 46 104 48 105 54 106 47 107 49 108 50 109 51 110 52 111
REMARK H PARENT 85 18 74 64 42 75
REMARK Flexibility Score: inf
ROOT
ATOM      1  O   UNL A   1      36.605  29.747  27.797  1.00  0.00    -0.377 OA
ENDROOT
BRANCH   1   2
ATOM      2  C   UNL A   1      35.374  30.453  27.676  1.00  0.00     0.188 C 
BRANCH   2   3
ATOM      3  C   UNL A   1      35.239  31.689  28.566  1.00  0.00     0.188 C 
BRANCH   3   4
ATOM      4  O   UNL A   1      35.270  32.885  27.777  1.00  0.00    -0.376 OA
BRANCH   4   5
ATOM      5  C   UNL A   1      35.023  34.090  28.503  1.00  0.00     0.202 C 
BRANCH   5   6
ATOM      6  C   UNL A   1      33.669  34.735  28.208  1.00  0.00     0.261 C 
BRANCH   6   7
ATOM      7  O   UNL A   1      32.830  34.799  29.371  1.00  0.00    -0.460 OA
BRANCH   7   8
ATOM      8  C   UNL A   1      32.950  35.622  30.441  1.00  0.00     0.338 C 
ATOM      9  O   UNL A   1      32.479  36.757  30.365  1.00  0.00    -0.246 OA
BRANCH   8  10
ATOM     10  C   UNL A   1      33.593  35.237  31.736  1.00  0.00     0.060 A 
ATOM     11  C   UNL A   1      34.255  36.100  32.607  1.00  0.00     0.020 A 
ATOM     12  C   UNL A   1      33.435  33.897  32.140  1.00  0.00     0.020 A 
ATOM     13  C   UNL A   1      34.797  35.643  33.802  1.00  0.00     0.052 A 
ATOM     14  C   UNL A   1      33.980  33.429  33.342  1.00  0.00     0.052 A 
ATOM     15  C   UNL A   1      34.704  34.300  34.151  1.00  0.00     0.125 A 
BRANCH  15  16
ATOM     16  N   UNL A   1      35.449  33.871  35.254  1.00  0.00    -0.235 N 
ATOM     17  C   UNL A   1      36.502  33.162  35.006  1.00  0.00     0.320 C 
ATOM     18  H   UNL A   1      35.184  34.098  36.174  1.00  0.00     0.313 HD
ATOM     19  S   UNL A   1      36.930  32.443  33.470  1.00  0.00    -0.022 SA
ATOM     20  N   UNL A   1      37.468  32.909  35.938  1.00  0.00    -0.186 N 
ATOM     21  C   UNL A   1      38.124  31.341  34.252  1.00  0.00     0.178 C 
ATOM     22  C   UNL A   1      38.473  32.038  35.561  1.00  0.00     0.324 C 
ATOM     23  O   UNL A   1      39.471  31.792  36.229  1.00  0.00    -0.245 OA
BRANCH  20  24
ATOM     24  C   UNL A   1      37.510  33.611  37.214  1.00  0.00     0.283 C 
BRANCH  24  25
ATOM     25  C   UNL A   1      36.899  32.812  38.352  1.00  0.00    -0.006 A 
ATOM     26  C   UNL A   1      37.480  31.614  38.788  1.00  0.00     0.008 A 
ATOM     27  C   UNL A   1      35.734  33.261  38.996  1.00  0.00     0.008 A 
ATOM     28  C   UNL A   1      36.908  30.887  39.838  1.00  0.00     0.000 A 
ATOM     29  C   UNL A   1      35.180  32.551  40.062  1.00  0.00     0.000 A 
ATOM     30  C   UNL A   1      35.765  31.360  40.480  1.00  0.00     0.000 A 
ENDBRANCH  24  25
ENDBRANCH  20  24
BRANCH  21  31
ATOM     31  C   UNL A   1      39.289  31.091  33.302  1.00  0.00     0.063 C 
BRANCH  31  32
ATOM     32  C   UNL A   1      39.466  32.202  32.294  1.00  0.00    -0.046 A 
ATOM     33  C   UNL A   1      39.657  33.518  32.734  1.00  0.00     0.007 A 
ATOM     34  C   UNL A   1      39.448  31.931  30.916  1.00  0.00     0.007 A 
ATOM     35  C   UNL A   1      39.866  34.542  31.812  1.00  0.00     0.039 A 
ATOM     36  C   UNL A   1      39.668  32.955  29.997  1.00  0.00     0.039 A 
ATOM     37  C   UNL A   1      39.880  34.250  30.454  1.00  0.00     0.123 A 
ATOM     38  F   UNL A   1      40.103  35.232  29.570  1.00  0.00    -0.207 F 
ENDBRANCH  31  32
ENDBRANCH  21  31
ENDBRANCH  15  16
ENDBRANCH   8  10
ENDBRANCH   7   8
ENDBRANCH   6   7
ENDBRANCH   5   6
ENDBRANCH   4   5
ENDBRANCH   3   4
ENDBRANCH   2   3
ENDBRANCH   1   2
BRANCH   1  39
ATOM     39  C   UNL A   1      37.312  29.901  29.021  1.00  0.00     0.188 C 
BRANCH  39  40
ATOM     40  C   UNL A   1      38.006  28.661  29.624  1.00  0.00     0.188 C 
BRANCH  40  41
ATOM     41  O   UNL A   1      39.349  28.448  29.203  1.00  0.00    -0.376 OA
BRANCH  41  42
ATOM     42  C   UNL A   1      39.504  27.585  28.077  1.00  0.00     0.202 C 
BRANCH  42  43
ATOM     43  C   UNL A   1      40.838  26.829  28.011  1.00  0.00     0.261 C 
BRANCH  43  44
ATOM     44  O   UNL A   1      41.818  27.227  28.983  1.00  0.00    -0.460 OA
BRANCH  44  45
ATOM     45  C   UNL A   1      43.049  27.580  28.553  1.00  0.00     0.338 C 
ATOM     46  O   UNL A   1      43.693  27.050  27.662  1.00  0.00    -0.246 OA
BRANCH  45  47
ATOM     47  C   UNL A   1      43.373  28.889  29.174  1.00  0.00     0.060 A 
ATOM     48  C   UNL A   1      42.524  29.977  28.920  1.00  0.00     0.016 A 
ATOM     49  C   UNL A   1      44.412  29.012  30.104  1.00  0.00     0.016 A 
ATOM     50  C   UNL A   1      42.725  31.191  29.583  1.00  0.00     0.010 A 
ATOM     51  C   UNL A   1      44.620  30.230  30.754  1.00  0.00     0.010 A 
ATOM     52  C   UNL A   1      43.797  31.335  30.475  1.00  0.00    -0.014 A 
BRANCH  52  53
ATOM     53  C   UNL A   1      44.226  32.690  30.901  1.00  0.00     0.031 A 
ATOM     54  C   UNL A   1      43.770  33.159  32.256  1.00  0.00     0.074 A 
ATOM     55  C   UNL A   1      44.973  33.497  30.124  1.00  0.00     0.049 A 
ATOM     56  N   UNL A   1      43.988  34.297  32.860  1.00  0.00    -0.248 NA
ATOM     57  C   UNL A   1      42.949  32.212  33.033  1.00  0.00     0.031 C 
ATOM     58  C   UNL A   1      45.474  33.173  28.791  1.00  0.00     0.029 A 
ATOM     59  N   UNL A   1      45.418  34.779  30.349  1.00  0.00    -0.354 N 
ATOM     60  C   UNL A   1      43.318  34.209  34.074  1.00  0.00     0.074 A 
ATOM     61  C   UNL A   1      42.671  32.917  34.117  1.00  0.00     0.031 C 
ATOM     62  C   UNL A   1      46.137  34.239  28.304  1.00  0.00     0.029 A 
ATOM     63  C   UNL A   1      46.092  35.326  29.282  1.00  0.00     0.049 A 
ATOM     64  H   UNL A   1      45.268  35.259  31.195  1.00  0.00     0.167 HD
ATOM     65  C   UNL A   1      43.257  35.113  35.078  1.00  0.00     0.034 A 
ATOM     66  C   UNL A   1      46.599  36.567  29.114  1.00  0.00     0.034 A 
ATOM     67  C   UNL A   1      43.894  36.398  35.046  1.00  0.00     0.049 A 
ATOM     68  C   UNL A   1      46.487  37.573  30.237  1.00  0.00     0.074 A 
ATOM     69  C   UNL A   1      43.921  37.368  36.031  1.00  0.00     0.029 A 
ATOM     70  N   UNL A   1      44.602  36.900  33.966  1.00  0.00    -0.354 N 
ATOM     71  N   UNL A   1      45.970  37.425  31.433  1.00  0.00    -0.248 NA
ATOM     72  C   UNL A   1      47.058  38.908  29.996  1.00  0.00     0.031 C 
ATOM     73  C   UNL A   1      44.625  38.469  35.535  1.00  0.00     0.029 A 
ATOM     74  C   UNL A   1      45.062  38.172  34.255  1.00  0.00     0.049 A 
ATOM     75  H   UNL A   1      44.756  36.421  33.119  1.00  0.00     0.167 HD
ATOM     76  C   UNL A   1      46.190  38.629  32.098  1.00  0.00     0.074 A 
ATOM     77  C   UNL A   1      46.902  39.490  31.178  1.00  0.00     0.031 C 
ATOM     78  C   UNL A   1      45.824  38.994  33.352  1.00  0.00     0.034 A 
BRANCH  65  79
ATOM     79  C   UNL A   1      42.485  34.724  36.308  1.00  0.00     0.023 A 
ATOM     80  C   UNL A   1      41.204  35.273  36.526  1.00  0.00     0.012 A 
ATOM     81  C   UNL A   1      43.009  33.797  37.228  1.00  0.00     0.148 A 
ATOM     82  C   UNL A   1      40.469  34.928  37.659  1.00  0.00     0.002 A 
ATOM     83  C   UNL A   1      42.251  33.425  38.332  1.00  0.00     0.091 A 
ATOM     84  F   UNL A   1      44.241  33.313  37.017  1.00  0.00    -0.205 F 
ATOM     85  C   UNL A   1      40.988  33.997  38.554  1.00  0.00     0.022 A 
BRANCH  83  86
ATOM     86  S   UNL A   1      42.799  32.179  39.503  1.00  0.00     0.127 S 
ATOM     87  O   UNL A   1      43.148  31.072  38.614  1.00  0.00    -0.237 OA
ATOM     88  O   UNL A   1      43.942  32.837  40.136  1.00  0.00    -0.237 OA
ATOM     89  O   UNL A   1      41.669  31.937  40.390  1.00  0.00    -0.744 OA
ENDBRANCH  83  86
ENDBRANCH  65  79
BRANCH  66  90
ATOM     90  C   UNL A   1      47.297  36.933  27.847  1.00  0.00     0.023 A 
ATOM     91  C   UNL A   1      46.608  37.670  26.863  1.00  0.00     0.012 A 
ATOM     92  C   UNL A   1      48.629  36.544  27.604  1.00  0.00     0.148 A 
ATOM     93  C   UNL A   1      47.221  37.983  25.647  1.00  0.00     0.002 A 
ATOM     94  C   UNL A   1      49.250  36.905  26.414  1.00  0.00     0.091 A 
ATOM     95  F   UNL A   1      49.260  35.824  28.541  1.00  0.00    -0.205 F 
ATOM     96  C   UNL A   1      48.542  37.608  25.426  1.00  0.00     0.022 A 
BRANCH  94  97
ATOM     97  S   UNL A   1      50.985  36.572  26.089  1.00  0.00     0.127 S 
ATOM     98  O   UNL A   1      51.008  35.112  26.049  1.00  0.00    -0.237 OA
ATOM     99  O   UNL A   1      51.179  37.229  24.796  1.00  0.00    -0.237 OA
ATOM    100  O   UNL A   1      51.714  37.186  27.190  1.00  0.00    -0.744 OA
ENDBRANCH  94  97
ENDBRANCH  66  90
BRANCH  78 101
ATOM    101  C   UNL A   1      46.221  40.366  33.837  1.00  0.00     0.023 A 
ATOM    102  C   UNL A   1      47.524  40.589  34.324  1.00  0.00     0.012 A 
ATOM    103  C   UNL A   1      45.332  41.453  33.718  1.00  0.00     0.148 A 
ATOM    104  C   UNL A   1      47.926  41.867  34.712  1.00  0.00     0.002 A 
ATOM    105  C   UNL A   1      45.755  42.733  34.061  1.00  0.00     0.091 A 
ATOM    106  F   UNL A   1      44.092  41.218  33.267  1.00  0.00    -0.205 F 
ATOM    107  C   UNL A   1      47.048  42.939  34.568  1.00  0.00     0.022 A 
BRANCH 105 108
ATOM    108  S   UNL A   1      44.726  44.184  33.814  1.00  0.00     0.127 S 
ATOM    109  O   UNL A   1      43.557  43.863  34.632  1.00  0.00    -0.237 OA
ATOM    110  O   UNL A   1      45.567  45.256  34.347  1.00  0.00    -0.237 OA
ATOM    111  O   UNL A   1      44.483  44.266  32.381  1.00  0.00    -0.744 OA
ENDBRANCH 105 108
ENDBRANCH  78 101
ENDBRANCH  52  53
ENDBRANCH  45  47
ENDBRANCH  44  45
ENDBRANCH  43  44
ENDBRANCH  42  43
ENDBRANCH  41  42
ENDBRANCH  40  41
ENDBRANCH  39  40
ENDBRANCH   1  39
TORSDOF 28
ENDMDL
MODEL 2
REMARK VINA RESULT:      -7.1      5.315     12.562
REMARK SMILES O=C(OCCOCCOCCOCCOC(=O)c1ccc(-c2c3nc(c(-c4cccc(S(=O)(=O)[O-])c4F)c4ccc([nH]4)c(-c4cccc(S(=O)(=O)[O-])c4F)c4nc(c(-c5cccc(S(=O)(=O)[O-])c5F)c5ccc2[nH]5)C=C4)C=C3)cc1)c1ccc(/[NH+]=C2\S[C@@H](Cc3ccc(F)cc3)C(=O)N2Cc2ccccc2)cc1
REMARK SMILES IDX 9 1 8 2 7 3 6 4 5 5 4 6 3 7 2 8 1 9 81 10 82 11 108 12 83 13
REMARK SMILES IDX 107 14 84 15 85 16 86 17 87 19 99 20 88 21 97 22 98 23
REMARK SMILES IDX 100 24 101 25 102 26 106 27 103 28 105 29 104 30 89 31 90 32
REMARK SMILES IDX 91 33 96 34 92 35 95 36 93 37 94 38 10 39 11 40 12 41 13 42
REMARK SMILES IDX 14 43 15 44 16 45 17 46 18 47 19 48 80 49 20 50 79 51 21 52
REMARK SMILES IDX 22 53 23 54 73 55 24 56 78 57 72 58 74 59 25 60 77 61 71 62
REMARK SMILES IDX 70 63 26 65 58 66 38 67 57 68 39 69 42 70 56 71 75 72 40 73
REMARK SMILES IDX 41 74 55 76 76 77 43 78 27 79 28 80 36 81 29 82 31 83 37 84
REMARK SMILES IDX 30 85 32 86 33 87 34 88 35 89 59 90 60 91 68 92 61 93 63 94
REMARK SMILES IDX 69 95 62 96 64 97 65 98 66 99 67 100 44 101 45 102 53 103
REMARK SMILES IDX 46 104 48 105 54 106 47 107 49 108 50 109 51 110 52 111
REMARK H PARENT 85 18 74 64 42 75
REMARK Flexibility Score: inf
ROOT
ATOM      1  O   UNL A   1      41.941  41.634  22.945  1.00  0.00    -0.377 OA
ENDROOT
BRANCH   1   2
ATOM      2  C   UNL A   1      41.948  42.729  22.034  1.00  0.00     0.188 C 
BRANCH   2   3
ATOM      3  C   UNL A   1      42.836  42.550  20.802  1.00  0.00     0.188 C 
BRANCH   3   4
ATOM      4  O   UNL A   1      44.103  43.190  20.997  1.00  0.00    -0.376 OA
BRANCH   4   5
ATOM      5  C   UNL A   1      45.237  42.331  20.859  1.00  0.00     0.202 C 
BRANCH   5   6
ATOM      6  C   UNL A   1      46.579  43.019  21.110  1.00  0.00     0.261 C 
BRANCH   6   7
ATOM      7  O   UNL A   1      46.478  44.449  21.058  1.00  0.00    -0.460 OA
BRANCH   7   8
ATOM      8  C   UNL A   1      46.075  45.293  22.039  1.00  0.00     0.338 C 
ATOM      9  O   UNL A   1      45.680  46.416  21.723  1.00  0.00    -0.246 OA
BRANCH   8  10
ATOM     10  C   UNL A   1      46.044  44.944  23.494  1.00  0.00     0.060 A 
ATOM     11  C   UNL A   1      47.103  45.085  24.389  1.00  0.00     0.020 A 
ATOM     12  C   UNL A   1      44.805  44.518  24.011  1.00  0.00     0.020 A 
ATOM     13  C   UNL A   1      46.961  44.755  25.732  1.00  0.00     0.052 A 
ATOM     14  C   UNL A   1      44.656  44.182  25.362  1.00  0.00     0.052 A 
ATOM     15  C   UNL A   1      45.754  44.257  26.213  1.00  0.00     0.125 A 
BRANCH  15  16
ATOM     16  N   UNL A   1      45.744  43.748  27.515  1.00  0.00    -0.235 N 
ATOM     17  C   UNL A   1      46.442  42.682  27.730  1.00  0.00     0.320 C 
ATOM     18  H   UNL A   1      45.229  44.183  28.233  1.00  0.00     0.313 HD
ATOM     19  S   UNL A   1      47.159  41.649  26.513  1.00  0.00    -0.022 SA
ATOM     20  N   UNL A   1      46.753  42.232  28.982  1.00  0.00    -0.186 N 
ATOM     21  C   UNL A   1      47.393  40.313  27.702  1.00  0.00     0.178 C 
ATOM     22  C   UNL A   1      47.403  41.015  29.054  1.00  0.00     0.324 C 
ATOM     23  O   UNL A   1      47.853  40.523  30.083  1.00  0.00    -0.245 OA
BRANCH  20  24
ATOM     24  C   UNL A   1      46.525  43.044  30.170  1.00  0.00     0.283 C 
BRANCH  24  25
ATOM     25  C   UNL A   1      45.107  42.933  30.703  1.00  0.00    -0.006 A 
ATOM     26  C   UNL A   1      44.315  44.074  30.891  1.00  0.00     0.008 A 
ATOM     27  C   UNL A   1      44.557  41.680  31.017  1.00  0.00     0.008 A 
ATOM     28  C   UNL A   1      43.010  43.960  31.382  1.00  0.00     0.000 A 
ATOM     29  C   UNL A   1      43.245  41.564  31.480  1.00  0.00     0.000 A 
ATOM     30  C   UNL A   1      42.473  42.705  31.667  1.00  0.00     0.000 A 
ENDBRANCH  24  25
ENDBRANCH  20  24
BRANCH  21  31
ATOM     31  C   UNL A   1      48.652  39.530  27.351  1.00  0.00     0.063 C 
BRANCH  31  32
ATOM     32  C   UNL A   1      48.350  38.131  26.867  1.00  0.00    -0.046 A 
ATOM     33  C   UNL A   1      47.379  37.362  27.521  1.00  0.00     0.007 A 
ATOM     34  C   UNL A   1      49.028  37.591  25.761  1.00  0.00     0.007 A 
ATOM     35  C   UNL A   1      47.061  36.088  27.054  1.00  0.00     0.039 A 
ATOM     36  C   UNL A   1      48.701  36.320  25.291  1.00  0.00     0.039 A 
ATOM     37  C   UNL A   1      47.717  35.584  25.938  1.00  0.00     0.123 A 
ATOM     38  F   UNL A   1      47.396  34.367  25.478  1.00  0.00    -0.207 F 
ENDBRANCH  31  32
ENDBRANCH  21  31
ENDBRANCH  15  16
ENDBRANCH   8  10
ENDBRANCH   7   8
ENDBRANCH   6   7
ENDBRANCH   5   6
ENDBRANCH   4   5
ENDBRANCH   3   4
ENDBRANCH   2   3
ENDBRANCH   1   2
BRANCH   1  39
ATOM     39  C   UNL A   1      42.084  41.951  24.324  1.00  0.00     0.188 C 
BRANCH  39  40
ATOM     40  C   UNL A   1      41.620  40.909  25.363  1.00  0.00     0.188 C 
BRANCH  40  41
ATOM     41  O   UNL A   1      42.378  40.867  26.567  1.00  0.00    -0.376 OA
BRANCH  41  42
ATOM     42  C   UNL A   1      43.745  40.487  26.412  1.00  0.00     0.202 C 
BRANCH  42  43
ATOM     43  C   UNL A   1      44.066  39.033  26.784  1.00  0.00     0.261 C 
BRANCH  43  44
ATOM     44  O   UNL A   1      43.249  38.470  27.823  1.00  0.00    -0.460 OA
BRANCH  44  45
ATOM     45  C   UNL A   1      42.237  37.645  27.474  1.00  0.00     0.338 C 
ATOM     46  O   UNL A   1      41.467  37.786  26.540  1.00  0.00    -0.246 OA
BRANCH  45  47
ATOM     47  C   UNL A   1      42.394  36.400  28.268  1.00  0.00     0.060 A 
ATOM     48  C   UNL A   1      43.660  36.091  28.784  1.00  0.00     0.016 A 
ATOM     49  C   UNL A   1      41.284  35.622  28.620  1.00  0.00     0.016 A 
ATOM     50  C   UNL A   1      43.821  34.995  29.637  1.00  0.00     0.010 A 
ATOM     51  C   UNL A   1      41.449  34.518  29.460  1.00  0.00     0.010 A 
ATOM     52  C   UNL A   1      42.723  34.181  29.949  1.00  0.00    -0.014 A 
BRANCH  52  53
ATOM     53  C   UNL A   1      42.943  32.841  30.547  1.00  0.00     0.031 A 
ATOM     54  C   UNL A   1      42.737  32.711  32.032  1.00  0.00     0.074 A 
ATOM     55  C   UNL A   1      43.332  31.774  29.824  1.00  0.00     0.049 A 
ATOM     56  N   UNL A   1      42.877  31.667  32.804  1.00  0.00    -0.248 NA
ATOM     57  C   UNL A   1      42.321  33.935  32.743  1.00  0.00     0.031 C 
ATOM     58  C   UNL A   1      43.575  31.762  28.384  1.00  0.00     0.029 A 
ATOM     59  N   UNL A   1      43.614  30.489  30.224  1.00  0.00    -0.354 N 
ATOM     60  C   UNL A   1      42.585  32.110  34.088  1.00  0.00     0.074 A 
ATOM     61  C   UNL A   1      42.279  33.519  33.998  1.00  0.00     0.031 C 
ATOM     62  C   UNL A   1      43.996  30.535  28.024  1.00  0.00     0.029 A 
ATOM     63  C   UNL A   1      44.068  29.680  29.209  1.00  0.00     0.049 A 
ATOM     64  H   UNL A   1      43.500  30.177  31.151  1.00  0.00     0.167 HD
ATOM     65  C   UNL A   1      42.555  31.406  35.243  1.00  0.00     0.034 A 
ATOM     66  C   UNL A   1      44.506  28.403  29.241  1.00  0.00     0.034 A 
ATOM     67  C   UNL A   1      42.858  30.008  35.343  1.00  0.00     0.049 A 
ATOM     68  C   UNL A   1      44.498  27.647  30.550  1.00  0.00     0.074 A 
ATOM     69  C   UNL A   1      42.819  29.198  36.464  1.00  0.00     0.029 A 
ATOM     70  N   UNL A   1      43.275  29.214  34.287  1.00  0.00    -0.354 N 
ATOM     71  N   UNL A   1      44.086  28.042  31.731  1.00  0.00    -0.248 NA
ATOM     72  C   UNL A   1      44.986  26.259  30.523  1.00  0.00     0.031 C 
ATOM     73  C   UNL A   1      43.237  27.918  36.089  1.00  0.00     0.029 A 
ATOM     74  C   UNL A   1      43.507  27.925  34.730  1.00  0.00     0.049 A 
ATOM     75  H   UNL A   1      43.388  29.522  33.359  1.00  0.00     0.167 HD
ATOM     76  C   UNL A   1      44.227  26.942  32.574  1.00  0.00     0.074 A 
ATOM     77  C   UNL A   1      44.745  25.860  31.765  1.00  0.00     0.031 C 
ATOM     78  C   UNL A   1      43.963  26.840  33.901  1.00  0.00     0.034 A 
BRANCH  65  79
ATOM     79  C   UNL A   1      42.158  32.147  36.489  1.00  0.00     0.023 A 
ATOM     80  C   UNL A   1      43.139  32.839  37.228  1.00  0.00     0.012 A 
ATOM     81  C   UNL A   1      40.816  32.185  36.911  1.00  0.00     0.148 A 
ATOM     82  C   UNL A   1      42.795  33.533  38.387  1.00  0.00     0.002 A 
ATOM     83  C   UNL A   1      40.474  32.915  38.042  1.00  0.00     0.091 A 
ATOM     84  F   UNL A   1      39.905  31.493  36.211  1.00  0.00    -0.205 F 
ATOM     85  C   UNL A   1      41.463  33.580  38.787  1.00  0.00     0.022 A 
BRANCH  83  86
ATOM     86  S   UNL A   1      38.777  33.098  38.597  1.00  0.00     0.127 S 
ATOM     87  O   UNL A   1      38.133  31.950  37.960  1.00  0.00    -0.237 OA
ATOM     88  O   UNL A   1      38.916  32.991  40.050  1.00  0.00    -0.237 OA
ATOM     89  O   UNL A   1      38.337  34.404  38.123  1.00  0.00    -0.744 OA
ENDBRANCH  83  86
ENDBRANCH  65  79
BRANCH  66  90
ATOM     90  C   UNL A   1      44.959  27.727  27.990  1.00  0.00     0.023 A 
ATOM     91  C   UNL A   1      46.236  28.016  27.467  1.00  0.00     0.012 A 
ATOM     92  C   UNL A   1      44.131  26.816  27.306  1.00  0.00     0.148 A 
ATOM     93  C   UNL A   1      46.665  27.437  26.271  1.00  0.00     0.002 A 
ATOM     94  C   UNL A   1      44.585  26.202  26.144  1.00  0.00     0.091 A 
ATOM     95  F   UNL A   1      42.911  26.571  27.805  1.00  0.00    -0.205 F 
ATOM     96  C   UNL A   1      45.845  26.525  25.615  1.00  0.00     0.022 A 
BRANCH  94  97
ATOM     97  S   UNL A   1      43.650  24.925  25.296  1.00  0.00     0.127 S 
ATOM     98  O   UNL A   1      42.609  25.707  24.632  1.00  0.00    -0.237 OA
ATOM     99  O   UNL A   1      44.660  24.357  24.403  1.00  0.00    -0.237 OA
ATOM    100  O   UNL A   1      43.191  24.018  26.339  1.00  0.00    -0.744 OA
ENDBRANCH  94  97
ENDBRANCH  66  90
BRANCH  78 101
ATOM    101  C   UNL A   1      44.180  25.505  34.568  1.00  0.00     0.023 A 
ATOM    102  C   UNL A   1      43.156  24.538  34.555  1.00  0.00     0.012 A 
ATOM    103  C   UNL A   1      45.433  25.176  35.122  1.00  0.00     0.148 A 
ATOM    104  C   UNL A   1      43.366  23.275  35.108  1.00  0.00     0.002 A 
ATOM    105  C   UNL A   1      45.652  23.899  35.627  1.00  0.00     0.091 A 
ATOM    106  F   UNL A   1      46.391  26.114  35.139  1.00  0.00    -0.205 F 
ATOM    107  C   UNL A   1      44.617  22.952  35.632  1.00  0.00     0.022 A 
BRANCH 105 108
ATOM    108  S   UNL A   1      47.259  23.365  36.229  1.00  0.00     0.127 S 
ATOM    109  O   UNL A   1      47.368  24.106  37.485  1.00  0.00    -0.237 OA
ATOM    110  O   UNL A   1      47.068  21.923  36.386  1.00  0.00    -0.237 OA
ATOM    111  O   UNL A   1      48.218  23.738  35.198  1.00  0.00    -0.744 OA
ENDBRANCH 105 108
ENDBRANCH  78 101
ENDBRANCH  52  53
ENDBRANCH  45  47
ENDBRANCH  44  45
ENDBRANCH  43  44
ENDBRANCH  42  43
ENDBRANCH  41  42
ENDBRANCH  40  41
ENDBRANCH  39  40
ENDBRANCH   1  39
TORSDOF 28
ENDMDL
MODEL 3
REMARK VINA RESULT:      -7.0      7.390     10.776
REMARK SMILES O=C(OCCOCCOCCOCCOC(=O)c1ccc(-c2c3nc(c(-c4cccc(S(=O)(=O)[O-])c4F)c4ccc([nH]4)c(-c4cccc(S(=O)(=O)[O-])c4F)c4nc(c(-c5cccc(S(=O)(=O)[O-])c5F)c5ccc2[nH]5)C=C4)C=C3)cc1)c1ccc(/[NH+]=C2\S[C@@H](Cc3ccc(F)cc3)C(=O)N2Cc2ccccc2)cc1
REMARK SMILES IDX 9 1 8 2 7 3 6 4 5 5 4 6 3 7 2 8 1 9 81 10 82 11 108 12 83 13
REMARK SMILES IDX 107 14 84 15 85 16 86 17 87 19 99 20 88 21 97 22 98 23
REMARK SMILES IDX 100 24 101 25 102 26 106 27 103 28 105 29 104 30 89 31 90 32
REMARK SMILES IDX 91 33 96 34 92 35 95 36 93 37 94 38 10 39 11 40 12 41 13 42
REMARK SMILES IDX 14 43 15 44 16 45 17 46 18 47 19 48 80 49 20 50 79 51 21 52
REMARK SMILES IDX 22 53 23 54 73 55 24 56 78 57 72 58 74 59 25 60 77 61 71 62
REMARK SMILES IDX 70 63 26 65 58 66 38 67 57 68 39 69 42 70 56 71 75 72 40 73
REMARK SMILES IDX 41 74 55 76 76 77 43 78 27 79 28 80 36 81 29 82 31 83 37 84
REMARK SMILES IDX 30 85 32 86 33 87 34 88 35 89 59 90 60 91 68 92 61 93 63 94
REMARK SMILES IDX 69 95 62 96 64 97 65 98 66 99 67 100 44 101 45 102 53 103
REMARK SMILES IDX 46 104 48 105 54 106 47 107 49 108 50 109 51 110 52 111
REMARK H PARENT 85 18 74 64 42 75
REMARK Flexibility Score: inf
ROOT
ATOM      1  O   UNL A   1      36.006  30.804  28.318  1.00  0.00    -0.377 OA
ENDROOT
BRANCH   1   2
ATOM      2  C   UNL A   1      35.064  31.740  27.803  1.00  0.00     0.188 C 
BRANCH   2   3
ATOM      3  C   UNL A   1      34.408  32.647  28.844  1.00  0.00     0.188 C 
BRANCH   3   4
ATOM      4  O   UNL A   1      33.736  33.742  28.208  1.00  0.00    -0.376 OA
BRANCH   4   5
ATOM      5  C   UNL A   1      34.099  35.035  28.696  1.00  0.00     0.202 C 
BRANCH   5   6
ATOM      6  C   UNL A   1      32.934  35.836  29.278  1.00  0.00     0.261 C 
BRANCH   6   7
ATOM      7  O   UNL A   1      32.476  35.303  30.529  1.00  0.00    -0.460 OA
BRANCH   7   8
ATOM      8  C   UNL A   1      32.885  35.637  31.777  1.00  0.00     0.338 C 
ATOM      9  O   UNL A   1      32.352  36.597  32.333  1.00  0.00    -0.246 OA
BRANCH   8  10
ATOM     10  C   UNL A   1      33.929  34.895  32.551  1.00  0.00     0.060 A 
ATOM     11  C   UNL A   1      34.616  35.377  33.664  1.00  0.00     0.020 A 
ATOM     12  C   UNL A   1      34.167  33.561  32.165  1.00  0.00     0.020 A 
ATOM     13  C   UNL A   1      35.551  34.594  34.329  1.00  0.00     0.052 A 
ATOM     14  C   UNL A   1      35.109  32.767  32.830  1.00  0.00     0.052 A 
ATOM     15  C   UNL A   1      35.836  33.306  33.887  1.00  0.00     0.125 A 
BRANCH  15  16
ATOM     16  N   UNL A   1      36.931  32.656  34.466  1.00  0.00    -0.235 N 
ATOM     17  C   UNL A   1      38.096  32.932  33.980  1.00  0.00     0.320 C 
ATOM     18  H   UNL A   1      36.817  32.020  35.209  1.00  0.00     0.313 HD
ATOM     19  S   UNL A   1      38.423  33.801  32.497  1.00  0.00    -0.022 SA
ATOM     20  N   UNL A   1      39.264  32.601  34.607  1.00  0.00    -0.186 N 
ATOM     21  C   UNL A   1      40.127  33.214  32.459  1.00  0.00     0.178 C 
ATOM     22  C   UNL A   1      40.429  32.855  33.908  1.00  0.00     0.324 C 
ATOM     23  O   UNL A   1      41.560  32.725  34.365  1.00  0.00    -0.245 OA
BRANCH  20  24
ATOM     24  C   UNL A   1      39.291  32.123  35.982  1.00  0.00     0.283 C 
BRANCH  24  25
ATOM     25  C   UNL A   1      39.705  33.194  36.977  1.00  0.00    -0.006 A 
ATOM     26  C   UNL A   1      40.802  33.004  37.829  1.00  0.00     0.008 A 
ATOM     27  C   UNL A   1      38.997  34.403  37.061  1.00  0.00     0.008 A 
ATOM     28  C   UNL A   1      41.174  33.998  38.740  1.00  0.00     0.000 A 
ATOM     29  C   UNL A   1      39.386  35.407  37.950  1.00  0.00     0.000 A 
ATOM     30  C   UNL A   1      40.472  35.202  38.793  1.00  0.00     0.000 A 
ENDBRANCH  24  25
ENDBRANCH  20  24
BRANCH  21  31
ATOM     31  C   UNL A   1      41.022  34.280  31.839  1.00  0.00     0.063 C 
BRANCH  31  32
ATOM     32  C   UNL A   1      41.951  33.718  30.788  1.00  0.00    -0.046 A 
ATOM     33  C   UNL A   1      42.823  34.571  30.100  1.00  0.00     0.007 A 
ATOM     34  C   UNL A   1      41.956  32.344  30.495  1.00  0.00     0.007 A 
ATOM     35  C   UNL A   1      43.715  34.055  29.162  1.00  0.00     0.039 A 
ATOM     36  C   UNL A   1      42.857  31.829  29.564  1.00  0.00     0.039 A 
ATOM     37  C   UNL A   1      43.731  32.689  28.910  1.00  0.00     0.123 A 
ATOM     38  F   UNL A   1      44.603  32.191  28.024  1.00  0.00    -0.207 F 
ENDBRANCH  31  32
ENDBRANCH  21  31
ENDBRANCH  15  16
ENDBRANCH   8  10
ENDBRANCH   7   8
ENDBRANCH   6   7
ENDBRANCH   5   6
ENDBRANCH   4   5
ENDBRANCH   3   4
ENDBRANCH   2   3
ENDBRANCH   1   2
BRANCH   1  39
ATOM     39  C   UNL A   1      36.939  31.297  29.272  1.00  0.00     0.188 C 
BRANCH  39  40
ATOM     40  C   UNL A   1      38.112  30.383  29.685  1.00  0.00     0.188 C 
BRANCH  40  41
ATOM     41  O   UNL A   1      38.838  29.797  28.610  1.00  0.00    -0.376 OA
BRANCH  41  42
ATOM     42  C   UNL A   1      38.737  28.378  28.511  1.00  0.00     0.202 C 
BRANCH  42  43
ATOM     43  C   UNL A   1      40.070  27.638  28.326  1.00  0.00     0.261 C 
BRANCH  43  44
ATOM     44  O   UNL A   1      41.181  28.463  27.940  1.00  0.00    -0.460 OA
BRANCH  44  45
ATOM     45  C   UNL A   1      41.676  28.336  26.689  1.00  0.00     0.338 C 
ATOM     46  O   UNL A   1      41.105  28.605  25.645  1.00  0.00    -0.246 OA
BRANCH  45  47
ATOM     47  C   UNL A   1      43.129  28.061  26.818  1.00  0.00     0.060 A 
ATOM     48  C   UNL A   1      43.988  29.130  27.112  1.00  0.00     0.016 A 
ATOM     49  C   UNL A   1      43.623  26.751  26.792  1.00  0.00     0.016 A 
ATOM     50  C   UNL A   1      45.343  28.892  27.362  1.00  0.00     0.010 A 
ATOM     51  C   UNL A   1      44.980  26.517  27.027  1.00  0.00     0.010 A 
ATOM     52  C   UNL A   1      45.852  27.588  27.284  1.00  0.00    -0.014 A 
BRANCH  52  53
ATOM     53  C   UNL A   1      47.317  27.373  27.194  1.00  0.00     0.031 A 
ATOM     54  C   UNL A   1      48.055  27.135  28.485  1.00  0.00     0.074 A 
ATOM     55  C   UNL A   1      47.990  27.403  26.029  1.00  0.00     0.049 A 
ATOM     56  N   UNL A   1      49.330  26.936  28.691  1.00  0.00    -0.248 NA
ATOM     57  C   UNL A   1      47.238  27.127  29.712  1.00  0.00     0.031 C 
ATOM     58  C   UNL A   1      47.403  27.632  24.712  1.00  0.00     0.029 A 
ATOM     59  N   UNL A   1      49.335  27.264  25.779  1.00  0.00    -0.354 N 
ATOM     60  C   UNL A   1      49.468  26.798  30.066  1.00  0.00     0.074 A 
ATOM     61  C   UNL A   1      48.155  26.954  30.649  1.00  0.00     0.031 C 
ATOM     62  C   UNL A   1      48.387  27.642  23.792  1.00  0.00     0.029 A 
ATOM     63  C   UNL A   1      49.675  27.440  24.458  1.00  0.00     0.049 A 
ATOM     64  H   UNL A   1      49.994  27.057  26.481  1.00  0.00     0.167 HD
ATOM     65  C   UNL A   1      50.585  26.547  30.786  1.00  0.00     0.034 A 
ATOM     66  C   UNL A   1      50.886  27.451  23.862  1.00  0.00     0.034 A 
ATOM     67  C   UNL A   1      51.893  26.391  30.217  1.00  0.00     0.049 A 
ATOM     68  C   UNL A   1      52.125  27.203  24.693  1.00  0.00     0.074 A 
ATOM     69  C   UNL A   1      53.081  26.097  30.862  1.00  0.00     0.029 A 
ATOM     70  N   UNL A   1      52.190  26.536  28.872  1.00  0.00    -0.354 N 
ATOM     71  N   UNL A   1      52.223  26.936  25.974  1.00  0.00    -0.248 NA
ATOM     72  C   UNL A   1      53.416  27.226  23.989  1.00  0.00     0.031 C 
ATOM     73  C   UNL A   1      54.102  26.088  29.908  1.00  0.00     0.029 A 
ATOM     74  C   UNL A   1      53.545  26.348  28.666  1.00  0.00     0.049 A 
ATOM     75  H   UNL A   1      51.534  26.741  28.167  1.00  0.00     0.167 HD
ATOM     76  C   UNL A   1      53.577  26.721  26.218  1.00  0.00     0.074 A 
ATOM     77  C   UNL A   1      54.259  26.870  24.950  1.00  0.00     0.031 C 
ATOM     78  C   UNL A   1      54.202  26.437  27.388  1.00  0.00     0.034 A 
BRANCH  65  79
ATOM     79  C   UNL A   1      50.427  26.403  32.274  1.00  0.00     0.023 A 
ATOM     80  C   UNL A   1      50.504  27.548  33.094  1.00  0.00     0.012 A 
ATOM     81  C   UNL A   1      50.171  25.148  32.856  1.00  0.00     0.148 A 
ATOM     82  C   UNL A   1      50.359  27.441  34.476  1.00  0.00     0.002 A 
ATOM     83  C   UNL A   1      49.985  25.056  34.230  1.00  0.00     0.091 A 
ATOM     84  F   UNL A   1      50.134  24.070  32.062  1.00  0.00    -0.205 F 
ATOM     85  C   UNL A   1      50.090  26.198  35.042  1.00  0.00     0.022 A 
BRANCH  83  86
ATOM     86  S   UNL A   1      49.561  23.514  35.046  1.00  0.00     0.127 S 
ATOM     87  O   UNL A   1      50.500  22.583  34.422  1.00  0.00    -0.237 OA
ATOM     88  O   UNL A   1      49.845  23.821  36.447  1.00  0.00    -0.237 OA
ATOM     89  O   UNL A   1      48.154  23.276  34.749  1.00  0.00    -0.744 OA
ENDBRANCH  83  86
ENDBRANCH  65  79
BRANCH  66  90
ATOM     90  C   UNL A   1      51.004  27.667  22.390  1.00  0.00     0.023 A 
ATOM     91  C   UNL A   1      50.684  26.617  21.506  1.00  0.00     0.012 A 
ATOM     92  C   UNL A   1      51.444  28.896  21.861  1.00  0.00     0.148 A 
ATOM     93  C   UNL A   1      50.833  26.775  20.127  1.00  0.00     0.002 A 
ATOM     94  C   UNL A   1      51.539  29.064  20.484  1.00  0.00     0.091 A 
ATOM     95  F   UNL A   1      51.765  29.876  22.717  1.00  0.00    -0.205 F 
ATOM     96  C   UNL A   1      51.251  27.999  19.616  1.00  0.00     0.022 A 
BRANCH  94  97
ATOM     97  S   UNL A   1      51.952  30.641  19.729  1.00  0.00     0.127 S 
ATOM     98  O   UNL A   1      52.022  30.286  18.314  1.00  0.00    -0.237 OA
ATOM     99  O   UNL A   1      50.802  31.463  20.104  1.00  0.00    -0.237 OA
ATOM    100  O   UNL A   1      53.209  31.050  20.341  1.00  0.00    -0.744 OA
ENDBRANCH  94  97
ENDBRANCH  66  90
BRANCH  78 101
ATOM    101  C   UNL A   1      55.694  26.220  27.363  1.00  0.00     0.023 A 
ATOM    102  C   UNL A   1      56.566  27.308  27.561  1.00  0.00     0.012 A 
ATOM    103  C   UNL A   1      56.226  24.920  27.241  1.00  0.00     0.148 A 
ATOM    104  C   UNL A   1      57.946  27.110  27.608  1.00  0.00     0.002 A 
ATOM    105  C   UNL A   1      57.600  24.724  27.339  1.00  0.00     0.091 A 
ATOM    106  F   UNL A   1      55.381  23.899  27.039  1.00  0.00    -0.205 F 
ATOM    107  C   UNL A   1      58.461  25.819  27.510  1.00  0.00     0.022 A 
BRANCH 105 108
ATOM    108  S   UNL A   1      58.341  23.088  27.324  1.00  0.00     0.127 S 
ATOM    109  O   UNL A   1      57.173  22.230  27.522  1.00  0.00    -0.237 OA
ATOM    110  O   UNL A   1      58.925  23.023  25.984  1.00  0.00    -0.237 OA
ATOM    111  O   UNL A   1      59.315  23.078  28.407  1.00  0.00    -0.744 OA
ENDBRANCH 105 108
ENDBRANCH  78 101
ENDBRANCH  52  53
ENDBRANCH  45  47
ENDBRANCH  44  45
ENDBRANCH  43  44
ENDBRANCH  42  43
ENDBRANCH  41  42
ENDBRANCH  40  41
ENDBRANCH  39  40
ENDBRANCH   1  39
TORSDOF 28
ENDMDL
