MODEL 1
REMARK VINA RESULT:      -9.0      0.000      0.000
REMARK SMILES CSCC[C@@H](C(=O)OCCOCCOCCOCCOC(=O)c1ccc(-c2c3nc(c(-c4cccc(S(=O)(=O)[O-])c4F)c4ccc([nH]4)c(-c4cccc(S(=O)(=O)[O-])c4F)c4nc(c(-c5cccc(S(=O)(=O)[O-])c5F)c5ccc2[nH]5)C=C4)C=C3)cc1)N1C(=O)/C(=C/c2ccccc2F)SC1=S
REMARK SMILES IDX 14 1 13 2 12 3 11 4 10 5 9 6 8 7 6 8 7 9 5 10 4 11 3 12 2 13
REMARK SMILES IDX 1 14 86 15 87 16 99 17 88 18 89 19 98 20 100 21 90 22 91 23
REMARK SMILES IDX 92 24 96 25 93 26 95 27 97 28 94 29 15 30 16 31 17 32 18 33
REMARK SMILES IDX 19 34 20 35 21 36 22 37 23 38 24 39 85 40 25 41 84 42 26 43
REMARK SMILES IDX 27 44 28 45 78 46 29 47 83 48 77 49 79 50 30 51 82 52 76 53
REMARK SMILES IDX 75 54 31 56 63 57 43 58 62 59 44 60 47 61 61 62 80 63 45 64
REMARK SMILES IDX 46 65 60 67 81 68 48 69 32 70 33 71 41 72 34 73 36 74 42 75
REMARK SMILES IDX 35 76 37 77 38 78 39 79 40 80 64 81 65 82 73 83 66 84 68 85
REMARK SMILES IDX 74 86 67 87 69 88 70 89 71 90 72 91 49 92 50 93 58 94 51 95
REMARK SMILES IDX 53 96 59 97 52 98 54 99 55 100 56 101 57 102
REMARK H PARENT 79 55 47 66
REMARK Flexibility Score: inf
ROOT
ATOM      1  O   UNL A   1      33.517  28.324  26.926  1.00  0.00    -0.377 OA
ENDROOT
BRANCH   1   2
ATOM      2  C   UNL A   1      33.956  28.123  25.603  1.00  0.00     0.188 C 
BRANCH   2   3
ATOM      3  C   UNL A   1      34.022  26.668  25.133  1.00  0.00     0.188 C 
BRANCH   3   4
ATOM      4  O   UNL A   1      33.766  25.620  26.044  1.00  0.00    -0.376 OA
BRANCH   4   5
ATOM      5  C   UNL A   1      34.572  24.455  26.110  1.00  0.00     0.202 C 
BRANCH   5   6
ATOM      6  C   UNL A   1      34.918  23.514  24.935  1.00  0.00     0.261 C 
BRANCH   6   7
ATOM      7  O   UNL A   1      34.567  22.123  25.015  1.00  0.00    -0.462 OA
BRANCH   7   8
ATOM      8  C   UNL A   1      33.646  21.800  25.947  1.00  0.00     0.329 C 
ATOM      9  O   UNL A   1      33.878  21.911  27.147  1.00  0.00    -0.250 OA
BRANCH   8  10
ATOM     10  C   UNL A   1      32.265  21.337  25.377  1.00  0.00     0.202 C 
BRANCH  10  11
ATOM     11  C   UNL A   1      32.153  19.944  24.719  1.00  0.00     0.048 C 
BRANCH  11  12
ATOM     12  C   UNL A   1      33.221  18.884  24.988  1.00  0.00     0.072 C 
BRANCH  12  13
ATOM     13  S   UNL A   1      32.528  17.263  25.406  1.00  0.00    -0.165 SA
ATOM     14  C   UNL A   1      34.032  16.264  25.376  1.00  0.00     0.085 C 
ENDBRANCH  12  13
ENDBRANCH  11  12
ENDBRANCH  10  11
BRANCH  10  15
ATOM     15  N   UNL A   1      31.757  22.509  24.566  1.00  0.00    -0.278 N 
ATOM     16  C   UNL A   1      31.086  23.486  25.304  1.00  0.00     0.266 C 
ATOM     17  C   UNL A   1      31.842  22.786  23.212  1.00  0.00     0.149 C 
ATOM     18  O   UNL A   1      30.633  23.353  26.433  1.00  0.00    -0.268 OA
ATOM     19  C   UNL A   1      30.886  24.717  24.507  1.00  0.00     0.081 C 
ATOM     20  S   UNL A   1      31.404  24.469  22.901  1.00  0.00    -0.054 SA
ATOM     21  S   UNL A   1      32.210  21.830  21.895  1.00  0.00    -0.052 S 
ATOM     22  C   UNL A   1      30.319  25.811  25.032  1.00  0.00     0.032 C 
BRANCH  22  23
ATOM     23  C   UNL A   1      29.845  26.961  24.256  1.00  0.00     0.012 A 
ATOM     24  C   UNL A   1      30.689  28.029  23.944  1.00  0.00     0.011 A 
ATOM     25  C   UNL A   1      28.497  27.028  23.875  1.00  0.00     0.130 A 
ATOM     26  C   UNL A   1      30.183  29.141  23.259  1.00  0.00     0.001 A 
ATOM     27  C   UNL A   1      27.993  28.127  23.192  1.00  0.00     0.040 A 
ATOM     28  F   UNL A   1      27.656  26.029  24.186  1.00  0.00    -0.206 F 
ATOM     29  C   UNL A   1      28.837  29.190  22.885  1.00  0.00     0.003 A 
ENDBRANCH  22  23
ENDBRANCH  10  15
ENDBRANCH   8  10
ENDBRANCH   7   8
ENDBRANCH   6   7
ENDBRANCH   5   6
ENDBRANCH   4   5
ENDBRANCH   3   4
ENDBRANCH   2   3
ENDBRANCH   1   2
BRANCH   1  30
ATOM     30  C   UNL A   1      32.450  29.232  27.147  1.00  0.00     0.188 C 
BRANCH  30  31
ATOM     31  C   UNL A   1      32.703  30.746  27.019  1.00  0.00     0.188 C 
BRANCH  31  32
ATOM     32  O   UNL A   1      33.627  31.283  27.957  1.00  0.00    -0.376 OA
BRANCH  32  33
ATOM     33  C   UNL A   1      34.313  32.485  27.637  1.00  0.00     0.202 C 
BRANCH  33  34
ATOM     34  C   UNL A   1      33.533  33.809  27.707  1.00  0.00     0.261 C 
BRANCH  34  35
ATOM     35  O   UNL A   1      32.766  34.038  28.897  1.00  0.00    -0.460 OA
BRANCH  35  36
ATOM     36  C   UNL A   1      33.216  34.948  29.784  1.00  0.00     0.338 C 
ATOM     37  O   UNL A   1      32.720  36.032  30.046  1.00  0.00    -0.246 OA
BRANCH  36  38
ATOM     38  C   UNL A   1      34.312  34.316  30.543  1.00  0.00     0.060 A 
ATOM     39  C   UNL A   1      35.633  34.720  30.303  1.00  0.00     0.016 A 
ATOM     40  C   UNL A   1      34.030  33.349  31.510  1.00  0.00     0.016 A 
ATOM     41  C   UNL A   1      36.683  34.132  31.010  1.00  0.00     0.010 A 
ATOM     42  C   UNL A   1      35.082  32.744  32.197  1.00  0.00     0.010 A 
ATOM     43  C   UNL A   1      36.413  33.108  31.926  1.00  0.00    -0.014 A 
BRANCH  43  44
ATOM     44  C   UNL A   1      37.514  32.263  32.444  1.00  0.00     0.031 A 
ATOM     45  C   UNL A   1      38.136  32.647  33.756  1.00  0.00     0.074 A 
ATOM     46  C   UNL A   1      37.987  31.216  31.747  1.00  0.00     0.049 A 
ATOM     47  N   UNL A   1      39.186  32.151  34.354  1.00  0.00    -0.248 NA
ATOM     48  C   UNL A   1      37.489  33.751  34.486  1.00  0.00     0.031 C 
ATOM     49  C   UNL A   1      37.460  30.743  30.468  1.00  0.00     0.029 A 
ATOM     50  N   UNL A   1      39.054  30.391  32.001  1.00  0.00    -0.354 N 
ATOM     51  C   UNL A   1      39.356  32.914  35.503  1.00  0.00     0.074 A 
ATOM     52  C   UNL A   1      38.301  33.902  35.520  1.00  0.00     0.031 C 
ATOM     53  C   UNL A   1      38.240  29.744  30.022  1.00  0.00     0.029 A 
ATOM     54  C   UNL A   1      39.339  29.534  30.964  1.00  0.00     0.049 A 
ATOM     55  H   UNL A   1      39.566  30.411  32.842  1.00  0.00     0.167 HD
ATOM     56  C   UNL A   1      40.307  32.801  36.459  1.00  0.00     0.034 A 
ATOM     57  C   UNL A   1      40.393  28.713  30.776  1.00  0.00     0.034 A 
ATOM     58  C   UNL A   1      41.350  31.813  36.438  1.00  0.00     0.049 A 
ATOM     59  C   UNL A   1      41.459  28.621  31.838  1.00  0.00     0.074 A 
ATOM     60  C   UNL A   1      42.325  31.574  37.389  1.00  0.00     0.029 A 
ATOM     61  N   UNL A   1      41.573  30.923  35.399  1.00  0.00    -0.354 N 
ATOM     62  N   UNL A   1      41.545  29.263  32.978  1.00  0.00    -0.248 NA
ATOM     63  C   UNL A   1      42.559  27.673  31.602  1.00  0.00     0.031 C 
ATOM     64  C   UNL A   1      43.168  30.571  36.902  1.00  0.00     0.029 A 
ATOM     65  C   UNL A   1      42.686  30.148  35.673  1.00  0.00     0.049 A 
ATOM     66  H   UNL A   1      41.022  30.853  34.587  1.00  0.00     0.167 HD
ATOM     67  C   UNL A   1      42.683  28.772  33.611  1.00  0.00     0.074 A 
ATOM     68  C   UNL A   1      43.249  27.771  32.731  1.00  0.00     0.031 C 
ATOM     69  C   UNL A   1      43.212  29.120  34.809  1.00  0.00     0.034 A 
BRANCH  56  70
ATOM     70  C   UNL A   1      40.269  33.785  37.597  1.00  0.00     0.023 A 
ATOM     71  C   UNL A   1      40.988  34.995  37.515  1.00  0.00     0.012 A 
ATOM     72  C   UNL A   1      39.496  33.518  38.745  1.00  0.00     0.148 A 
ATOM     73  C   UNL A   1      40.977  35.901  38.575  1.00  0.00     0.002 A 
ATOM     74  C   UNL A   1      39.447  34.449  39.773  1.00  0.00     0.091 A 
ATOM     75  F   UNL A   1      38.840  32.351  38.817  1.00  0.00    -0.205 F 
ATOM     76  C   UNL A   1      40.198  35.633  39.698  1.00  0.00     0.022 A 
BRANCH  74  77
ATOM     77  S   UNL A   1      38.408  34.232  41.222  1.00  0.00     0.127 S 
ATOM     78  O   UNL A   1      39.152  33.217  41.967  1.00  0.00    -0.237 OA
ATOM     79  O   UNL A   1      38.433  35.567  41.820  1.00  0.00    -0.237 OA
ATOM     80  O   UNL A   1      37.106  33.814  40.724  1.00  0.00    -0.744 OA
ENDBRANCH  74  77
ENDBRANCH  56  70
BRANCH  57  81
ATOM     81  C   UNL A   1      40.491  27.918  29.520  1.00  0.00     0.023 A 
ATOM     82  C   UNL A   1      39.675  26.785  29.339  1.00  0.00     0.012 A 
ATOM     83  C   UNL A   1      41.369  28.305  28.488  1.00  0.00     0.148 A 
ATOM     84  C   UNL A   1      39.748  26.038  28.163  1.00  0.00     0.002 A 
ATOM     85  C   UNL A   1      41.396  27.591  27.297  1.00  0.00     0.091 A 
ATOM     86  F   UNL A   1      42.146  29.379  28.688  1.00  0.00    -0.205 F 
ATOM     87  C   UNL A   1      40.599  26.447  27.139  1.00  0.00     0.022 A 
BRANCH  85  88
ATOM     88  S   UNL A   1      42.357  28.118  25.876  1.00  0.00     0.127 S 
ATOM     89  O   UNL A   1      42.257  26.953  24.999  1.00  0.00    -0.237 OA
ATOM     90  O   UNL A   1      41.606  29.292  25.431  1.00  0.00    -0.237 OA
ATOM     91  O   UNL A   1      43.690  28.407  26.384  1.00  0.00    -0.744 OA
ENDBRANCH  85  88
ENDBRANCH  57  81
BRANCH  69  92
ATOM     92  C   UNL A   1      44.437  28.386  35.289  1.00  0.00     0.023 A 
ATOM     93  C   UNL A   1      45.720  28.919  35.062  1.00  0.00     0.012 A 
ATOM     94  C   UNL A   1      44.300  27.221  36.072  1.00  0.00     0.148 A 
ATOM     95  C   UNL A   1      46.849  28.292  35.590  1.00  0.00     0.002 A 
ATOM     96  C   UNL A   1      45.423  26.633  36.639  1.00  0.00     0.091 A 
ATOM     97  F   UNL A   1      43.070  26.723  36.263  1.00  0.00    -0.205 F 
ATOM     98  C   UNL A   1      46.700  27.161  36.389  1.00  0.00     0.022 A 
BRANCH  96  99
ATOM     99  S   UNL A   1      45.320  25.238  37.765  1.00  0.00     0.127 S 
ATOM    100  O   UNL A   1      46.494  24.456  37.379  1.00  0.00    -0.237 OA
ATOM    101  O   UNL A   1      45.421  25.888  39.071  1.00  0.00    -0.237 OA
ATOM    102  O   UNL A   1      44.038  24.598  37.501  1.00  0.00    -0.744 OA
ENDBRANCH  96  99
ENDBRANCH  69  92
ENDBRANCH  43  44
ENDBRANCH  36  38
ENDBRANCH  35  36
ENDBRANCH  34  35
ENDBRANCH  33  34
ENDBRANCH  32  33
ENDBRANCH  31  32
ENDBRANCH  30  31
ENDBRANCH   1  30
TORSDOF 28
ENDMDL
MODEL 2
REMARK VINA RESULT:      -8.4      3.506      4.799
REMARK SMILES CSCC[C@@H](C(=O)OCCOCCOCCOCCOC(=O)c1ccc(-c2c3nc(c(-c4cccc(S(=O)(=O)[O-])c4F)c4ccc([nH]4)c(-c4cccc(S(=O)(=O)[O-])c4F)c4nc(c(-c5cccc(S(=O)(=O)[O-])c5F)c5ccc2[nH]5)C=C4)C=C3)cc1)N1C(=O)/C(=C/c2ccccc2F)SC1=S
REMARK SMILES IDX 14 1 13 2 12 3 11 4 10 5 9 6 8 7 6 8 7 9 5 10 4 11 3 12 2 13
REMARK SMILES IDX 1 14 86 15 87 16 99 17 88 18 89 19 98 20 100 21 90 22 91 23
REMARK SMILES IDX 92 24 96 25 93 26 95 27 97 28 94 29 15 30 16 31 17 32 18 33
REMARK SMILES IDX 19 34 20 35 21 36 22 37 23 38 24 39 85 40 25 41 84 42 26 43
REMARK SMILES IDX 27 44 28 45 78 46 29 47 83 48 77 49 79 50 30 51 82 52 76 53
REMARK SMILES IDX 75 54 31 56 63 57 43 58 62 59 44 60 47 61 61 62 80 63 45 64
REMARK SMILES IDX 46 65 60 67 81 68 48 69 32 70 33 71 41 72 34 73 36 74 42 75
REMARK SMILES IDX 35 76 37 77 38 78 39 79 40 80 64 81 65 82 73 83 66 84 68 85
REMARK SMILES IDX 74 86 67 87 69 88 70 89 71 90 72 91 49 92 50 93 58 94 51 95
REMARK SMILES IDX 53 96 59 97 52 98 54 99 55 100 56 101 57 102
REMARK H PARENT 79 55 47 66
REMARK Flexibility Score: inf
ROOT
ATOM      1  O   UNL A   1      34.208  28.622  26.526  1.00  0.00    -0.377 OA
ENDROOT
BRANCH   1   2
ATOM      2  C   UNL A   1      34.027  28.468  25.138  1.00  0.00     0.188 C 
BRANCH   2   3
ATOM      3  C   UNL A   1      33.773  27.040  24.650  1.00  0.00     0.188 C 
BRANCH   3   4
ATOM      4  O   UNL A   1      33.879  25.957  25.550  1.00  0.00    -0.376 OA
BRANCH   4   5
ATOM      5  C   UNL A   1      34.891  24.970  25.437  1.00  0.00     0.202 C 
BRANCH   5   6
ATOM      6  C   UNL A   1      34.852  23.718  24.531  1.00  0.00     0.261 C 
BRANCH   6   7
ATOM      7  O   UNL A   1      34.574  22.434  25.112  1.00  0.00    -0.462 OA
BRANCH   7   8
ATOM      8  C   UNL A   1      33.678  22.424  26.120  1.00  0.00     0.329 C 
ATOM      9  O   UNL A   1      33.966  22.833  27.241  1.00  0.00    -0.250 OA
BRANCH   8  10
ATOM     10  C   UNL A   1      32.252  21.912  25.732  1.00  0.00     0.202 C 
BRANCH  10  11
ATOM     11  C   UNL A   1      32.076  20.441  25.294  1.00  0.00     0.048 C 
BRANCH  11  12
ATOM     12  C   UNL A   1      33.303  19.587  24.973  1.00  0.00     0.072 C 
BRANCH  12  13
ATOM     13  S   UNL A   1      32.963  18.271  23.775  1.00  0.00    -0.165 SA
ATOM     14  C   UNL A   1      34.390  17.206  24.070  1.00  0.00     0.085 C 
ENDBRANCH  12  13
ENDBRANCH  11  12
ENDBRANCH  10  11
BRANCH  10  15
ATOM     15  N   UNL A   1      31.692  22.965  24.800  1.00  0.00    -0.278 N 
ATOM     16  C   UNL A   1      31.005  24.002  25.433  1.00  0.00     0.266 C 
ATOM     17  C   UNL A   1      31.743  23.082  23.421  1.00  0.00     0.149 C 
ATOM     18  O   UNL A   1      30.576  23.990  26.580  1.00  0.00    -0.268 OA
ATOM     19  C   UNL A   1      30.751  25.124  24.501  1.00  0.00     0.081 C 
ATOM     20  S   UNL A   1      31.247  24.703  22.925  1.00  0.00    -0.054 SA
ATOM     21  S   UNL A   1      32.117  21.989  22.217  1.00  0.00    -0.052 S 
ATOM     22  C   UNL A   1      30.159  26.256  24.907  1.00  0.00     0.032 C 
BRANCH  22  23
ATOM     23  C   UNL A   1      29.635  27.291  24.011  1.00  0.00     0.012 A 
ATOM     24  C   UNL A   1      30.467  28.268  23.459  1.00  0.00     0.011 A 
ATOM     25  C   UNL A   1      28.258  27.350  23.756  1.00  0.00     0.130 A 
ATOM     26  C   UNL A   1      29.919  29.282  22.663  1.00  0.00     0.001 A 
ATOM     27  C   UNL A   1      27.711  28.350  22.963  1.00  0.00     0.040 A 
ATOM     28  F   UNL A   1      27.431  26.441  24.296  1.00  0.00    -0.206 F 
ATOM     29  C   UNL A   1      28.543  29.323  22.416  1.00  0.00     0.003 A 
ENDBRANCH  22  23
ENDBRANCH  10  15
ENDBRANCH   8  10
ENDBRANCH   7   8
ENDBRANCH   6   7
ENDBRANCH   5   6
ENDBRANCH   4   5
ENDBRANCH   3   4
ENDBRANCH   2   3
ENDBRANCH   1   2
BRANCH   1  30
ATOM     30  C   UNL A   1      33.255  29.385  27.246  1.00  0.00     0.188 C 
BRANCH  30  31
ATOM     31  C   UNL A   1      33.312  30.923  27.186  1.00  0.00     0.188 C 
BRANCH  31  32
ATOM     32  O   UNL A   1      34.542  31.496  27.613  1.00  0.00    -0.376 OA
BRANCH  32  33
ATOM     33  C   UNL A   1      34.514  32.654  28.434  1.00  0.00     0.202 C 
BRANCH  33  34
ATOM     34  C   UNL A   1      34.606  32.469  29.957  1.00  0.00     0.261 C 
BRANCH  34  35
ATOM     35  O   UNL A   1      35.836  31.935  30.464  1.00  0.00    -0.460 OA
BRANCH  35  36
ATOM     36  C   UNL A   1      36.059  31.991  31.793  1.00  0.00     0.338 C 
ATOM     37  O   UNL A   1      35.273  32.333  32.660  1.00  0.00    -0.246 OA
BRANCH  36  38
ATOM     38  C   UNL A   1      37.371  31.362  32.043  1.00  0.00     0.060 A 
ATOM     39  C   UNL A   1      38.534  32.000  31.588  1.00  0.00     0.016 A 
ATOM     40  C   UNL A   1      37.451  30.162  32.751  1.00  0.00     0.016 A 
ATOM     41  C   UNL A   1      39.783  31.421  31.814  1.00  0.00     0.010 A 
ATOM     42  C   UNL A   1      38.698  29.571  32.954  1.00  0.00     0.010 A 
ATOM     43  C   UNL A   1      39.864  30.179  32.457  1.00  0.00    -0.014 A 
BRANCH  43  44
ATOM     44  C   UNL A   1      41.127  29.406  32.423  1.00  0.00     0.031 A 
ATOM     45  C   UNL A   1      42.110  29.618  33.540  1.00  0.00     0.074 A 
ATOM     46  C   UNL A   1      41.420  28.578  31.407  1.00  0.00     0.049 A 
ATOM     47  N   UNL A   1      43.326  29.163  33.673  1.00  0.00    -0.248 NA
ATOM     48  C   UNL A   1      41.658  30.473  34.652  1.00  0.00     0.031 C 
ATOM     49  C   UNL A   1      40.544  28.285  30.275  1.00  0.00     0.029 A 
ATOM     50  N   UNL A   1      42.566  27.868  31.144  1.00  0.00    -0.354 N 
ATOM     51  C   UNL A   1      43.804  29.715  34.856  1.00  0.00     0.074 A 
ATOM     52  C   UNL A   1      42.747  30.535  35.402  1.00  0.00     0.031 C 
ATOM     53  C   UNL A   1      41.205  27.497  29.409  1.00  0.00     0.029 A 
ATOM     54  C   UNL A   1      42.559  27.263  29.909  1.00  0.00     0.049 A 
ATOM     55  H   UNL A   1      43.317  27.799  31.776  1.00  0.00     0.167 HD
ATOM     56  C   UNL A   1      45.017  29.553  35.434  1.00  0.00     0.034 A 
ATOM     57  C   UNL A   1      43.550  26.638  29.240  1.00  0.00     0.034 A 
ATOM     58  C   UNL A   1      46.061  28.733  34.887  1.00  0.00     0.049 A 
ATOM     59  C   UNL A   1      44.903  26.491  29.887  1.00  0.00     0.074 A 
ATOM     60  C   UNL A   1      47.303  28.451  35.426  1.00  0.00     0.029 A 
ATOM     61  N   UNL A   1      45.998  28.088  33.661  1.00  0.00    -0.354 N 
ATOM     62  N   UNL A   1      45.307  26.917  31.060  1.00  0.00    -0.248 NA
ATOM     63  C   UNL A   1      45.931  25.757  29.132  1.00  0.00     0.031 C 
ATOM     64  C   UNL A   1      48.011  27.677  34.503  1.00  0.00     0.029 A 
ATOM     65  C   UNL A   1      47.190  27.429  33.414  1.00  0.00     0.049 A 
ATOM     66  H   UNL A   1      45.222  28.097  33.057  1.00  0.00     0.167 HD
ATOM     67  C   UNL A   1      46.618  26.471  31.200  1.00  0.00     0.074 A 
ATOM     68  C   UNL A   1      46.938  25.734  29.995  1.00  0.00     0.031 C 
ATOM     69  C   UNL A   1      47.478  26.658  32.231  1.00  0.00     0.034 A 
BRANCH  56  70
ATOM     70  C   UNL A   1      45.280  30.295  36.716  1.00  0.00     0.023 A 
ATOM     71  C   UNL A   1      45.003  29.688  37.958  1.00  0.00     0.012 A 
ATOM     72  C   UNL A   1      45.826  31.594  36.690  1.00  0.00     0.148 A 
ATOM     73  C   UNL A   1      45.223  30.377  39.150  1.00  0.00     0.002 A 
ATOM     74  C   UNL A   1      46.092  32.253  37.882  1.00  0.00     0.091 A 
ATOM     75  F   UNL A   1      46.058  32.166  35.499  1.00  0.00    -0.205 F 
ATOM     76  C   UNL A   1      45.777  31.654  39.113  1.00  0.00     0.022 A 
BRANCH  74  77
ATOM     77  S   UNL A   1      46.881  33.865  37.937  1.00  0.00     0.127 S 
ATOM     78  O   UNL A   1      46.960  34.105  39.378  1.00  0.00    -0.237 OA
ATOM     79  O   UNL A   1      48.167  33.599  37.293  1.00  0.00    -0.237 OA
ATOM     80  O   UNL A   1      46.006  34.766  37.201  1.00  0.00    -0.744 OA
ENDBRANCH  74  77
ENDBRANCH  56  70
BRANCH  57  81
ATOM     81  C   UNL A   1      43.294  26.109  27.870  1.00  0.00     0.023 A 
ATOM     82  C   UNL A   1      43.496  26.936  26.749  1.00  0.00     0.012 A 
ATOM     83  C   UNL A   1      42.883  24.775  27.678  1.00  0.00     0.148 A 
ATOM     84  C   UNL A   1      43.271  26.450  25.460  1.00  0.00     0.002 A 
ATOM     85  C   UNL A   1      42.717  24.282  26.390  1.00  0.00     0.091 A 
ATOM     86  F   UNL A   1      42.685  24.011  28.761  1.00  0.00    -0.205 F 
ATOM     87  C   UNL A   1      42.893  25.122  25.280  1.00  0.00     0.022 A 
BRANCH  85  88
ATOM     88  S   UNL A   1      42.363  22.553  26.056  1.00  0.00     0.127 S 
ATOM     89  O   UNL A   1      40.912  22.508  26.220  1.00  0.00    -0.237 OA
ATOM     90  O   UNL A   1      42.834  22.417  24.677  1.00  0.00    -0.237 OA
ATOM     91  O   UNL A   1      43.129  21.796  27.036  1.00  0.00    -0.744 OA
ENDBRANCH  85  88
ENDBRANCH  57  81
BRANCH  69  92
ATOM     92  C   UNL A   1      48.839  26.015  32.149  1.00  0.00     0.023 A 
ATOM     93  C   UNL A   1      49.878  26.638  31.432  1.00  0.00     0.012 A 
ATOM     94  C   UNL A   1      49.113  24.847  32.890  1.00  0.00     0.148 A 
ATOM     95  C   UNL A   1      51.163  26.096  31.437  1.00  0.00     0.002 A 
ATOM     96  C   UNL A   1      50.406  24.344  32.934  1.00  0.00     0.091 A 
ATOM     97  F   UNL A   1      48.105  24.262  33.554  1.00  0.00    -0.205 F 
ATOM     98  C   UNL A   1      51.431  24.960  32.198  1.00  0.00     0.022 A 
BRANCH  96  99
ATOM     99  S   UNL A   1      50.867  22.949  33.968  1.00  0.00     0.127 S 
ATOM    100  O   UNL A   1      50.397  21.817  33.170  1.00  0.00    -0.237 OA
ATOM    101  O   UNL A   1      52.321  23.085  34.038  1.00  0.00    -0.237 OA
ATOM    102  O   UNL A   1      50.176  23.139  35.236  1.00  0.00    -0.744 OA
ENDBRANCH  96  99
ENDBRANCH  69  92
ENDBRANCH  43  44
ENDBRANCH  36  38
ENDBRANCH  35  36
ENDBRANCH  34  35
ENDBRANCH  33  34
ENDBRANCH  32  33
ENDBRANCH  31  32
ENDBRANCH  30  31
ENDBRANCH   1  30
TORSDOF 28
ENDMDL
MODEL 3
REMARK VINA RESULT:      -8.2      4.908      8.674
REMARK SMILES CSCC[C@@H](C(=O)OCCOCCOCCOCCOC(=O)c1ccc(-c2c3nc(c(-c4cccc(S(=O)(=O)[O-])c4F)c4ccc([nH]4)c(-c4cccc(S(=O)(=O)[O-])c4F)c4nc(c(-c5cccc(S(=O)(=O)[O-])c5F)c5ccc2[nH]5)C=C4)C=C3)cc1)N1C(=O)/C(=C/c2ccccc2F)SC1=S
REMARK SMILES IDX 14 1 13 2 12 3 11 4 10 5 9 6 8 7 6 8 7 9 5 10 4 11 3 12 2 13
REMARK SMILES IDX 1 14 86 15 87 16 99 17 88 18 89 19 98 20 100 21 90 22 91 23
REMARK SMILES IDX 92 24 96 25 93 26 95 27 97 28 94 29 15 30 16 31 17 32 18 33
REMARK SMILES IDX 19 34 20 35 21 36 22 37 23 38 24 39 85 40 25 41 84 42 26 43
REMARK SMILES IDX 27 44 28 45 78 46 29 47 83 48 77 49 79 50 30 51 82 52 76 53
REMARK SMILES IDX 75 54 31 56 63 57 43 58 62 59 44 60 47 61 61 62 80 63 45 64
REMARK SMILES IDX 46 65 60 67 81 68 48 69 32 70 33 71 41 72 34 73 36 74 42 75
REMARK SMILES IDX 35 76 37 77 38 78 39 79 40 80 64 81 65 82 73 83 66 84 68 85
REMARK SMILES IDX 74 86 67 87 69 88 70 89 71 90 72 91 49 92 50 93 58 94 51 95
REMARK SMILES IDX 53 96 59 97 52 98 54 99 55 100 56 101 57 102
REMARK H PARENT 79 55 47 66
REMARK Flexibility Score: inf
ROOT
ATOM      1  O   UNL A   1      34.022  27.405  26.305  1.00  0.00    -0.377 OA
ENDROOT
BRANCH   1   2
ATOM      2  C   UNL A   1      33.980  26.718  25.076  1.00  0.00     0.188 C 
BRANCH   2   3
ATOM      3  C   UNL A   1      34.337  25.231  25.127  1.00  0.00     0.188 C 
BRANCH   3   4
ATOM      4  O   UNL A   1      35.665  24.832  25.395  1.00  0.00    -0.376 OA
BRANCH   4   5
ATOM      5  C   UNL A   1      36.123  23.509  25.171  1.00  0.00     0.202 C 
BRANCH   5   6
ATOM      6  C   UNL A   1      35.264  22.310  24.709  1.00  0.00     0.261 C 
BRANCH   6   7
ATOM      7  O   UNL A   1      34.644  21.464  25.691  1.00  0.00    -0.462 OA
BRANCH   7   8
ATOM      8  C   UNL A   1      33.492  21.922  26.222  1.00  0.00     0.329 C 
ATOM      9  O   UNL A   1      33.485  22.716  27.158  1.00  0.00    -0.250 OA
BRANCH   8  10
ATOM     10  C   UNL A   1      32.192  21.411  25.518  1.00  0.00     0.202 C 
BRANCH  10  11
ATOM     11  C   UNL A   1      32.197  20.019  24.850  1.00  0.00     0.048 C 
BRANCH  11  12
ATOM     12  C   UNL A   1      32.695  18.801  25.628  1.00  0.00     0.072 C 
BRANCH  12  13
ATOM     13  S   UNL A   1      32.894  17.326  24.594  1.00  0.00    -0.165 SA
ATOM     14  C   UNL A   1      34.694  17.277  24.465  1.00  0.00     0.085 C 
ENDBRANCH  12  13
ENDBRANCH  11  12
ENDBRANCH  10  11
BRANCH  10  15
ATOM     15  N   UNL A   1      31.723  22.569  24.662  1.00  0.00    -0.278 N 
ATOM     16  C   UNL A   1      30.936  23.509  25.329  1.00  0.00     0.266 C 
ATOM     17  C   UNL A   1      31.940  22.860  23.326  1.00  0.00     0.149 C 
ATOM     18  O   UNL A   1      30.371  23.348  26.403  1.00  0.00    -0.268 OA
ATOM     19  C   UNL A   1      30.769  24.738  24.520  1.00  0.00     0.081 C 
ATOM     20  S   UNL A   1      31.465  24.526  22.978  1.00  0.00    -0.054 SA
ATOM     21  S   UNL A   1      32.487  21.933  22.052  1.00  0.00    -0.052 S 
ATOM     22  C   UNL A   1      30.103  25.803  24.986  1.00  0.00     0.032 C 
BRANCH  22  23
ATOM     23  C   UNL A   1      29.665  26.938  24.169  1.00  0.00     0.012 A 
ATOM     24  C   UNL A   1      30.571  27.895  23.704  1.00  0.00     0.011 A 
ATOM     25  C   UNL A   1      28.300  27.111  23.903  1.00  0.00     0.130 A 
ATOM     26  C   UNL A   1      30.107  29.002  22.983  1.00  0.00     0.001 A 
ATOM     27  C   UNL A   1      27.836  28.205  23.184  1.00  0.00     0.040 A 
ATOM     28  F   UNL A   1      27.404  26.222  24.361  1.00  0.00    -0.206 F 
ATOM     29  C   UNL A   1      28.741  29.158  22.725  1.00  0.00     0.003 A 
ENDBRANCH  22  23
ENDBRANCH  10  15
ENDBRANCH   8  10
ENDBRANCH   7   8
ENDBRANCH   6   7
ENDBRANCH   5   6
ENDBRANCH   4   5
ENDBRANCH   3   4
ENDBRANCH   2   3
ENDBRANCH   1   2
BRANCH   1  30
ATOM     30  C   UNL A   1      32.833  28.025  26.767  1.00  0.00     0.188 C 
BRANCH  30  31
ATOM     31  C   UNL A   1      32.484  29.447  26.287  1.00  0.00     0.188 C 
BRANCH  31  32
ATOM     32  O   UNL A   1      33.507  30.415  26.482  1.00  0.00    -0.376 OA
BRANCH  32  33
ATOM     33  C   UNL A   1      33.276  31.489  27.382  1.00  0.00     0.202 C 
BRANCH  33  34
ATOM     34  C   UNL A   1      34.384  31.848  28.386  1.00  0.00     0.261 C 
BRANCH  34  35
ATOM     35  O   UNL A   1      35.691  32.079  27.841  1.00  0.00    -0.460 OA
BRANCH  35  36
ATOM     36  C   UNL A   1      36.697  31.268  28.225  1.00  0.00     0.338 C 
ATOM     37  O   UNL A   1      36.981  30.174  27.766  1.00  0.00    -0.246 OA
BRANCH  36  38
ATOM     38  C   UNL A   1      37.536  32.030  29.171  1.00  0.00     0.060 A 
ATOM     39  C   UNL A   1      37.468  33.431  29.171  1.00  0.00     0.016 A 
ATOM     40  C   UNL A   1      38.363  31.360  30.073  1.00  0.00     0.016 A 
ATOM     41  C   UNL A   1      38.255  34.169  30.057  1.00  0.00     0.010 A 
ATOM     42  C   UNL A   1      39.168  32.099  30.940  1.00  0.00     0.010 A 
ATOM     43  C   UNL A   1      39.143  33.505  30.912  1.00  0.00    -0.014 A 
BRANCH  43  44
ATOM     44  C   UNL A   1      40.200  34.262  31.620  1.00  0.00     0.031 A 
ATOM     45  C   UNL A   1      41.471  34.559  30.874  1.00  0.00     0.074 A 
ATOM     46  C   UNL A   1      40.063  34.631  32.905  1.00  0.00     0.049 A 
ATOM     47  N   UNL A   1      42.583  35.088  31.307  1.00  0.00    -0.248 NA
ATOM     48  C   UNL A   1      41.488  34.196  29.447  1.00  0.00     0.031 C 
ATOM     49  C   UNL A   1      38.876  34.407  33.727  1.00  0.00     0.029 A 
ATOM     50  N   UNL A   1      40.958  35.233  33.755  1.00  0.00    -0.354 N 
ATOM     51  C   UNL A   1      43.450  35.076  30.221  1.00  0.00     0.074 A 
ATOM     52  C   UNL A   1      42.734  34.489  29.110  1.00  0.00     0.031 C 
ATOM     53  C   UNL A   1      39.135  34.817  34.981  1.00  0.00     0.029 A 
ATOM     54  C   UNL A   1      40.515  35.297  35.055  1.00  0.00     0.049 A 
ATOM     55  H   UNL A   1      41.830  35.584  33.462  1.00  0.00     0.167 HD
ATOM     56  C   UNL A   1      44.729  35.513  30.155  1.00  0.00     0.034 A 
ATOM     57  C   UNL A   1      41.167  35.652  36.181  1.00  0.00     0.034 A 
ATOM     58  C   UNL A   1      45.432  36.098  31.262  1.00  0.00     0.049 A 
ATOM     59  C   UNL A   1      42.601  36.109  36.094  1.00  0.00     0.074 A 
ATOM     60  C   UNL A   1      46.708  36.631  31.284  1.00  0.00     0.029 A 
ATOM     61  N   UNL A   1      44.931  36.199  32.551  1.00  0.00    -0.354 N 
ATOM     62  N   UNL A   1      43.373  36.205  35.039  1.00  0.00    -0.248 NA
ATOM     63  C   UNL A   1      43.246  36.532  37.347  1.00  0.00     0.031 C 
ATOM     64  C   UNL A   1      46.998  37.008  32.598  1.00  0.00     0.029 A 
ATOM     65  C   UNL A   1      45.882  36.763  33.383  1.00  0.00     0.049 A 
ATOM     66  H   UNL A   1      44.033  35.913  32.833  1.00  0.00     0.167 HD
ATOM     67  C   UNL A   1      44.579  36.733  35.492  1.00  0.00     0.074 A 
ATOM     68  C   UNL A   1      44.431  36.945  36.917  1.00  0.00     0.031 C 
ATOM     69  C   UNL A   1      45.705  37.013  34.792  1.00  0.00     0.034 A 
BRANCH  56  70
ATOM     70  C   UNL A   1      45.451  35.355  28.844  1.00  0.00     0.023 A 
ATOM     71  C   UNL A   1      45.396  36.378  27.876  1.00  0.00     0.012 A 
ATOM     72  C   UNL A   1      46.207  34.195  28.582  1.00  0.00     0.148 A 
ATOM     73  C   UNL A   1      46.044  36.230  26.650  1.00  0.00     0.002 A 
ATOM     74  C   UNL A   1      46.893  34.079  27.381  1.00  0.00     0.091 A 
ATOM     75  F   UNL A   1      46.226  33.222  29.504  1.00  0.00    -0.205 F 
ATOM     76  C   UNL A   1      46.800  35.086  26.407  1.00  0.00     0.022 A 
BRANCH  74  77
ATOM     77  S   UNL A   1      47.959  32.682  27.011  1.00  0.00     0.127 S 
ATOM     78  O   UNL A   1      46.985  31.604  26.843  1.00  0.00    -0.237 OA
ATOM     79  O   UNL A   1      48.610  33.113  25.773  1.00  0.00    -0.237 OA
ATOM     80  O   UNL A   1      48.852  32.545  28.152  1.00  0.00    -0.744 OA
ENDBRANCH  74  77
ENDBRANCH  56  70
BRANCH  57  81
ATOM     81  C   UNL A   1      40.463  35.580  37.493  1.00  0.00     0.023 A 
ATOM     82  C   UNL A   1      39.909  36.744  38.058  1.00  0.00     0.012 A 
ATOM     83  C   UNL A   1      40.313  34.350  38.163  1.00  0.00     0.148 A 
ATOM     84  C   UNL A   1      39.237  36.689  39.280  1.00  0.00     0.002 A 
ATOM     85  C   UNL A   1      39.593  34.292  39.350  1.00  0.00     0.091 A 
ATOM     86  F   UNL A   1      40.860  33.258  37.612  1.00  0.00    -0.205 F 
ATOM     87  C   UNL A   1      39.070  35.463  39.920  1.00  0.00     0.022 A 
BRANCH  85  88
ATOM     88  S   UNL A   1      39.211  32.744  40.174  1.00  0.00     0.127 S 
ATOM     89  O   UNL A   1      38.510  32.011  39.122  1.00  0.00    -0.237 OA
ATOM     90  O   UNL A   1      40.548  32.240  40.491  1.00  0.00    -0.237 OA
ATOM     91  O   UNL A   1      38.406  33.100  41.333  1.00  0.00    -0.744 OA
ENDBRANCH  85  88
ENDBRANCH  57  81
BRANCH  69  92
ATOM     92  C   UNL A   1      46.864  37.636  35.526  1.00  0.00     0.023 A 
ATOM     93  C   UNL A   1      46.963  39.036  35.642  1.00  0.00     0.012 A 
ATOM     94  C   UNL A   1      47.793  36.819  36.203  1.00  0.00     0.148 A 
ATOM     95  C   UNL A   1      47.980  39.612  36.404  1.00  0.00     0.002 A 
ATOM     96  C   UNL A   1      48.769  37.397  37.003  1.00  0.00     0.091 A 
ATOM     97  F   UNL A   1      47.689  35.489  36.066  1.00  0.00    -0.205 F 
ATOM     98  C   UNL A   1      48.872  38.794  37.095  1.00  0.00     0.022 A 
BRANCH  96  99
ATOM     99  S   UNL A   1      49.895  36.425  38.010  1.00  0.00     0.127 S 
ATOM    100  O   UNL A   1      48.972  35.545  38.725  1.00  0.00    -0.237 OA
ATOM    101  O   UNL A   1      50.715  35.759  36.999  1.00  0.00    -0.237 OA
ATOM    102  O   UNL A   1      50.615  37.377  38.846  1.00  0.00    -0.744 OA
ENDBRANCH  96  99
ENDBRANCH  69  92
ENDBRANCH  43  44
ENDBRANCH  36  38
ENDBRANCH  35  36
ENDBRANCH  34  35
ENDBRANCH  33  34
ENDBRANCH  32  33
ENDBRANCH  31  32
ENDBRANCH  30  31
ENDBRANCH   1  30
TORSDOF 28
ENDMDL
