MODEL 1
REMARK VINA RESULT:      -9.1      0.000      0.000
REMARK SMILES COc1c[nH]c(C[N@H+]2CCC[C@@H](c3ccc(C(=O)OCCOCCOCCOCCOC(=O)c4ccc(-c5c6nc(c(-c7cccc(S(=O)(=O)[O-])c7F)c7ccc([nH]7)c(-c7cccc(S(=O)(=O)[O-])c7F)c7nc(c(-c8cccc(S(=O)(=O)[O-])c8F)c8ccc5[nH]8)C=C7)C=C6)cc4)cc3)C2)cc1=O
REMARK SMILES IDX 24 1 23 2 22 3 21 4 20 5 19 6 17 7 18 8 16 9 13 10 14 11
REMARK SMILES IDX 98 12 15 13 97 14 12 15 8 16 9 17 99 18 10 20 11 21 7 22
REMARK SMILES IDX 6 23 3 24 4 25 101 26 5 27 100 28 102 29 2 31 1 32 25 33
REMARK SMILES IDX 26 34 27 35 28 36 29 37 30 38 31 39 32 40 33 41 34 42 35 43
REMARK SMILES IDX 96 44 36 45 95 46 37 47 38 48 39 49 89 50 40 51 94 52 88 53
REMARK SMILES IDX 90 54 41 55 93 56 87 57 86 58 42 60 74 61 54 62 73 63 55 64
REMARK SMILES IDX 58 65 72 66 91 67 56 68 57 69 71 71 92 72 59 73 43 74 44 75
REMARK SMILES IDX 52 76 45 77 47 78 53 79 46 80 48 81 49 82 50 83 51 84 75 85
REMARK SMILES IDX 76 86 84 87 77 88 79 89 85 90 78 91 80 92 81 93 82 94 83 95
REMARK SMILES IDX 60 96 61 97 69 98 62 99 64 100 70 101 63 102 65 103 66 104
REMARK SMILES IDX 67 105 68 106
REMARK H PARENT 8 19 5 30 90 59 58 70
REMARK Flexibility Score: inf
ROOT
ATOM      1  C   UNL A   1      34.464  22.165  26.095  1.00  0.00     0.188 C 
ENDROOT
BRANCH   1   2
ATOM      2  C   UNL A   1      32.938  21.942  26.062  1.00  0.00     0.188 C 
BRANCH   2   3
ATOM      3  O   UNL A   1      32.243  22.819  25.196  1.00  0.00    -0.376 OA
BRANCH   3   4
ATOM      4  C   UNL A   1      32.060  22.475  23.836  1.00  0.00     0.202 C 
BRANCH   4   5
ATOM      5  C   UNL A   1      32.900  23.129  22.727  1.00  0.00     0.261 C 
BRANCH   5   6
ATOM      6  O   UNL A   1      33.724  24.231  23.117  1.00  0.00    -0.460 OA
BRANCH   6   7
ATOM      7  C   UNL A   1      33.497  25.411  22.507  1.00  0.00     0.338 C 
ATOM      8  O   UNL A   1      33.310  25.599  21.317  1.00  0.00    -0.246 OA
BRANCH   7   9
ATOM      9  C   UNL A   1      33.263  26.427  23.557  1.00  0.00     0.060 A 
ATOM     10  C   UNL A   1      32.701  28.315  25.554  1.00  0.00    -0.039 A 
ATOM     11  C   UNL A   1      31.905  27.164  25.411  1.00  0.00     0.005 A 
ATOM     12  C   UNL A   1      33.846  28.449  24.752  1.00  0.00     0.005 A 
ATOM     13  C   UNL A   1      32.162  26.245  24.398  1.00  0.00     0.016 A 
ATOM     14  C   UNL A   1      34.135  27.500  23.764  1.00  0.00     0.016 A 
BRANCH  10  15
ATOM     15  C   UNL A   1      32.223  29.488  26.405  1.00  0.00     0.074 C 
ATOM     16  N   UNL A   1      33.243  31.344  27.818  1.00  0.00    -0.329 N 
ATOM     17  C   UNL A   1      32.487  32.342  27.052  1.00  0.00     0.262 C 
ATOM     18  C   UNL A   1      33.480  30.134  27.029  1.00  0.00     0.270 C 
ATOM     19  H   UNL A   1      32.662  31.085  28.615  1.00  0.00     0.348 HD
ATOM     20  C   UNL A   1      31.172  31.765  26.515  1.00  0.00     0.062 C 
ATOM     21  C   UNL A   1      31.411  30.536  25.635  1.00  0.00     0.020 C 
BRANCH  16  22
ATOM     22  C   UNL A   1      34.500  31.888  28.383  1.00  0.00     0.317 C 
BRANCH  22  23
ATOM     23  C   UNL A   1      34.383  32.733  29.653  1.00  0.00     0.074 A 
ATOM     24  C   UNL A   1      34.528  34.196  32.107  1.00  0.00     0.182 A 
ATOM     25  C   UNL A   1      34.794  32.885  32.025  1.00  0.00     0.133 A 
ATOM     26  C   UNL A   1      34.038  34.851  30.841  1.00  0.00     0.223 A 
ATOM     27  N   UNL A   1      34.654  32.150  30.879  1.00  0.00    -0.357 N 
ATOM     28  C   UNL A   1      34.038  34.033  29.593  1.00  0.00     0.083 A 
ATOM     29  O   UNL A   1      33.670  36.023  30.793  1.00  0.00    -0.286 OA
ATOM     30  H   UNL A   1      34.750  31.172  30.928  1.00  0.00     0.166 HD
BRANCH  24  31
ATOM     31  O   UNL A   1      34.783  34.894  33.270  1.00  0.00    -0.491 OA
ATOM     32  C   UNL A   1      35.071  34.048  34.376  1.00  0.00     0.278 C 
ENDBRANCH  24  31
ENDBRANCH  22  23
ENDBRANCH  16  22
ENDBRANCH  10  15
ENDBRANCH   7   9
ENDBRANCH   6   7
ENDBRANCH   5   6
ENDBRANCH   4   5
ENDBRANCH   3   4
ENDBRANCH   2   3
ENDBRANCH   1   2
BRANCH   1  33
ATOM     33  O   UNL A   1      35.319  21.111  25.682  1.00  0.00    -0.377 OA
BRANCH  33  34
ATOM     34  C   UNL A   1      36.382  21.363  24.767  1.00  0.00     0.188 C 
BRANCH  34  35
ATOM     35  C   UNL A   1      37.618  20.437  24.667  1.00  0.00     0.188 C 
BRANCH  35  36
ATOM     36  O   UNL A   1      38.631  20.677  25.631  1.00  0.00    -0.376 OA
BRANCH  36  37
ATOM     37  C   UNL A   1      39.359  19.561  26.111  1.00  0.00     0.202 C 
BRANCH  37  38
ATOM     38  C   UNL A   1      40.852  19.504  25.762  1.00  0.00     0.261 C 
BRANCH  38  39
ATOM     39  O   UNL A   1      41.652  20.594  26.242  1.00  0.00    -0.460 OA
BRANCH  39  40
ATOM     40  C   UNL A   1      42.866  20.759  25.675  1.00  0.00     0.338 C 
ATOM     41  O   UNL A   1      43.415  20.003  24.886  1.00  0.00    -0.246 OA
BRANCH  40  42
ATOM     42  C   UNL A   1      43.347  22.112  26.014  1.00  0.00     0.060 A 
ATOM     43  C   UNL A   1      43.877  22.341  27.290  1.00  0.00     0.016 A 
ATOM     44  C   UNL A   1      43.282  23.148  25.078  1.00  0.00     0.016 A 
ATOM     45  C   UNL A   1      44.304  23.619  27.647  1.00  0.00     0.010 A 
ATOM     46  C   UNL A   1      43.695  24.432  25.444  1.00  0.00     0.010 A 
ATOM     47  C   UNL A   1      44.173  24.681  26.743  1.00  0.00    -0.014 A 
BRANCH  47  48
ATOM     48  C   UNL A   1      44.383  26.069  27.222  1.00  0.00     0.031 A 
ATOM     49  C   UNL A   1      45.763  26.664  27.140  1.00  0.00     0.074 A 
ATOM     50  C   UNL A   1      43.357  26.805  27.686  1.00  0.00     0.049 A 
ATOM     51  N   UNL A   1      46.166  27.867  27.455  1.00  0.00    -0.248 NA
ATOM     52  C   UNL A   1      46.831  25.786  26.634  1.00  0.00     0.031 C 
ATOM     53  C   UNL A   1      41.976  26.341  27.817  1.00  0.00     0.029 A 
ATOM     54  N   UNL A   1      43.325  28.097  28.147  1.00  0.00    -0.354 N 
ATOM     55  C   UNL A   1      47.534  27.885  27.210  1.00  0.00     0.074 A 
ATOM     56  C   UNL A   1      47.896  26.566  26.737  1.00  0.00     0.031 C 
ATOM     57  C   UNL A   1      41.233  27.331  28.341  1.00  0.00     0.029 A 
ATOM     58  C   UNL A   1      42.089  28.488  28.603  1.00  0.00     0.049 A 
ATOM     59  H   UNL A   1      44.112  28.687  28.151  1.00  0.00     0.167 HD
ATOM     60  C   UNL A   1      48.409  28.908  27.352  1.00  0.00     0.034 A 
ATOM     61  C   UNL A   1      41.696  29.641  29.180  1.00  0.00     0.034 A 
ATOM     62  C   UNL A   1      48.047  30.219  27.818  1.00  0.00     0.049 A 
ATOM     63  C   UNL A   1      42.693  30.760  29.343  1.00  0.00     0.074 A 
ATOM     64  C   UNL A   1      48.852  31.336  27.954  1.00  0.00     0.029 A 
ATOM     65  N   UNL A   1      46.780  30.587  28.243  1.00  0.00    -0.354 N 
ATOM     66  N   UNL A   1      43.958  30.798  28.999  1.00  0.00    -0.248 NA
ATOM     67  C   UNL A   1      42.197  32.010  29.938  1.00  0.00     0.031 C 
ATOM     68  C   UNL A   1      48.082  32.367  28.502  1.00  0.00     0.029 A 
ATOM     69  C   UNL A   1      46.784  31.909  28.655  1.00  0.00     0.049 A 
ATOM     70  H   UNL A   1      45.993  29.996  28.250  1.00  0.00     0.167 HD
ATOM     71  C   UNL A   1      44.397  32.085  29.295  1.00  0.00     0.074 A 
ATOM     72  C   UNL A   1      43.255  32.800  29.827  1.00  0.00     0.031 C 
ATOM     73  C   UNL A   1      45.632  32.625  29.144  1.00  0.00     0.034 A 
BRANCH  60  74
ATOM     74  C   UNL A   1      49.851  28.649  26.994  1.00  0.00     0.023 A 
ATOM     75  C   UNL A   1      50.276  28.766  25.654  1.00  0.00     0.012 A 
ATOM     76  C   UNL A   1      50.795  28.343  27.993  1.00  0.00     0.148 A 
ATOM     77  C   UNL A   1      51.609  28.545  25.311  1.00  0.00     0.002 A 
ATOM     78  C   UNL A   1      52.131  28.174  27.651  1.00  0.00     0.091 A 
ATOM     79  F   UNL A   1      50.368  28.215  29.257  1.00  0.00    -0.205 F 
ATOM     80  C   UNL A   1      52.538  28.262  26.310  1.00  0.00     0.022 A 
BRANCH  78  81
ATOM     81  S   UNL A   1      53.415  27.889  28.873  1.00  0.00     0.127 S 
ATOM     82  O   UNL A   1      54.613  27.843  28.037  1.00  0.00    -0.237 OA
ATOM     83  O   UNL A   1      53.304  29.080  29.716  1.00  0.00    -0.237 OA
ATOM     84  O   UNL A   1      53.071  26.639  29.536  1.00  0.00    -0.744 OA
ENDBRANCH  78  81
ENDBRANCH  60  74
BRANCH  61  85
ATOM     85  C   UNL A   1      40.283  29.812  29.619  1.00  0.00     0.023 A 
ATOM     86  C   UNL A   1      39.279  30.086  28.669  1.00  0.00     0.012 A 
ATOM     87  C   UNL A   1      39.928  29.699  30.977  1.00  0.00     0.148 A 
ATOM     88  C   UNL A   1      37.955  30.278  29.068  1.00  0.00     0.002 A 
ATOM     89  C   UNL A   1      38.600  29.832  31.361  1.00  0.00     0.091 A 
ATOM     90  F   UNL A   1      40.901  29.454  31.867  1.00  0.00    -0.205 F 
ATOM     91  C   UNL A   1      37.614  30.141  30.411  1.00  0.00     0.022 A 
BRANCH  89  92
ATOM     92  S   UNL A   1      38.049  29.544  33.046  1.00  0.00     0.127 S 
ATOM     93  O   UNL A   1      39.312  29.567  33.781  1.00  0.00    -0.237 OA
ATOM     94  O   UNL A   1      37.179  30.697  33.276  1.00  0.00    -0.237 OA
ATOM     95  O   UNL A   1      37.357  28.263  33.022  1.00  0.00    -0.744 OA
ENDBRANCH  89  92
ENDBRANCH  61  85
BRANCH  73  96
ATOM     96  C   UNL A   1      45.809  34.079  29.507  1.00  0.00     0.023 A 
ATOM     97  C   UNL A   1      46.305  34.444  30.774  1.00  0.00     0.012 A 
ATOM     98  C   UNL A   1      45.517  35.088  28.565  1.00  0.00     0.148 A 
ATOM     99  C   UNL A   1      46.460  35.788  31.116  1.00  0.00     0.002 A 
ATOM    100  C   UNL A   1      45.728  36.421  28.893  1.00  0.00     0.091 A 
ATOM    101  F   UNL A   1      45.031  34.726  27.369  1.00  0.00    -0.205 F 
ATOM    102  C   UNL A   1      46.181  36.775  30.174  1.00  0.00     0.022 A 
BRANCH 100 103
ATOM    103  S   UNL A   1      45.492  37.751  27.708  1.00  0.00     0.127 S 
ATOM    104  O   UNL A   1      45.458  38.924  28.579  1.00  0.00    -0.237 OA
ATOM    105  O   UNL A   1      46.693  37.642  26.878  1.00  0.00    -0.237 OA
ATOM    106  O   UNL A   1      44.249  37.451  27.012  1.00  0.00    -0.744 OA
ENDBRANCH 100 103
ENDBRANCH  73  96
ENDBRANCH  47  48
ENDBRANCH  40  42
ENDBRANCH  39  40
ENDBRANCH  38  39
ENDBRANCH  37  38
ENDBRANCH  36  37
ENDBRANCH  35  36
ENDBRANCH  34  35
ENDBRANCH  33  34
ENDBRANCH   1  33
TORSDOF 27
ENDMDL
MODEL 2
REMARK VINA RESULT:      -9.1      2.679      3.533
REMARK SMILES COc1c[nH]c(C[N@H+]2CCC[C@@H](c3ccc(C(=O)OCCOCCOCCOCCOC(=O)c4ccc(-c5c6nc(c(-c7cccc(S(=O)(=O)[O-])c7F)c7ccc([nH]7)c(-c7cccc(S(=O)(=O)[O-])c7F)c7nc(c(-c8cccc(S(=O)(=O)[O-])c8F)c8ccc5[nH]8)C=C7)C=C6)cc4)cc3)C2)cc1=O
REMARK SMILES IDX 24 1 23 2 22 3 21 4 20 5 19 6 17 7 18 8 16 9 13 10 14 11
REMARK SMILES IDX 98 12 15 13 97 14 12 15 8 16 9 17 99 18 10 20 11 21 7 22
REMARK SMILES IDX 6 23 3 24 4 25 101 26 5 27 100 28 102 29 2 31 1 32 25 33
REMARK SMILES IDX 26 34 27 35 28 36 29 37 30 38 31 39 32 40 33 41 34 42 35 43
REMARK SMILES IDX 96 44 36 45 95 46 37 47 38 48 39 49 89 50 40 51 94 52 88 53
REMARK SMILES IDX 90 54 41 55 93 56 87 57 86 58 42 60 74 61 54 62 73 63 55 64
REMARK SMILES IDX 58 65 72 66 91 67 56 68 57 69 71 71 92 72 59 73 43 74 44 75
REMARK SMILES IDX 52 76 45 77 47 78 53 79 46 80 48 81 49 82 50 83 51 84 75 85
REMARK SMILES IDX 76 86 84 87 77 88 79 89 85 90 78 91 80 92 81 93 82 94 83 95
REMARK SMILES IDX 60 96 61 97 69 98 62 99 64 100 70 101 63 102 65 103 66 104
REMARK SMILES IDX 67 105 68 106
REMARK H PARENT 8 19 5 30 90 59 58 70
REMARK Flexibility Score: inf
ROOT
ATOM      1  C   UNL A   1      31.284  24.090  27.028  1.00  0.00     0.188 C 
ENDROOT
BRANCH   1   2
ATOM      2  C   UNL A   1      29.910  24.176  26.331  1.00  0.00     0.188 C 
BRANCH   2   3
ATOM      3  O   UNL A   1      29.537  25.487  25.950  1.00  0.00    -0.376 OA
BRANCH   3   4
ATOM      4  C   UNL A   1      29.450  25.828  24.579  1.00  0.00     0.202 C 
BRANCH   4   5
ATOM      5  C   UNL A   1      30.395  25.204  23.540  1.00  0.00     0.261 C 
BRANCH   5   6
ATOM      6  O   UNL A   1      31.758  25.629  23.581  1.00  0.00    -0.460 OA
BRANCH   6   7
ATOM      7  C   UNL A   1      32.035  26.853  23.090  1.00  0.00     0.338 C 
ATOM      8  O   UNL A   1      31.655  27.322  22.030  1.00  0.00    -0.246 OA
BRANCH   7   9
ATOM      9  C   UNL A   1      32.679  27.639  24.165  1.00  0.00     0.060 A 
ATOM     10  C   UNL A   1      33.864  29.234  26.145  1.00  0.00    -0.039 A 
ATOM     11  C   UNL A   1      32.823  29.740  25.345  1.00  0.00     0.005 A 
ATOM     12  C   UNL A   1      34.225  27.885  26.010  1.00  0.00     0.005 A 
ATOM     13  C   UNL A   1      32.259  28.961  24.339  1.00  0.00     0.016 A 
ATOM     14  C   UNL A   1      33.625  27.083  25.032  1.00  0.00     0.016 A 
BRANCH  10  15
ATOM     15  C   UNL A   1      34.721  30.175  26.987  1.00  0.00     0.074 C 
ATOM     16  N   UNL A   1      34.496  32.453  28.103  1.00  0.00    -0.329 N 
ATOM     17  C   UNL A   1      34.909  31.866  29.383  1.00  0.00     0.262 C 
ATOM     18  C   UNL A   1      33.882  31.450  27.230  1.00  0.00     0.270 C 
ATOM     19  H   UNL A   1      35.345  32.784  27.645  1.00  0.00     0.348 HD
ATOM     20  C   UNL A   1      35.841  30.665  29.180  1.00  0.00     0.062 C 
ATOM     21  C   UNL A   1      35.185  29.580  28.321  1.00  0.00     0.020 C 
BRANCH  16  22
ATOM     22  C   UNL A   1      33.628  33.642  28.272  1.00  0.00     0.317 C 
BRANCH  22  23
ATOM     23  C   UNL A   1      33.775  34.431  29.574  1.00  0.00     0.074 A 
ATOM     24  C   UNL A   1      33.661  35.936  32.004  1.00  0.00     0.182 A 
ATOM     25  C   UNL A   1      33.077  36.342  30.869  1.00  0.00     0.133 A 
ATOM     26  C   UNL A   1      34.484  34.677  31.910  1.00  0.00     0.223 A 
ATOM     27  N   UNL A   1      33.186  35.679  29.677  1.00  0.00    -0.357 N 
ATOM     28  C   UNL A   1      34.453  33.924  30.621  1.00  0.00     0.083 A 
ATOM     29  O   UNL A   1      35.147  34.239  32.847  1.00  0.00    -0.286 OA
ATOM     30  H   UNL A   1      32.832  36.105  28.863  1.00  0.00     0.166 HD
BRANCH  24  31
ATOM     31  O   UNL A   1      33.430  36.600  33.192  1.00  0.00    -0.491 OA
ATOM     32  C   UNL A   1      33.916  37.937  33.185  1.00  0.00     0.278 C 
ENDBRANCH  24  31
ENDBRANCH  22  23
ENDBRANCH  16  22
ENDBRANCH  10  15
ENDBRANCH   7   9
ENDBRANCH   6   7
ENDBRANCH   5   6
ENDBRANCH   4   5
ENDBRANCH   3   4
ENDBRANCH   2   3
ENDBRANCH   1   2
BRANCH   1  33
ATOM     33  O   UNL A   1      32.147  23.011  26.707  1.00  0.00    -0.377 OA
BRANCH  33  34
ATOM     34  C   UNL A   1      32.451  22.712  25.348  1.00  0.00     0.188 C 
BRANCH  34  35
ATOM     35  C   UNL A   1      33.883  22.353  24.885  1.00  0.00     0.188 C 
BRANCH  35  36
ATOM     36  O   UNL A   1      34.524  21.336  25.639  1.00  0.00    -0.376 OA
BRANCH  36  37
ATOM     37  C   UNL A   1      35.901  21.111  25.401  1.00  0.00     0.202 C 
BRANCH  37  38
ATOM     38  C   UNL A   1      36.881  22.161  25.942  1.00  0.00     0.261 C 
BRANCH  38  39
ATOM     39  O   UNL A   1      38.215  22.107  25.415  1.00  0.00    -0.460 OA
BRANCH  39  40
ATOM     40  C   UNL A   1      39.197  21.753  26.271  1.00  0.00     0.338 C 
ATOM     41  O   UNL A   1      39.643  20.629  26.451  1.00  0.00    -0.246 OA
BRANCH  40  42
ATOM     42  C   UNL A   1      39.789  22.988  26.821  1.00  0.00     0.060 A 
ATOM     43  C   UNL A   1      39.310  24.225  26.371  1.00  0.00     0.016 A 
ATOM     44  C   UNL A   1      40.805  22.927  27.779  1.00  0.00     0.016 A 
ATOM     45  C   UNL A   1      39.878  25.405  26.848  1.00  0.00     0.010 A 
ATOM     46  C   UNL A   1      41.384  24.112  28.242  1.00  0.00     0.010 A 
ATOM     47  C   UNL A   1      40.948  25.355  27.751  1.00  0.00    -0.014 A 
BRANCH  47  48
ATOM     48  C   UNL A   1      41.707  26.596  28.043  1.00  0.00     0.031 A 
ATOM     49  C   UNL A   1      43.062  26.782  27.414  1.00  0.00     0.074 A 
ATOM     50  C   UNL A   1      41.185  27.561  28.821  1.00  0.00     0.049 A 
ATOM     51  N   UNL A   1      43.877  27.801  27.491  1.00  0.00    -0.248 NA
ATOM     52  C   UNL A   1      43.565  25.672  26.589  1.00  0.00     0.031 C 
ATOM     53  C   UNL A   1      39.885  27.497  29.488  1.00  0.00     0.029 A 
ATOM     54  N   UNL A   1      41.696  28.779  29.192  1.00  0.00    -0.354 N 
ATOM     55  C   UNL A   1      44.997  27.448  26.747  1.00  0.00     0.074 A 
ATOM     56  C   UNL A   1      44.764  26.113  26.241  1.00  0.00     0.031 C 
ATOM     57  C   UNL A   1      39.707  28.622  30.201  1.00  0.00     0.029 A 
ATOM     58  C   UNL A   1      40.888  29.473  30.060  1.00  0.00     0.049 A 
ATOM     59  H   UNL A   1      42.560  29.123  28.868  1.00  0.00     0.167 HD
ATOM     60  C   UNL A   1      46.112  28.173  26.495  1.00  0.00     0.034 A 
ATOM     61  C   UNL A   1      41.086  30.653  30.682  1.00  0.00     0.034 A 
ATOM     62  C   UNL A   1      46.340  29.502  26.994  1.00  0.00     0.049 A 
ATOM     63  C   UNL A   1      42.344  31.433  30.399  1.00  0.00     0.074 A 
ATOM     64  C   UNL A   1      47.417  30.337  26.758  1.00  0.00     0.029 A 
ATOM     65  N   UNL A   1      45.486  30.185  27.846  1.00  0.00    -0.354 N 
ATOM     66  N   UNL A   1      43.341  31.135  29.601  1.00  0.00    -0.248 NA
ATOM     67  C   UNL A   1      42.484  32.733  31.071  1.00  0.00     0.031 C 
ATOM     68  C   UNL A   1      47.236  31.507  27.502  1.00  0.00     0.029 A 
ATOM     69  C   UNL A   1      46.019  31.425  28.158  1.00  0.00     0.049 A 
ATOM     70  H   UNL A   1      44.627  29.840  28.181  1.00  0.00     0.167 HD
ATOM     71  C   UNL A   1      44.204  32.226  29.641  1.00  0.00     0.074 A 
ATOM     72  C   UNL A   1      43.600  33.200  30.528  1.00  0.00     0.031 C 
ATOM     73  C   UNL A   1      45.390  32.404  29.008  1.00  0.00     0.034 A 
BRANCH  60  74
ATOM     74  C   UNL A   1      47.176  27.542  25.632  1.00  0.00     0.023 A 
ATOM     75  C   UNL A   1      47.998  26.525  26.158  1.00  0.00     0.012 A 
ATOM     76  C   UNL A   1      47.323  27.921  24.284  1.00  0.00     0.148 A 
ATOM     77  C   UNL A   1      48.976  25.922  25.367  1.00  0.00     0.002 A 
ATOM     78  C   UNL A   1      48.265  27.281  23.487  1.00  0.00     0.091 A 
ATOM     79  F   UNL A   1      46.547  28.905  23.807  1.00  0.00    -0.205 F 
ATOM     80  C   UNL A   1      49.100  26.291  24.030  1.00  0.00     0.022 A 
BRANCH  78  81
ATOM     81  S   UNL A   1      48.446  27.626  21.734  1.00  0.00     0.127 S 
ATOM     82  O   UNL A   1      47.087  28.026  21.371  1.00  0.00    -0.237 OA
ATOM     83  O   UNL A   1      49.422  28.716  21.737  1.00  0.00    -0.237 OA
ATOM     84  O   UNL A   1      48.915  26.389  21.126  1.00  0.00    -0.744 OA
ENDBRANCH  78  81
ENDBRANCH  60  74
BRANCH  61  85
ATOM     85  C   UNL A   1      40.053  31.187  31.614  1.00  0.00     0.023 A 
ATOM     86  C   UNL A   1      38.932  31.871  31.103  1.00  0.00     0.012 A 
ATOM     87  C   UNL A   1      40.176  31.016  33.006  1.00  0.00     0.148 A 
ATOM     88  C   UNL A   1      37.971  32.404  31.963  1.00  0.00     0.002 A 
ATOM     89  C   UNL A   1      39.185  31.495  33.854  1.00  0.00     0.091 A 
ATOM     90  F   UNL A   1      41.257  30.376  33.472  1.00  0.00    -0.205 F 
ATOM     91  C   UNL A   1      38.092  32.207  33.337  1.00  0.00     0.022 A 
BRANCH  89  92
ATOM     92  S   UNL A   1      39.191  31.176  35.621  1.00  0.00     0.127 S 
ATOM     93  O   UNL A   1      38.857  32.490  36.163  1.00  0.00    -0.237 OA
ATOM     94  O   UNL A   1      38.137  30.170  35.745  1.00  0.00    -0.237 OA
ATOM     95  O   UNL A   1      40.528  30.688  35.930  1.00  0.00    -0.744 OA
ENDBRANCH  89  92
ENDBRANCH  61  85
BRANCH  73  96
ATOM     96  C   UNL A   1      46.094  33.725  29.201  1.00  0.00     0.023 A 
ATOM     97  C   UNL A   1      46.801  33.990  30.391  1.00  0.00     0.012 A 
ATOM     98  C   UNL A   1      46.086  34.693  28.175  1.00  0.00     0.148 A 
ATOM     99  C   UNL A   1      47.444  35.214  30.577  1.00  0.00     0.002 A 
ATOM    100  C   UNL A   1      46.778  35.886  28.345  1.00  0.00     0.091 A 
ATOM    101  F   UNL A   1      45.397  34.432  27.055  1.00  0.00    -0.205 F 
ATOM    102  C   UNL A   1      47.441  36.157  29.552  1.00  0.00     0.022 A 
BRANCH 100 103
ATOM    103  S   UNL A   1      46.911  37.113  27.039  1.00  0.00     0.127 S 
ATOM    104  O   UNL A   1      47.821  38.087  27.637  1.00  0.00    -0.237 OA
ATOM    105  O   UNL A   1      47.488  36.334  25.941  1.00  0.00    -0.237 OA
ATOM    106  O   UNL A   1      45.556  37.587  26.795  1.00  0.00    -0.744 OA
ENDBRANCH 100 103
ENDBRANCH  73  96
ENDBRANCH  47  48
ENDBRANCH  40  42
ENDBRANCH  39  40
ENDBRANCH  38  39
ENDBRANCH  37  38
ENDBRANCH  36  37
ENDBRANCH  35  36
ENDBRANCH  34  35
ENDBRANCH  33  34
ENDBRANCH   1  33
TORSDOF 27
ENDMDL
MODEL 3
REMARK VINA RESULT:      -9.0      2.905      3.827
REMARK SMILES COc1c[nH]c(C[N@H+]2CCC[C@@H](c3ccc(C(=O)OCCOCCOCCOCCOC(=O)c4ccc(-c5c6nc(c(-c7cccc(S(=O)(=O)[O-])c7F)c7ccc([nH]7)c(-c7cccc(S(=O)(=O)[O-])c7F)c7nc(c(-c8cccc(S(=O)(=O)[O-])c8F)c8ccc5[nH]8)C=C7)C=C6)cc4)cc3)C2)cc1=O
REMARK SMILES IDX 24 1 23 2 22 3 21 4 20 5 19 6 17 7 18 8 16 9 13 10 14 11
REMARK SMILES IDX 98 12 15 13 97 14 12 15 8 16 9 17 99 18 10 20 11 21 7 22
REMARK SMILES IDX 6 23 3 24 4 25 101 26 5 27 100 28 102 29 2 31 1 32 25 33
REMARK SMILES IDX 26 34 27 35 28 36 29 37 30 38 31 39 32 40 33 41 34 42 35 43
REMARK SMILES IDX 96 44 36 45 95 46 37 47 38 48 39 49 89 50 40 51 94 52 88 53
REMARK SMILES IDX 90 54 41 55 93 56 87 57 86 58 42 60 74 61 54 62 73 63 55 64
REMARK SMILES IDX 58 65 72 66 91 67 56 68 57 69 71 71 92 72 59 73 43 74 44 75
REMARK SMILES IDX 52 76 45 77 47 78 53 79 46 80 48 81 49 82 50 83 51 84 75 85
REMARK SMILES IDX 76 86 84 87 77 88 79 89 85 90 78 91 80 92 81 93 82 94 83 95
REMARK SMILES IDX 60 96 61 97 69 98 62 99 64 100 70 101 63 102 65 103 66 104
REMARK SMILES IDX 67 105 68 106
REMARK H PARENT 8 19 5 30 90 59 58 70
REMARK Flexibility Score: inf
ROOT
ATOM      1  C   UNL A   1      32.504  22.290  26.410  1.00  0.00     0.188 C 
ENDROOT
BRANCH   1   2
ATOM      2  C   UNL A   1      31.066  22.801  26.189  1.00  0.00     0.188 C 
BRANCH   2   3
ATOM      3  O   UNL A   1      30.693  23.867  27.042  1.00  0.00    -0.376 OA
BRANCH   3   4
ATOM      4  C   UNL A   1      30.076  25.022  26.506  1.00  0.00     0.202 C 
BRANCH   4   5
ATOM      5  C   UNL A   1      30.313  25.449  25.048  1.00  0.00     0.261 C 
BRANCH   5   6
ATOM      6  O   UNL A   1      31.594  26.006  24.747  1.00  0.00    -0.460 OA
BRANCH   6   7
ATOM      7  C   UNL A   1      31.620  27.274  24.291  1.00  0.00     0.338 C 
ATOM      8  O   UNL A   1      30.926  27.752  23.410  1.00  0.00    -0.246 OA
BRANCH   7   9
ATOM      9  C   UNL A   1      32.465  28.069  25.210  1.00  0.00     0.060 A 
ATOM     10  C   UNL A   1      34.026  29.680  26.894  1.00  0.00    -0.039 A 
ATOM     11  C   UNL A   1      32.900  30.210  26.237  1.00  0.00     0.005 A 
ATOM     12  C   UNL A   1      34.291  28.306  26.779  1.00  0.00     0.005 A 
ATOM     13  C   UNL A   1      32.147  29.420  25.373  1.00  0.00     0.016 A 
ATOM     14  C   UNL A   1      33.504  27.498  25.950  1.00  0.00     0.016 A 
BRANCH  10  15
ATOM     15  C   UNL A   1      35.052  30.606  27.541  1.00  0.00     0.074 C 
ATOM     16  N   UNL A   1      35.233  33.054  28.217  1.00  0.00    -0.329 N 
ATOM     17  C   UNL A   1      35.595  32.650  29.580  1.00  0.00     0.262 C 
ATOM     18  C   UNL A   1      34.436  32.024  27.549  1.00  0.00     0.270 C 
ATOM     19  H   UNL A   1      36.107  33.153  27.700  1.00  0.00     0.348 HD
ATOM     20  C   UNL A   1      36.315  31.297  29.597  1.00  0.00     0.062 C 
ATOM     21  C   UNL A   1      35.464  30.196  28.959  1.00  0.00     0.020 C 
BRANCH  16  22
ATOM     22  C   UNL A   1      34.573  34.379  28.167  1.00  0.00     0.317 C 
BRANCH  22  23
ATOM     23  C   UNL A   1      34.096  34.970  29.497  1.00  0.00     0.074 A 
ATOM     24  C   UNL A   1      32.889  36.188  31.785  1.00  0.00     0.182 A 
ATOM     25  C   UNL A   1      33.070  36.836  30.627  1.00  0.00     0.133 A 
ATOM     26  C   UNL A   1      33.458  34.794  31.859  1.00  0.00     0.223 A 
ATOM     27  N   UNL A   1      33.716  36.299  29.547  1.00  0.00    -0.357 N 
ATOM     28  C   UNL A   1      34.028  34.213  30.608  1.00  0.00     0.083 A 
ATOM     29  O   UNL A   1      33.447  34.119  32.886  1.00  0.00    -0.286 OA
ATOM     30  H   UNL A   1      33.916  36.879  28.778  1.00  0.00     0.166 HD
BRANCH  24  31
ATOM     31  O   UNL A   1      32.144  36.754  32.800  1.00  0.00    -0.491 OA
ATOM     32  C   UNL A   1      30.848  36.182  32.926  1.00  0.00     0.278 C 
ENDBRANCH  24  31
ENDBRANCH  22  23
ENDBRANCH  16  22
ENDBRANCH  10  15
ENDBRANCH   7   9
ENDBRANCH   6   7
ENDBRANCH   5   6
ENDBRANCH   4   5
ENDBRANCH   3   4
ENDBRANCH   2   3
ENDBRANCH   1   2
BRANCH   1  33
ATOM     33  O   UNL A   1      33.074  21.415  25.450  1.00  0.00    -0.377 OA
BRANCH  33  34
ATOM     34  C   UNL A   1      33.873  21.933  24.389  1.00  0.00     0.188 C 
BRANCH  34  35
ATOM     35  C   UNL A   1      35.405  21.725  24.337  1.00  0.00     0.188 C 
BRANCH  35  36
ATOM     36  O   UNL A   1      35.912  20.741  25.224  1.00  0.00    -0.376 OA
BRANCH  36  37
ATOM     37  C   UNL A   1      37.312  20.536  25.249  1.00  0.00     0.202 C 
BRANCH  37  38
ATOM     38  C   UNL A   1      38.199  21.765  25.010  1.00  0.00     0.261 C 
BRANCH  38  39
ATOM     39  O   UNL A   1      38.538  22.532  26.174  1.00  0.00    -0.460 OA
BRANCH  39  40
ATOM     40  C   UNL A   1      38.032  23.782  26.253  1.00  0.00     0.338 C 
ATOM     41  O   UNL A   1      36.866  24.113  26.089  1.00  0.00    -0.246 OA
BRANCH  40  42
ATOM     42  C   UNL A   1      39.092  24.670  26.769  1.00  0.00     0.060 A 
ATOM     43  C   UNL A   1      39.235  24.818  28.154  1.00  0.00     0.016 A 
ATOM     44  C   UNL A   1      39.942  25.351  25.892  1.00  0.00     0.016 A 
ATOM     45  C   UNL A   1      40.203  25.680  28.665  1.00  0.00     0.010 A 
ATOM     46  C   UNL A   1      40.900  26.227  26.407  1.00  0.00     0.010 A 
ATOM     47  C   UNL A   1      41.010  26.424  27.794  1.00  0.00    -0.014 A 
BRANCH  47  48
ATOM     48  C   UNL A   1      41.845  27.522  28.342  1.00  0.00     0.031 A 
ATOM     49  C   UNL A   1      43.343  27.373  28.321  1.00  0.00     0.074 A 
ATOM     50  C   UNL A   1      41.285  28.649  28.814  1.00  0.00     0.049 A 
ATOM     51  N   UNL A   1      44.264  28.219  28.701  1.00  0.00    -0.248 NA
ATOM     52  C   UNL A   1      43.873  26.102  27.802  1.00  0.00     0.031 C 
ATOM     53  C   UNL A   1      39.849  28.912  28.890  1.00  0.00     0.029 A 
ATOM     54  N   UNL A   1      41.863  29.781  29.333  1.00  0.00    -0.354 N 
ATOM     55  C   UNL A   1      45.479  27.577  28.491  1.00  0.00     0.074 A 
ATOM     56  C   UNL A   1      45.177  26.263  27.966  1.00  0.00     0.031 C 
ATOM     57  C   UNL A   1      39.656  30.122  29.440  1.00  0.00     0.029 A 
ATOM     58  C   UNL A   1      40.952  30.710  29.776  1.00  0.00     0.049 A 
ATOM     59  H   UNL A   1      42.837  29.914  29.383  1.00  0.00     0.167 HD
ATOM     60  C   UNL A   1      46.733  28.042  28.701  1.00  0.00     0.034 A 
ATOM     61  C   UNL A   1      41.143  31.892  30.396  1.00  0.00     0.034 A 
ATOM     62  C   UNL A   1      47.032  29.350  29.217  1.00  0.00     0.049 A 
ATOM     63  C   UNL A   1      42.549  32.380  30.635  1.00  0.00     0.074 A 
ATOM     64  C   UNL A   1      48.270  29.931  29.425  1.00  0.00     0.029 A 
ATOM     65  N   UNL A   1      46.084  30.275  29.628  1.00  0.00    -0.354 N 
ATOM     66  N   UNL A   1      43.687  31.808  30.325  1.00  0.00    -0.248 NA
ATOM     67  C   UNL A   1      42.695  33.696  31.275  1.00  0.00     0.031 C 
ATOM     68  C   UNL A   1      48.072  31.190  30.001  1.00  0.00     0.029 A 
ATOM     69  C   UNL A   1      46.710  31.417  30.101  1.00  0.00     0.049 A 
ATOM     70  H   UNL A   1      45.110  30.141  29.589  1.00  0.00     0.167 HD
ATOM     71  C   UNL A   1      44.681  32.712  30.689  1.00  0.00     0.074 A 
ATOM     72  C   UNL A   1      44.007  33.876  31.226  1.00  0.00     0.031 C 
ATOM     73  C   UNL A   1      46.029  32.587  30.594  1.00  0.00     0.034 A 
BRANCH  60  74
ATOM     74  C   UNL A   1      47.883  27.126  28.366  1.00  0.00     0.023 A 
ATOM     75  C   UNL A   1      48.192  26.043  29.215  1.00  0.00     0.012 A 
ATOM     76  C   UNL A   1      48.624  27.309  27.183  1.00  0.00     0.148 A 
ATOM     77  C   UNL A   1      49.243  25.179  28.909  1.00  0.00     0.002 A 
ATOM     78  C   UNL A   1      49.637  26.414  26.859  1.00  0.00     0.091 A 
ATOM     79  F   UNL A   1      48.330  28.357  26.400  1.00  0.00    -0.205 F 
ATOM     80  C   UNL A   1      49.957  25.357  27.727  1.00  0.00     0.022 A 
BRANCH  78  81
ATOM     81  S   UNL A   1      50.559  26.510  25.321  1.00  0.00     0.127 S 
ATOM     82  O   UNL A   1      49.501  26.309  24.331  1.00  0.00    -0.237 OA
ATOM     83  O   UNL A   1      51.096  27.870  25.371  1.00  0.00    -0.237 OA
ATOM     84  O   UNL A   1      51.560  25.456  25.384  1.00  0.00    -0.744 OA
ENDBRANCH  78  81
ENDBRANCH  60  74
BRANCH  61  85
ATOM     85  C   UNL A   1      39.971  32.716  30.808  1.00  0.00     0.023 A 
ATOM     86  C   UNL A   1      39.589  33.830  30.036  1.00  0.00     0.012 A 
ATOM     87  C   UNL A   1      39.231  32.394  31.962  1.00  0.00     0.148 A 
ATOM     88  C   UNL A   1      38.513  34.630  30.425  1.00  0.00     0.002 A 
ATOM     89  C   UNL A   1      38.124  33.157  32.310  1.00  0.00     0.091 A 
ATOM     90  F   UNL A   1      39.621  31.339  32.691  1.00  0.00    -0.205 F 
ATOM     91  C   UNL A   1      37.775  34.287  31.555  1.00  0.00     0.022 A 
BRANCH  89  92
ATOM     92  S   UNL A   1      37.039  32.717  33.672  1.00  0.00     0.127 S 
ATOM     93  O   UNL A   1      37.947  31.990  34.555  1.00  0.00    -0.237 OA
ATOM     94  O   UNL A   1      36.624  34.032  34.159  1.00  0.00    -0.237 OA
ATOM     95  O   UNL A   1      35.966  31.928  33.083  1.00  0.00    -0.744 OA
ENDBRANCH  89  92
ENDBRANCH  61  85
BRANCH  73  96
ATOM     96  C   UNL A   1      46.872  33.762  31.027  1.00  0.00     0.023 A 
ATOM     97  C   UNL A   1      47.215  34.772  30.106  1.00  0.00     0.012 A 
ATOM     98  C   UNL A   1      47.290  33.882  32.369  1.00  0.00     0.148 A 
ATOM     99  C   UNL A   1      48.002  35.854  30.501  1.00  0.00     0.002 A 
ATOM    100  C   UNL A   1      48.025  34.992  32.767  1.00  0.00     0.091 A 
ATOM    101  F   UNL A   1      46.968  32.905  33.229  1.00  0.00    -0.205 F 
ATOM    102  C   UNL A   1      48.399  35.969  31.832  1.00  0.00     0.022 A 
BRANCH 100 103
ATOM    103  S   UNL A   1      48.490  35.271  34.480  1.00  0.00     0.127 S 
ATOM    104  O   UNL A   1      48.884  36.678  34.456  1.00  0.00    -0.237 OA
ATOM    105  O   UNL A   1      47.238  35.000  35.189  1.00  0.00    -0.237 OA
ATOM    106  O   UNL A   1      49.561  34.325  34.763  1.00  0.00    -0.744 OA
ENDBRANCH 100 103
ENDBRANCH  73  96
ENDBRANCH  47  48
ENDBRANCH  40  42
ENDBRANCH  39  40
ENDBRANCH  38  39
ENDBRANCH  37  38
ENDBRANCH  36  37
ENDBRANCH  35  36
ENDBRANCH  34  35
ENDBRANCH  33  34
ENDBRANCH   1  33
TORSDOF 27
ENDMDL
