MODEL 1
REMARK VINA RESULT:      -7.6      0.000      0.000
REMARK SMILES C[C@H](C(=O)OCCOCCOCCOCCOC(=O)c1ccc(-c2c3nc(c(-c4cccc(S(=O)(=O)[O-])c4F)c4ccc([nH]4)c(-c4cccc(S(=O)(=O)[O-])c4F)c4nc(c(-c5cccc(S(=O)(=O)[O-])c5F)c5ccc2[nH]5)C=C4)C=C3)cc1)[C@H](C)[NH+]1CC[NH+](CCO)CC1
REMARK SMILES IDX 10 1 9 2 8 3 7 4 6 5 5 6 3 7 4 8 2 9 1 10 83 11 84 12 85 13
REMARK SMILES IDX 86 14 93 15 87 17 92 18 88 19 89 21 90 22 91 23 11 25 12 26
REMARK SMILES IDX 13 27 14 28 15 29 16 30 17 31 18 32 19 33 20 34 21 35 82 36
REMARK SMILES IDX 22 37 81 38 23 39 24 40 25 41 75 42 26 43 80 44 74 45 76 46
REMARK SMILES IDX 27 47 79 48 73 49 72 50 28 52 60 53 40 54 59 55 41 56 44 57
REMARK SMILES IDX 58 58 77 59 42 60 43 61 57 63 78 64 45 65 29 66 30 67 38 68
REMARK SMILES IDX 31 69 33 70 39 71 32 72 34 73 35 74 36 75 37 76 61 77 62 78
REMARK SMILES IDX 70 79 63 80 65 81 71 82 64 83 66 84 67 85 68 86 69 87 46 88
REMARK SMILES IDX 47 89 55 90 48 91 50 92 56 93 49 94 51 95 52 96 53 97 54 98
REMARK H PARENT 85 16 88 20 91 24 76 51 44 62
REMARK Flexibility Score: inf
ROOT
ATOM      1  C   UNL A   1      33.565  24.571  26.103  1.00  0.00     0.188 C 
ENDROOT
BRANCH   1   2
ATOM      2  C   UNL A   1      34.628  23.684  25.415  1.00  0.00     0.188 C 
BRANCH   2   3
ATOM      3  O   UNL A   1      35.902  23.718  26.046  1.00  0.00    -0.376 OA
BRANCH   3   4
ATOM      4  C   UNL A   1      36.891  22.794  25.607  1.00  0.00     0.202 C 
BRANCH   4   5
ATOM      5  C   UNL A   1      38.352  23.126  25.920  1.00  0.00     0.261 C 
BRANCH   5   6
ATOM      6  O   UNL A   1      38.534  24.347  26.654  1.00  0.00    -0.463 OA
BRANCH   6   7
ATOM      7  C   UNL A   1      39.729  24.684  27.174  1.00  0.00     0.314 C 
ATOM      8  O   UNL A   1      40.027  24.509  28.350  1.00  0.00    -0.252 OA
BRANCH   7   9
ATOM      9  C   UNL A   1      40.741  25.159  26.116  1.00  0.00     0.154 C 
ATOM     10  C   UNL A   1      40.865  26.687  26.122  1.00  0.00     0.026 C 
BRANCH   9  11
ATOM     11  C   UNL A   1      42.166  24.500  26.040  1.00  0.00     0.195 C 
ATOM     12  C   UNL A   1      43.163  25.544  25.520  1.00  0.00     0.076 C 
BRANCH  11  13
ATOM     13  N   UNL A   1      42.208  23.202  25.375  1.00  0.00    -0.323 N 
ATOM     14  C   UNL A   1      43.406  22.804  24.629  1.00  0.00     0.324 C 
ATOM     15  C   UNL A   1      41.587  22.060  26.055  1.00  0.00     0.324 C 
ATOM     16  H   UNL A   1      41.556  23.486  24.644  1.00  0.00     0.348 HD
ATOM     17  C   UNL A   1      44.370  21.836  25.364  1.00  0.00     0.324 C 
ATOM     18  C   UNL A   1      42.564  21.165  26.840  1.00  0.00     0.324 C 
ATOM     19  N   UNL A   1      43.761  20.732  26.115  1.00  0.00    -0.324 N 
ATOM     20  H   UNL A   1      44.433  20.467  26.836  1.00  0.00     0.348 HD
BRANCH  19  21
ATOM     21  C   UNL A   1      43.631  19.467  25.365  1.00  0.00     0.291 C 
BRANCH  21  22
ATOM     22  C   UNL A   1      44.783  18.447  25.321  1.00  0.00     0.217 C 
BRANCH  22  23
ATOM     23  O   UNL A   1      45.874  18.892  24.522  1.00  0.00    -0.391 OA
ATOM     24  H   UNL A   1      46.555  19.281  25.092  1.00  0.00     0.210 HD
ENDBRANCH  22  23
ENDBRANCH  21  22
ENDBRANCH  19  21
ENDBRANCH  11  13
ENDBRANCH   9  11
ENDBRANCH   7   9
ENDBRANCH   6   7
ENDBRANCH   5   6
ENDBRANCH   4   5
ENDBRANCH   3   4
ENDBRANCH   2   3
ENDBRANCH   1   2
BRANCH   1  25
ATOM     25  O   UNL A   1      33.452  25.942  25.760  1.00  0.00    -0.377 OA
BRANCH  25  26
ATOM     26  C   UNL A   1      32.164  26.504  25.909  1.00  0.00     0.188 C 
BRANCH  26  27
ATOM     27  C   UNL A   1      32.171  28.021  25.654  1.00  0.00     0.188 C 
BRANCH  27  28
ATOM     28  O   UNL A   1      32.464  28.904  26.723  1.00  0.00    -0.376 OA
BRANCH  28  29
ATOM     29  C   UNL A   1      33.245  30.078  26.573  1.00  0.00     0.202 C 
BRANCH  29  30
ATOM     30  C   UNL A   1      34.118  30.771  27.642  1.00  0.00     0.261 C 
BRANCH  30  31
ATOM     31  O   UNL A   1      34.477  32.136  27.471  1.00  0.00    -0.460 OA
BRANCH  31  32
ATOM     32  C   UNL A   1      34.530  32.887  28.587  1.00  0.00     0.338 C 
ATOM     33  O   UNL A   1      33.631  33.548  29.079  1.00  0.00    -0.246 OA
BRANCH  32  34
ATOM     34  C   UNL A   1      35.831  32.611  29.225  1.00  0.00     0.060 A 
ATOM     35  C   UNL A   1      35.970  31.445  29.990  1.00  0.00     0.016 A 
ATOM     36  C   UNL A   1      36.912  33.475  29.034  1.00  0.00     0.016 A 
ATOM     37  C   UNL A   1      37.191  31.147  30.584  1.00  0.00     0.010 A 
ATOM     38  C   UNL A   1      38.123  33.197  29.667  1.00  0.00     0.010 A 
ATOM     39  C   UNL A   1      38.252  32.049  30.469  1.00  0.00    -0.014 A 
BRANCH  39  40
ATOM     40  C   UNL A   1      39.408  31.909  31.379  1.00  0.00     0.031 A 
ATOM     41  C   UNL A   1      40.630  31.209  30.856  1.00  0.00     0.074 A 
ATOM     42  C   UNL A   1      39.377  32.403  32.627  1.00  0.00     0.049 A 
ATOM     43  N   UNL A   1      41.747  30.926  31.469  1.00  0.00    -0.248 NA
ATOM     44  C   UNL A   1      40.582  30.769  29.450  1.00  0.00     0.031 C 
ATOM     45  C   UNL A   1      38.253  33.118  33.229  1.00  0.00     0.029 A 
ATOM     46  N   UNL A   1      40.319  32.348  33.622  1.00  0.00    -0.354 N 
ATOM     47  C   UNL A   1      42.523  30.249  30.536  1.00  0.00     0.074 A 
ATOM     48  C   UNL A   1      41.746  30.153  29.321  1.00  0.00     0.031 C 
ATOM     49  C   UNL A   1      38.557  33.404  34.506  1.00  0.00     0.029 A 
ATOM     50  C   UNL A   1      39.881  32.867  34.818  1.00  0.00     0.049 A 
ATOM     51  H   UNL A   1      41.220  31.975  33.493  1.00  0.00     0.167 HD
ATOM     52  C   UNL A   1      43.776  29.761  30.677  1.00  0.00     0.034 A 
ATOM     53  C   UNL A   1      40.474  32.872  36.028  1.00  0.00     0.034 A 
ATOM     54  C   UNL A   1      44.543  29.863  31.888  1.00  0.00     0.049 A 
ATOM     55  C   UNL A   1      41.854  32.283  36.171  1.00  0.00     0.074 A 
ATOM     56  C   UNL A   1      45.834  29.429  32.126  1.00  0.00     0.029 A 
ATOM     57  N   UNL A   1      44.083  30.423  33.069  1.00  0.00    -0.354 N 
ATOM     58  N   UNL A   1      42.619  31.733  35.259  1.00  0.00    -0.248 NA
ATOM     59  C   UNL A   1      42.469  32.346  37.506  1.00  0.00     0.031 C 
ATOM     60  C   UNL A   1      46.140  29.690  33.465  1.00  0.00     0.029 A 
ATOM     61  C   UNL A   1      45.058  30.333  34.046  1.00  0.00     0.049 A 
ATOM     62  H   UNL A   1      43.193  30.826  33.194  1.00  0.00     0.167 HD
ATOM     63  C   UNL A   1      43.815  31.422  35.896  1.00  0.00     0.074 A 
ATOM     64  C   UNL A   1      43.681  31.860  37.270  1.00  0.00     0.031 C 
ATOM     65  C   UNL A   1      44.923  30.819  35.395  1.00  0.00     0.034 A 
BRANCH  52  66
ATOM     66  C   UNL A   1      44.395  29.077  29.488  1.00  0.00     0.023 A 
ATOM     67  C   UNL A   1      44.255  27.682  29.327  1.00  0.00     0.012 A 
ATOM     68  C   UNL A   1      45.082  29.821  28.510  1.00  0.00     0.148 A 
ATOM     69  C   UNL A   1      44.817  27.035  28.227  1.00  0.00     0.002 A 
ATOM     70  C   UNL A   1      45.596  29.177  27.392  1.00  0.00     0.091 A 
ATOM     71  F   UNL A   1      45.226  31.141  28.696  1.00  0.00    -0.205 F 
ATOM     72  C   UNL A   1      45.477  27.783  27.255  1.00  0.00     0.022 A 
BRANCH  70  73
ATOM     73  S   UNL A   1      46.392  30.060  26.046  1.00  0.00     0.127 S 
ATOM     74  O   UNL A   1      47.693  30.379  26.630  1.00  0.00    -0.237 OA
ATOM     75  O   UNL A   1      46.427  29.045  24.994  1.00  0.00    -0.237 OA
ATOM     76  O   UNL A   1      45.542  31.206  25.757  1.00  0.00    -0.744 OA
ENDBRANCH  70  73
ENDBRANCH  52  66
BRANCH  53  77
ATOM     77  C   UNL A   1      39.767  33.459  37.200  1.00  0.00     0.023 A 
ATOM     78  C   UNL A   1      40.024  34.790  37.580  1.00  0.00     0.012 A 
ATOM     79  C   UNL A   1      38.832  32.702  37.934  1.00  0.00     0.148 A 
ATOM     80  C   UNL A   1      39.392  35.344  38.696  1.00  0.00     0.002 A 
ATOM     81  C   UNL A   1      38.160  33.281  39.004  1.00  0.00     0.091 A 
ATOM     82  F   UNL A   1      38.613  31.432  37.567  1.00  0.00    -0.205 F 
ATOM     83  C   UNL A   1      38.454  34.594  39.400  1.00  0.00     0.022 A 
BRANCH  81  84
ATOM     84  S   UNL A   1      36.835  32.434  39.872  1.00  0.00     0.127 S 
ATOM     85  O   UNL A   1      37.508  31.225  40.339  1.00  0.00    -0.237 OA
ATOM     86  O   UNL A   1      36.496  33.398  40.919  1.00  0.00    -0.237 OA
ATOM     87  O   UNL A   1      35.779  32.236  38.887  1.00  0.00    -0.744 OA
ENDBRANCH  81  84
ENDBRANCH  53  77
BRANCH  65  88
ATOM     88  C   UNL A   1      46.104  30.640  36.317  1.00  0.00     0.023 A 
ATOM     89  C   UNL A   1      47.116  31.618  36.372  1.00  0.00     0.012 A 
ATOM     90  C   UNL A   1      46.165  29.532  37.187  1.00  0.00     0.148 A 
ATOM     91  C   UNL A   1      48.188  31.479  37.252  1.00  0.00     0.002 A 
ATOM     92  C   UNL A   1      47.207  29.428  38.099  1.00  0.00     0.091 A 
ATOM     93  F   UNL A   1      45.200  28.605  37.111  1.00  0.00    -0.205 F 
ATOM     94  C   UNL A   1      48.228  30.393  38.124  1.00  0.00     0.022 A 
BRANCH  92  95
ATOM     95  S   UNL A   1      47.289  28.120  39.328  1.00  0.00     0.127 S 
ATOM     96  O   UNL A   1      46.154  28.449  40.188  1.00  0.00    -0.237 OA
ATOM     97  O   UNL A   1      47.109  26.918  38.512  1.00  0.00    -0.237 OA
ATOM     98  O   UNL A   1      48.599  28.236  39.954  1.00  0.00    -0.744 OA
ENDBRANCH  92  95
ENDBRANCH  65  88
ENDBRANCH  39  40
ENDBRANCH  32  34
ENDBRANCH  31  32
ENDBRANCH  30  31
ENDBRANCH  29  30
ENDBRANCH  28  29
ENDBRANCH  27  28
ENDBRANCH  26  27
ENDBRANCH  25  26
ENDBRANCH   1  25
TORSDOF 28
ENDMDL
MODEL 2
REMARK VINA RESULT:      -7.5      1.761      2.118
REMARK SMILES C[C@H](C(=O)OCCOCCOCCOCCOC(=O)c1ccc(-c2c3nc(c(-c4cccc(S(=O)(=O)[O-])c4F)c4ccc([nH]4)c(-c4cccc(S(=O)(=O)[O-])c4F)c4nc(c(-c5cccc(S(=O)(=O)[O-])c5F)c5ccc2[nH]5)C=C4)C=C3)cc1)[C@H](C)[NH+]1CC[NH+](CCO)CC1
REMARK SMILES IDX 10 1 9 2 8 3 7 4 6 5 5 6 3 7 4 8 2 9 1 10 83 11 84 12 85 13
REMARK SMILES IDX 86 14 93 15 87 17 92 18 88 19 89 21 90 22 91 23 11 25 12 26
REMARK SMILES IDX 13 27 14 28 15 29 16 30 17 31 18 32 19 33 20 34 21 35 82 36
REMARK SMILES IDX 22 37 81 38 23 39 24 40 25 41 75 42 26 43 80 44 74 45 76 46
REMARK SMILES IDX 27 47 79 48 73 49 72 50 28 52 60 53 40 54 59 55 41 56 44 57
REMARK SMILES IDX 58 58 77 59 42 60 43 61 57 63 78 64 45 65 29 66 30 67 38 68
REMARK SMILES IDX 31 69 33 70 39 71 32 72 34 73 35 74 36 75 37 76 61 77 62 78
REMARK SMILES IDX 70 79 63 80 65 81 71 82 64 83 66 84 67 85 68 86 69 87 46 88
REMARK SMILES IDX 47 89 55 90 48 91 50 92 56 93 49 94 51 95 52 96 53 97 54 98
REMARK H PARENT 85 16 88 20 91 24 76 51 44 62
REMARK Flexibility Score: inf
ROOT
ATOM      1  C   UNL A   1      33.695  24.438  26.259  1.00  0.00     0.188 C 
ENDROOT
BRANCH   1   2
ATOM      2  C   UNL A   1      34.715  23.544  25.519  1.00  0.00     0.188 C 
BRANCH   2   3
ATOM      3  O   UNL A   1      36.038  23.631  26.036  1.00  0.00    -0.376 OA
BRANCH   3   4
ATOM      4  C   UNL A   1      36.949  22.585  25.720  1.00  0.00     0.202 C 
BRANCH   4   5
ATOM      5  C   UNL A   1      38.425  22.811  26.059  1.00  0.00     0.261 C 
BRANCH   5   6
ATOM      6  O   UNL A   1      38.725  24.138  26.521  1.00  0.00    -0.463 OA
BRANCH   6   7
ATOM      7  C   UNL A   1      39.930  24.448  27.035  1.00  0.00     0.314 C 
ATOM      8  O   UNL A   1      40.300  24.094  28.150  1.00  0.00    -0.252 OA
BRANCH   7   9
ATOM      9  C   UNL A   1      40.860  25.148  26.029  1.00  0.00     0.154 C 
ATOM     10  C   UNL A   1      40.819  26.670  26.210  1.00  0.00     0.026 C 
BRANCH   9  11
ATOM     11  C   UNL A   1      42.346  24.663  25.861  1.00  0.00     0.195 C 
ATOM     12  C   UNL A   1      43.179  25.816  25.287  1.00  0.00     0.076 C 
BRANCH  11  13
ATOM     13  N   UNL A   1      42.500  23.377  25.188  1.00  0.00    -0.323 N 
ATOM     14  C   UNL A   1      43.779  23.034  24.556  1.00  0.00     0.324 C 
ATOM     15  C   UNL A   1      41.861  22.203  25.792  1.00  0.00     0.324 C 
ATOM     16  H   UNL A   1      41.911  23.649  24.401  1.00  0.00     0.348 HD
ATOM     17  C   UNL A   1      44.703  22.091  25.368  1.00  0.00     0.324 C 
ATOM     18  C   UNL A   1      42.791  21.332  26.656  1.00  0.00     0.324 C 
ATOM     19  N   UNL A   1      44.067  20.954  26.044  1.00  0.00    -0.324 N 
ATOM     20  H   UNL A   1      44.677  20.703  26.823  1.00  0.00     0.348 HD
BRANCH  19  21
ATOM     21  C   UNL A   1      44.058  19.697  25.271  1.00  0.00     0.291 C 
BRANCH  21  22
ATOM     22  C   UNL A   1      45.370  19.000  24.870  1.00  0.00     0.217 C 
BRANCH  22  23
ATOM     23  O   UNL A   1      46.153  18.624  25.998  1.00  0.00    -0.391 OA
ATOM     24  H   UNL A   1      46.275  19.391  26.578  1.00  0.00     0.210 HD
ENDBRANCH  22  23
ENDBRANCH  21  22
ENDBRANCH  19  21
ENDBRANCH  11  13
ENDBRANCH   9  11
ENDBRANCH   7   9
ENDBRANCH   6   7
ENDBRANCH   5   6
ENDBRANCH   4   5
ENDBRANCH   3   4
ENDBRANCH   2   3
ENDBRANCH   1   2
BRANCH   1  25
ATOM     25  O   UNL A   1      33.503  25.784  25.854  1.00  0.00    -0.377 OA
BRANCH  25  26
ATOM     26  C   UNL A   1      32.233  26.333  26.143  1.00  0.00     0.188 C 
BRANCH  26  27
ATOM     27  C   UNL A   1      32.192  27.847  25.872  1.00  0.00     0.188 C 
BRANCH  27  28
ATOM     28  O   UNL A   1      32.640  28.744  26.874  1.00  0.00    -0.376 OA
BRANCH  28  29
ATOM     29  C   UNL A   1      33.389  29.915  26.593  1.00  0.00     0.202 C 
BRANCH  29  30
ATOM     30  C   UNL A   1      34.320  30.689  27.551  1.00  0.00     0.261 C 
BRANCH  30  31
ATOM     31  O   UNL A   1      34.436  32.100  27.422  1.00  0.00    -0.460 OA
BRANCH  31  32
ATOM     32  C   UNL A   1      34.457  32.809  28.566  1.00  0.00     0.338 C 
ATOM     33  O   UNL A   1      33.552  33.470  29.046  1.00  0.00    -0.246 OA
BRANCH  32  34
ATOM     34  C   UNL A   1      35.724  32.480  29.247  1.00  0.00     0.060 A 
ATOM     35  C   UNL A   1      35.765  31.361  30.089  1.00  0.00     0.016 A 
ATOM     36  C   UNL A   1      36.869  33.247  29.022  1.00  0.00     0.016 A 
ATOM     37  C   UNL A   1      36.950  31.014  30.726  1.00  0.00     0.010 A 
ATOM     38  C   UNL A   1      38.047  32.924  29.696  1.00  0.00     0.010 A 
ATOM     39  C   UNL A   1      38.078  31.826  30.573  1.00  0.00    -0.014 A 
BRANCH  39  40
ATOM     40  C   UNL A   1      39.206  31.662  31.513  1.00  0.00     0.031 A 
ATOM     41  C   UNL A   1      40.438  30.962  31.013  1.00  0.00     0.074 A 
ATOM     42  C   UNL A   1      39.143  32.135  32.768  1.00  0.00     0.049 A 
ATOM     43  N   UNL A   1      41.535  30.660  31.652  1.00  0.00    -0.248 NA
ATOM     44  C   UNL A   1      40.427  30.545  29.599  1.00  0.00     0.031 C 
ATOM     45  C   UNL A   1      38.008  32.849  33.350  1.00  0.00     0.029 A 
ATOM     46  N   UNL A   1      40.056  32.057  33.788  1.00  0.00    -0.354 N 
ATOM     47  C   UNL A   1      42.332  29.993  30.731  1.00  0.00     0.074 A 
ATOM     48  C   UNL A   1      41.590  29.922  29.493  1.00  0.00     0.031 C 
ATOM     49  C   UNL A   1      38.277  33.111  34.640  1.00  0.00     0.029 A 
ATOM     50  C   UNL A   1      39.588  32.559  34.979  1.00  0.00     0.049 A 
ATOM     51  H   UNL A   1      40.958  31.679  33.679  1.00  0.00     0.167 HD
ATOM     52  C   UNL A   1      43.577  29.492  30.899  1.00  0.00     0.034 A 
ATOM     53  C   UNL A   1      40.146  32.539  36.206  1.00  0.00     0.034 A 
ATOM     54  C   UNL A   1      44.310  29.569  32.133  1.00  0.00     0.049 A 
ATOM     55  C   UNL A   1      41.517  31.938  36.378  1.00  0.00     0.074 A 
ATOM     56  C   UNL A   1      45.591  29.121  32.400  1.00  0.00     0.029 A 
ATOM     57  N   UNL A   1      43.821  30.113  33.310  1.00  0.00    -0.354 N 
ATOM     58  N   UNL A   1      42.304  31.397  35.479  1.00  0.00    -0.248 NA
ATOM     59  C   UNL A   1      42.094  31.973  37.730  1.00  0.00     0.031 C 
ATOM     60  C   UNL A   1      45.860  29.357  33.751  1.00  0.00     0.029 A 
ATOM     61  C   UNL A   1      44.766  29.999  34.313  1.00  0.00     0.049 A 
ATOM     62  H   UNL A   1      42.930  30.520  33.416  1.00  0.00     0.167 HD
ATOM     63  C   UNL A   1      43.479  31.066  36.145  1.00  0.00     0.074 A 
ATOM     64  C   UNL A   1      43.309  31.482  37.521  1.00  0.00     0.031 C 
ATOM     65  C   UNL A   1      44.597  30.463  35.665  1.00  0.00     0.034 A 
BRANCH  52  66
ATOM     66  C   UNL A   1      44.224  28.823  29.717  1.00  0.00     0.023 A 
ATOM     67  C   UNL A   1      44.722  29.602  28.652  1.00  0.00     0.012 A 
ATOM     68  C   UNL A   1      44.373  27.424  29.678  1.00  0.00     0.148 A 
ATOM     69  C   UNL A   1      45.330  28.997  27.553  1.00  0.00     0.002 A 
ATOM     70  C   UNL A   1      45.024  26.831  28.604  1.00  0.00     0.091 A 
ATOM     71  F   UNL A   1      43.869  26.699  30.688  1.00  0.00    -0.205 F 
ATOM     72  C   UNL A   1      45.490  27.614  27.534  1.00  0.00     0.022 A 
BRANCH  70  73
ATOM     73  S   UNL A   1      45.352  25.067  28.523  1.00  0.00     0.127 S 
ATOM     74  O   UNL A   1      45.956  24.940  27.198  1.00  0.00    -0.237 OA
ATOM     75  O   UNL A   1      46.278  24.878  29.639  1.00  0.00    -0.237 OA
ATOM     76  O   UNL A   1      44.063  24.409  28.683  1.00  0.00    -0.744 OA
ENDBRANCH  70  73
ENDBRANCH  52  66
BRANCH  53  77
ATOM     77  C   UNL A   1      39.410  33.112  37.367  1.00  0.00     0.023 A 
ATOM     78  C   UNL A   1      38.393  32.364  37.991  1.00  0.00     0.012 A 
ATOM     79  C   UNL A   1      39.721  34.394  37.860  1.00  0.00     0.148 A 
ATOM     80  C   UNL A   1      37.672  32.899  39.060  1.00  0.00     0.002 A 
ATOM     81  C   UNL A   1      39.043  34.895  38.965  1.00  0.00     0.091 A 
ATOM     82  F   UNL A   1      40.680  35.098  37.243  1.00  0.00    -0.205 F 
ATOM     83  C   UNL A   1      38.004  34.159  39.553  1.00  0.00     0.022 A 
BRANCH  81  84
ATOM     84  S   UNL A   1      39.504  36.444  39.750  1.00  0.00     0.127 S 
ATOM     85  O   UNL A   1      39.272  37.404  38.675  1.00  0.00    -0.237 OA
ATOM     86  O   UNL A   1      38.554  36.513  40.860  1.00  0.00    -0.237 OA
ATOM     87  O   UNL A   1      40.890  36.278  40.169  1.00  0.00    -0.744 OA
ENDBRANCH  81  84
ENDBRANCH  53  77
BRANCH  65  88
ATOM     88  C   UNL A   1      45.749  30.259  36.617  1.00  0.00     0.023 A 
ATOM     89  C   UNL A   1      46.745  31.248  36.747  1.00  0.00     0.012 A 
ATOM     90  C   UNL A   1      45.797  29.116  37.441  1.00  0.00     0.148 A 
ATOM     91  C   UNL A   1      47.789  31.084  37.655  1.00  0.00     0.002 A 
ATOM     92  C   UNL A   1      46.811  28.987  38.382  1.00  0.00     0.091 A 
ATOM     93  F   UNL A   1      44.849  28.181  37.293  1.00  0.00    -0.205 F 
ATOM     94  C   UNL A   1      47.817  29.962  38.481  1.00  0.00     0.022 A 
BRANCH  92  95
ATOM     95  S   UNL A   1      46.872  27.628  39.555  1.00  0.00     0.127 S 
ATOM     96  O   UNL A   1      47.305  26.520  38.705  1.00  0.00    -0.237 OA
ATOM     97  O   UNL A   1      47.877  28.091  40.513  1.00  0.00    -0.237 OA
ATOM     98  O   UNL A   1      45.527  27.506  40.100  1.00  0.00    -0.744 OA
ENDBRANCH  92  95
ENDBRANCH  65  88
ENDBRANCH  39  40
ENDBRANCH  32  34
ENDBRANCH  31  32
ENDBRANCH  30  31
ENDBRANCH  29  30
ENDBRANCH  28  29
ENDBRANCH  27  28
ENDBRANCH  26  27
ENDBRANCH  25  26
ENDBRANCH   1  25
TORSDOF 28
ENDMDL
MODEL 3
REMARK VINA RESULT:      -7.2      4.325      9.565
REMARK SMILES C[C@H](C(=O)OCCOCCOCCOCCOC(=O)c1ccc(-c2c3nc(c(-c4cccc(S(=O)(=O)[O-])c4F)c4ccc([nH]4)c(-c4cccc(S(=O)(=O)[O-])c4F)c4nc(c(-c5cccc(S(=O)(=O)[O-])c5F)c5ccc2[nH]5)C=C4)C=C3)cc1)[C@H](C)[NH+]1CC[NH+](CCO)CC1
REMARK SMILES IDX 10 1 9 2 8 3 7 4 6 5 5 6 3 7 4 8 2 9 1 10 83 11 84 12 85 13
REMARK SMILES IDX 86 14 93 15 87 17 92 18 88 19 89 21 90 22 91 23 11 25 12 26
REMARK SMILES IDX 13 27 14 28 15 29 16 30 17 31 18 32 19 33 20 34 21 35 82 36
REMARK SMILES IDX 22 37 81 38 23 39 24 40 25 41 75 42 26 43 80 44 74 45 76 46
REMARK SMILES IDX 27 47 79 48 73 49 72 50 28 52 60 53 40 54 59 55 41 56 44 57
REMARK SMILES IDX 58 58 77 59 42 60 43 61 57 63 78 64 45 65 29 66 30 67 38 68
REMARK SMILES IDX 31 69 33 70 39 71 32 72 34 73 35 74 36 75 37 76 61 77 62 78
REMARK SMILES IDX 70 79 63 80 65 81 71 82 64 83 66 84 67 85 68 86 69 87 46 88
REMARK SMILES IDX 47 89 55 90 48 91 50 92 56 93 49 94 51 95 52 96 53 97 54 98
REMARK H PARENT 85 16 88 20 91 24 76 51 44 62
REMARK Flexibility Score: inf
ROOT
ATOM      1  C   UNL A   1      46.203  23.895  27.335  1.00  0.00     0.188 C 
ENDROOT
BRANCH   1   2
ATOM      2  C   UNL A   1      45.687  22.831  26.340  1.00  0.00     0.188 C 
BRANCH   2   3
ATOM      3  O   UNL A   1      44.461  22.225  26.731  1.00  0.00    -0.376 OA
BRANCH   3   4
ATOM      4  C   UNL A   1      43.767  21.439  25.768  1.00  0.00     0.202 C 
BRANCH   4   5
ATOM      5  C   UNL A   1      42.239  21.537  25.750  1.00  0.00     0.261 C 
BRANCH   5   6
ATOM      6  O   UNL A   1      41.719  22.735  26.348  1.00  0.00    -0.463 OA
BRANCH   6   7
ATOM      7  C   UNL A   1      40.405  22.882  26.601  1.00  0.00     0.314 C 
ATOM      8  O   UNL A   1      39.660  21.946  26.871  1.00  0.00    -0.252 OA
BRANCH   7   9
ATOM      9  C   UNL A   1      39.961  24.353  26.678  1.00  0.00     0.154 C 
ATOM     10  C   UNL A   1      38.443  24.459  26.875  1.00  0.00     0.026 C 
BRANCH   9  11
ATOM     11  C   UNL A   1      40.702  25.349  27.641  1.00  0.00     0.195 C 
ATOM     12  C   UNL A   1      39.705  25.849  28.695  1.00  0.00     0.076 C 
BRANCH  11  13
ATOM     13  N   UNL A   1      41.484  26.384  26.972  1.00  0.00    -0.323 N 
ATOM     14  C   UNL A   1      42.513  27.116  27.718  1.00  0.00     0.324 C 
ATOM     15  C   UNL A   1      41.882  26.154  25.580  1.00  0.00     0.324 C 
ATOM     16  H   UNL A   1      40.702  27.040  26.940  1.00  0.00     0.348 HD
ATOM     17  C   UNL A   1      43.974  26.648  27.491  1.00  0.00     0.324 C 
ATOM     18  C   UNL A   1      43.312  25.613  25.397  1.00  0.00     0.324 C 
ATOM     19  N   UNL A   1      44.367  26.337  26.112  1.00  0.00    -0.324 N 
ATOM     20  H   UNL A   1      45.149  25.683  26.175  1.00  0.00     0.348 HD
BRANCH  19  21
ATOM     21  C   UNL A   1      44.987  27.455  25.375  1.00  0.00     0.291 C 
BRANCH  21  22
ATOM     22  C   UNL A   1      46.313  27.269  24.615  1.00  0.00     0.217 C 
BRANCH  22  23
ATOM     23  O   UNL A   1      46.701  25.903  24.524  1.00  0.00    -0.391 OA
ATOM     24  H   UNL A   1      47.387  25.716  25.184  1.00  0.00     0.210 HD
ENDBRANCH  22  23
ENDBRANCH  21  22
ENDBRANCH  19  21
ENDBRANCH  11  13
ENDBRANCH   9  11
ENDBRANCH   7   9
ENDBRANCH   6   7
ENDBRANCH   5   6
ENDBRANCH   4   5
ENDBRANCH   3   4
ENDBRANCH   2   3
ENDBRANCH   1   2
BRANCH   1  25
ATOM     25  O   UNL A   1      47.251  24.774  26.958  1.00  0.00    -0.377 OA
BRANCH  25  26
ATOM     26  C   UNL A   1      47.808  25.544  28.004  1.00  0.00     0.188 C 
BRANCH  26  27
ATOM     27  C   UNL A   1      49.249  25.111  28.324  1.00  0.00     0.188 C 
BRANCH  27  28
ATOM     28  O   UNL A   1      50.108  24.720  27.267  1.00  0.00    -0.376 OA
BRANCH  28  29
ATOM     29  C   UNL A   1      50.931  25.628  26.554  1.00  0.00     0.202 C 
BRANCH  29  30
ATOM     30  C   UNL A   1      50.526  26.541  25.377  1.00  0.00     0.261 C 
BRANCH  30  31
ATOM     31  O   UNL A   1      50.816  27.931  25.440  1.00  0.00    -0.460 OA
BRANCH  31  32
ATOM     32  C   UNL A   1      51.219  28.407  26.633  1.00  0.00     0.338 C 
ATOM     33  O   UNL A   1      52.365  28.525  27.036  1.00  0.00    -0.246 OA
BRANCH  32  34
ATOM     34  C   UNL A   1      50.023  28.952  27.301  1.00  0.00     0.060 A 
ATOM     35  C   UNL A   1      50.181  29.635  28.514  1.00  0.00     0.016 A 
ATOM     36  C   UNL A   1      48.762  28.824  26.712  1.00  0.00     0.016 A 
ATOM     37  C   UNL A   1      49.074  30.179  29.155  1.00  0.00     0.010 A 
ATOM     38  C   UNL A   1      47.647  29.332  27.378  1.00  0.00     0.010 A 
ATOM     39  C   UNL A   1      47.800  29.981  28.616  1.00  0.00    -0.014 A 
BRANCH  39  40
ATOM     40  C   UNL A   1      46.619  30.242  29.465  1.00  0.00     0.031 A 
ATOM     41  C   UNL A   1      45.819  31.484  29.190  1.00  0.00     0.074 A 
ATOM     42  C   UNL A   1      46.260  29.393  30.441  1.00  0.00     0.049 A 
ATOM     43  N   UNL A   1      44.775  31.952  29.817  1.00  0.00    -0.248 NA
ATOM     44  C   UNL A   1      46.261  32.309  28.050  1.00  0.00     0.031 C 
ATOM     45  C   UNL A   1      46.950  28.150  30.780  1.00  0.00     0.029 A 
ATOM     46  N   UNL A   1      45.233  29.471  31.346  1.00  0.00    -0.354 N 
ATOM     47  C   UNL A   1      44.453  33.138  29.171  1.00  0.00     0.074 A 
ATOM     48  C   UNL A   1      45.417  33.326  28.112  1.00  0.00     0.031 C 
ATOM     49  C   UNL A   1      46.347  27.598  31.847  1.00  0.00     0.029 A 
ATOM     50  C   UNL A   1      45.251  28.464  32.281  1.00  0.00     0.049 A 
ATOM     51  H   UNL A   1      44.550  30.179  31.328  1.00  0.00     0.167 HD
ATOM     52  C   UNL A   1      43.435  33.991  29.432  1.00  0.00     0.034 A 
ATOM     53  C   UNL A   1      44.488  28.287  33.378  1.00  0.00     0.034 A 
ATOM     54  C   UNL A   1      42.479  33.796  30.486  1.00  0.00     0.049 A 
ATOM     55  C   UNL A   1      43.387  29.273  33.673  1.00  0.00     0.074 A 
ATOM     56  C   UNL A   1      41.391  34.584  30.815  1.00  0.00     0.029 A 
ATOM     57  N   UNL A   1      42.505  32.748  31.393  1.00  0.00    -0.354 N 
ATOM     58  N   UNL A   1      43.027  30.339  32.998  1.00  0.00    -0.248 NA
ATOM     59  C   UNL A   1      42.563  29.014  34.862  1.00  0.00     0.031 C 
ATOM     60  C   UNL A   1      40.784  34.034  31.948  1.00  0.00     0.029 A 
ATOM     61  C   UNL A   1      41.463  32.876  32.293  1.00  0.00     0.049 A 
ATOM     62  H   UNL A   1      43.170  32.021  31.396  1.00  0.00     0.167 HD
ATOM     63  C   UNL A   1      41.916  30.854  33.657  1.00  0.00     0.074 A 
ATOM     64  C   UNL A   1      41.649  29.972  34.775  1.00  0.00     0.031 C 
ATOM     65  C   UNL A   1      41.185  31.961  33.370  1.00  0.00     0.034 A 
BRANCH  52  66
ATOM     66  C   UNL A   1      43.306  35.208  28.557  1.00  0.00     0.023 A 
ATOM     67  C   UNL A   1      42.640  35.117  27.317  1.00  0.00     0.012 A 
ATOM     68  C   UNL A   1      43.811  36.452  28.981  1.00  0.00     0.148 A 
ATOM     69  C   UNL A   1      42.507  36.238  26.499  1.00  0.00     0.002 A 
ATOM     70  C   UNL A   1      43.631  37.575  28.184  1.00  0.00     0.091 A 
ATOM     71  F   UNL A   1      44.464  36.512  30.151  1.00  0.00    -0.205 F 
ATOM     72  C   UNL A   1      42.992  37.468  26.937  1.00  0.00     0.022 A 
BRANCH  70  73
ATOM     73  S   UNL A   1      44.146  39.218  28.693  1.00  0.00     0.127 S 
ATOM     74  O   UNL A   1      45.601  39.077  28.719  1.00  0.00    -0.237 OA
ATOM     75  O   UNL A   1      43.632  40.050  27.606  1.00  0.00    -0.237 OA
ATOM     76  O   UNL A   1      43.522  39.454  29.987  1.00  0.00    -0.744 OA
ENDBRANCH  70  73
ENDBRANCH  52  66
BRANCH  53  77
ATOM     77  C   UNL A   1      44.736  27.125  34.276  1.00  0.00     0.023 A 
ATOM     78  C   UNL A   1      45.482  27.299  35.458  1.00  0.00     0.012 A 
ATOM     79  C   UNL A   1      44.226  25.849  33.967  1.00  0.00     0.148 A 
ATOM     80  C   UNL A   1      45.750  26.214  36.294  1.00  0.00     0.002 A 
ATOM     81  C   UNL A   1      44.442  24.787  34.837  1.00  0.00     0.091 A 
ATOM     82  F   UNL A   1      43.533  25.699  32.830  1.00  0.00    -0.205 F 
ATOM     83  C   UNL A   1      45.222  24.961  35.989  1.00  0.00     0.022 A 
BRANCH  81  84
ATOM     84  S   UNL A   1      43.679  23.179  34.592  1.00  0.00     0.127 S 
ATOM     85  O   UNL A   1      43.908  22.953  33.168  1.00  0.00    -0.237 OA
ATOM     86  O   UNL A   1      44.465  22.333  35.489  1.00  0.00    -0.237 OA
ATOM     87  O   UNL A   1      42.287  23.336  34.998  1.00  0.00    -0.744 OA
ENDBRANCH  81  84
ENDBRANCH  53  77
BRANCH  65  88
ATOM     88  C   UNL A   1      39.992  32.262  34.244  1.00  0.00     0.023 A 
ATOM     89  C   UNL A   1      38.696  31.912  33.819  1.00  0.00     0.012 A 
ATOM     90  C   UNL A   1      40.173  32.822  35.525  1.00  0.00     0.148 A 
ATOM     91  C   UNL A   1      37.594  32.149  34.639  1.00  0.00     0.002 A 
ATOM     92  C   UNL A   1      39.076  33.004  36.358  1.00  0.00     0.091 A 
ATOM     93  F   UNL A   1      41.412  33.160  35.907  1.00  0.00    -0.205 F 
ATOM     94  C   UNL A   1      37.784  32.682  35.912  1.00  0.00     0.022 A 
BRANCH  92  95
ATOM     95  S   UNL A   1      39.235  33.590  38.049  1.00  0.00     0.127 S 
ATOM     96  O   UNL A   1      40.262  32.694  38.579  1.00  0.00    -0.237 OA
ATOM     97  O   UNL A   1      39.672  34.973  37.857  1.00  0.00    -0.237 OA
ATOM     98  O   UNL A   1      37.916  33.448  38.650  1.00  0.00    -0.744 OA
ENDBRANCH  92  95
ENDBRANCH  65  88
ENDBRANCH  39  40
ENDBRANCH  32  34
ENDBRANCH  31  32
ENDBRANCH  30  31
ENDBRANCH  29  30
ENDBRANCH  28  29
ENDBRANCH  27  28
ENDBRANCH  26  27
ENDBRANCH  25  26
ENDBRANCH   1  25
TORSDOF 28
ENDMDL
