MODEL 1
REMARK VINA RESULT:     -10.0      0.000      0.000
REMARK SMILES CC(=O)N[C@@H](Cc1c(OCC(C)C)ccc2ccccc12)C(=O)OCCOCCOCCOCCOC(=O)c1ccc(-c2c3nc(c(-c4cccc(S(=O)(=O)[O-])c4F)c4ccc([nH]4)c(-c4cccc(S(=O)(=O)[O-])c4F)c4nc(c(-c5cccc(S(=O)(=O)[O-])c5F)c5ccc2[nH]5)C=C4)C=C3)cc1
REMARK SMILES IDX 29 1 28 2 27 3 26 4 25 5 24 6 22 7 23 8 5 9 4 10 1 11 2 12
REMARK SMILES IDX 3 13 6 15 7 16 8 17 21 18 14 19 16 20 20 21 15 22 17 23
REMARK SMILES IDX 19 24 18 25 9 26 10 27 11 28 12 29 13 30 30 31 31 32 32 33
REMARK SMILES IDX 33 34 34 35 35 36 36 37 37 38 38 39 39 40 40 41 101 42 41 43
REMARK SMILES IDX 100 44 42 45 43 46 44 47 94 48 45 49 99 50 93 51 95 52 46 53
REMARK SMILES IDX 98 54 92 55 91 56 47 58 79 59 59 60 78 61 60 62 63 63 77 64
REMARK SMILES IDX 96 65 61 66 62 67 76 69 97 70 64 71 48 72 49 73 57 74 50 75
REMARK SMILES IDX 52 76 58 77 51 78 53 79 54 80 55 81 56 82 80 83 81 84 89 85
REMARK SMILES IDX 82 86 84 87 90 88 83 89 85 90 86 91 87 92 88 93 65 94 66 95
REMARK SMILES IDX 74 96 67 97 69 98 75 99 68 100 70 101 71 102 72 103 73 104
REMARK H PARENT 4 14 95 57 63 68
REMARK Flexibility Score: inf
ROOT
ATOM      1  C   UNL A   1      33.163  22.227  26.694  1.00  0.00     0.188 C 
ENDROOT
BRANCH   1   2
ATOM      2  C   UNL A   1      31.861  22.978  27.039  1.00  0.00     0.188 C 
BRANCH   2   3
ATOM      3  O   UNL A   1      31.455  24.131  26.309  1.00  0.00    -0.376 OA
BRANCH   3   4
ATOM      4  C   UNL A   1      30.212  24.753  26.596  1.00  0.00     0.202 C 
BRANCH   4   5
ATOM      5  C   UNL A   1      29.504  25.584  25.525  1.00  0.00     0.261 C 
BRANCH   5   6
ATOM      6  O   UNL A   1      30.150  25.675  24.242  1.00  0.00    -0.462 OA
BRANCH   6   7
ATOM      7  C   UNL A   1      29.932  26.801  23.523  1.00  0.00     0.329 C 
ATOM      8  O   UNL A   1      28.820  27.266  23.280  1.00  0.00    -0.250 OA
BRANCH   7   9
ATOM      9  C   UNL A   1      31.206  27.376  22.881  1.00  0.00     0.196 C 
BRANCH   9  10
ATOM     10  N   UNL A   1      31.694  26.819  21.612  1.00  0.00    -0.343 N 
ATOM     11  C   UNL A   1      33.241  25.154  22.584  1.00  0.00     0.114 C 
ATOM     12  C   UNL A   1      32.655  25.872  21.396  1.00  0.00     0.217 C 
ATOM     13  O   UNL A   1      33.000  25.580  20.252  1.00  0.00    -0.275 OA
ATOM     14  H   UNL A   1      31.268  27.180  20.801  1.00  0.00     0.164 HD
ENDBRANCH   9  10
BRANCH   9  15
ATOM     15  C   UNL A   1      31.047  28.910  22.793  1.00  0.00     0.077 C 
BRANCH  15  16
ATOM     16  C   UNL A   1      31.279  29.689  24.088  1.00  0.00     0.005 A 
ATOM     17  C   UNL A   1      30.345  30.688  24.464  1.00  0.00     0.123 A 
ATOM     18  C   UNL A   1      32.391  29.407  24.955  1.00  0.00    -0.011 A 
ATOM     19  C   UNL A   1      30.609  31.489  25.568  1.00  0.00     0.047 A 
ATOM     20  C   UNL A   1      32.462  30.076  26.200  1.00  0.00    -0.018 A 
ATOM     21  C   UNL A   1      33.429  28.479  24.696  1.00  0.00     0.009 A 
ATOM     22  C   UNL A   1      31.615  31.146  26.462  1.00  0.00     0.012 A 
ATOM     23  C   UNL A   1      33.380  29.683  27.186  1.00  0.00     0.009 A 
ATOM     24  C   UNL A   1      34.357  28.103  25.676  1.00  0.00     0.001 A 
ATOM     25  C   UNL A   1      34.299  28.671  26.939  1.00  0.00     0.001 A 
BRANCH  17  26
ATOM     26  O   UNL A   1      29.175  30.749  23.751  1.00  0.00    -0.493 OA
BRANCH  26  27
ATOM     27  C   UNL A   1      28.880  31.909  22.966  1.00  0.00     0.232 C 
BRANCH  27  28
ATOM     28  C   UNL A   1      28.661  31.678  21.450  1.00  0.00     0.020 C 
ATOM     29  C   UNL A   1      27.982  30.365  21.056  1.00  0.00     0.011 C 
ATOM     30  C   UNL A   1      27.827  32.838  20.892  1.00  0.00     0.011 C 
ENDBRANCH  27  28
ENDBRANCH  26  27
ENDBRANCH  17  26
ENDBRANCH  15  16
ENDBRANCH   9  15
ENDBRANCH   7   9
ENDBRANCH   6   7
ENDBRANCH   5   6
ENDBRANCH   4   5
ENDBRANCH   3   4
ENDBRANCH   2   3
ENDBRANCH   1   2
BRANCH   1  31
ATOM     31  O   UNL A   1      33.018  21.129  25.817  1.00  0.00    -0.377 OA
BRANCH  31  32
ATOM     32  C   UNL A   1      34.161  20.307  25.635  1.00  0.00     0.188 C 
BRANCH  32  33
ATOM     33  C   UNL A   1      35.407  20.989  25.039  1.00  0.00     0.188 C 
BRANCH  33  34
ATOM     34  O   UNL A   1      36.505  20.108  24.838  1.00  0.00    -0.376 OA
BRANCH  34  35
ATOM     35  C   UNL A   1      37.820  20.639  24.804  1.00  0.00     0.202 C 
BRANCH  35  36
ATOM     36  C   UNL A   1      38.981  19.789  25.349  1.00  0.00     0.261 C 
BRANCH  36  37
ATOM     37  O   UNL A   1      39.579  20.213  26.582  1.00  0.00    -0.460 OA
BRANCH  37  38
ATOM     38  C   UNL A   1      40.884  20.552  26.579  1.00  0.00     0.338 C 
ATOM     39  O   UNL A   1      41.800  19.926  26.069  1.00  0.00    -0.246 OA
BRANCH  38  40
ATOM     40  C   UNL A   1      40.998  21.930  27.104  1.00  0.00     0.060 A 
ATOM     41  C   UNL A   1      40.340  22.965  26.427  1.00  0.00     0.016 A 
ATOM     42  C   UNL A   1      41.748  22.201  28.251  1.00  0.00     0.016 A 
ATOM     43  C   UNL A   1      40.477  24.283  26.860  1.00  0.00     0.010 A 
ATOM     44  C   UNL A   1      41.907  23.526  28.668  1.00  0.00     0.010 A 
ATOM     45  C   UNL A   1      41.311  24.575  27.944  1.00  0.00    -0.014 A 
BRANCH  45  46
ATOM     46  C   UNL A   1      41.740  25.976  28.166  1.00  0.00     0.031 A 
ATOM     47  C   UNL A   1      43.105  26.385  27.677  1.00  0.00     0.074 A 
ATOM     48  C   UNL A   1      40.933  26.876  28.753  1.00  0.00     0.049 A 
ATOM     49  N   UNL A   1      43.704  27.542  27.758  1.00  0.00    -0.248 NA
ATOM     50  C   UNL A   1      43.901  25.342  27.004  1.00  0.00     0.031 C 
ATOM     51  C   UNL A   1      39.585  26.608  29.248  1.00  0.00     0.029 A 
ATOM     52  N   UNL A   1      41.146  28.200  29.048  1.00  0.00    -0.354 N 
ATOM     53  C   UNL A   1      44.954  27.362  27.179  1.00  0.00     0.074 A 
ATOM     54  C   UNL A   1      45.034  25.980  26.760  1.00  0.00     0.031 C 
ATOM     55  C   UNL A   1      39.099  27.729  29.813  1.00  0.00     0.029 A 
ATOM     56  C   UNL A   1      40.112  28.782  29.742  1.00  0.00     0.049 A 
ATOM     57  H   UNL A   1      41.961  28.687  28.787  1.00  0.00     0.167 HD
ATOM     58  C   UNL A   1      45.944  28.267  26.997  1.00  0.00     0.034 A 
ATOM     59  C   UNL A   1      40.010  30.013  30.280  1.00  0.00     0.034 A 
ATOM     60  C   UNL A   1      45.859  29.642  27.404  1.00  0.00     0.049 A 
ATOM     61  C   UNL A   1      41.142  30.993  30.100  1.00  0.00     0.074 A 
ATOM     62  C   UNL A   1      46.791  30.650  27.231  1.00  0.00     0.029 A 
ATOM     63  N   UNL A   1      44.787  30.201  28.083  1.00  0.00    -0.354 N 
ATOM     64  N   UNL A   1      42.275  30.840  29.456  1.00  0.00    -0.248 NA
ATOM     65  C   UNL A   1      40.966  32.328  30.690  1.00  0.00     0.031 C 
ATOM     66  C   UNL A   1      46.300  31.807  27.843  1.00  0.00     0.029 A 
ATOM     67  C   UNL A   1      45.041  31.534  28.352  1.00  0.00     0.049 A 
ATOM     68  H   UNL A   1      43.967  29.720  28.337  1.00  0.00     0.167 HD
ATOM     69  C   UNL A   1      42.926  32.067  29.529  1.00  0.00     0.074 A 
ATOM     70  C   UNL A   1      42.052  32.959  30.262  1.00  0.00     0.031 C 
ATOM     71  C   UNL A   1      44.141  32.424  29.041  1.00  0.00     0.034 A 
BRANCH  58  72
ATOM     72  C   UNL A   1      47.207  27.796  26.324  1.00  0.00     0.023 A 
ATOM     73  C   UNL A   1      48.213  27.159  27.079  1.00  0.00     0.012 A 
ATOM     74  C   UNL A   1      47.374  27.943  24.932  1.00  0.00     0.148 A 
ATOM     75  C   UNL A   1      49.380  26.707  26.465  1.00  0.00     0.002 A 
ATOM     76  C   UNL A   1      48.518  27.446  24.322  1.00  0.00     0.091 A 
ATOM     77  F   UNL A   1      46.416  28.573  24.237  1.00  0.00    -0.205 F 
ATOM     78  C   UNL A   1      49.528  26.841  25.087  1.00  0.00     0.022 A 
BRANCH  76  79
ATOM     79  S   UNL A   1      48.765  27.493  22.543  1.00  0.00     0.127 S 
ATOM     80  O   UNL A   1      47.740  28.451  22.129  1.00  0.00    -0.237 OA
ATOM     81  O   UNL A   1      50.138  27.986  22.438  1.00  0.00    -0.237 OA
ATOM     82  O   UNL A   1      48.568  26.130  22.071  1.00  0.00    -0.744 OA
ENDBRANCH  76  79
ENDBRANCH  58  72
BRANCH  59  83
ATOM     83  C   UNL A   1      38.781  30.403  31.029  1.00  0.00     0.023 A 
ATOM     84  C   UNL A   1      38.662  30.086  32.397  1.00  0.00     0.012 A 
ATOM     85  C   UNL A   1      37.729  31.089  30.391  1.00  0.00     0.148 A 
ATOM     86  C   UNL A   1      37.504  30.410  33.104  1.00  0.00     0.002 A 
ATOM     87  C   UNL A   1      36.606  31.466  31.117  1.00  0.00     0.091 A 
ATOM     88  F   UNL A   1      37.854  31.368  29.086  1.00  0.00    -0.205 F 
ATOM     89  C   UNL A   1      36.481  31.108  32.468  1.00  0.00     0.022 A 
BRANCH  87  90
ATOM     90  S   UNL A   1      35.303  32.485  30.418  1.00  0.00     0.127 S 
ATOM     91  O   UNL A   1      34.370  32.589  31.535  1.00  0.00    -0.237 OA
ATOM     92  O   UNL A   1      36.028  33.716  30.099  1.00  0.00    -0.237 OA
ATOM     93  O   UNL A   1      34.814  31.762  29.251  1.00  0.00    -0.744 OA
ENDBRANCH  87  90
ENDBRANCH  59  83
BRANCH  71  94
ATOM     94  C   UNL A   1      44.584  33.853  29.231  1.00  0.00     0.023 A 
ATOM     95  C   UNL A   1      44.193  34.846  28.311  1.00  0.00     0.012 A 
ATOM     96  C   UNL A   1      45.335  34.221  30.367  1.00  0.00     0.148 A 
ATOM     97  C   UNL A   1      44.577  36.175  28.496  1.00  0.00     0.002 A 
ATOM     98  C   UNL A   1      45.666  35.554  30.573  1.00  0.00     0.091 A 
ATOM     99  F   UNL A   1      45.710  33.261  31.223  1.00  0.00    -0.205 F 
ATOM    100  C   UNL A   1      45.303  36.530  29.630  1.00  0.00     0.022 A 
BRANCH  98 101
ATOM    101  S   UNL A   1      46.510  36.120  32.053  1.00  0.00     0.127 S 
ATOM    102  O   UNL A   1      47.914  35.970  31.672  1.00  0.00    -0.237 OA
ATOM    103  O   UNL A   1      46.053  37.506  32.160  1.00  0.00    -0.237 OA
ATOM    104  O   UNL A   1      46.061  35.250  33.131  1.00  0.00    -0.744 OA
ENDBRANCH  98 101
ENDBRANCH  71  94
ENDBRANCH  45  46
ENDBRANCH  38  40
ENDBRANCH  37  38
ENDBRANCH  36  37
ENDBRANCH  35  36
ENDBRANCH  34  35
ENDBRANCH  33  34
ENDBRANCH  32  33
ENDBRANCH  31  32
ENDBRANCH   1  31
TORSDOF 29
ENDMDL
MODEL 2
REMARK VINA RESULT:      -9.4      2.620      3.147
REMARK SMILES CC(=O)N[C@@H](Cc1c(OCC(C)C)ccc2ccccc12)C(=O)OCCOCCOCCOCCOC(=O)c1ccc(-c2c3nc(c(-c4cccc(S(=O)(=O)[O-])c4F)c4ccc([nH]4)c(-c4cccc(S(=O)(=O)[O-])c4F)c4nc(c(-c5cccc(S(=O)(=O)[O-])c5F)c5ccc2[nH]5)C=C4)C=C3)cc1
REMARK SMILES IDX 29 1 28 2 27 3 26 4 25 5 24 6 22 7 23 8 5 9 4 10 1 11 2 12
REMARK SMILES IDX 3 13 6 15 7 16 8 17 21 18 14 19 16 20 20 21 15 22 17 23
REMARK SMILES IDX 19 24 18 25 9 26 10 27 11 28 12 29 13 30 30 31 31 32 32 33
REMARK SMILES IDX 33 34 34 35 35 36 36 37 37 38 38 39 39 40 40 41 101 42 41 43
REMARK SMILES IDX 100 44 42 45 43 46 44 47 94 48 45 49 99 50 93 51 95 52 46 53
REMARK SMILES IDX 98 54 92 55 91 56 47 58 79 59 59 60 78 61 60 62 63 63 77 64
REMARK SMILES IDX 96 65 61 66 62 67 76 69 97 70 64 71 48 72 49 73 57 74 50 75
REMARK SMILES IDX 52 76 58 77 51 78 53 79 54 80 55 81 56 82 80 83 81 84 89 85
REMARK SMILES IDX 82 86 84 87 90 88 83 89 85 90 86 91 87 92 88 93 65 94 66 95
REMARK SMILES IDX 74 96 67 97 69 98 75 99 68 100 70 101 71 102 72 103 73 104
REMARK H PARENT 4 14 95 57 63 68
REMARK Flexibility Score: inf
ROOT
ATOM      1  C   UNL A   1      34.180  22.292  26.822  1.00  0.00     0.188 C 
ENDROOT
BRANCH   1   2
ATOM      2  C   UNL A   1      32.827  22.923  27.208  1.00  0.00     0.188 C 
BRANCH   2   3
ATOM      3  O   UNL A   1      31.903  23.358  26.217  1.00  0.00    -0.376 OA
BRANCH   3   4
ATOM      4  C   UNL A   1      30.508  23.308  26.474  1.00  0.00     0.202 C 
BRANCH   4   5
ATOM      5  C   UNL A   1      29.662  24.577  26.364  1.00  0.00     0.261 C 
BRANCH   5   6
ATOM      6  O   UNL A   1      30.367  25.811  26.136  1.00  0.00    -0.462 OA
BRANCH   6   7
ATOM      7  C   UNL A   1      30.575  26.172  24.848  1.00  0.00     0.329 C 
ATOM      8  O   UNL A   1      29.711  26.156  23.975  1.00  0.00    -0.250 OA
BRANCH   7   9
ATOM      9  C   UNL A   1      32.051  26.454  24.520  1.00  0.00     0.196 C 
BRANCH   9  10
ATOM     10  N   UNL A   1      32.836  25.450  23.788  1.00  0.00    -0.343 N 
ATOM     11  C   UNL A   1      31.979  25.980  21.531  1.00  0.00     0.114 C 
ATOM     12  C   UNL A   1      32.808  25.131  22.460  1.00  0.00     0.217 C 
ATOM     13  O   UNL A   1      33.482  24.198  22.026  1.00  0.00    -0.275 OA
ATOM     14  H   UNL A   1      33.474  24.934  24.332  1.00  0.00     0.164 HD
ENDBRANCH   9  10
BRANCH   9  15
ATOM     15  C   UNL A   1      32.134  27.835  23.835  1.00  0.00     0.077 C 
BRANCH  15  16
ATOM     16  C   UNL A   1      32.041  29.053  24.755  1.00  0.00     0.005 A 
ATOM     17  C   UNL A   1      30.921  29.915  24.641  1.00  0.00     0.123 A 
ATOM     18  C   UNL A   1      33.035  29.323  25.758  1.00  0.00    -0.011 A 
ATOM     19  C   UNL A   1      30.886  31.091  25.380  1.00  0.00     0.047 A 
ATOM     20  C   UNL A   1      32.810  30.391  26.660  1.00  0.00    -0.018 A 
ATOM     21  C   UNL A   1      34.229  28.588  25.962  1.00  0.00     0.009 A 
ATOM     22  C   UNL A   1      31.781  31.295  26.422  1.00  0.00     0.012 A 
ATOM     23  C   UNL A   1      33.613  30.563  27.798  1.00  0.00     0.009 A 
ATOM     24  C   UNL A   1      35.039  28.777  27.089  1.00  0.00     0.001 A 
ATOM     25  C   UNL A   1      34.701  29.733  28.033  1.00  0.00     0.001 A 
BRANCH  17  26
ATOM     26  O   UNL A   1      29.880  29.485  23.858  1.00  0.00    -0.493 OA
BRANCH  26  27
ATOM     27  C   UNL A   1      29.757  29.964  22.514  1.00  0.00     0.232 C 
BRANCH  27  28
ATOM     28  C   UNL A   1      28.724  31.094  22.277  1.00  0.00     0.020 C 
ATOM     29  C   UNL A   1      27.939  31.031  20.966  1.00  0.00     0.011 C 
ATOM     30  C   UNL A   1      27.723  31.093  23.440  1.00  0.00     0.011 C 
ENDBRANCH  27  28
ENDBRANCH  26  27
ENDBRANCH  17  26
ENDBRANCH  15  16
ENDBRANCH   9  15
ENDBRANCH   7   9
ENDBRANCH   6   7
ENDBRANCH   5   6
ENDBRANCH   4   5
ENDBRANCH   3   4
ENDBRANCH   2   3
ENDBRANCH   1   2
BRANCH   1  31
ATOM     31  O   UNL A   1      34.214  21.647  25.565  1.00  0.00    -0.377 OA
BRANCH  31  32
ATOM     32  C   UNL A   1      35.179  20.618  25.407  1.00  0.00     0.188 C 
BRANCH  32  33
ATOM     33  C   UNL A   1      36.515  21.025  24.756  1.00  0.00     0.188 C 
BRANCH  33  34
ATOM     34  O   UNL A   1      37.569  20.097  24.976  1.00  0.00    -0.376 OA
BRANCH  34  35
ATOM     35  C   UNL A   1      38.910  20.562  24.979  1.00  0.00     0.202 C 
BRANCH  35  36
ATOM     36  C   UNL A   1      39.745  20.418  26.263  1.00  0.00     0.261 C 
BRANCH  36  37
ATOM     37  O   UNL A   1      40.111  21.627  26.944  1.00  0.00    -0.460 OA
BRANCH  37  38
ATOM     38  C   UNL A   1      41.117  22.368  26.440  1.00  0.00     0.338 C 
ATOM     39  O   UNL A   1      41.862  22.060  25.522  1.00  0.00    -0.246 OA
BRANCH  38  40
ATOM     40  C   UNL A   1      41.033  23.718  27.036  1.00  0.00     0.060 A 
ATOM     41  C   UNL A   1      40.505  24.763  26.265  1.00  0.00     0.016 A 
ATOM     42  C   UNL A   1      41.469  23.955  28.341  1.00  0.00     0.016 A 
ATOM     43  C   UNL A   1      40.468  26.060  26.774  1.00  0.00     0.010 A 
ATOM     44  C   UNL A   1      41.457  25.262  28.841  1.00  0.00     0.010 A 
ATOM     45  C   UNL A   1      41.001  26.324  28.040  1.00  0.00    -0.014 A 
BRANCH  45  46
ATOM     46  C   UNL A   1      41.293  27.727  28.419  1.00  0.00     0.031 A 
ATOM     47  C   UNL A   1      42.730  28.179  28.409  1.00  0.00     0.074 A 
ATOM     48  C   UNL A   1      40.312  28.591  28.733  1.00  0.00     0.049 A 
ATOM     49  N   UNL A   1      43.235  29.345  28.706  1.00  0.00    -0.248 NA
ATOM     50  C   UNL A   1      43.731  27.174  28.010  1.00  0.00     0.031 C 
ATOM     51  C   UNL A   1      38.885  28.280  28.757  1.00  0.00     0.029 A 
ATOM     52  N   UNL A   1      40.379  29.910  29.109  1.00  0.00    -0.354 N 
ATOM     53  C   UNL A   1      44.610  29.209  28.560  1.00  0.00     0.074 A 
ATOM     54  C   UNL A   1      44.863  27.843  28.161  1.00  0.00     0.031 C 
ATOM     55  C   UNL A   1      38.209  29.372  29.157  1.00  0.00     0.029 A 
ATOM     56  C   UNL A   1      39.159  30.448  29.442  1.00  0.00     0.049 A 
ATOM     57  H   UNL A   1      41.219  30.421  29.138  1.00  0.00     0.167 HD
ATOM     58  C   UNL A   1      45.578  30.140  28.730  1.00  0.00     0.034 A 
ATOM     59  C   UNL A   1      38.851  31.660  29.945  1.00  0.00     0.034 A 
ATOM     60  C   UNL A   1      45.325  31.501  29.117  1.00  0.00     0.049 A 
ATOM     61  C   UNL A   1      39.951  32.669  30.163  1.00  0.00     0.074 A 
ATOM     62  C   UNL A   1      46.232  32.532  29.278  1.00  0.00     0.029 A 
ATOM     63  N   UNL A   1      44.075  32.016  29.423  1.00  0.00    -0.354 N 
ATOM     64  N   UNL A   1      41.235  32.560  29.919  1.00  0.00    -0.248 NA
ATOM     65  C   UNL A   1      39.553  33.982  30.693  1.00  0.00     0.031 C 
ATOM     66  C   UNL A   1      45.535  33.660  29.722  1.00  0.00     0.029 A 
ATOM     67  C   UNL A   1      44.187  33.345  29.789  1.00  0.00     0.049 A 
ATOM     68  H   UNL A   1      43.231  31.510  29.386  1.00  0.00     0.167 HD
ATOM     69  C   UNL A   1      41.790  33.798  30.226  1.00  0.00     0.074 A 
ATOM     70  C   UNL A   1      40.700  34.648  30.655  1.00  0.00     0.031 C 
ATOM     71  C   UNL A   1      43.087  34.194  30.167  1.00  0.00     0.034 A 
BRANCH  58  72
ATOM     72  C   UNL A   1      47.004  29.717  28.493  1.00  0.00     0.023 A 
ATOM     73  C   UNL A   1      47.556  29.791  27.198  1.00  0.00     0.012 A 
ATOM     74  C   UNL A   1      47.812  29.290  29.566  1.00  0.00     0.148 A 
ATOM     75  C   UNL A   1      48.879  29.414  26.968  1.00  0.00     0.002 A 
ATOM     76  C   UNL A   1      49.142  28.964  29.337  1.00  0.00     0.091 A 
ATOM     77  F   UNL A   1      47.261  29.204  30.785  1.00  0.00    -0.205 F 
ATOM     78  C   UNL A   1      49.674  29.011  28.038  1.00  0.00     0.022 A 
BRANCH  76  79
ATOM     79  S   UNL A   1      50.271  28.515  30.661  1.00  0.00     0.127 S 
ATOM     80  O   UNL A   1      51.450  28.086  29.910  1.00  0.00    -0.237 OA
ATOM     81  O   UNL A   1      50.428  29.783  31.372  1.00  0.00    -0.237 OA
ATOM     82  O   UNL A   1      49.604  27.468  31.422  1.00  0.00    -0.744 OA
ENDBRANCH  76  79
ENDBRANCH  58  72
BRANCH  59  83
ATOM     83  C   UNL A   1      37.434  32.001  30.262  1.00  0.00     0.023 A 
ATOM     84  C   UNL A   1      36.841  31.509  31.441  1.00  0.00     0.012 A 
ATOM     85  C   UNL A   1      36.672  32.813  29.399  1.00  0.00     0.148 A 
ATOM     86  C   UNL A   1      35.506  31.787  31.736  1.00  0.00     0.002 A 
ATOM     87  C   UNL A   1      35.363  33.140  29.731  1.00  0.00     0.091 A 
ATOM     88  F   UNL A   1      37.249  33.260  28.274  1.00  0.00    -0.205 F 
ATOM     89  C   UNL A   1      34.770  32.610  30.887  1.00  0.00     0.022 A 
BRANCH  87  90
ATOM     90  S   UNL A   1      34.386  34.302  28.770  1.00  0.00     0.127 S 
ATOM     91  O   UNL A   1      34.270  33.611  27.490  1.00  0.00    -0.237 OA
ATOM     92  O   UNL A   1      33.151  34.368  29.553  1.00  0.00    -0.237 OA
ATOM     93  O   UNL A   1      35.148  35.543  28.753  1.00  0.00    -0.744 OA
ENDBRANCH  87  90
ENDBRANCH  59  83
BRANCH  71  94
ATOM     94  C   UNL A   1      43.401  35.626  30.522  1.00  0.00     0.023 A 
ATOM     95  C   UNL A   1      43.787  35.964  31.835  1.00  0.00     0.012 A 
ATOM     96  C   UNL A   1      43.380  36.627  29.530  1.00  0.00     0.148 A 
ATOM     97  C   UNL A   1      44.104  37.282  32.163  1.00  0.00     0.002 A 
ATOM     98  C   UNL A   1      43.751  37.927  29.851  1.00  0.00     0.091 A 
ATOM     99  F   UNL A   1      42.997  36.290  28.290  1.00  0.00    -0.205 F 
ATOM    100  C   UNL A   1      44.098  38.259  31.171  1.00  0.00     0.022 A 
BRANCH  98 101
ATOM    101  S   UNL A   1      43.870  39.228  28.621  1.00  0.00     0.127 S 
ATOM    102  O   UNL A   1      44.043  40.415  29.457  1.00  0.00    -0.237 OA
ATOM    103  O   UNL A   1      45.061  38.834  27.867  1.00  0.00    -0.237 OA
ATOM    104  O   UNL A   1      42.629  39.179  27.860  1.00  0.00    -0.744 OA
ENDBRANCH  98 101
ENDBRANCH  71  94
ENDBRANCH  45  46
ENDBRANCH  38  40
ENDBRANCH  37  38
ENDBRANCH  36  37
ENDBRANCH  35  36
ENDBRANCH  34  35
ENDBRANCH  33  34
ENDBRANCH  32  33
ENDBRANCH  31  32
ENDBRANCH   1  31
TORSDOF 29
ENDMDL
MODEL 3
REMARK VINA RESULT:      -8.8      6.259     10.125
REMARK SMILES CC(=O)N[C@@H](Cc1c(OCC(C)C)ccc2ccccc12)C(=O)OCCOCCOCCOCCOC(=O)c1ccc(-c2c3nc(c(-c4cccc(S(=O)(=O)[O-])c4F)c4ccc([nH]4)c(-c4cccc(S(=O)(=O)[O-])c4F)c4nc(c(-c5cccc(S(=O)(=O)[O-])c5F)c5ccc2[nH]5)C=C4)C=C3)cc1
REMARK SMILES IDX 29 1 28 2 27 3 26 4 25 5 24 6 22 7 23 8 5 9 4 10 1 11 2 12
REMARK SMILES IDX 3 13 6 15 7 16 8 17 21 18 14 19 16 20 20 21 15 22 17 23
REMARK SMILES IDX 19 24 18 25 9 26 10 27 11 28 12 29 13 30 30 31 31 32 32 33
REMARK SMILES IDX 33 34 34 35 35 36 36 37 37 38 38 39 39 40 40 41 101 42 41 43
REMARK SMILES IDX 100 44 42 45 43 46 44 47 94 48 45 49 99 50 93 51 95 52 46 53
REMARK SMILES IDX 98 54 92 55 91 56 47 58 79 59 59 60 78 61 60 62 63 63 77 64
REMARK SMILES IDX 96 65 61 66 62 67 76 69 97 70 64 71 48 72 49 73 57 74 50 75
REMARK SMILES IDX 52 76 58 77 51 78 53 79 54 80 55 81 56 82 80 83 81 84 89 85
REMARK SMILES IDX 82 86 84 87 90 88 83 89 85 90 86 91 87 92 88 93 65 94 66 95
REMARK SMILES IDX 74 96 67 97 69 98 75 99 68 100 70 101 71 102 72 103 73 104
REMARK H PARENT 4 14 95 57 63 68
REMARK Flexibility Score: inf
ROOT
ATOM      1  C   UNL A   1      34.934  22.220  26.149  1.00  0.00     0.188 C 
ENDROOT
BRANCH   1   2
ATOM      2  C   UNL A   1      33.438  22.127  26.516  1.00  0.00     0.188 C 
BRANCH   2   3
ATOM      3  O   UNL A   1      32.568  23.243  26.366  1.00  0.00    -0.376 OA
BRANCH   3   4
ATOM      4  C   UNL A   1      31.206  23.041  26.021  1.00  0.00     0.202 C 
BRANCH   4   5
ATOM      5  C   UNL A   1      30.171  24.129  26.312  1.00  0.00     0.261 C 
BRANCH   5   6
ATOM      6  O   UNL A   1      30.558  25.486  26.028  1.00  0.00    -0.462 OA
BRANCH   6   7
ATOM      7  C   UNL A   1      30.315  25.946  24.779  1.00  0.00     0.329 C 
ATOM      8  O   UNL A   1      29.192  26.109  24.305  1.00  0.00    -0.250 OA
BRANCH   7   9
ATOM      9  C   UNL A   1      31.583  26.098  23.922  1.00  0.00     0.196 C 
BRANCH   9  10
ATOM     10  N   UNL A   1      31.940  25.046  22.959  1.00  0.00    -0.343 N 
ATOM     11  C   UNL A   1      34.295  24.778  23.659  1.00  0.00     0.114 C 
ATOM     12  C   UNL A   1      33.150  24.455  22.735  1.00  0.00     0.217 C 
ATOM     13  O   UNL A   1      33.289  23.640  21.824  1.00  0.00    -0.275 OA
ATOM     14  H   UNL A   1      31.200  24.721  22.397  1.00  0.00     0.164 HD
ENDBRANCH   9  10
BRANCH   9  15
ATOM     15  C   UNL A   1      31.538  27.484  23.242  1.00  0.00     0.077 C 
BRANCH  15  16
ATOM     16  C   UNL A   1      31.532  28.695  24.175  1.00  0.00     0.005 A 
ATOM     17  C   UNL A   1      30.479  29.639  24.068  1.00  0.00     0.123 A 
ATOM     18  C   UNL A   1      32.539  28.880  25.185  1.00  0.00    -0.011 A 
ATOM     19  C   UNL A   1      30.529  30.806  24.820  1.00  0.00     0.047 A 
ATOM     20  C   UNL A   1      32.390  29.952  26.098  1.00  0.00    -0.018 A 
ATOM     21  C   UNL A   1      33.674  28.056  25.384  1.00  0.00     0.009 A 
ATOM     22  C   UNL A   1      31.432  30.931  25.867  1.00  0.00     0.012 A 
ATOM     23  C   UNL A   1      33.198  30.051  27.241  1.00  0.00     0.009 A 
ATOM     24  C   UNL A   1      34.492  28.172  26.517  1.00  0.00     0.001 A 
ATOM     25  C   UNL A   1      34.221  29.140  27.470  1.00  0.00     0.001 A 
BRANCH  17  26
ATOM     26  O   UNL A   1      29.413  29.296  23.276  1.00  0.00    -0.493 OA
BRANCH  26  27
ATOM     27  C   UNL A   1      29.136  30.051  22.091  1.00  0.00     0.232 C 
BRANCH  27  28
ATOM     28  C   UNL A   1      27.935  31.027  22.161  1.00  0.00     0.020 C 
ATOM     29  C   UNL A   1      27.390  31.331  23.557  1.00  0.00     0.011 C 
ATOM     30  C   UNL A   1      28.343  32.352  21.503  1.00  0.00     0.011 C 
ENDBRANCH  27  28
ENDBRANCH  26  27
ENDBRANCH  17  26
ENDBRANCH  15  16
ENDBRANCH   9  15
ENDBRANCH   7   9
ENDBRANCH   6   7
ENDBRANCH   5   6
ENDBRANCH   4   5
ENDBRANCH   3   4
ENDBRANCH   2   3
ENDBRANCH   1   2
BRANCH   1  31
ATOM     31  O   UNL A   1      35.519  21.022  25.679  1.00  0.00    -0.377 OA
BRANCH  31  32
ATOM     32  C   UNL A   1      36.724  21.154  24.940  1.00  0.00     0.188 C 
BRANCH  32  33
ATOM     33  C   UNL A   1      37.699  22.251  25.408  1.00  0.00     0.188 C 
BRANCH  33  34
ATOM     34  O   UNL A   1      38.926  21.750  25.922  1.00  0.00    -0.376 OA
BRANCH  34  35
ATOM     35  C   UNL A   1      39.642  22.520  26.875  1.00  0.00     0.202 C 
BRANCH  35  36
ATOM     36  C   UNL A   1      39.207  23.973  27.136  1.00  0.00     0.261 C 
BRANCH  36  37
ATOM     37  O   UNL A   1      40.124  24.809  27.856  1.00  0.00    -0.460 OA
BRANCH  37  38
ATOM     38  C   UNL A   1      41.190  25.306  27.198  1.00  0.00     0.338 C 
ATOM     39  O   UNL A   1      41.191  25.820  26.091  1.00  0.00    -0.246 OA
BRANCH  38  40
ATOM     40  C   UNL A   1      42.334  25.330  28.136  1.00  0.00     0.060 A 
ATOM     41  C   UNL A   1      42.830  26.570  28.561  1.00  0.00     0.016 A 
ATOM     42  C   UNL A   1      42.914  24.144  28.591  1.00  0.00     0.016 A 
ATOM     43  C   UNL A   1      43.946  26.628  29.395  1.00  0.00     0.010 A 
ATOM     44  C   UNL A   1      44.049  24.204  29.406  1.00  0.00     0.010 A 
ATOM     45  C   UNL A   1      44.595  25.448  29.770  1.00  0.00    -0.014 A 
BRANCH  45  46
ATOM     46  C   UNL A   1      45.963  25.528  30.335  1.00  0.00     0.031 A 
ATOM     47  C   UNL A   1      46.117  25.448  31.832  1.00  0.00     0.074 A 
ATOM     48  C   UNL A   1      47.047  25.636  29.547  1.00  0.00     0.049 A 
ATOM     49  N   UNL A   1      47.200  25.501  32.559  1.00  0.00    -0.248 NA
ATOM     50  C   UNL A   1      44.877  25.285  32.611  1.00  0.00     0.031 C 
ATOM     51  C   UNL A   1      47.029  25.700  28.088  1.00  0.00     0.029 A 
ATOM     52  N   UNL A   1      48.377  25.727  29.875  1.00  0.00    -0.354 N 
ATOM     53  C   UNL A   1      46.773  25.411  33.879  1.00  0.00     0.074 A 
ATOM     54  C   UNL A   1      45.331  25.311  33.854  1.00  0.00     0.031 C 
ATOM     55  C   UNL A   1      48.290  25.850  27.645  1.00  0.00     0.029 A 
ATOM     56  C   UNL A   1      49.198  25.919  28.790  1.00  0.00     0.049 A 
ATOM     57  H   UNL A   1      48.711  25.662  30.799  1.00  0.00     0.167 HD
ATOM     58  C   UNL A   1      47.515  25.397  35.011  1.00  0.00     0.034 A 
ATOM     59  C   UNL A   1      50.525  26.150  28.733  1.00  0.00     0.034 A 
ATOM     60  C   UNL A   1      48.949  25.486  35.034  1.00  0.00     0.049 A 
ATOM     61  C   UNL A   1      51.326  26.170  30.012  1.00  0.00     0.074 A 
ATOM     62  C   UNL A   1      49.796  25.441  36.125  1.00  0.00     0.029 A 
ATOM     63  N   UNL A   1      49.748  25.655  33.914  1.00  0.00    -0.354 N 
ATOM     64  N   UNL A   1      50.922  25.977  31.244  1.00  0.00    -0.248 NA
ATOM     65  C   UNL A   1      52.771  26.405  29.887  1.00  0.00     0.031 C 
ATOM     66  C   UNL A   1      51.105  25.626  35.670  1.00  0.00     0.029 A 
ATOM     67  C   UNL A   1      51.077  25.734  34.289  1.00  0.00     0.049 A 
ATOM     68  H   UNL A   1      49.418  25.710  32.988  1.00  0.00     0.167 HD
ATOM     69  C   UNL A   1      52.065  26.026  32.034  1.00  0.00     0.074 A 
ATOM     70  C   UNL A   1      53.181  26.248  31.138  1.00  0.00     0.031 C 
ATOM     71  C   UNL A   1      52.183  25.907  33.381  1.00  0.00     0.034 A 
BRANCH  58  72
ATOM     72  C   UNL A   1      46.784  25.279  36.323  1.00  0.00     0.023 A 
ATOM     73  C   UNL A   1      46.531  24.008  36.878  1.00  0.00     0.012 A 
ATOM     74  C   UNL A   1      46.389  26.433  37.029  1.00  0.00     0.148 A 
ATOM     75  C   UNL A   1      45.867  23.886  38.098  1.00  0.00     0.002 A 
ATOM     76  C   UNL A   1      45.773  26.304  38.267  1.00  0.00     0.091 A 
ATOM     77  F   UNL A   1      46.617  27.632  36.473  1.00  0.00    -0.205 F 
ATOM     78  C   UNL A   1      45.498  25.033  38.796  1.00  0.00     0.022 A 
BRANCH  76  79
ATOM     79  S   UNL A   1      45.334  27.719  39.282  1.00  0.00     0.127 S 
ATOM     80  O   UNL A   1      44.712  27.072  40.436  1.00  0.00    -0.237 OA
ATOM     81  O   UNL A   1      46.641  28.319  39.551  1.00  0.00    -0.237 OA
ATOM     82  O   UNL A   1      44.443  28.538  38.473  1.00  0.00    -0.744 OA
ENDBRANCH  76  79
ENDBRANCH  58  72
BRANCH  59  83
ATOM     83  C   UNL A   1      51.191  26.364  27.417  1.00  0.00     0.023 A 
ATOM     84  C   UNL A   1      51.580  25.255  26.638  1.00  0.00     0.012 A 
ATOM     85  C   UNL A   1      51.441  27.662  26.931  1.00  0.00     0.148 A 
ATOM     86  C   UNL A   1      52.238  25.436  25.421  1.00  0.00     0.002 A 
ATOM     87  C   UNL A   1      52.038  27.836  25.689  1.00  0.00     0.091 A 
ATOM     88  F   UNL A   1      51.078  28.704  27.692  1.00  0.00    -0.205 F 
ATOM     89  C   UNL A   1      52.458  26.724  24.942  1.00  0.00     0.022 A 
BRANCH  87  90
ATOM     90  S   UNL A   1      52.236  29.452  24.930  1.00  0.00     0.127 S 
ATOM     91  O   UNL A   1      53.436  29.951  25.594  1.00  0.00    -0.237 OA
ATOM     92  O   UNL A   1      52.408  29.099  23.521  1.00  0.00    -0.237 OA
ATOM     93  O   UNL A   1      51.006  30.179  25.217  1.00  0.00    -0.744 OA
ENDBRANCH  87  90
ENDBRANCH  59  83
BRANCH  71  94
ATOM     94  C   UNL A   1      53.569  25.958  33.974  1.00  0.00     0.023 A 
ATOM     95  C   UNL A   1      54.094  27.177  34.447  1.00  0.00     0.012 A 
ATOM     96  C   UNL A   1      54.324  24.777  34.122  1.00  0.00     0.148 A 
ATOM     97  C   UNL A   1      55.365  27.226  35.020  1.00  0.00     0.002 A 
ATOM     98  C   UNL A   1      55.566  24.825  34.744  1.00  0.00     0.091 A 
ATOM     99  F   UNL A   1      53.815  23.629  33.654  1.00  0.00    -0.205 F 
ATOM    100  C   UNL A   1      56.095  26.051  35.179  1.00  0.00     0.022 A 
BRANCH  98 101
ATOM    101  S   UNL A   1      56.532  23.350  35.083  1.00  0.00     0.127 S 
ATOM    102  O   UNL A   1      55.607  22.570  35.904  1.00  0.00    -0.237 OA
ATOM    103  O   UNL A   1      56.757  22.812  33.741  1.00  0.00    -0.237 OA
ATOM    104  O   UNL A   1      57.736  23.804  35.763  1.00  0.00    -0.744 OA
ENDBRANCH  98 101
ENDBRANCH  71  94
ENDBRANCH  45  46
ENDBRANCH  38  40
ENDBRANCH  37  38
ENDBRANCH  36  37
ENDBRANCH  35  36
ENDBRANCH  34  35
ENDBRANCH  33  34
ENDBRANCH  32  33
ENDBRANCH  31  32
ENDBRANCH   1  31
TORSDOF 29
ENDMDL
