MODEL 1
REMARK VINA RESULT:      -7.8      0.000      0.000
REMARK SMILES COc1ccc2c(c1)c(CC(=O)OCCOCCOCCOCCOC(=O)c1ccc(-c3c4nc(c(-c5cccc(S(=O)(=O)[O-])c5F)c5ccc([nH]5)c(-c5cccc(S(=O)(=O)[O-])c5F)c5nc(c(-c6cccc(S(=O)(=O)[O-])c6F)c6ccc3[nH]6)C=C5)C=C4)cc1)c(C)n2Cc1ccn(C(F)F)c(=O)c1
REMARK SMILES IDX 18 1 17 2 16 3 15 4 14 5 13 6 11 7 12 8 10 9 9 10 3 11 4 12
REMARK SMILES IDX 8 13 5 14 7 15 6 16 93 17 91 18 92 19 2 20 1 21 94 22 95 23
REMARK SMILES IDX 96 24 104 25 97 26 102 27 98 28 103 29 99 30 100 31 101 32
REMARK SMILES IDX 19 33 20 34 21 35 22 36 23 37 24 38 25 39 26 40 27 41 28 42
REMARK SMILES IDX 29 43 90 44 30 45 89 46 31 47 32 48 33 49 83 50 34 51 88 52
REMARK SMILES IDX 82 53 84 54 35 55 87 56 81 57 80 58 36 60 68 61 48 62 67 63
REMARK SMILES IDX 49 64 52 65 66 66 85 67 50 68 51 69 65 71 86 72 53 73 37 74
REMARK SMILES IDX 38 75 46 76 39 77 41 78 47 79 40 80 42 81 43 82 44 83 45 84
REMARK SMILES IDX 69 85 70 86 78 87 71 88 73 89 79 90 72 91 74 92 75 93 76 94
REMARK SMILES IDX 77 95 54 96 55 97 63 98 56 99 58 100 64 101 57 102 59 103
REMARK SMILES IDX 60 104 61 105 62 106
REMARK H PARENT 84 59 52 70
REMARK Flexibility Score: inf
ROOT
ATOM      1  C   UNL A   1      43.432  39.870  33.377  1.00  0.00     0.188 C 
ENDROOT
BRANCH   1   2
ATOM      2  C   UNL A   1      43.320  38.395  33.758  1.00  0.00     0.188 C 
BRANCH   2   3
ATOM      3  O   UNL A   1      44.215  37.992  34.797  1.00  0.00    -0.376 OA
BRANCH   3   4
ATOM      4  C   UNL A   1      44.757  36.681  34.643  1.00  0.00     0.202 C 
BRANCH   4   5
ATOM      5  C   UNL A   1      43.977  35.608  35.431  1.00  0.00     0.261 C 
BRANCH   5   6
ATOM      6  O   UNL A   1      42.591  35.500  35.029  1.00  0.00    -0.463 OA
BRANCH   6   7
ATOM      7  C   UNL A   1      42.333  34.646  34.006  1.00  0.00     0.310 C 
ATOM      8  O   UNL A   1      42.474  34.946  32.822  1.00  0.00    -0.252 OA
BRANCH   7   9
ATOM      9  C   UNL A   1      41.954  33.224  34.417  1.00  0.00     0.160 C 
BRANCH   9  10
ATOM     10  C   UNL A   1      40.521  32.901  34.783  1.00  0.00    -0.008 A 
ATOM     11  C   UNL A   1      39.644  33.173  38.512  1.00  0.00     0.119 A 
ATOM     12  C   UNL A   1      38.269  33.069  38.344  1.00  0.00     0.048 A 
ATOM     13  C   UNL A   1      40.490  33.009  37.407  1.00  0.00     0.057 A 
ATOM     14  C   UNL A   1      37.714  32.819  37.078  1.00  0.00     0.031 A 
ATOM     15  C   UNL A   1      39.955  32.861  36.101  1.00  0.00     0.007 A 
ATOM     16  C   UNL A   1      38.572  32.705  35.964  1.00  0.00     0.049 A 
ATOM     17  N   UNL A   1      38.328  32.401  34.625  1.00  0.00    -0.340 N 
ATOM     18  C   UNL A   1      39.542  32.381  33.946  1.00  0.00     0.020 A 
ATOM     19  C   UNL A   1      39.751  31.845  32.576  1.00  0.00     0.065 C 
BRANCH  11  20
ATOM     20  O   UNL A   1      40.278  33.428  39.697  1.00  0.00    -0.497 OA
ATOM     21  C   UNL A   1      41.007  34.648  39.799  1.00  0.00     0.278 C 
ENDBRANCH  11  20
BRANCH  17  22
ATOM     22  C   UNL A   1      37.042  31.868  34.138  1.00  0.00     0.158 C 
BRANCH  22  23
ATOM     23  C   UNL A   1      35.993  32.861  33.676  1.00  0.00    -0.021 A 
ATOM     24  C   UNL A   1      35.800  34.091  34.417  1.00  0.00     0.024 A 
ATOM     25  C   UNL A   1      35.340  32.734  32.504  1.00  0.00     0.077 A 
ATOM     26  C   UNL A   1      34.928  35.022  34.018  1.00  0.00     0.095 A 
ATOM     27  C   UNL A   1      34.423  33.805  31.994  1.00  0.00     0.255 A 
ATOM     28  N   UNL A   1      34.222  34.880  32.843  1.00  0.00    -0.258 N 
ATOM     29  O   UNL A   1      33.946  33.673  30.871  1.00  0.00    -0.269 OA
BRANCH  28  30
ATOM     30  C   UNL A   1      33.346  35.941  32.409  1.00  0.00     0.451 C 
ATOM     31  F   UNL A   1      32.996  36.719  33.466  1.00  0.00    -0.185 F 
ATOM     32  F   UNL A   1      33.938  36.736  31.488  1.00  0.00    -0.185 F 
ENDBRANCH  28  30
ENDBRANCH  22  23
ENDBRANCH  17  22
ENDBRANCH   9  10
ENDBRANCH   7   9
ENDBRANCH   6   7
ENDBRANCH   5   6
ENDBRANCH   4   5
ENDBRANCH   3   4
ENDBRANCH   2   3
ENDBRANCH   1   2
BRANCH   1  33
ATOM     33  O   UNL A   1      42.848  40.321  32.184  1.00  0.00    -0.377 OA
BRANCH  33  34
ATOM     34  C   UNL A   1      43.485  39.934  31.002  1.00  0.00     0.188 C 
BRANCH  34  35
ATOM     35  C   UNL A   1      42.696  40.315  29.746  1.00  0.00     0.188 C 
BRANCH  35  36
ATOM     36  O   UNL A   1      42.997  39.772  28.458  1.00  0.00    -0.376 OA
BRANCH  36  37
ATOM     37  C   UNL A   1      42.091  38.919  27.776  1.00  0.00     0.202 C 
BRANCH  37  38
ATOM     38  C   UNL A   1      42.636  37.585  27.238  1.00  0.00     0.261 C 
BRANCH  38  39
ATOM     39  O   UNL A   1      42.223  36.457  28.008  1.00  0.00    -0.460 OA
BRANCH  39  40
ATOM     40  C   UNL A   1      43.048  36.049  29.004  1.00  0.00     0.338 C 
ATOM     41  O   UNL A   1      43.445  36.689  29.961  1.00  0.00    -0.246 OA
BRANCH  40  42
ATOM     42  C   UNL A   1      43.101  34.586  28.853  1.00  0.00     0.060 A 
ATOM     43  C   UNL A   1      42.165  33.774  29.506  1.00  0.00     0.016 A 
ATOM     44  C   UNL A   1      44.313  34.071  28.378  1.00  0.00     0.016 A 
ATOM     45  C   UNL A   1      42.515  32.460  29.801  1.00  0.00     0.010 A 
ATOM     46  C   UNL A   1      44.669  32.770  28.708  1.00  0.00     0.010 A 
ATOM     47  C   UNL A   1      43.792  31.985  29.464  1.00  0.00    -0.014 A 
BRANCH  47  48
ATOM     48  C   UNL A   1      44.113  30.586  29.742  1.00  0.00     0.031 A 
ATOM     49  C   UNL A   1      44.570  30.365  31.133  1.00  0.00     0.074 A 
ATOM     50  C   UNL A   1      43.848  29.530  28.946  1.00  0.00     0.049 A 
ATOM     51  N   UNL A   1      45.692  29.868  31.541  1.00  0.00    -0.248 NA
ATOM     52  C   UNL A   1      43.691  30.874  32.200  1.00  0.00     0.031 C 
ATOM     53  C   UNL A   1      43.094  29.537  27.695  1.00  0.00     0.029 A 
ATOM     54  N   UNL A   1      44.061  28.195  29.177  1.00  0.00    -0.354 N 
ATOM     55  C   UNL A   1      45.574  29.832  32.924  1.00  0.00     0.074 A 
ATOM     56  C   UNL A   1      44.417  30.615  33.280  1.00  0.00     0.031 C 
ATOM     57  C   UNL A   1      42.723  28.276  27.392  1.00  0.00     0.029 A 
ATOM     58  C   UNL A   1      43.244  27.374  28.404  1.00  0.00     0.049 A 
ATOM     59  H   UNL A   1      44.721  27.853  29.822  1.00  0.00     0.167 HD
ATOM     60  C   UNL A   1      46.262  28.963  33.706  1.00  0.00     0.034 A 
ATOM     61  C   UNL A   1      42.902  26.086  28.659  1.00  0.00     0.034 A 
ATOM     62  C   UNL A   1      47.360  28.329  33.052  1.00  0.00     0.049 A 
ATOM     63  C   UNL A   1      43.921  25.524  29.576  1.00  0.00     0.074 A 
ATOM     64  C   UNL A   1      48.499  28.771  32.414  1.00  0.00     0.029 A 
ATOM     65  N   UNL A   1      47.198  27.015  32.690  1.00  0.00    -0.354 N 
ATOM     66  N   UNL A   1      45.168  25.316  29.254  1.00  0.00    -0.248 NA
ATOM     67  C   UNL A   1      43.635  25.490  31.003  1.00  0.00     0.031 C 
ATOM     68  C   UNL A   1      48.734  27.832  31.372  1.00  0.00     0.029 A 
ATOM     69  C   UNL A   1      47.720  26.872  31.432  1.00  0.00     0.049 A 
ATOM     70  H   UNL A   1      46.785  26.306  33.234  1.00  0.00     0.167 HD
ATOM     71  C   UNL A   1      45.879  25.539  30.427  1.00  0.00     0.074 A 
ATOM     72  C   UNL A   1      44.879  25.504  31.486  1.00  0.00     0.031 C 
ATOM     73  C   UNL A   1      47.156  26.021  30.402  1.00  0.00     0.034 A 
BRANCH  60  74
ATOM     74  C   UNL A   1      45.681  28.482  34.994  1.00  0.00     0.023 A 
ATOM     75  C   UNL A   1      46.375  28.687  36.194  1.00  0.00     0.012 A 
ATOM     76  C   UNL A   1      44.508  27.697  35.028  1.00  0.00     0.148 A 
ATOM     77  C   UNL A   1      45.876  28.179  37.398  1.00  0.00     0.002 A 
ATOM     78  C   UNL A   1      43.962  27.288  36.233  1.00  0.00     0.091 A 
ATOM     79  F   UNL A   1      43.960  27.279  33.876  1.00  0.00    -0.205 F 
ATOM     80  C   UNL A   1      44.652  27.512  37.424  1.00  0.00     0.022 A 
BRANCH  78  81
ATOM     81  S   UNL A   1      42.321  26.567  36.280  1.00  0.00     0.127 S 
ATOM     82  O   UNL A   1      42.279  25.836  35.018  1.00  0.00    -0.237 OA
ATOM     83  O   UNL A   1      42.382  25.732  37.480  1.00  0.00    -0.237 OA
ATOM     84  O   UNL A   1      41.427  27.713  36.403  1.00  0.00    -0.744 OA
ENDBRANCH  78  81
ENDBRANCH  60  74
BRANCH  61  85
ATOM     85  C   UNL A   1      41.632  25.381  28.326  1.00  0.00     0.023 A 
ATOM     86  C   UNL A   1      40.394  26.039  28.476  1.00  0.00     0.012 A 
ATOM     87  C   UNL A   1      41.617  24.126  27.672  1.00  0.00     0.148 A 
ATOM     88  C   UNL A   1      39.202  25.473  27.995  1.00  0.00     0.002 A 
ATOM     89  C   UNL A   1      40.426  23.543  27.245  1.00  0.00     0.091 A 
ATOM     90  F   UNL A   1      42.774  23.525  27.364  1.00  0.00    -0.205 F 
ATOM     91  C   UNL A   1      39.215  24.219  27.391  1.00  0.00     0.022 A 
BRANCH  89  92
ATOM     92  S   UNL A   1      40.437  21.893  26.530  1.00  0.00     0.127 S 
ATOM     93  O   UNL A   1      40.609  21.033  27.704  1.00  0.00    -0.237 OA
ATOM     94  O   UNL A   1      39.124  21.815  25.902  1.00  0.00    -0.237 OA
ATOM     95  O   UNL A   1      41.587  21.896  25.630  1.00  0.00    -0.744 OA
ENDBRANCH  89  92
ENDBRANCH  61  85
BRANCH  73  96
ATOM     96  C   UNL A   1      47.917  25.994  29.100  1.00  0.00     0.023 A 
ATOM     97  C   UNL A   1      48.845  24.970  28.817  1.00  0.00     0.012 A 
ATOM     98  C   UNL A   1      47.509  26.854  28.064  1.00  0.00     0.148 A 
ATOM     99  C   UNL A   1      49.360  24.810  27.529  1.00  0.00     0.002 A 
ATOM    100  C   UNL A   1      47.988  26.659  26.773  1.00  0.00     0.091 A 
ATOM    101  F   UNL A   1      46.608  27.806  28.348  1.00  0.00    -0.205 F 
ATOM    102  C   UNL A   1      48.920  25.645  26.505  1.00  0.00     0.022 A 
BRANCH 100 103
ATOM    103  S   UNL A   1      47.358  27.583  25.368  1.00  0.00     0.127 S 
ATOM    104  O   UNL A   1      46.126  28.158  25.904  1.00  0.00    -0.237 OA
ATOM    105  O   UNL A   1      48.432  28.550  25.133  1.00  0.00    -0.237 OA
ATOM    106  O   UNL A   1      47.173  26.617  24.292  1.00  0.00    -0.744 OA
ENDBRANCH 100 103
ENDBRANCH  73  96
ENDBRANCH  47  48
ENDBRANCH  40  42
ENDBRANCH  39  40
ENDBRANCH  38  39
ENDBRANCH  37  38
ENDBRANCH  36  37
ENDBRANCH  35  36
ENDBRANCH  34  35
ENDBRANCH  33  34
ENDBRANCH   1  33
TORSDOF 28
ENDMDL
MODEL 2
REMARK VINA RESULT:      -7.7      5.244     13.061
REMARK SMILES COc1ccc2c(c1)c(CC(=O)OCCOCCOCCOCCOC(=O)c1ccc(-c3c4nc(c(-c5cccc(S(=O)(=O)[O-])c5F)c5ccc([nH]5)c(-c5cccc(S(=O)(=O)[O-])c5F)c5nc(c(-c6cccc(S(=O)(=O)[O-])c6F)c6ccc3[nH]6)C=C5)C=C4)cc1)c(C)n2Cc1ccn(C(F)F)c(=O)c1
REMARK SMILES IDX 18 1 17 2 16 3 15 4 14 5 13 6 11 7 12 8 10 9 9 10 3 11 4 12
REMARK SMILES IDX 8 13 5 14 7 15 6 16 93 17 91 18 92 19 2 20 1 21 94 22 95 23
REMARK SMILES IDX 96 24 104 25 97 26 102 27 98 28 103 29 99 30 100 31 101 32
REMARK SMILES IDX 19 33 20 34 21 35 22 36 23 37 24 38 25 39 26 40 27 41 28 42
REMARK SMILES IDX 29 43 90 44 30 45 89 46 31 47 32 48 33 49 83 50 34 51 88 52
REMARK SMILES IDX 82 53 84 54 35 55 87 56 81 57 80 58 36 60 68 61 48 62 67 63
REMARK SMILES IDX 49 64 52 65 66 66 85 67 50 68 51 69 65 71 86 72 53 73 37 74
REMARK SMILES IDX 38 75 46 76 39 77 41 78 47 79 40 80 42 81 43 82 44 83 45 84
REMARK SMILES IDX 69 85 70 86 78 87 71 88 73 89 79 90 72 91 74 92 75 93 76 94
REMARK SMILES IDX 77 95 54 96 55 97 63 98 56 99 58 100 64 101 57 102 59 103
REMARK SMILES IDX 60 104 61 105 62 106
REMARK H PARENT 84 59 52 70
REMARK Flexibility Score: inf
ROOT
ATOM      1  C   UNL A   1      49.328  26.273  30.071  1.00  0.00     0.188 C 
ENDROOT
BRANCH   1   2
ATOM      2  C   UNL A   1      50.430  25.405  30.675  1.00  0.00     0.188 C 
BRANCH   2   3
ATOM      3  O   UNL A   1      51.293  26.102  31.577  1.00  0.00    -0.376 OA
BRANCH   3   4
ATOM      4  C   UNL A   1      51.731  25.334  32.698  1.00  0.00     0.202 C 
BRANCH   4   5
ATOM      5  C   UNL A   1      52.059  23.871  32.336  1.00  0.00     0.261 C 
BRANCH   5   6
ATOM      6  O   UNL A   1      51.764  22.938  33.404  1.00  0.00    -0.463 OA
BRANCH   6   7
ATOM      7  C   UNL A   1      51.780  21.624  33.067  1.00  0.00     0.310 C 
ATOM      8  O   UNL A   1      52.194  21.207  31.987  1.00  0.00    -0.252 OA
BRANCH   7   9
ATOM      9  C   UNL A   1      51.346  20.658  34.168  1.00  0.00     0.160 C 
BRANCH   9  10
ATOM     10  C   UNL A   1      50.374  21.116  35.234  1.00  0.00    -0.008 A 
ATOM     11  C   UNL A   1      51.939  22.734  38.345  1.00  0.00     0.119 A 
ATOM     12  C   UNL A   1      50.747  23.210  38.875  1.00  0.00     0.048 A 
ATOM     13  C   UNL A   1      51.914  21.922  37.203  1.00  0.00     0.057 A 
ATOM     14  C   UNL A   1      49.516  22.905  38.270  1.00  0.00     0.031 A 
ATOM     15  C   UNL A   1      50.697  21.685  36.511  1.00  0.00     0.007 A 
ATOM     16  C   UNL A   1      49.506  22.130  37.092  1.00  0.00     0.049 A 
ATOM     17  N   UNL A   1      48.462  21.621  36.319  1.00  0.00    -0.340 N 
ATOM     18  C   UNL A   1      49.005  20.883  35.272  1.00  0.00     0.020 A 
ATOM     19  C   UNL A   1      48.244  19.966  34.383  1.00  0.00     0.065 C 
BRANCH  11  20
ATOM     20  O   UNL A   1      53.185  22.986  38.851  1.00  0.00    -0.497 OA
ATOM     21  C   UNL A   1      53.487  24.334  39.204  1.00  0.00     0.278 C 
ENDBRANCH  11  20
BRANCH  17  22
ATOM     22  C   UNL A   1      47.057  21.606  36.766  1.00  0.00     0.158 C 
BRANCH  22  23
ATOM     23  C   UNL A   1      46.713  20.780  37.992  1.00  0.00    -0.021 A 
ATOM     24  C   UNL A   1      47.153  19.402  38.069  1.00  0.00     0.024 A 
ATOM     25  C   UNL A   1      46.157  21.317  39.095  1.00  0.00     0.077 A 
ATOM     26  C   UNL A   1      46.924  18.651  39.150  1.00  0.00     0.095 A 
ATOM     27  C   UNL A   1      45.968  20.517  40.350  1.00  0.00     0.255 A 
ATOM     28  N   UNL A   1      46.315  19.179  40.268  1.00  0.00    -0.258 N 
ATOM     29  O   UNL A   1      45.557  21.096  41.350  1.00  0.00    -0.269 OA
BRANCH  28  30
ATOM     30  C   UNL A   1      46.152  18.357  41.442  1.00  0.00     0.451 C 
ATOM     31  F   UNL A   1      44.833  18.215  41.734  1.00  0.00    -0.185 F 
ATOM     32  F   UNL A   1      46.672  17.120  41.266  1.00  0.00    -0.185 F 
ENDBRANCH  28  30
ENDBRANCH  22  23
ENDBRANCH  17  22
ENDBRANCH   9  10
ENDBRANCH   7   9
ENDBRANCH   6   7
ENDBRANCH   5   6
ENDBRANCH   4   5
ENDBRANCH   3   4
ENDBRANCH   2   3
ENDBRANCH   1   2
BRANCH   1  33
ATOM     33  O   UNL A   1      48.209  25.661  29.489  1.00  0.00    -0.377 OA
BRANCH  33  34
ATOM     34  C   UNL A   1      46.989  25.858  30.143  1.00  0.00     0.188 C 
BRANCH  34  35
ATOM     35  C   UNL A   1      45.782  25.720  29.210  1.00  0.00     0.188 C 
BRANCH  35  36
ATOM     36  O   UNL A   1      45.905  25.272  27.859  1.00  0.00    -0.376 OA
BRANCH  36  37
ATOM     37  C   UNL A   1      45.760  23.904  27.509  1.00  0.00     0.202 C 
BRANCH  37  38
ATOM     38  C   UNL A   1      44.539  23.512  26.659  1.00  0.00     0.261 C 
BRANCH  38  39
ATOM     39  O   UNL A   1      43.332  23.431  27.415  1.00  0.00    -0.460 OA
BRANCH  39  40
ATOM     40  C   UNL A   1      42.176  23.734  26.772  1.00  0.00     0.338 C 
ATOM     41  O   UNL A   1      41.540  23.039  26.000  1.00  0.00    -0.246 OA
BRANCH  40  42
ATOM     42  C   UNL A   1      41.693  24.947  27.450  1.00  0.00     0.060 A 
ATOM     43  C   UNL A   1      41.109  25.984  26.712  1.00  0.00     0.016 A 
ATOM     44  C   UNL A   1      42.193  25.158  28.741  1.00  0.00     0.016 A 
ATOM     45  C   UNL A   1      41.150  27.276  27.229  1.00  0.00     0.010 A 
ATOM     46  C   UNL A   1      42.264  26.455  29.233  1.00  0.00     0.010 A 
ATOM     47  C   UNL A   1      41.792  27.517  28.455  1.00  0.00    -0.014 A 
BRANCH  47  48
ATOM     48  C   UNL A   1      41.777  28.874  28.996  1.00  0.00     0.031 A 
ATOM     49  C   UNL A   1      42.905  29.701  28.508  1.00  0.00     0.074 A 
ATOM     50  C   UNL A   1      40.774  29.448  29.692  1.00  0.00     0.049 A 
ATOM     51  N   UNL A   1      43.821  30.296  29.198  1.00  0.00    -0.248 NA
ATOM     52  C   UNL A   1      43.082  29.771  27.048  1.00  0.00     0.031 C 
ATOM     53  C   UNL A   1      39.454  28.885  29.961  1.00  0.00     0.029 A 
ATOM     54  N   UNL A   1      40.672  30.732  30.165  1.00  0.00    -0.354 N 
ATOM     55  C   UNL A   1      44.583  30.973  28.255  1.00  0.00     0.074 A 
ATOM     56  C   UNL A   1      44.201  30.479  26.956  1.00  0.00     0.031 C 
ATOM     57  C   UNL A   1      38.619  29.872  30.346  1.00  0.00     0.029 A 
ATOM     58  C   UNL A   1      39.354  31.124  30.384  1.00  0.00     0.049 A 
ATOM     59  H   UNL A   1      41.448  31.313  30.333  1.00  0.00     0.167 HD
ATOM     60  C   UNL A   1      45.307  32.084  28.542  1.00  0.00     0.034 A 
ATOM     61  C   UNL A   1      38.878  32.393  30.444  1.00  0.00     0.034 A 
ATOM     62  C   UNL A   1      45.506  32.310  29.936  1.00  0.00     0.049 A 
ATOM     63  C   UNL A   1      40.017  33.286  30.764  1.00  0.00     0.074 A 
ATOM     64  C   UNL A   1      46.069  31.587  30.967  1.00  0.00     0.029 A 
ATOM     65  N   UNL A   1      44.771  33.311  30.520  1.00  0.00    -0.354 N 
ATOM     66  N   UNL A   1      40.659  33.283  31.900  1.00  0.00    -0.248 NA
ATOM     67  C   UNL A   1      40.683  33.986  29.677  1.00  0.00     0.031 C 
ATOM     68  C   UNL A   1      45.311  31.930  32.122  1.00  0.00     0.029 A 
ATOM     69  C   UNL A   1      44.326  32.837  31.726  1.00  0.00     0.049 A 
ATOM     70  H   UNL A   1      44.595  34.203  30.142  1.00  0.00     0.167 HD
ATOM     71  C   UNL A   1      41.968  33.608  31.568  1.00  0.00     0.074 A 
ATOM     72  C   UNL A   1      41.890  34.160  30.221  1.00  0.00     0.031 C 
ATOM     73  C   UNL A   1      43.023  33.131  32.291  1.00  0.00     0.034 A 
BRANCH  60  74
ATOM     74  C   UNL A   1      45.539  33.125  27.498  1.00  0.00     0.023 A 
ATOM     75  C   UNL A   1      44.456  33.649  26.780  1.00  0.00     0.012 A 
ATOM     76  C   UNL A   1      46.843  33.504  27.109  1.00  0.00     0.148 A 
ATOM     77  C   UNL A   1      44.667  34.573  25.750  1.00  0.00     0.002 A 
ATOM     78  C   UNL A   1      47.042  34.496  26.164  1.00  0.00     0.091 A 
ATOM     79  F   UNL A   1      47.899  32.840  27.607  1.00  0.00    -0.205 F 
ATOM     80  C   UNL A   1      45.956  35.025  25.467  1.00  0.00     0.022 A 
BRANCH  78  81
ATOM     81  S   UNL A   1      48.679  35.182  25.909  1.00  0.00     0.127 S 
ATOM     82  O   UNL A   1      49.377  34.065  25.283  1.00  0.00    -0.237 OA
ATOM     83  O   UNL A   1      48.406  36.318  25.028  1.00  0.00    -0.237 OA
ATOM     84  O   UNL A   1      49.122  35.565  27.246  1.00  0.00    -0.744 OA
ENDBRANCH  78  81
ENDBRANCH  60  74
BRANCH  61  85
ATOM     85  C   UNL A   1      37.539  32.902  30.031  1.00  0.00     0.023 A 
ATOM     86  C   UNL A   1      37.097  32.737  28.702  1.00  0.00     0.012 A 
ATOM     87  C   UNL A   1      36.593  33.379  30.968  1.00  0.00     0.148 A 
ATOM     88  C   UNL A   1      35.775  33.033  28.330  1.00  0.00     0.002 A 
ATOM     89  C   UNL A   1      35.299  33.723  30.585  1.00  0.00     0.091 A 
ATOM     90  F   UNL A   1      36.908  33.412  32.270  1.00  0.00    -0.205 F 
ATOM     91  C   UNL A   1      34.878  33.539  29.268  1.00  0.00     0.022 A 
BRANCH  89  92
ATOM     92  S   UNL A   1      34.166  34.443  31.782  1.00  0.00     0.127 S 
ATOM     93  O   UNL A   1      35.002  35.433  32.463  1.00  0.00    -0.237 OA
ATOM     94  O   UNL A   1      33.125  35.004  30.929  1.00  0.00    -0.237 OA
ATOM     95  O   UNL A   1      33.774  33.320  32.629  1.00  0.00    -0.744 OA
ENDBRANCH  89  92
ENDBRANCH  61  85
BRANCH  73  96
ATOM     96  C   UNL A   1      42.759  32.529  33.648  1.00  0.00     0.023 A 
ATOM     97  C   UNL A   1      42.653  33.338  34.799  1.00  0.00     0.012 A 
ATOM     98  C   UNL A   1      42.365  31.180  33.722  1.00  0.00     0.148 A 
ATOM     99  C   UNL A   1      42.171  32.811  36.000  1.00  0.00     0.002 A 
ATOM    100  C   UNL A   1      41.840  30.674  34.906  1.00  0.00     0.091 A 
ATOM    101  F   UNL A   1      42.452  30.433  32.610  1.00  0.00    -0.205 F 
ATOM    102  C   UNL A   1      41.751  31.484  36.048  1.00  0.00     0.022 A 
BRANCH 100 103
ATOM    103  S   UNL A   1      41.130  29.028  35.013  1.00  0.00     0.127 S 
ATOM    104  O   UNL A   1      40.210  29.015  33.878  1.00  0.00    -0.237 OA
ATOM    105  O   UNL A   1      42.311  28.177  34.853  1.00  0.00    -0.237 OA
ATOM    106  O   UNL A   1      40.499  28.939  36.324  1.00  0.00    -0.744 OA
ENDBRANCH 100 103
ENDBRANCH  73  96
ENDBRANCH  47  48
ENDBRANCH  40  42
ENDBRANCH  39  40
ENDBRANCH  38  39
ENDBRANCH  37  38
ENDBRANCH  36  37
ENDBRANCH  35  36
ENDBRANCH  34  35
ENDBRANCH  33  34
ENDBRANCH   1  33
TORSDOF 28
ENDMDL
MODEL 3
REMARK VINA RESULT:      -7.1      5.502     12.377
REMARK SMILES COc1ccc2c(c1)c(CC(=O)OCCOCCOCCOCCOC(=O)c1ccc(-c3c4nc(c(-c5cccc(S(=O)(=O)[O-])c5F)c5ccc([nH]5)c(-c5cccc(S(=O)(=O)[O-])c5F)c5nc(c(-c6cccc(S(=O)(=O)[O-])c6F)c6ccc3[nH]6)C=C5)C=C4)cc1)c(C)n2Cc1ccn(C(F)F)c(=O)c1
REMARK SMILES IDX 18 1 17 2 16 3 15 4 14 5 13 6 11 7 12 8 10 9 9 10 3 11 4 12
REMARK SMILES IDX 8 13 5 14 7 15 6 16 93 17 91 18 92 19 2 20 1 21 94 22 95 23
REMARK SMILES IDX 96 24 104 25 97 26 102 27 98 28 103 29 99 30 100 31 101 32
REMARK SMILES IDX 19 33 20 34 21 35 22 36 23 37 24 38 25 39 26 40 27 41 28 42
REMARK SMILES IDX 29 43 90 44 30 45 89 46 31 47 32 48 33 49 83 50 34 51 88 52
REMARK SMILES IDX 82 53 84 54 35 55 87 56 81 57 80 58 36 60 68 61 48 62 67 63
REMARK SMILES IDX 49 64 52 65 66 66 85 67 50 68 51 69 65 71 86 72 53 73 37 74
REMARK SMILES IDX 38 75 46 76 39 77 41 78 47 79 40 80 42 81 43 82 44 83 45 84
REMARK SMILES IDX 69 85 70 86 78 87 71 88 73 89 79 90 72 91 74 92 75 93 76 94
REMARK SMILES IDX 77 95 54 96 55 97 63 98 56 99 58 100 64 101 57 102 59 103
REMARK SMILES IDX 60 104 61 105 62 106
REMARK H PARENT 84 59 52 70
REMARK Flexibility Score: inf
ROOT
ATOM      1  C   UNL A   1      52.117  25.393  42.728  1.00  0.00     0.188 C 
ENDROOT
BRANCH   1   2
ATOM      2  C   UNL A   1      52.864  24.066  42.596  1.00  0.00     0.188 C 
BRANCH   2   3
ATOM      3  O   UNL A   1      52.043  22.976  42.169  1.00  0.00    -0.376 OA
BRANCH   3   4
ATOM      4  C   UNL A   1      52.654  21.691  42.278  1.00  0.00     0.202 C 
BRANCH   4   5
ATOM      5  C   UNL A   1      51.644  20.530  42.161  1.00  0.00     0.261 C 
BRANCH   5   6
ATOM      6  O   UNL A   1      51.761  19.794  40.920  1.00  0.00    -0.463 OA
BRANCH   6   7
ATOM      7  C   UNL A   1      50.620  19.219  40.461  1.00  0.00     0.310 C 
ATOM      8  O   UNL A   1      50.463  18.002  40.377  1.00  0.00    -0.252 OA
BRANCH   7   9
ATOM      9  C   UNL A   1      49.478  20.183  40.147  1.00  0.00     0.160 C 
BRANCH   9  10
ATOM     10  C   UNL A   1      48.975  20.320  38.727  1.00  0.00    -0.008 A 
ATOM     11  C   UNL A   1      51.391  21.979  36.246  1.00  0.00     0.119 A 
ATOM     12  C   UNL A   1      50.669  21.658  35.104  1.00  0.00     0.048 A 
ATOM     13  C   UNL A   1      50.857  21.688  37.508  1.00  0.00     0.057 A 
ATOM     14  C   UNL A   1      49.417  21.027  35.197  1.00  0.00     0.031 A 
ATOM     15  C   UNL A   1      49.646  20.958  37.630  1.00  0.00     0.007 A 
ATOM     16  C   UNL A   1      48.911  20.692  36.470  1.00  0.00     0.049 A 
ATOM     17  N   UNL A   1      47.699  20.134  36.876  1.00  0.00    -0.340 N 
ATOM     18  C   UNL A   1      47.693  20.048  38.265  1.00  0.00     0.020 A 
ATOM     19  C   UNL A   1      46.499  19.761  39.102  1.00  0.00     0.065 C 
BRANCH  11  20
ATOM     20  O   UNL A   1      52.621  22.580  36.260  1.00  0.00    -0.497 OA
ATOM     21  C   UNL A   1      53.480  22.335  35.149  1.00  0.00     0.278 C 
ENDBRANCH  11  20
BRANCH  17  22
ATOM     22  C   UNL A   1      46.532  19.998  35.984  1.00  0.00     0.158 C 
BRANCH  22  23
ATOM     23  C   UNL A   1      45.593  21.183  35.861  1.00  0.00    -0.021 A 
ATOM     24  C   UNL A   1      45.673  22.259  36.829  1.00  0.00     0.024 A 
ATOM     25  C   UNL A   1      44.793  21.368  34.793  1.00  0.00     0.077 A 
ATOM     26  C   UNL A   1      44.906  23.349  36.732  1.00  0.00     0.095 A 
ATOM     27  C   UNL A   1      43.989  22.621  34.619  1.00  0.00     0.255 A 
ATOM     28  N   UNL A   1      44.051  23.526  35.665  1.00  0.00    -0.258 N 
ATOM     29  O   UNL A   1      43.367  22.770  33.572  1.00  0.00    -0.269 OA
BRANCH  28  30
ATOM     30  C   UNL A   1      43.295  24.750  35.557  1.00  0.00     0.451 C 
ATOM     31  F   UNL A   1      42.409  24.843  36.582  1.00  0.00    -0.185 F 
ATOM     32  F   UNL A   1      44.095  25.841  35.601  1.00  0.00    -0.185 F 
ENDBRANCH  28  30
ENDBRANCH  22  23
ENDBRANCH  17  22
ENDBRANCH   9  10
ENDBRANCH   7   9
ENDBRANCH   6   7
ENDBRANCH   5   6
ENDBRANCH   4   5
ENDBRANCH   3   4
ENDBRANCH   2   3
ENDBRANCH   1   2
BRANCH   1  33
ATOM     33  O   UNL A   1      51.508  25.958  41.598  1.00  0.00    -0.377 OA
BRANCH  33  34
ATOM     34  C   UNL A   1      52.328  26.747  40.787  1.00  0.00     0.188 C 
BRANCH  34  35
ATOM     35  C   UNL A   1      52.913  25.977  39.599  1.00  0.00     0.188 C 
BRANCH  35  36
ATOM     36  O   UNL A   1      52.091  25.371  38.600  1.00  0.00    -0.376 OA
BRANCH  36  37
ATOM     37  C   UNL A   1      51.229  26.138  37.774  1.00  0.00     0.202 C 
BRANCH  37  38
ATOM     38  C   UNL A   1      51.051  25.686  36.315  1.00  0.00     0.261 C 
BRANCH  38  39
ATOM     39  O   UNL A   1      49.763  25.991  35.784  1.00  0.00    -0.460 OA
BRANCH  39  40
ATOM     40  C   UNL A   1      48.888  24.963  35.649  1.00  0.00     0.338 C 
ATOM     41  O   UNL A   1      48.511  24.179  36.501  1.00  0.00    -0.246 OA
BRANCH  40  42
ATOM     42  C   UNL A   1      48.255  25.197  34.341  1.00  0.00     0.060 A 
ATOM     43  C   UNL A   1      48.753  26.184  33.482  1.00  0.00     0.016 A 
ATOM     44  C   UNL A   1      46.960  24.684  34.196  1.00  0.00     0.016 A 
ATOM     45  C   UNL A   1      47.889  26.754  32.551  1.00  0.00     0.010 A 
ATOM     46  C   UNL A   1      46.095  25.284  33.290  1.00  0.00     0.010 A 
ATOM     47  C   UNL A   1      46.544  26.352  32.508  1.00  0.00    -0.014 A 
BRANCH  47  48
ATOM     48  C   UNL A   1      45.674  26.933  31.488  1.00  0.00     0.031 A 
ATOM     49  C   UNL A   1      45.688  26.171  30.218  1.00  0.00     0.074 A 
ATOM     50  C   UNL A   1      44.772  27.919  31.671  1.00  0.00     0.049 A 
ATOM     51  N   UNL A   1      46.008  26.586  29.036  1.00  0.00    -0.248 NA
ATOM     52  C   UNL A   1      45.410  24.729  30.317  1.00  0.00     0.031 C 
ATOM     53  C   UNL A   1      44.392  28.541  32.936  1.00  0.00     0.029 A 
ATOM     54  N   UNL A   1      43.883  28.458  30.775  1.00  0.00    -0.354 N 
ATOM     55  C   UNL A   1      45.787  25.490  28.212  1.00  0.00     0.074 A 
ATOM     56  C   UNL A   1      45.596  24.341  29.061  1.00  0.00     0.031 C 
ATOM     57  C   UNL A   1      43.224  29.199  32.776  1.00  0.00     0.029 A 
ATOM     58  C   UNL A   1      42.798  29.073  31.393  1.00  0.00     0.049 A 
ATOM     59  H   UNL A   1      44.001  28.414  29.799  1.00  0.00     0.167 HD
ATOM     60  C   UNL A   1      45.514  25.599  26.887  1.00  0.00     0.034 A 
ATOM     61  C   UNL A   1      41.582  29.327  30.848  1.00  0.00     0.034 A 
ATOM     62  C   UNL A   1      45.804  26.881  26.333  1.00  0.00     0.049 A 
ATOM     63  C   UNL A   1      41.743  29.336  29.374  1.00  0.00     0.074 A 
ATOM     64  C   UNL A   1      46.934  27.667  26.239  1.00  0.00     0.029 A 
ATOM     65  N   UNL A   1      44.738  27.700  26.056  1.00  0.00    -0.354 N 
ATOM     66  N   UNL A   1      42.425  30.230  28.713  1.00  0.00    -0.248 NA
ATOM     67  C   UNL A   1      41.411  28.132  28.628  1.00  0.00     0.031 C 
ATOM     68  C   UNL A   1      46.465  29.008  26.323  1.00  0.00     0.029 A 
ATOM     69  C   UNL A   1      45.076  28.961  26.469  1.00  0.00     0.049 A 
ATOM     70  H   UNL A   1      43.888  27.431  25.638  1.00  0.00     0.167 HD
ATOM     71  C   UNL A   1      42.957  29.541  27.631  1.00  0.00     0.074 A 
ATOM     72  C   UNL A   1      42.191  28.303  27.558  1.00  0.00     0.031 C 
ATOM     73  C   UNL A   1      44.154  29.899  27.080  1.00  0.00     0.034 A 
BRANCH  60  74
ATOM     74  C   UNL A   1      44.664  24.580  26.205  1.00  0.00     0.023 A 
ATOM     75  C   UNL A   1      45.082  24.023  24.988  1.00  0.00     0.012 A 
ATOM     76  C   UNL A   1      43.374  24.255  26.679  1.00  0.00     0.148 A 
ATOM     77  C   UNL A   1      44.262  23.120  24.303  1.00  0.00     0.002 A 
ATOM     78  C   UNL A   1      42.613  23.282  26.054  1.00  0.00     0.091 A 
ATOM     79  F   UNL A   1      42.852  24.953  27.700  1.00  0.00    -0.205 F 
ATOM     80  C   UNL A   1      43.045  22.720  24.853  1.00  0.00     0.022 A 
BRANCH  78  81
ATOM     81  S   UNL A   1      41.125  22.662  26.839  1.00  0.00     0.127 S 
ATOM     82  O   UNL A   1      41.063  21.297  26.326  1.00  0.00    -0.237 OA
ATOM     83  O   UNL A   1      41.450  22.778  28.260  1.00  0.00    -0.237 OA
ATOM     84  O   UNL A   1      40.076  23.575  26.397  1.00  0.00    -0.744 OA
ENDBRANCH  78  81
ENDBRANCH  60  74
BRANCH  61  85
ATOM     85  C   UNL A   1      40.251  29.350  31.519  1.00  0.00     0.023 A 
ATOM     86  C   UNL A   1      39.510  28.160  31.665  1.00  0.00     0.012 A 
ATOM     87  C   UNL A   1      39.772  30.493  32.200  1.00  0.00     0.148 A 
ATOM     88  C   UNL A   1      38.348  28.115  32.453  1.00  0.00     0.002 A 
ATOM     89  C   UNL A   1      38.590  30.458  32.937  1.00  0.00     0.091 A 
ATOM     90  F   UNL A   1      40.512  31.609  32.225  1.00  0.00    -0.205 F 
ATOM     91  C   UNL A   1      37.880  29.267  33.080  1.00  0.00     0.022 A 
BRANCH  89  92
ATOM     92  S   UNL A   1      37.950  31.964  33.686  1.00  0.00     0.127 S 
ATOM     93  O   UNL A   1      38.820  32.140  34.850  1.00  0.00    -0.237 OA
ATOM     94  O   UNL A   1      38.140  32.946  32.625  1.00  0.00    -0.237 OA
ATOM     95  O   UNL A   1      36.568  31.638  34.026  1.00  0.00    -0.744 OA
ENDBRANCH  89  92
ENDBRANCH  61  85
BRANCH  73  96
ATOM     96  C   UNL A   1      44.737  31.245  27.426  1.00  0.00     0.023 A 
ATOM     97  C   UNL A   1      45.618  31.403  28.517  1.00  0.00     0.012 A 
ATOM     98  C   UNL A   1      44.600  32.296  26.501  1.00  0.00     0.148 A 
ATOM     99  C   UNL A   1      46.341  32.585  28.686  1.00  0.00     0.002 A 
ATOM    100  C   UNL A   1      45.359  33.452  26.646  1.00  0.00     0.091 A 
ATOM    101  F   UNL A   1      43.775  32.118  25.457  1.00  0.00    -0.205 F 
ATOM    102  C   UNL A   1      46.223  33.603  27.742  1.00  0.00     0.022 A 
BRANCH 100 103
ATOM    103  S   UNL A   1      45.389  34.743  25.398  1.00  0.00     0.127 S 
ATOM    104  O   UNL A   1      44.616  35.806  26.036  1.00  0.00    -0.237 OA
ATOM    105  O   UNL A   1      46.823  35.017  25.278  1.00  0.00    -0.237 OA
ATOM    106  O   UNL A   1      44.784  34.170  24.202  1.00  0.00    -0.744 OA
ENDBRANCH 100 103
ENDBRANCH  73  96
ENDBRANCH  47  48
ENDBRANCH  40  42
ENDBRANCH  39  40
ENDBRANCH  38  39
ENDBRANCH  37  38
ENDBRANCH  36  37
ENDBRANCH  35  36
ENDBRANCH  34  35
ENDBRANCH  33  34
ENDBRANCH   1  33
TORSDOF 28
ENDMDL
