MODEL 1
REMARK VINA RESULT:     -10.4      0.000      0.000
REMARK SMILES Cc1c(Cc2nc(C(C)(C)C)cs2)cccc1C(=O)OCCOCCOCCOCCOC(=O)c1ccc(-c2c3nc(c(-c4cccc(S(=O)(=O)[O-])c4F)c4ccc([nH]4)c(-c4cccc(S(=O)(=O)[O-])c4F)c4nc(c(-c5cccc(S(=O)(=O)[O-])c5F)c5ccc2[nH]5)C=C4)C=C3)cc1
REMARK SMILES IDX 26 1 25 2 24 3 23 4 22 5 21 6 20 7 18 8 19 9 17 10 1 11 2 12
REMARK SMILES IDX 3 13 14 14 16 15 15 16 4 17 5 18 6 19 13 20 7 21 12 22 8 23
REMARK SMILES IDX 9 24 10 25 11 26 27 27 28 28 29 29 30 30 31 31 32 32 33 33
REMARK SMILES IDX 34 34 35 35 36 36 97 37 37 38 96 39 38 40 39 41 40 42 90 43
REMARK SMILES IDX 41 44 95 45 89 46 91 47 42 48 94 49 88 50 87 51 43 53 75 54
REMARK SMILES IDX 55 55 74 56 56 57 59 58 73 59 92 60 57 61 58 62 72 64 93 65
REMARK SMILES IDX 60 66 44 67 45 68 53 69 46 70 48 71 54 72 47 73 49 74 50 75
REMARK SMILES IDX 51 76 52 77 76 78 77 79 85 80 78 81 80 82 86 83 79 84 81 85
REMARK SMILES IDX 82 86 83 87 84 88 61 89 62 90 70 91 63 92 65 93 71 94 64 95
REMARK SMILES IDX 66 96 67 97 68 98 69 99
REMARK H PARENT 91 52 59 63
REMARK Flexibility Score: inf
ROOT
ATOM      1  O   UNL A   1      33.314  31.448  27.251  1.00  0.00    -0.377 OA
ENDROOT
BRANCH   1   2
ATOM      2  C   UNL A   1      33.199  30.064  27.502  1.00  0.00     0.188 C 
BRANCH   2   3
ATOM      3  C   UNL A   1      34.196  29.145  26.790  1.00  0.00     0.188 C 
BRANCH   3   4
ATOM      4  O   UNL A   1      33.672  28.233  25.828  1.00  0.00    -0.376 OA
BRANCH   4   5
ATOM      5  C   UNL A   1      33.563  28.704  24.485  1.00  0.00     0.202 C 
BRANCH   5   6
ATOM      6  C   UNL A   1      32.208  29.258  24.148  1.00  0.00     0.261 C 
BRANCH   6   7
ATOM      7  O   UNL A   1      31.264  28.413  24.797  1.00  0.00    -0.460 OA
BRANCH   7   8
ATOM      8  C   UNL A   1      30.438  27.748  23.978  1.00  0.00     0.338 C 
ATOM      9  O   UNL A   1      29.546  28.198  23.311  1.00  0.00    -0.246 OA
BRANCH   8  10
ATOM     10  C   UNL A   1      31.016  26.388  23.788  1.00  0.00     0.063 A 
ATOM     11  C   UNL A   1      30.929  25.543  26.229  1.00  0.00     0.045 C 
ATOM     12  C   UNL A   1      31.174  25.367  24.756  1.00  0.00    -0.033 A 
ATOM     13  C   UNL A   1      31.569  24.088  24.303  1.00  0.00    -0.037 A 
ATOM     14  C   UNL A   1      31.995  23.923  22.969  1.00  0.00     0.004 A 
ATOM     15  C   UNL A   1      31.454  26.193  22.469  1.00  0.00     0.016 A 
ATOM     16  C   UNL A   1      31.978  24.978  22.068  1.00  0.00     0.001 A 
BRANCH  13  17
ATOM     17  C   UNL A   1      31.312  22.829  25.128  1.00  0.00     0.103 C 
BRANCH  17  18
ATOM     18  C   UNL A   1      32.592  22.044  25.205  1.00  0.00     0.097 A 
ATOM     19  N   UNL A   1      33.760  22.623  25.367  1.00  0.00    -0.245 NA
ATOM     20  S   UNL A   1      32.660  20.357  24.903  1.00  0.00    -0.127 S 
ATOM     21  C   UNL A   1      34.774  21.784  24.953  1.00  0.00     0.057 A 
ATOM     22  C   UNL A   1      34.368  20.475  24.753  1.00  0.00     0.091 A 
BRANCH  21  23
ATOM     23  C   UNL A   1      36.156  22.386  24.778  1.00  0.00     0.005 C 
ATOM     24  C   UNL A   1      36.321  23.582  25.727  1.00  0.00     0.017 C 
ATOM     25  C   UNL A   1      37.255  21.342  25.055  1.00  0.00     0.017 C 
ATOM     26  C   UNL A   1      36.351  22.879  23.322  1.00  0.00     0.017 C 
ENDBRANCH  21  23
ENDBRANCH  17  18
ENDBRANCH  13  17
ENDBRANCH   8  10
ENDBRANCH   7   8
ENDBRANCH   6   7
ENDBRANCH   5   6
ENDBRANCH   4   5
ENDBRANCH   3   4
ENDBRANCH   2   3
ENDBRANCH   1   2
BRANCH   1  27
ATOM     27  C   UNL A   1      34.096  32.209  28.151  1.00  0.00     0.188 C 
BRANCH  27  28
ATOM     28  C   UNL A   1      33.814  33.717  28.031  1.00  0.00     0.188 C 
BRANCH  28  29
ATOM     29  O   UNL A   1      32.771  34.229  28.846  1.00  0.00    -0.376 OA
BRANCH  29  30
ATOM     30  C   UNL A   1      32.939  35.582  29.273  1.00  0.00     0.202 C 
BRANCH  30  31
ATOM     31  C   UNL A   1      32.797  35.974  30.801  1.00  0.00     0.261 C 
BRANCH  31  32
ATOM     32  O   UNL A   1      34.094  36.150  31.482  1.00  0.00    -0.460 OA
BRANCH  32  33
ATOM     33  C   UNL A   1      34.709  35.252  32.314  1.00  0.00     0.338 C 
ATOM     34  O   UNL A   1      34.941  35.467  33.492  1.00  0.00    -0.246 OA
BRANCH  33  35
ATOM     35  C   UNL A   1      35.183  34.013  31.521  1.00  0.00     0.060 A 
ATOM     36  C   UNL A   1      34.795  32.729  31.887  1.00  0.00     0.016 A 
ATOM     37  C   UNL A   1      36.219  34.055  30.598  1.00  0.00     0.016 A 
ATOM     38  C   UNL A   1      35.687  31.632  31.753  1.00  0.00     0.010 A 
ATOM     39  C   UNL A   1      37.165  33.023  30.563  1.00  0.00     0.010 A 
ATOM     40  C   UNL A   1      36.974  31.846  31.292  1.00  0.00    -0.014 A 
BRANCH  40  41
ATOM     41  C   UNL A   1      38.175  31.057  31.684  1.00  0.00     0.031 A 
ATOM     42  C   UNL A   1      38.546  29.805  30.896  1.00  0.00     0.074 A 
ATOM     43  C   UNL A   1      39.144  31.691  32.418  1.00  0.00     0.049 A 
ATOM     44  N   UNL A   1      39.666  29.158  30.973  1.00  0.00    -0.248 NA
ATOM     45  C   UNL A   1      37.670  29.203  29.892  1.00  0.00     0.031 C 
ATOM     46  C   UNL A   1      40.557  31.362  32.328  1.00  0.00     0.029 A 
ATOM     47  N   UNL A   1      39.165  32.765  33.332  1.00  0.00    -0.354 N 
ATOM     48  C   UNL A   1      39.799  28.325  29.876  1.00  0.00     0.074 A 
ATOM     49  C   UNL A   1      38.488  28.334  29.279  1.00  0.00     0.031 C 
ATOM     50  C   UNL A   1      41.310  32.182  33.059  1.00  0.00     0.029 A 
ATOM     51  C   UNL A   1      40.409  32.774  34.003  1.00  0.00     0.049 A 
ATOM     52  H   UNL A   1      38.432  33.405  33.478  1.00  0.00     0.167 HD
ATOM     53  C   UNL A   1      41.026  27.809  29.545  1.00  0.00     0.034 A 
ATOM     54  C   UNL A   1      40.659  32.564  35.335  1.00  0.00     0.034 A 
ATOM     55  C   UNL A   1      42.044  28.057  30.608  1.00  0.00     0.049 A 
ATOM     56  C   UNL A   1      41.374  31.225  35.593  1.00  0.00     0.074 A 
ATOM     57  C   UNL A   1      43.334  28.573  30.630  1.00  0.00     0.029 A 
ATOM     58  N   UNL A   1      41.712  27.855  31.953  1.00  0.00    -0.354 N 
ATOM     59  N   UNL A   1      41.498  30.306  34.663  1.00  0.00    -0.248 NA
ATOM     60  C   UNL A   1      42.069  30.811  36.811  1.00  0.00     0.031 C 
ATOM     61  C   UNL A   1      43.667  28.881  31.985  1.00  0.00     0.029 A 
ATOM     62  C   UNL A   1      42.649  28.417  32.807  1.00  0.00     0.049 A 
ATOM     63  H   UNL A   1      40.910  27.372  32.256  1.00  0.00     0.167 HD
ATOM     64  C   UNL A   1      42.271  29.268  35.068  1.00  0.00     0.074 A 
ATOM     65  C   UNL A   1      42.574  29.610  36.450  1.00  0.00     0.031 C 
ATOM     66  C   UNL A   1      42.576  28.209  34.255  1.00  0.00     0.034 A 
BRANCH  53  67
ATOM     67  C   UNL A   1      41.415  27.164  28.191  1.00  0.00     0.023 A 
ATOM     68  C   UNL A   1      41.386  27.997  27.044  1.00  0.00     0.012 A 
ATOM     69  C   UNL A   1      41.726  25.798  27.929  1.00  0.00     0.148 A 
ATOM     70  C   UNL A   1      41.619  27.528  25.741  1.00  0.00     0.002 A 
ATOM     71  C   UNL A   1      42.036  25.343  26.630  1.00  0.00     0.091 A 
ATOM     72  F   UNL A   1      41.661  24.900  28.916  1.00  0.00    -0.205 F 
ATOM     73  C   UNL A   1      41.960  26.204  25.533  1.00  0.00     0.022 A 
BRANCH  71  74
ATOM     74  S   UNL A   1      42.585  23.658  26.259  1.00  0.00     0.127 S 
ATOM     75  O   UNL A   1      43.104  23.788  24.898  1.00  0.00    -0.237 OA
ATOM     76  O   UNL A   1      43.613  23.434  27.277  1.00  0.00    -0.237 OA
ATOM     77  O   UNL A   1      41.408  22.808  26.392  1.00  0.00    -0.744 OA
ENDBRANCH  71  74
ENDBRANCH  53  67
BRANCH  54  78
ATOM     78  C   UNL A   1      39.930  33.482  36.245  1.00  0.00     0.023 A 
ATOM     79  C   UNL A   1      38.894  32.871  37.005  1.00  0.00     0.012 A 
ATOM     80  C   UNL A   1      40.658  34.527  36.810  1.00  0.00     0.148 A 
ATOM     81  C   UNL A   1      38.760  33.126  38.372  1.00  0.00     0.002 A 
ATOM     82  C   UNL A   1      40.603  34.684  38.189  1.00  0.00     0.091 A 
ATOM     83  F   UNL A   1      41.558  35.162  36.048  1.00  0.00    -0.205 F 
ATOM     84  C   UNL A   1      39.660  33.988  38.975  1.00  0.00     0.022 A 
BRANCH  82  85
ATOM     85  S   UNL A   1      42.114  35.097  39.064  1.00  0.00     0.127 S 
ATOM     86  O   UNL A   1      41.784  36.331  39.763  1.00  0.00    -0.237 OA
ATOM     87  O   UNL A   1      42.187  33.905  39.901  1.00  0.00    -0.237 OA
ATOM     88  O   UNL A   1      43.154  35.195  38.051  1.00  0.00    -0.744 OA
ENDBRANCH  82  85
ENDBRANCH  54  78
BRANCH  66  89
ATOM     89  C   UNL A   1      42.816  26.808  34.774  1.00  0.00     0.023 A 
ATOM     90  C   UNL A   1      41.739  26.018  35.219  1.00  0.00     0.012 A 
ATOM     91  C   UNL A   1      44.060  26.151  34.569  1.00  0.00     0.148 A 
ATOM     92  C   UNL A   1      41.888  24.656  35.479  1.00  0.00     0.002 A 
ATOM     93  C   UNL A   1      44.171  24.774  34.719  1.00  0.00     0.091 A 
ATOM     94  F   UNL A   1      45.147  26.854  34.225  1.00  0.00    -0.205 F 
ATOM     95  C   UNL A   1      43.094  24.027  35.201  1.00  0.00     0.022 A 
BRANCH  93  96
ATOM     96  S   UNL A   1      45.620  23.883  34.133  1.00  0.00     0.127 S 
ATOM     97  O   UNL A   1      46.059  24.726  33.022  1.00  0.00    -0.237 OA
ATOM     98  O   UNL A   1      46.496  23.913  35.306  1.00  0.00    -0.237 OA
ATOM     99  O   UNL A   1      45.145  22.553  33.778  1.00  0.00    -0.744 OA
ENDBRANCH  93  96
ENDBRANCH  66  89
ENDBRANCH  40  41
ENDBRANCH  33  35
ENDBRANCH  32  33
ENDBRANCH  31  32
ENDBRANCH  30  31
ENDBRANCH  29  30
ENDBRANCH  28  29
ENDBRANCH  27  28
ENDBRANCH   1  27
TORSDOF 26
ENDMDL
MODEL 2
REMARK VINA RESULT:      -9.9      1.919      2.585
REMARK SMILES Cc1c(Cc2nc(C(C)(C)C)cs2)cccc1C(=O)OCCOCCOCCOCCOC(=O)c1ccc(-c2c3nc(c(-c4cccc(S(=O)(=O)[O-])c4F)c4ccc([nH]4)c(-c4cccc(S(=O)(=O)[O-])c4F)c4nc(c(-c5cccc(S(=O)(=O)[O-])c5F)c5ccc2[nH]5)C=C4)C=C3)cc1
REMARK SMILES IDX 26 1 25 2 24 3 23 4 22 5 21 6 20 7 18 8 19 9 17 10 1 11 2 12
REMARK SMILES IDX 3 13 14 14 16 15 15 16 4 17 5 18 6 19 13 20 7 21 12 22 8 23
REMARK SMILES IDX 9 24 10 25 11 26 27 27 28 28 29 29 30 30 31 31 32 32 33 33
REMARK SMILES IDX 34 34 35 35 36 36 97 37 37 38 96 39 38 40 39 41 40 42 90 43
REMARK SMILES IDX 41 44 95 45 89 46 91 47 42 48 94 49 88 50 87 51 43 53 75 54
REMARK SMILES IDX 55 55 74 56 56 57 59 58 73 59 92 60 57 61 58 62 72 64 93 65
REMARK SMILES IDX 60 66 44 67 45 68 53 69 46 70 48 71 54 72 47 73 49 74 50 75
REMARK SMILES IDX 51 76 52 77 76 78 77 79 85 80 78 81 80 82 86 83 79 84 81 85
REMARK SMILES IDX 82 86 83 87 84 88 61 89 62 90 70 91 63 92 65 93 71 94 64 95
REMARK SMILES IDX 66 96 67 97 68 98 69 99
REMARK H PARENT 91 52 59 63
REMARK Flexibility Score: inf
ROOT
ATOM      1  O   UNL A   1      35.113  32.263  27.385  1.00  0.00    -0.377 OA
ENDROOT
BRANCH   1   2
ATOM      2  C   UNL A   1      34.765  31.165  28.200  1.00  0.00     0.188 C 
BRANCH   2   3
ATOM      3  C   UNL A   1      34.622  29.806  27.509  1.00  0.00     0.188 C 
BRANCH   3   4
ATOM      4  O   UNL A   1      33.305  29.381  27.168  1.00  0.00    -0.376 OA
BRANCH   4   5
ATOM      5  C   UNL A   1      32.615  30.148  26.180  1.00  0.00     0.202 C 
BRANCH   5   6
ATOM      6  C   UNL A   1      32.443  29.430  24.872  1.00  0.00     0.261 C 
BRANCH   6   7
ATOM      7  O   UNL A   1      32.051  28.101  25.200  1.00  0.00    -0.460 OA
BRANCH   7   8
ATOM      8  C   UNL A   1      32.335  27.179  24.270  1.00  0.00     0.338 C 
ATOM      9  O   UNL A   1      32.448  27.342  23.085  1.00  0.00    -0.246 OA
BRANCH   8  10
ATOM     10  C   UNL A   1      32.800  25.962  24.993  1.00  0.00     0.063 A 
ATOM     11  C   UNL A   1      30.553  25.177  25.997  1.00  0.00     0.045 C 
ATOM     12  C   UNL A   1      32.018  25.019  25.702  1.00  0.00    -0.033 A 
ATOM     13  C   UNL A   1      32.656  23.838  26.144  1.00  0.00    -0.037 A 
ATOM     14  C   UNL A   1      34.060  23.732  26.062  1.00  0.00     0.004 A 
ATOM     15  C   UNL A   1      34.197  25.830  24.933  1.00  0.00     0.016 A 
ATOM     16  C   UNL A   1      34.830  24.739  25.498  1.00  0.00     0.001 A 
BRANCH  13  17
ATOM     17  C   UNL A   1      31.865  22.573  26.471  1.00  0.00     0.103 C 
BRANCH  17  18
ATOM     18  C   UNL A   1      31.864  21.687  25.257  1.00  0.00     0.097 A 
ATOM     19  N   UNL A   1      32.063  20.391  25.337  1.00  0.00    -0.245 NA
ATOM     20  S   UNL A   1      31.793  22.309  23.660  1.00  0.00    -0.127 S 
ATOM     21  C   UNL A   1      32.468  19.892  24.116  1.00  0.00     0.057 A 
ATOM     22  C   UNL A   1      32.291  20.776  23.065  1.00  0.00     0.091 A 
BRANCH  21  23
ATOM     23  C   UNL A   1      33.035  18.484  24.086  1.00  0.00     0.005 C 
ATOM     24  C   UNL A   1      32.848  17.883  22.685  1.00  0.00     0.017 C 
ATOM     25  C   UNL A   1      34.530  18.479  24.462  1.00  0.00     0.017 C 
ATOM     26  C   UNL A   1      32.303  17.584  25.112  1.00  0.00     0.017 C 
ENDBRANCH  21  23
ENDBRANCH  17  18
ENDBRANCH  13  17
ENDBRANCH   8  10
ENDBRANCH   7   8
ENDBRANCH   6   7
ENDBRANCH   5   6
ENDBRANCH   4   5
ENDBRANCH   3   4
ENDBRANCH   2   3
ENDBRANCH   1   2
BRANCH   1  27
ATOM     27  C   UNL A   1      35.687  33.388  28.023  1.00  0.00     0.188 C 
BRANCH  27  28
ATOM     28  C   UNL A   1      34.788  34.634  27.919  1.00  0.00     0.188 C 
BRANCH  28  29
ATOM     29  O   UNL A   1      33.525  34.553  28.560  1.00  0.00    -0.376 OA
BRANCH  29  30
ATOM     30  C   UNL A   1      32.868  35.804  28.773  1.00  0.00     0.202 C 
BRANCH  30  31
ATOM     31  C   UNL A   1      32.703  36.397  30.232  1.00  0.00     0.261 C 
BRANCH  31  32
ATOM     32  O   UNL A   1      33.979  36.508  30.965  1.00  0.00    -0.460 OA
BRANCH  32  33
ATOM     33  C   UNL A   1      34.185  36.240  32.293  1.00  0.00     0.338 C 
ATOM     34  O   UNL A   1      34.337  37.101  33.143  1.00  0.00    -0.246 OA
BRANCH  33  35
ATOM     35  C   UNL A   1      34.337  34.719  32.523  1.00  0.00     0.060 A 
ATOM     36  C   UNL A   1      34.390  34.185  33.805  1.00  0.00     0.016 A 
ATOM     37  C   UNL A   1      34.706  33.835  31.519  1.00  0.00     0.016 A 
ATOM     38  C   UNL A   1      35.220  33.069  34.095  1.00  0.00     0.010 A 
ATOM     39  C   UNL A   1      35.625  32.814  31.792  1.00  0.00     0.010 A 
ATOM     40  C   UNL A   1      36.020  32.532  33.103  1.00  0.00    -0.014 A 
BRANCH  40  41
ATOM     41  C   UNL A   1      37.345  31.883  33.315  1.00  0.00     0.031 A 
ATOM     42  C   UNL A   1      37.684  30.599  32.568  1.00  0.00     0.074 A 
ATOM     43  C   UNL A   1      38.365  32.659  33.800  1.00  0.00     0.049 A 
ATOM     44  N   UNL A   1      38.858  30.054  32.477  1.00  0.00    -0.248 NA
ATOM     45  C   UNL A   1      36.701  29.837  31.798  1.00  0.00     0.031 C 
ATOM     46  C   UNL A   1      39.763  32.440  33.465  1.00  0.00     0.029 A 
ATOM     47  N   UNL A   1      38.449  33.812  34.609  1.00  0.00    -0.354 N 
ATOM     48  C   UNL A   1      38.867  29.137  31.441  1.00  0.00     0.074 A 
ATOM     49  C   UNL A   1      37.473  28.985  31.107  1.00  0.00     0.031 C 
ATOM     50  C   UNL A   1      40.554  33.382  33.975  1.00  0.00     0.029 A 
ATOM     51  C   UNL A   1      39.789  33.984  35.027  1.00  0.00     0.049 A 
ATOM     52  H   UNL A   1      37.697  34.400  34.845  1.00  0.00     0.167 HD
ATOM     53  C   UNL A   1      40.056  28.695  30.921  1.00  0.00     0.034 A 
ATOM     54  C   UNL A   1      40.299  33.919  36.298  1.00  0.00     0.034 A 
ATOM     55  C   UNL A   1      41.223  29.122  31.746  1.00  0.00     0.049 A 
ATOM     56  C   UNL A   1      41.177  32.672  36.515  1.00  0.00     0.074 A 
ATOM     57  C   UNL A   1      42.439  29.742  31.482  1.00  0.00     0.029 A 
ATOM     58  N   UNL A   1      41.166  29.019  33.142  1.00  0.00    -0.354 N 
ATOM     59  N   UNL A   1      41.216  31.685  35.650  1.00  0.00    -0.248 NA
ATOM     60  C   UNL A   1      42.121  32.431  37.604  1.00  0.00     0.031 C 
ATOM     61  C   UNL A   1      42.983  30.200  32.721  1.00  0.00     0.029 A 
ATOM     62  C   UNL A   1      42.184  29.732  33.755  1.00  0.00     0.049 A 
ATOM     63  H   UNL A   1      40.484  28.503  33.628  1.00  0.00     0.167 HD
ATOM     64  C   UNL A   1      42.147  30.755  35.976  1.00  0.00     0.074 A 
ATOM     65  C   UNL A   1      42.665  31.247  37.245  1.00  0.00     0.031 C 
ATOM     66  C   UNL A   1      42.400  29.654  35.202  1.00  0.00     0.034 A 
BRANCH  53  67
ATOM     67  C   UNL A   1      40.250  27.961  29.569  1.00  0.00     0.023 A 
ATOM     68  C   UNL A   1      39.468  26.800  29.346  1.00  0.00     0.012 A 
ATOM     69  C   UNL A   1      41.185  28.259  28.537  1.00  0.00     0.148 A 
ATOM     70  C   UNL A   1      39.605  25.981  28.213  1.00  0.00     0.002 A 
ATOM     71  C   UNL A   1      41.269  27.481  27.363  1.00  0.00     0.091 A 
ATOM     72  F   UNL A   1      42.058  29.258  28.698  1.00  0.00    -0.205 F 
ATOM     73  C   UNL A   1      40.495  26.328  27.212  1.00  0.00     0.022 A 
BRANCH  71  74
ATOM     74  S   UNL A   1      42.327  27.896  25.954  1.00  0.00     0.127 S 
ATOM     75  O   UNL A   1      42.152  26.740  25.076  1.00  0.00    -0.237 OA
ATOM     76  O   UNL A   1      41.714  29.129  25.456  1.00  0.00    -0.237 OA
ATOM     77  O   UNL A   1      43.672  28.066  26.491  1.00  0.00    -0.744 OA
ENDBRANCH  71  74
ENDBRANCH  53  67
BRANCH  54  78
ATOM     78  C   UNL A   1      39.664  34.855  37.259  1.00  0.00     0.023 A 
ATOM     79  C   UNL A   1      38.920  34.229  38.299  1.00  0.00     0.012 A 
ATOM     80  C   UNL A   1      40.340  36.043  37.530  1.00  0.00     0.148 A 
ATOM     81  C   UNL A   1      39.056  34.642  39.626  1.00  0.00     0.002 A 
ATOM     82  C   UNL A   1      40.568  36.369  38.861  1.00  0.00     0.091 A 
ATOM     83  F   UNL A   1      40.948  36.675  36.519  1.00  0.00    -0.205 F 
ATOM     84  C   UNL A   1      39.932  35.674  39.912  1.00  0.00     0.022 A 
BRANCH  82  85
ATOM     85  S   UNL A   1      42.159  37.067  39.309  1.00  0.00     0.127 S 
ATOM     86  O   UNL A   1      41.852  38.454  39.629  1.00  0.00    -0.237 OA
ATOM     87  O   UNL A   1      42.433  36.208  40.455  1.00  0.00    -0.237 OA
ATOM     88  O   UNL A   1      43.032  36.854  38.165  1.00  0.00    -0.744 OA
ENDBRANCH  82  85
ENDBRANCH  54  78
BRANCH  66  89
ATOM     89  C   UNL A   1      42.867  28.331  35.770  1.00  0.00     0.023 A 
ATOM     90  C   UNL A   1      41.952  27.459  36.389  1.00  0.00     0.012 A 
ATOM     91  C   UNL A   1      44.150  27.807  35.453  1.00  0.00     0.148 A 
ATOM     92  C   UNL A   1      42.295  26.144  36.709  1.00  0.00     0.002 A 
ATOM     93  C   UNL A   1      44.444  26.466  35.669  1.00  0.00     0.091 A 
ATOM     94  F   UNL A   1      45.096  28.603  34.937  1.00  0.00    -0.205 F 
ATOM     95  C   UNL A   1      43.530  25.639  36.323  1.00  0.00     0.022 A 
BRANCH  93  96
ATOM     96  S   UNL A   1      45.915  25.706  34.964  1.00  0.00     0.127 S 
ATOM     97  O   UNL A   1      46.970  26.247  35.818  1.00  0.00    -0.237 OA
ATOM     98  O   UNL A   1      45.646  24.279  35.155  1.00  0.00    -0.237 OA
ATOM     99  O   UNL A   1      45.941  26.125  33.570  1.00  0.00    -0.744 OA
ENDBRANCH  93  96
ENDBRANCH  66  89
ENDBRANCH  40  41
ENDBRANCH  33  35
ENDBRANCH  32  33
ENDBRANCH  31  32
ENDBRANCH  30  31
ENDBRANCH  29  30
ENDBRANCH  28  29
ENDBRANCH  27  28
ENDBRANCH   1  27
TORSDOF 26
ENDMDL
MODEL 3
REMARK VINA RESULT:      -9.8      1.741      2.388
REMARK SMILES Cc1c(Cc2nc(C(C)(C)C)cs2)cccc1C(=O)OCCOCCOCCOCCOC(=O)c1ccc(-c2c3nc(c(-c4cccc(S(=O)(=O)[O-])c4F)c4ccc([nH]4)c(-c4cccc(S(=O)(=O)[O-])c4F)c4nc(c(-c5cccc(S(=O)(=O)[O-])c5F)c5ccc2[nH]5)C=C4)C=C3)cc1
REMARK SMILES IDX 26 1 25 2 24 3 23 4 22 5 21 6 20 7 18 8 19 9 17 10 1 11 2 12
REMARK SMILES IDX 3 13 14 14 16 15 15 16 4 17 5 18 6 19 13 20 7 21 12 22 8 23
REMARK SMILES IDX 9 24 10 25 11 26 27 27 28 28 29 29 30 30 31 31 32 32 33 33
REMARK SMILES IDX 34 34 35 35 36 36 97 37 37 38 96 39 38 40 39 41 40 42 90 43
REMARK SMILES IDX 41 44 95 45 89 46 91 47 42 48 94 49 88 50 87 51 43 53 75 54
REMARK SMILES IDX 55 55 74 56 56 57 59 58 73 59 92 60 57 61 58 62 72 64 93 65
REMARK SMILES IDX 60 66 44 67 45 68 53 69 46 70 48 71 54 72 47 73 49 74 50 75
REMARK SMILES IDX 51 76 52 77 76 78 77 79 85 80 78 81 80 82 86 83 79 84 81 85
REMARK SMILES IDX 82 86 83 87 84 88 61 89 62 90 70 91 63 92 65 93 71 94 64 95
REMARK SMILES IDX 66 96 67 97 68 98 69 99
REMARK H PARENT 91 52 59 63
REMARK Flexibility Score: inf
ROOT
ATOM      1  O   UNL A   1      32.842  32.771  27.258  1.00  0.00    -0.377 OA
ENDROOT
BRANCH   1   2
ATOM      2  C   UNL A   1      32.358  31.448  27.173  1.00  0.00     0.188 C 
BRANCH   2   3
ATOM      3  C   UNL A   1      33.393  30.324  27.274  1.00  0.00     0.188 C 
BRANCH   3   4
ATOM      4  O   UNL A   1      33.076  29.085  26.642  1.00  0.00    -0.376 OA
BRANCH   4   5
ATOM      5  C   UNL A   1      34.042  28.560  25.732  1.00  0.00     0.202 C 
BRANCH   5   6
ATOM      6  C   UNL A   1      33.497  28.301  24.357  1.00  0.00     0.261 C 
BRANCH   6   7
ATOM      7  O   UNL A   1      32.110  28.027  24.528  1.00  0.00    -0.460 OA
BRANCH   7   8
ATOM      8  C   UNL A   1      31.584  27.178  23.635  1.00  0.00     0.338 C 
ATOM      9  O   UNL A   1      31.382  27.374  22.467  1.00  0.00    -0.246 OA
BRANCH   8  10
ATOM     10  C   UNL A   1      31.578  25.829  24.267  1.00  0.00     0.063 A 
ATOM     11  C   UNL A   1      33.392  24.678  22.831  1.00  0.00     0.045 C 
ATOM     12  C   UNL A   1      32.421  24.729  23.978  1.00  0.00    -0.033 A 
ATOM     13  C   UNL A   1      32.360  23.612  24.840  1.00  0.00    -0.037 A 
ATOM     14  C   UNL A   1      31.336  23.533  25.807  1.00  0.00     0.004 A 
ATOM     15  C   UNL A   1      30.566  25.717  25.233  1.00  0.00     0.016 A 
ATOM     16  C   UNL A   1      30.419  24.560  25.975  1.00  0.00     0.001 A 
BRANCH  13  17
ATOM     17  C   UNL A   1      33.507  22.608  24.935  1.00  0.00     0.103 C 
BRANCH  17  18
ATOM     18  C   UNL A   1      33.022  21.283  24.415  1.00  0.00     0.097 A 
ATOM     19  N   UNL A   1      33.429  20.141  24.922  1.00  0.00    -0.245 NA
ATOM     20  S   UNL A   1      32.052  21.142  23.008  1.00  0.00    -0.127 S 
ATOM     21  C   UNL A   1      33.226  19.116  24.021  1.00  0.00     0.057 A 
ATOM     22  C   UNL A   1      32.404  19.461  22.960  1.00  0.00     0.091 A 
BRANCH  21  23
ATOM     23  C   UNL A   1      33.906  17.789  24.302  1.00  0.00     0.005 C 
ATOM     24  C   UNL A   1      33.170  17.063  25.437  1.00  0.00     0.017 C 
ATOM     25  C   UNL A   1      33.931  16.901  23.043  1.00  0.00     0.017 C 
ATOM     26  C   UNL A   1      35.377  18.015  24.731  1.00  0.00     0.017 C 
ENDBRANCH  21  23
ENDBRANCH  17  18
ENDBRANCH  13  17
ENDBRANCH   8  10
ENDBRANCH   7   8
ENDBRANCH   6   7
ENDBRANCH   5   6
ENDBRANCH   4   5
ENDBRANCH   3   4
ENDBRANCH   2   3
ENDBRANCH   1   2
BRANCH   1  27
ATOM     27  C   UNL A   1      33.790  33.051  28.270  1.00  0.00     0.188 C 
BRANCH  27  28
ATOM     28  C   UNL A   1      33.672  34.495  28.791  1.00  0.00     0.188 C 
BRANCH  28  29
ATOM     29  O   UNL A   1      32.806  34.695  29.898  1.00  0.00    -0.376 OA
BRANCH  29  30
ATOM     30  C   UNL A   1      32.850  36.000  30.478  1.00  0.00     0.202 C 
BRANCH  30  31
ATOM     31  C   UNL A   1      33.309  36.207  31.979  1.00  0.00     0.261 C 
BRANCH  31  32
ATOM     32  O   UNL A   1      34.746  35.946  32.191  1.00  0.00    -0.460 OA
BRANCH  32  33
ATOM     33  C   UNL A   1      35.292  34.982  32.997  1.00  0.00     0.338 C 
ATOM     34  O   UNL A   1      35.507  35.134  34.188  1.00  0.00    -0.246 OA
BRANCH  33  35
ATOM     35  C   UNL A   1      35.716  33.752  32.162  1.00  0.00     0.060 A 
ATOM     36  C   UNL A   1      35.397  32.460  32.565  1.00  0.00     0.016 A 
ATOM     37  C   UNL A   1      36.654  33.817  31.142  1.00  0.00     0.016 A 
ATOM     38  C   UNL A   1      36.299  31.385  32.345  1.00  0.00     0.010 A 
ATOM     39  C   UNL A   1      37.618  32.808  31.015  1.00  0.00     0.010 A 
ATOM     40  C   UNL A   1      37.528  31.629  31.760  1.00  0.00    -0.014 A 
BRANCH  40  41
ATOM     41  C   UNL A   1      38.782  30.871  32.032  1.00  0.00     0.031 A 
ATOM     42  C   UNL A   1      39.059  29.575  31.278  1.00  0.00     0.074 A 
ATOM     43  C   UNL A   1      39.832  31.553  32.589  1.00  0.00     0.049 A 
ATOM     44  N   UNL A   1      40.188  28.939  31.241  1.00  0.00    -0.248 NA
ATOM     45  C   UNL A   1      38.063  28.909  30.438  1.00  0.00     0.031 C 
ATOM     46  C   UNL A   1      41.224  31.226  32.328  1.00  0.00     0.029 A 
ATOM     47  N   UNL A   1      39.962  32.681  33.426  1.00  0.00    -0.354 N 
ATOM     48  C   UNL A   1      40.183  28.041  30.188  1.00  0.00     0.074 A 
ATOM     49  C   UNL A   1      38.802  28.008  29.774  1.00  0.00     0.031 C 
ATOM     50  C   UNL A   1      42.058  32.092  32.901  1.00  0.00     0.029 A 
ATOM     51  C   UNL A   1      41.285  32.737  33.921  1.00  0.00     0.049 A 
ATOM     52  H   UNL A   1      39.247  33.325  33.632  1.00  0.00     0.167 HD
ATOM     53  C   UNL A   1      41.360  27.512  29.726  1.00  0.00     0.034 A 
ATOM     54  C   UNL A   1      41.715  32.610  35.217  1.00  0.00     0.034 A 
ATOM     55  C   UNL A   1      42.509  27.829  30.624  1.00  0.00     0.049 A 
ATOM     56  C   UNL A   1      42.475  31.291  35.456  1.00  0.00     0.074 A 
ATOM     57  C   UNL A   1      43.783  28.352  30.441  1.00  0.00     0.029 A 
ATOM     58  N   UNL A   1      42.364  27.708  32.011  1.00  0.00    -0.354 N 
ATOM     59  N   UNL A   1      42.484  30.319  34.574  1.00  0.00    -0.248 NA
ATOM     60  C   UNL A   1      43.333  30.956  36.591  1.00  0.00     0.031 C 
ATOM     61  C   UNL A   1      44.291  28.743  31.717  1.00  0.00     0.029 A 
ATOM     62  C   UNL A   1      43.399  28.325  32.696  1.00  0.00     0.049 A 
ATOM     63  H   UNL A   1      41.615  27.241  32.448  1.00  0.00     0.167 HD
ATOM     64  C   UNL A   1      43.318  29.311  34.932  1.00  0.00     0.074 A 
ATOM     65  C   UNL A   1      43.799  29.737  36.238  1.00  0.00     0.031 C 
ATOM     66  C   UNL A   1      43.525  28.205  34.150  1.00  0.00     0.034 A 
BRANCH  53  67
ATOM     67  C   UNL A   1      41.571  26.787  28.372  1.00  0.00     0.023 A 
ATOM     68  C   UNL A   1      40.993  27.382  27.222  1.00  0.00     0.012 A 
ATOM     69  C   UNL A   1      42.213  25.536  28.139  1.00  0.00     0.148 A 
ATOM     70  C   UNL A   1      41.020  26.789  25.948  1.00  0.00     0.002 A 
ATOM     71  C   UNL A   1      42.308  24.980  26.847  1.00  0.00     0.091 A 
ATOM     72  F   UNL A   1      42.684  24.828  29.170  1.00  0.00    -0.205 F 
ATOM     73  C   UNL A   1      41.691  25.595  25.755  1.00  0.00     0.022 A 
BRANCH  71  74
ATOM     74  S   UNL A   1      43.239  23.475  26.465  1.00  0.00     0.127 S 
ATOM     75  O   UNL A   1      43.076  22.685  27.686  1.00  0.00    -0.237 OA
ATOM     76  O   UNL A   1      42.517  22.947  25.306  1.00  0.00    -0.237 OA
ATOM     77  O   UNL A   1      44.604  23.901  26.184  1.00  0.00    -0.744 OA
ENDBRANCH  71  74
ENDBRANCH  53  67
BRANCH  54  78
ATOM     78  C   UNL A   1      41.103  33.577  36.161  1.00  0.00     0.023 A 
ATOM     79  C   UNL A   1      40.822  34.857  35.606  1.00  0.00     0.012 A 
ATOM     80  C   UNL A   1      40.252  33.061  37.137  1.00  0.00     0.148 A 
ATOM     81  C   UNL A   1      39.596  35.486  35.835  1.00  0.00     0.002 A 
ATOM     82  C   UNL A   1      38.990  33.627  37.262  1.00  0.00     0.091 A 
ATOM     83  F   UNL A   1      40.584  31.905  37.726  1.00  0.00    -0.205 F 
ATOM     84  C   UNL A   1      38.655  34.836  36.615  1.00  0.00     0.022 A 
BRANCH  82  85
ATOM     85  S   UNL A   1      37.590  32.542  37.544  1.00  0.00     0.127 S 
ATOM     86  O   UNL A   1      37.644  32.268  38.973  1.00  0.00    -0.237 OA
ATOM     87  O   UNL A   1      36.541  33.464  37.124  1.00  0.00    -0.237 OA
ATOM     88  O   UNL A   1      37.782  31.397  36.667  1.00  0.00    -0.744 OA
ENDBRANCH  82  85
ENDBRANCH  54  78
BRANCH  66  89
ATOM     89  C   UNL A   1      43.850  26.840  34.715  1.00  0.00     0.023 A 
ATOM     90  C   UNL A   1      42.824  25.912  34.972  1.00  0.00     0.012 A 
ATOM     91  C   UNL A   1      45.185  26.352  34.735  1.00  0.00     0.148 A 
ATOM     92  C   UNL A   1      43.100  24.576  35.265  1.00  0.00     0.002 A 
ATOM     93  C   UNL A   1      45.446  24.998  34.913  1.00  0.00     0.091 A 
ATOM     94  F   UNL A   1      46.215  27.194  34.579  1.00  0.00    -0.205 F 
ATOM     95  C   UNL A   1      44.408  24.112  35.207  1.00  0.00     0.022 A 
BRANCH  93  96
ATOM     96  S   UNL A   1      47.078  24.310  34.595  1.00  0.00     0.127 S 
ATOM     97  O   UNL A   1      47.792  24.656  35.823  1.00  0.00    -0.237 OA
ATOM     98  O   UNL A   1      46.786  22.884  34.440  1.00  0.00    -0.237 OA
ATOM     99  O   UNL A   1      47.545  24.959  33.378  1.00  0.00    -0.744 OA
ENDBRANCH  93  96
ENDBRANCH  66  89
ENDBRANCH  40  41
ENDBRANCH  33  35
ENDBRANCH  32  33
ENDBRANCH  31  32
ENDBRANCH  30  31
ENDBRANCH  29  30
ENDBRANCH  28  29
ENDBRANCH  27  28
ENDBRANCH   1  27
TORSDOF 26
ENDMDL
