MODEL 1
REMARK VINA RESULT:      -9.0      0.000      0.000
REMARK SMILES CCCC(=O)N(c1cc2sc(=O)oc2c2ccccc12)S(=O)(=O)c1ccc(C(=O)OCCOCCOCCOCCOC(=O)c2ccc(-c3c4nc(c(-c5cccc(S(=O)(=O)[O-])c5F)c5ccc([nH]5)c(-c5cccc(S(=O)(=O)[O-])c5F)c5nc(c(-c6cccc(S(=O)(=O)[O-])c6F)c6ccc3[nH]6)C=C5)C=C4)cc2)cc1
REMARK SMILES IDX 35 1 34 2 33 3 32 4 31 5 30 6 28 7 29 8 27 9 24 10 25 11
REMARK SMILES IDX 109 12 26 13 108 14 21 15 22 16 23 17 6 18 4 19 5 20 3 21
REMARK SMILES IDX 2 22 1 23 7 24 8 25 20 26 9 27 15 28 19 29 10 30 14 31 16 32
REMARK SMILES IDX 18 33 11 34 13 35 17 36 12 37 36 38 37 39 38 40 39 41 40 42
REMARK SMILES IDX 41 43 42 44 43 45 44 46 45 47 46 48 107 49 47 50 106 51
REMARK SMILES IDX 48 52 49 53 50 54 100 55 51 56 105 57 99 58 101 59 52 60
REMARK SMILES IDX 104 61 98 62 97 63 53 65 85 66 65 67 84 68 66 69 69 70 83 71
REMARK SMILES IDX 102 72 67 73 68 74 82 76 103 77 70 78 54 79 55 80 63 81
REMARK SMILES IDX 56 82 58 83 64 84 57 85 59 86 60 87 61 88 62 89 86 90 87 91
REMARK SMILES IDX 95 92 88 93 90 94 96 95 89 96 91 97 92 98 93 99 94 100
REMARK SMILES IDX 71 101 72 102 80 103 73 104 75 105 81 106 74 107 76 108
REMARK SMILES IDX 77 109 78 110 79 111
REMARK H PARENT 101 64 69 75
REMARK Flexibility Score: inf
ROOT
ATOM      1  C   UNL A   1      39.825  27.955  27.810  1.00  0.00     0.188 C 
ENDROOT
BRANCH   1   2
ATOM      2  C   UNL A   1      41.025  26.990  27.723  1.00  0.00     0.188 C 
BRANCH   2   3
ATOM      3  O   UNL A   1      40.717  25.706  27.190  1.00  0.00    -0.376 OA
BRANCH   3   4
ATOM      4  C   UNL A   1      39.390  25.205  27.347  1.00  0.00     0.202 C 
BRANCH   4   5
ATOM      5  C   UNL A   1      39.071  23.811  26.782  1.00  0.00     0.261 C 
BRANCH   5   6
ATOM      6  O   UNL A   1      37.675  23.509  26.695  1.00  0.00    -0.460 OA
BRANCH   6   7
ATOM      7  C   UNL A   1      37.271  22.639  25.750  1.00  0.00     0.338 C 
ATOM      8  O   UNL A   1      37.448  21.424  25.745  1.00  0.00    -0.246 OA
BRANCH   7   9
ATOM      9  C   UNL A   1      36.244  23.314  24.911  1.00  0.00     0.060 A 
ATOM     10  C   UNL A   1      34.392  24.778  23.393  1.00  0.00     0.088 A 
ATOM     11  C   UNL A   1      34.621  25.123  24.728  1.00  0.00     0.023 A 
ATOM     12  C   UNL A   1      35.084  23.701  22.815  1.00  0.00     0.023 A 
ATOM     13  C   UNL A   1      35.544  24.389  25.481  1.00  0.00     0.017 A 
ATOM     14  C   UNL A   1      36.024  22.982  23.567  1.00  0.00     0.017 A 
BRANCH  10  15
ATOM     15  S   UNL A   1      33.033  25.545  22.514  1.00  0.00     0.270 S 
ATOM     16  O   UNL A   1      32.475  24.507  21.667  1.00  0.00    -0.201 OA
ATOM     17  O   UNL A   1      33.541  26.776  21.940  1.00  0.00    -0.201 OA
BRANCH  15  18
ATOM     18  N   UNL A   1      31.845  25.994  23.646  1.00  0.00    -0.202 N 
BRANCH  18  19
ATOM     19  C   UNL A   1      31.050  24.922  24.188  1.00  0.00     0.241 C 
ATOM     20  O   UNL A   1      30.249  24.308  23.485  1.00  0.00    -0.273 OA
BRANCH  19  21
ATOM     21  C   UNL A   1      31.153  24.541  25.664  1.00  0.00     0.101 C 
BRANCH  21  22
ATOM     22  C   UNL A   1      30.828  23.076  25.958  1.00  0.00     0.006 C 
ATOM     23  C   UNL A   1      29.779  22.924  27.052  1.00  0.00     0.004 C 
ENDBRANCH  21  22
ENDBRANCH  19  21
ENDBRANCH  18  19
BRANCH  18  24
ATOM     24  C   UNL A   1      31.294  27.322  23.642  1.00  0.00     0.070 A 
ATOM     25  C   UNL A   1      30.135  27.611  22.912  1.00  0.00     0.051 A 
ATOM     26  C   UNL A   1      31.858  28.289  24.539  1.00  0.00     0.010 A 
ATOM     27  C   UNL A   1      29.563  28.864  23.040  1.00  0.00     0.080 A 
ATOM     28  C   UNL A   1      31.213  29.539  24.708  1.00  0.00     0.028 A 
ATOM     29  C   UNL A   1      33.006  28.035  25.331  1.00  0.00     0.011 A 
ATOM     30  S   UNL A   1      28.083  29.442  22.303  1.00  0.00    -0.052 S 
ATOM     31  C   UNL A   1      30.082  29.804  23.925  1.00  0.00     0.157 A 
ATOM     32  C   UNL A   1      31.668  30.436  25.698  1.00  0.00     0.013 A 
ATOM     33  C   UNL A   1      33.425  28.920  26.327  1.00  0.00     0.001 A 
ATOM     34  C   UNL A   1      28.196  30.881  23.318  1.00  0.00     0.396 A 
ATOM     35  O   UNL A   1      29.357  30.991  24.079  1.00  0.00    -0.413 OA
ATOM     36  C   UNL A   1      32.745  30.114  26.521  1.00  0.00     0.001 A 
ATOM     37  O   UNL A   1      27.273  31.679  23.419  1.00  0.00    -0.233 OA
ENDBRANCH  18  24
ENDBRANCH  15  18
ENDBRANCH  10  15
ENDBRANCH   7   9
ENDBRANCH   6   7
ENDBRANCH   5   6
ENDBRANCH   4   5
ENDBRANCH   3   4
ENDBRANCH   2   3
ENDBRANCH   1   2
BRANCH   1  38
ATOM     38  O   UNL A   1      39.272  28.160  29.098  1.00  0.00    -0.377 OA
BRANCH  38  39
ATOM     39  C   UNL A   1      38.117  28.987  29.104  1.00  0.00     0.188 C 
BRANCH  39  40
ATOM     40  C   UNL A   1      37.413  29.077  27.733  1.00  0.00     0.188 C 
BRANCH  40  41
ATOM     41  O   UNL A   1      36.437  30.099  27.519  1.00  0.00    -0.376 OA
BRANCH  41  42
ATOM     42  C   UNL A   1      36.419  31.210  28.406  1.00  0.00     0.202 C 
BRANCH  42  43
ATOM     43  C   UNL A   1      35.165  31.434  29.268  1.00  0.00     0.261 C 
BRANCH  43  44
ATOM     44  O   UNL A   1      35.082  32.736  29.883  1.00  0.00    -0.460 OA
BRANCH  44  45
ATOM     45  C   UNL A   1      34.930  32.770  31.234  1.00  0.00     0.338 C 
ATOM     46  O   UNL A   1      33.880  32.706  31.853  1.00  0.00    -0.246 OA
BRANCH  45  47
ATOM     47  C   UNL A   1      36.261  32.700  31.887  1.00  0.00     0.060 A 
ATOM     48  C   UNL A   1      37.424  32.408  31.174  1.00  0.00     0.016 A 
ATOM     49  C   UNL A   1      36.332  32.905  33.269  1.00  0.00     0.016 A 
ATOM     50  C   UNL A   1      38.660  32.342  31.844  1.00  0.00     0.010 A 
ATOM     51  C   UNL A   1      37.549  32.772  33.938  1.00  0.00     0.010 A 
ATOM     52  C   UNL A   1      38.742  32.539  33.235  1.00  0.00    -0.014 A 
BRANCH  52  53
ATOM     53  C   UNL A   1      40.065  32.772  33.887  1.00  0.00     0.031 A 
ATOM     54  C   UNL A   1      40.686  31.540  34.487  1.00  0.00     0.074 A 
ATOM     55  C   UNL A   1      40.903  33.801  33.621  1.00  0.00     0.049 A 
ATOM     56  N   UNL A   1      41.428  30.714  33.806  1.00  0.00    -0.248 NA
ATOM     57  C   UNL A   1      40.256  31.016  35.783  1.00  0.00     0.031 C 
ATOM     58  C   UNL A   1      41.134  34.328  32.272  1.00  0.00     0.029 A 
ATOM     59  N   UNL A   1      41.912  34.365  34.383  1.00  0.00    -0.354 N 
ATOM     60  C   UNL A   1      41.520  29.541  34.539  1.00  0.00     0.074 A 
ATOM     61  C   UNL A   1      40.791  29.784  35.766  1.00  0.00     0.031 C 
ATOM     62  C   UNL A   1      42.307  34.999  32.266  1.00  0.00     0.029 A 
ATOM     63  C   UNL A   1      42.836  35.091  33.627  1.00  0.00     0.049 A 
ATOM     64  H   UNL A   1      41.972  34.264  35.360  1.00  0.00     0.167 HD
ATOM     65  C   UNL A   1      42.171  28.427  34.102  1.00  0.00     0.034 A 
ATOM     66  C   UNL A   1      44.151  35.279  33.949  1.00  0.00     0.034 A 
ATOM     67  C   UNL A   1      42.802  28.539  32.819  1.00  0.00     0.049 A 
ATOM     68  C   UNL A   1      44.718  33.919  33.628  1.00  0.00     0.074 A 
ATOM     69  C   UNL A   1      42.530  28.192  31.513  1.00  0.00     0.029 A 
ATOM     70  N   UNL A   1      44.001  29.207  32.748  1.00  0.00    -0.354 N 
ATOM     71  N   UNL A   1      44.982  33.444  32.440  1.00  0.00    -0.248 NA
ATOM     72  C   UNL A   1      44.614  32.913  34.686  1.00  0.00     0.031 C 
ATOM     73  C   UNL A   1      43.313  29.082  30.707  1.00  0.00     0.029 A 
ATOM     74  C   UNL A   1      44.003  29.922  31.577  1.00  0.00     0.049 A 
ATOM     75  H   UNL A   1      44.724  29.178  33.415  1.00  0.00     0.167 HD
ATOM     76  C   UNL A   1      44.752  32.070  32.542  1.00  0.00     0.074 A 
ATOM     77  C   UNL A   1      44.530  31.813  33.952  1.00  0.00     0.031 C 
ATOM     78  C   UNL A   1      44.585  31.240  31.472  1.00  0.00     0.034 A 
BRANCH  65  79
ATOM     79  C   UNL A   1      42.446  27.245  34.955  1.00  0.00     0.023 A 
ATOM     80  C   UNL A   1      41.495  26.205  34.903  1.00  0.00     0.012 A 
ATOM     81  C   UNL A   1      43.466  27.202  35.921  1.00  0.00     0.148 A 
ATOM     82  C   UNL A   1      41.527  25.160  35.820  1.00  0.00     0.002 A 
ATOM     83  C   UNL A   1      43.497  26.147  36.833  1.00  0.00     0.091 A 
ATOM     84  F   UNL A   1      44.358  28.202  35.957  1.00  0.00    -0.205 F 
ATOM     85  C   UNL A   1      42.523  25.134  36.789  1.00  0.00     0.022 A 
BRANCH  83  86
ATOM     86  S   UNL A   1      44.721  26.003  38.143  1.00  0.00     0.127 S 
ATOM     87  O   UNL A   1      44.257  27.003  39.104  1.00  0.00    -0.237 OA
ATOM     88  O   UNL A   1      44.540  24.615  38.571  1.00  0.00    -0.237 OA
ATOM     89  O   UNL A   1      46.008  26.286  37.524  1.00  0.00    -0.744 OA
ENDBRANCH  83  86
ENDBRANCH  65  79
BRANCH  66  90
ATOM     90  C   UNL A   1      44.466  35.986  35.243  1.00  0.00     0.023 A 
ATOM     91  C   UNL A   1      44.606  35.185  36.401  1.00  0.00     0.012 A 
ATOM     92  C   UNL A   1      44.601  37.382  35.408  1.00  0.00     0.148 A 
ATOM     93  C   UNL A   1      44.977  35.727  37.635  1.00  0.00     0.002 A 
ATOM     94  C   UNL A   1      45.029  37.915  36.625  1.00  0.00     0.091 A 
ATOM     95  F   UNL A   1      44.322  38.188  34.376  1.00  0.00    -0.205 F 
ATOM     96  C   UNL A   1      45.222  37.088  37.740  1.00  0.00     0.022 A 
BRANCH  94  97
ATOM     97  S   UNL A   1      45.435  39.656  36.837  1.00  0.00     0.127 S 
ATOM     98  O   UNL A   1      45.609  39.761  38.285  1.00  0.00    -0.237 OA
ATOM     99  O   UNL A   1      46.669  39.760  36.060  1.00  0.00    -0.237 OA
ATOM    100  O   UNL A   1      44.300  40.395  36.304  1.00  0.00    -0.744 OA
ENDBRANCH  94  97
ENDBRANCH  66  90
BRANCH  78 101
ATOM    101  C   UNL A   1      44.872  31.822  30.126  1.00  0.00     0.023 A 
ATOM    102  C   UNL A   1      43.900  32.661  29.548  1.00  0.00     0.012 A 
ATOM    103  C   UNL A   1      46.090  31.618  29.452  1.00  0.00     0.148 A 
ATOM    104  C   UNL A   1      44.143  33.311  28.339  1.00  0.00     0.002 A 
ATOM    105  C   UNL A   1      46.326  32.274  28.245  1.00  0.00     0.091 A 
ATOM    106  F   UNL A   1      47.022  30.830  30.008  1.00  0.00    -0.205 F 
ATOM    107  C   UNL A   1      45.359  33.124  27.691  1.00  0.00     0.022 A 
BRANCH 105 108
ATOM    108  S   UNL A   1      47.861  32.059  27.349  1.00  0.00     0.127 S 
ATOM    109  O   UNL A   1      48.297  33.433  27.097  1.00  0.00    -0.237 OA
ATOM    110  O   UNL A   1      48.676  31.328  28.315  1.00  0.00    -0.237 OA
ATOM    111  O   UNL A   1      47.496  31.334  26.138  1.00  0.00    -0.744 OA
ENDBRANCH 105 108
ENDBRANCH  78 101
ENDBRANCH  52  53
ENDBRANCH  45  47
ENDBRANCH  44  45
ENDBRANCH  43  44
ENDBRANCH  42  43
ENDBRANCH  41  42
ENDBRANCH  40  41
ENDBRANCH  39  40
ENDBRANCH  38  39
ENDBRANCH   1  38
TORSDOF 29
ENDMDL
MODEL 2
REMARK VINA RESULT:      -8.8      5.355     13.967
REMARK SMILES CCCC(=O)N(c1cc2sc(=O)oc2c2ccccc12)S(=O)(=O)c1ccc(C(=O)OCCOCCOCCOCCOC(=O)c2ccc(-c3c4nc(c(-c5cccc(S(=O)(=O)[O-])c5F)c5ccc([nH]5)c(-c5cccc(S(=O)(=O)[O-])c5F)c5nc(c(-c6cccc(S(=O)(=O)[O-])c6F)c6ccc3[nH]6)C=C5)C=C4)cc2)cc1
REMARK SMILES IDX 35 1 34 2 33 3 32 4 31 5 30 6 28 7 29 8 27 9 24 10 25 11
REMARK SMILES IDX 109 12 26 13 108 14 21 15 22 16 23 17 6 18 4 19 5 20 3 21
REMARK SMILES IDX 2 22 1 23 7 24 8 25 20 26 9 27 15 28 19 29 10 30 14 31 16 32
REMARK SMILES IDX 18 33 11 34 13 35 17 36 12 37 36 38 37 39 38 40 39 41 40 42
REMARK SMILES IDX 41 43 42 44 43 45 44 46 45 47 46 48 107 49 47 50 106 51
REMARK SMILES IDX 48 52 49 53 50 54 100 55 51 56 105 57 99 58 101 59 52 60
REMARK SMILES IDX 104 61 98 62 97 63 53 65 85 66 65 67 84 68 66 69 69 70 83 71
REMARK SMILES IDX 102 72 67 73 68 74 82 76 103 77 70 78 54 79 55 80 63 81
REMARK SMILES IDX 56 82 58 83 64 84 57 85 59 86 60 87 61 88 62 89 86 90 87 91
REMARK SMILES IDX 95 92 88 93 90 94 96 95 89 96 91 97 92 98 93 99 94 100
REMARK SMILES IDX 71 101 72 102 80 103 73 104 75 105 81 106 74 107 76 108
REMARK SMILES IDX 77 109 78 110 79 111
REMARK H PARENT 101 64 69 75
REMARK Flexibility Score: inf
ROOT
ATOM      1  C   UNL A   1      45.517  21.569  26.116  1.00  0.00     0.188 C 
ENDROOT
BRANCH   1   2
ATOM      2  C   UNL A   1      45.904  23.043  26.354  1.00  0.00     0.188 C 
BRANCH   2   3
ATOM      3  O   UNL A   1      44.860  23.853  26.885  1.00  0.00    -0.376 OA
BRANCH   3   4
ATOM      4  C   UNL A   1      44.863  25.249  26.587  1.00  0.00     0.202 C 
BRANCH   4   5
ATOM      5  C   UNL A   1      44.789  25.675  25.112  1.00  0.00     0.261 C 
BRANCH   5   6
ATOM      6  O   UNL A   1      45.775  26.634  24.718  1.00  0.00    -0.460 OA
BRANCH   6   7
ATOM      7  C   UNL A   1      45.801  27.817  25.359  1.00  0.00     0.338 C 
ATOM      8  O   UNL A   1      44.845  28.555  25.582  1.00  0.00    -0.246 OA
BRANCH   7   9
ATOM      9  C   UNL A   1      47.090  27.914  26.096  1.00  0.00     0.060 A 
ATOM     10  C   UNL A   1      49.488  27.892  27.555  1.00  0.00     0.088 A 
ATOM     11  C   UNL A   1      48.306  27.452  28.157  1.00  0.00     0.023 A 
ATOM     12  C   UNL A   1      49.475  28.346  26.226  1.00  0.00     0.023 A 
ATOM     13  C   UNL A   1      47.113  27.467  27.426  1.00  0.00     0.017 A 
ATOM     14  C   UNL A   1      48.281  28.338  25.491  1.00  0.00     0.017 A 
BRANCH  10  15
ATOM     15  S   UNL A   1      50.950  28.116  28.564  1.00  0.00     0.270 S 
ATOM     16  O   UNL A   1      50.469  28.496  29.878  1.00  0.00    -0.201 OA
ATOM     17  O   UNL A   1      51.847  28.984  27.824  1.00  0.00    -0.201 OA
BRANCH  15  18
ATOM     18  N   UNL A   1      51.741  26.616  28.707  1.00  0.00    -0.202 N 
BRANCH  18  19
ATOM     19  C   UNL A   1      51.363  25.608  27.749  1.00  0.00     0.241 C 
ATOM     20  O   UNL A   1      50.351  24.928  27.909  1.00  0.00    -0.273 OA
BRANCH  19  21
ATOM     21  C   UNL A   1      52.231  25.332  26.522  1.00  0.00     0.101 C 
BRANCH  21  22
ATOM     22  C   UNL A   1      52.443  26.546  25.617  1.00  0.00     0.006 C 
ATOM     23  C   UNL A   1      53.765  26.482  24.864  1.00  0.00     0.004 C 
ENDBRANCH  21  22
ENDBRANCH  19  21
ENDBRANCH  18  19
BRANCH  18  24
ATOM     24  C   UNL A   1      52.287  26.193  29.967  1.00  0.00     0.070 A 
ATOM     25  C   UNL A   1      51.456  25.677  30.968  1.00  0.00     0.051 A 
ATOM     26  C   UNL A   1      53.715  26.150  30.102  1.00  0.00     0.010 A 
ATOM     27  C   UNL A   1      52.035  25.159  32.113  1.00  0.00     0.080 A 
ATOM     28  C   UNL A   1      54.286  25.548  31.252  1.00  0.00     0.028 A 
ATOM     29  C   UNL A   1      54.603  26.621  29.105  1.00  0.00     0.011 A 
ATOM     30  S   UNL A   1      51.226  24.391  33.463  1.00  0.00    -0.052 S 
ATOM     31  C   UNL A   1      53.417  25.085  32.249  1.00  0.00     0.157 A 
ATOM     32  C   UNL A   1      55.682  25.361  31.327  1.00  0.00     0.013 A 
ATOM     33  C   UNL A   1      55.981  26.401  29.180  1.00  0.00     0.001 A 
ATOM     34  C   UNL A   1      52.811  23.920  34.082  1.00  0.00     0.396 A 
ATOM     35  O   UNL A   1      53.904  24.426  33.384  1.00  0.00    -0.413 OA
ATOM     36  C   UNL A   1      56.518  25.756  30.283  1.00  0.00     0.001 A 
ATOM     37  O   UNL A   1      52.939  23.123  35.003  1.00  0.00    -0.233 OA
ENDBRANCH  18  24
ENDBRANCH  15  18
ENDBRANCH  10  15
ENDBRANCH   7   9
ENDBRANCH   6   7
ENDBRANCH   5   6
ENDBRANCH   4   5
ENDBRANCH   3   4
ENDBRANCH   2   3
ENDBRANCH   1   2
BRANCH   1  38
ATOM     38  O   UNL A   1      46.310  20.850  25.189  1.00  0.00    -0.377 OA
BRANCH  38  39
ATOM     39  C   UNL A   1      45.593  19.862  24.462  1.00  0.00     0.188 C 
BRANCH  39  40
ATOM     40  C   UNL A   1      45.451  18.521  25.215  1.00  0.00     0.188 C 
BRANCH  40  41
ATOM     41  O   UNL A   1      44.179  18.162  25.758  1.00  0.00    -0.376 OA
BRANCH  41  42
ATOM     42  C   UNL A   1      43.123  19.113  25.691  1.00  0.00     0.202 C 
BRANCH  42  43
ATOM     43  C   UNL A   1      42.401  19.493  26.995  1.00  0.00     0.261 C 
BRANCH  43  44
ATOM     44  O   UNL A   1      42.358  20.909  27.267  1.00  0.00    -0.460 OA
BRANCH  44  45
ATOM     45  C   UNL A   1      41.381  21.625  26.648  1.00  0.00     0.338 C 
ATOM     46  O   UNL A   1      40.449  21.180  25.999  1.00  0.00    -0.246 OA
BRANCH  45  47
ATOM     47  C   UNL A   1      41.491  23.054  27.034  1.00  0.00     0.060 A 
ATOM     48  C   UNL A   1      41.714  23.453  28.352  1.00  0.00     0.016 A 
ATOM     49  C   UNL A   1      41.330  24.022  26.038  1.00  0.00     0.016 A 
ATOM     50  C   UNL A   1      41.797  24.822  28.666  1.00  0.00     0.010 A 
ATOM     51  C   UNL A   1      41.346  25.379  26.366  1.00  0.00     0.010 A 
ATOM     52  C   UNL A   1      41.630  25.805  27.674  1.00  0.00    -0.014 A 
BRANCH  52  53
ATOM     53  C   UNL A   1      42.018  27.222  27.942  1.00  0.00     0.031 A 
ATOM     54  C   UNL A   1      40.857  28.174  28.042  1.00  0.00     0.074 A 
ATOM     55  C   UNL A   1      43.179  27.626  28.508  1.00  0.00     0.049 A 
ATOM     56  N   UNL A   1      40.204  28.387  29.149  1.00  0.00    -0.248 NA
ATOM     57  C   UNL A   1      40.184  28.693  26.851  1.00  0.00     0.031 C 
ATOM     58  C   UNL A   1      43.827  26.919  29.618  1.00  0.00     0.029 A 
ATOM     59  N   UNL A   1      43.837  28.842  28.449  1.00  0.00    -0.354 N 
ATOM     60  C   UNL A   1      39.011  29.007  28.812  1.00  0.00     0.074 A 
ATOM     61  C   UNL A   1      39.053  29.192  27.376  1.00  0.00     0.031 C 
ATOM     62  C   UNL A   1      44.670  27.774  30.240  1.00  0.00     0.029 A 
ATOM     63  C   UNL A   1      44.747  29.030  29.493  1.00  0.00     0.049 A 
ATOM     64  H   UNL A   1      43.680  29.509  27.743  1.00  0.00     0.167 HD
ATOM     65  C   UNL A   1      38.044  29.324  29.716  1.00  0.00     0.034 A 
ATOM     66  C   UNL A   1      45.112  30.237  30.020  1.00  0.00     0.034 A 
ATOM     67  C   UNL A   1      38.339  29.001  31.083  1.00  0.00     0.049 A 
ATOM     68  C   UNL A   1      43.881  30.581  30.821  1.00  0.00     0.074 A 
ATOM     69  C   UNL A   1      38.046  27.999  31.982  1.00  0.00     0.029 A 
ATOM     70  N   UNL A   1      39.187  29.835  31.771  1.00  0.00    -0.354 N 
ATOM     71  N   UNL A   1      43.536  30.077  31.976  1.00  0.00    -0.248 NA
ATOM     72  C   UNL A   1      42.800  31.240  30.086  1.00  0.00     0.031 C 
ATOM     73  C   UNL A   1      39.100  28.033  32.954  1.00  0.00     0.029 A 
ATOM     74  C   UNL A   1      39.974  29.049  32.574  1.00  0.00     0.049 A 
ATOM     75  H   UNL A   1      39.224  30.816  31.700  1.00  0.00     0.167 HD
ATOM     76  C   UNL A   1      42.139  30.069  31.961  1.00  0.00     0.074 A 
ATOM     77  C   UNL A   1      41.754  30.800  30.769  1.00  0.00     0.031 C 
ATOM     78  C   UNL A   1      41.369  29.333  32.814  1.00  0.00     0.034 A 
BRANCH  65  79
ATOM     79  C   UNL A   1      36.861  30.162  29.400  1.00  0.00     0.023 A 
ATOM     80  C   UNL A   1      35.891  29.579  28.560  1.00  0.00     0.012 A 
ATOM     81  C   UNL A   1      36.765  31.527  29.725  1.00  0.00     0.148 A 
ATOM     82  C   UNL A   1      34.863  30.343  28.016  1.00  0.00     0.002 A 
ATOM     83  C   UNL A   1      35.728  32.285  29.181  1.00  0.00     0.091 A 
ATOM     84  F   UNL A   1      37.700  32.065  30.522  1.00  0.00    -0.205 F 
ATOM     85  C   UNL A   1      34.786  31.696  28.320  1.00  0.00     0.022 A 
BRANCH  83  86
ATOM     86  S   UNL A   1      35.523  34.046  29.483  1.00  0.00     0.127 S 
ATOM     87  O   UNL A   1      35.483  34.102  30.944  1.00  0.00    -0.237 OA
ATOM     88  O   UNL A   1      36.740  34.597  28.886  1.00  0.00    -0.237 OA
ATOM     89  O   UNL A   1      34.288  34.428  28.812  1.00  0.00    -0.744 OA
ENDBRANCH  83  86
ENDBRANCH  65  79
BRANCH  66  90
ATOM     90  C   UNL A   1      45.768  31.238  29.102  1.00  0.00     0.023 A 
ATOM     91  C   UNL A   1      45.732  30.964  27.715  1.00  0.00     0.012 A 
ATOM     92  C   UNL A   1      46.445  32.409  29.509  1.00  0.00     0.148 A 
ATOM     93  C   UNL A   1      46.237  31.863  26.770  1.00  0.00     0.002 A 
ATOM     94  C   UNL A   1      46.894  33.333  28.563  1.00  0.00     0.091 A 
ATOM     95  F   UNL A   1      46.640  32.626  30.815  1.00  0.00    -0.205 F 
ATOM     96  C   UNL A   1      46.788  33.063  27.193  1.00  0.00     0.022 A 
BRANCH  94  97
ATOM     97  S   UNL A   1      47.562  34.943  29.016  1.00  0.00     0.127 S 
ATOM     98  O   UNL A   1      48.740  34.581  29.802  1.00  0.00    -0.237 OA
ATOM     99  O   UNL A   1      47.852  35.513  27.701  1.00  0.00    -0.237 OA
ATOM    100  O   UNL A   1      46.509  35.611  29.766  1.00  0.00    -0.744 OA
ENDBRANCH  94  97
ENDBRANCH  66  90
BRANCH  78 101
ATOM    101  C   UNL A   1      42.080  28.667  33.948  1.00  0.00     0.023 A 
ATOM    102  C   UNL A   1      42.085  29.316  35.197  1.00  0.00     0.012 A 
ATOM    103  C   UNL A   1      42.682  27.401  33.830  1.00  0.00     0.148 A 
ATOM    104  C   UNL A   1      42.649  28.707  36.317  1.00  0.00     0.002 A 
ATOM    105  C   UNL A   1      43.241  26.798  34.955  1.00  0.00     0.091 A 
ATOM    106  F   UNL A   1      42.666  26.776  32.643  1.00  0.00    -0.205 F 
ATOM    107  C   UNL A   1      43.220  27.444  36.199  1.00  0.00     0.022 A 
BRANCH 105 108
ATOM    108  S   UNL A   1      44.011  25.184  34.866  1.00  0.00     0.127 S 
ATOM    109  O   UNL A   1      44.695  25.067  36.155  1.00  0.00    -0.237 OA
ATOM    110  O   UNL A   1      42.856  24.305  34.708  1.00  0.00    -0.237 OA
ATOM    111  O   UNL A   1      44.921  25.259  33.730  1.00  0.00    -0.744 OA
ENDBRANCH 105 108
ENDBRANCH  78 101
ENDBRANCH  52  53
ENDBRANCH  45  47
ENDBRANCH  44  45
ENDBRANCH  43  44
ENDBRANCH  42  43
ENDBRANCH  41  42
ENDBRANCH  40  41
ENDBRANCH  39  40
ENDBRANCH  38  39
ENDBRANCH   1  38
TORSDOF 29
ENDMDL
MODEL 3
REMARK VINA RESULT:      -8.8      4.419     13.541
REMARK SMILES CCCC(=O)N(c1cc2sc(=O)oc2c2ccccc12)S(=O)(=O)c1ccc(C(=O)OCCOCCOCCOCCOC(=O)c2ccc(-c3c4nc(c(-c5cccc(S(=O)(=O)[O-])c5F)c5ccc([nH]5)c(-c5cccc(S(=O)(=O)[O-])c5F)c5nc(c(-c6cccc(S(=O)(=O)[O-])c6F)c6ccc3[nH]6)C=C5)C=C4)cc2)cc1
REMARK SMILES IDX 35 1 34 2 33 3 32 4 31 5 30 6 28 7 29 8 27 9 24 10 25 11
REMARK SMILES IDX 109 12 26 13 108 14 21 15 22 16 23 17 6 18 4 19 5 20 3 21
REMARK SMILES IDX 2 22 1 23 7 24 8 25 20 26 9 27 15 28 19 29 10 30 14 31 16 32
REMARK SMILES IDX 18 33 11 34 13 35 17 36 12 37 36 38 37 39 38 40 39 41 40 42
REMARK SMILES IDX 41 43 42 44 43 45 44 46 45 47 46 48 107 49 47 50 106 51
REMARK SMILES IDX 48 52 49 53 50 54 100 55 51 56 105 57 99 58 101 59 52 60
REMARK SMILES IDX 104 61 98 62 97 63 53 65 85 66 65 67 84 68 66 69 69 70 83 71
REMARK SMILES IDX 102 72 67 73 68 74 82 76 103 77 70 78 54 79 55 80 63 81
REMARK SMILES IDX 56 82 58 83 64 84 57 85 59 86 60 87 61 88 62 89 86 90 87 91
REMARK SMILES IDX 95 92 88 93 90 94 96 95 89 96 91 97 92 98 93 99 94 100
REMARK SMILES IDX 71 101 72 102 80 103 73 104 75 105 81 106 74 107 76 108
REMARK SMILES IDX 77 109 78 110 79 111
REMARK H PARENT 101 64 69 75
REMARK Flexibility Score: inf
ROOT
ATOM      1  C   UNL A   1      45.268  21.876  25.869  1.00  0.00     0.188 C 
ENDROOT
BRANCH   1   2
ATOM      2  C   UNL A   1      45.868  23.293  25.762  1.00  0.00     0.188 C 
BRANCH   2   3
ATOM      3  O   UNL A   1      46.541  23.562  24.536  1.00  0.00    -0.376 OA
BRANCH   3   4
ATOM      4  C   UNL A   1      47.100  24.861  24.338  1.00  0.00     0.202 C 
BRANCH   4   5
ATOM      5  C   UNL A   1      46.691  25.981  25.308  1.00  0.00     0.261 C 
BRANCH   5   6
ATOM      6  O   UNL A   1      47.753  26.478  26.127  1.00  0.00    -0.460 OA
BRANCH   6   7
ATOM      7  C   UNL A   1      47.945  27.809  26.179  1.00  0.00     0.338 C 
ATOM      8  O   UNL A   1      47.526  28.645  25.383  1.00  0.00    -0.246 OA
BRANCH   7   9
ATOM      9  C   UNL A   1      48.409  28.155  27.550  1.00  0.00     0.060 A 
ATOM     10  C   UNL A   1      49.451  28.916  30.043  1.00  0.00     0.088 A 
ATOM     11  C   UNL A   1      50.300  28.378  29.072  1.00  0.00     0.023 A 
ATOM     12  C   UNL A   1      48.081  29.072  29.773  1.00  0.00     0.023 A 
ATOM     13  C   UNL A   1      49.776  27.998  27.832  1.00  0.00     0.017 A 
ATOM     14  C   UNL A   1      47.565  28.711  28.520  1.00  0.00     0.017 A 
BRANCH  10  15
ATOM     15  S   UNL A   1      50.069  29.157  31.707  1.00  0.00     0.270 S 
ATOM     16  O   UNL A   1      51.513  29.209  31.587  1.00  0.00    -0.201 OA
ATOM     17  O   UNL A   1      49.430  28.159  32.544  1.00  0.00    -0.201 OA
BRANCH  15  18
ATOM     18  N   UNL A   1      49.532  30.671  32.266  1.00  0.00    -0.202 N 
BRANCH  18  19
ATOM     19  C   UNL A   1      49.873  31.805  31.445  1.00  0.00     0.241 C 
ATOM     20  O   UNL A   1      49.110  32.764  31.339  1.00  0.00    -0.273 OA
BRANCH  19  21
ATOM     21  C   UNL A   1      51.179  31.832  30.653  1.00  0.00     0.101 C 
BRANCH  21  22
ATOM     22  C   UNL A   1      51.023  32.290  29.202  1.00  0.00     0.006 C 
ATOM     23  C   UNL A   1      51.638  33.662  28.960  1.00  0.00     0.004 C 
ENDBRANCH  21  22
ENDBRANCH  19  21
ENDBRANCH  18  19
BRANCH  18  24
ATOM     24  C   UNL A   1      49.280  30.888  33.665  1.00  0.00     0.070 A 
ATOM     25  C   UNL A   1      50.314  31.278  34.524  1.00  0.00     0.051 A 
ATOM     26  C   UNL A   1      47.918  30.867  34.115  1.00  0.00     0.010 A 
ATOM     27  C   UNL A   1      50.004  31.605  35.832  1.00  0.00     0.080 A 
ATOM     28  C   UNL A   1      47.617  31.275  35.439  1.00  0.00     0.028 A 
ATOM     29  C   UNL A   1      46.829  30.519  33.278  1.00  0.00     0.011 A 
ATOM     30  S   UNL A   1      51.093  32.192  37.072  1.00  0.00    -0.052 S 
ATOM     31  C   UNL A   1      48.687  31.614  36.278  1.00  0.00     0.157 A 
ATOM     32  C   UNL A   1      46.272  31.406  35.845  1.00  0.00     0.013 A 
ATOM     33  C   UNL A   1      45.504  30.682  33.685  1.00  0.00     0.001 A 
ATOM     34  C   UNL A   1      49.686  32.518  38.086  1.00  0.00     0.396 A 
ATOM     35  O   UNL A   1      48.465  32.085  37.577  1.00  0.00    -0.413 OA
ATOM     36  C   UNL A   1      45.225  31.142  34.963  1.00  0.00     0.001 A 
ATOM     37  O   UNL A   1      49.767  33.167  39.121  1.00  0.00    -0.233 OA
ENDBRANCH  18  24
ENDBRANCH  15  18
ENDBRANCH  10  15
ENDBRANCH   7   9
ENDBRANCH   6   7
ENDBRANCH   5   6
ENDBRANCH   4   5
ENDBRANCH   3   4
ENDBRANCH   2   3
ENDBRANCH   1   2
BRANCH   1  38
ATOM     38  O   UNL A   1      45.841  20.884  25.037  1.00  0.00    -0.377 OA
BRANCH  38  39
ATOM     39  C   UNL A   1      44.900  19.955  24.518  1.00  0.00     0.188 C 
BRANCH  39  40
ATOM     40  C   UNL A   1      44.701  18.710  25.410  1.00  0.00     0.188 C 
BRANCH  40  41
ATOM     41  O   UNL A   1      43.392  18.408  25.898  1.00  0.00    -0.376 OA
BRANCH  41  42
ATOM     42  C   UNL A   1      42.374  19.390  25.752  1.00  0.00     0.202 C 
BRANCH  42  43
ATOM     43  C   UNL A   1      41.746  19.985  27.024  1.00  0.00     0.261 C 
BRANCH  43  44
ATOM     44  O   UNL A   1      41.955  21.402  27.192  1.00  0.00    -0.460 OA
BRANCH  44  45
ATOM     45  C   UNL A   1      40.853  22.197  27.130  1.00  0.00     0.338 C 
ATOM     46  O   UNL A   1      39.697  21.834  26.986  1.00  0.00    -0.246 OA
BRANCH  45  47
ATOM     47  C   UNL A   1      41.229  23.595  27.460  1.00  0.00     0.060 A 
ATOM     48  C   UNL A   1      42.551  24.038  27.419  1.00  0.00     0.016 A 
ATOM     49  C   UNL A   1      40.217  24.476  27.856  1.00  0.00     0.016 A 
ATOM     50  C   UNL A   1      42.854  25.371  27.754  1.00  0.00     0.010 A 
ATOM     51  C   UNL A   1      40.532  25.777  28.252  1.00  0.00     0.010 A 
ATOM     52  C   UNL A   1      41.846  26.264  28.161  1.00  0.00    -0.014 A 
BRANCH  52  53
ATOM     53  C   UNL A   1      42.116  27.732  28.216  1.00  0.00     0.031 A 
ATOM     54  C   UNL A   1      40.908  28.594  27.970  1.00  0.00     0.074 A 
ATOM     55  C   UNL A   1      43.152  28.318  28.859  1.00  0.00     0.049 A 
ATOM     56  N   UNL A   1      40.079  28.945  28.912  1.00  0.00    -0.248 NA
ATOM     57  C   UNL A   1      40.403  28.842  26.620  1.00  0.00     0.031 C 
ATOM     58  C   UNL A   1      43.655  27.868  30.162  1.00  0.00     0.029 A 
ATOM     59  N   UNL A   1      43.750  29.553  28.672  1.00  0.00    -0.354 N 
ATOM     60  C   UNL A   1      38.924  29.402  28.298  1.00  0.00     0.074 A 
ATOM     61  C   UNL A   1      39.180  29.335  26.875  1.00  0.00     0.031 C 
ATOM     62  C   UNL A   1      44.346  28.881  30.730  1.00  0.00     0.029 A 
ATOM     63  C   UNL A   1      44.475  29.990  29.783  1.00  0.00     0.049 A 
ATOM     64  H   UNL A   1      43.671  30.071  27.840  1.00  0.00     0.167 HD
ATOM     65  C   UNL A   1      37.813  29.797  28.980  1.00  0.00     0.034 A 
ATOM     66  C   UNL A   1      44.692  31.295  30.126  1.00  0.00     0.034 A 
ATOM     67  C   UNL A   1      37.908  29.741  30.410  1.00  0.00     0.049 A 
ATOM     68  C   UNL A   1      43.336  31.677  30.663  1.00  0.00     0.074 A 
ATOM     69  C   UNL A   1      37.529  28.892  31.428  1.00  0.00     0.029 A 
ATOM     70  N   UNL A   1      38.595  30.746  31.047  1.00  0.00    -0.354 N 
ATOM     71  N   UNL A   1      42.840  31.358  31.829  1.00  0.00    -0.248 NA
ATOM     72  C   UNL A   1      42.351  32.111  29.672  1.00  0.00     0.031 C 
ATOM     73  C   UNL A   1      38.415  29.177  32.518  1.00  0.00     0.029 A 
ATOM     74  C   UNL A   1      39.285  30.176  32.087  1.00  0.00     0.049 A 
ATOM     75  H   UNL A   1      38.592  31.699  30.803  1.00  0.00     0.167 HD
ATOM     76  C   UNL A   1      41.465  31.239  31.615  1.00  0.00     0.074 A 
ATOM     77  C   UNL A   1      41.235  31.717  30.266  1.00  0.00     0.031 C 
ATOM     78  C   UNL A   1      40.610  30.605  32.469  1.00  0.00     0.034 A 
BRANCH  65  79
ATOM     79  C   UNL A   1      36.653  30.472  28.347  1.00  0.00     0.023 A 
ATOM     80  C   UNL A   1      36.572  31.868  28.525  1.00  0.00     0.012 A 
ATOM     81  C   UNL A   1      35.570  29.783  27.772  1.00  0.00     0.148 A 
ATOM     82  C   UNL A   1      35.421  32.568  28.177  1.00  0.00     0.002 A 
ATOM     83  C   UNL A   1      34.422  30.492  27.419  1.00  0.00     0.091 A 
ATOM     84  F   UNL A   1      35.664  28.455  27.616  1.00  0.00    -0.205 F 
ATOM     85  C   UNL A   1      34.345  31.880  27.632  1.00  0.00     0.022 A 
BRANCH  83  86
ATOM     86  S   UNL A   1      32.956  29.722  26.719  1.00  0.00     0.127 S 
ATOM     87  O   UNL A   1      32.683  28.656  27.683  1.00  0.00    -0.237 OA
ATOM     88  O   UNL A   1      31.996  30.826  26.743  1.00  0.00    -0.237 OA
ATOM     89  O   UNL A   1      33.335  29.272  25.386  1.00  0.00    -0.744 OA
ENDBRANCH  83  86
ENDBRANCH  65  79
BRANCH  66  90
ATOM     90  C   UNL A   1      45.432  32.168  29.143  1.00  0.00     0.023 A 
ATOM     91  C   UNL A   1      45.485  31.729  27.800  1.00  0.00     0.012 A 
ATOM     92  C   UNL A   1      46.105  33.371  29.453  1.00  0.00     0.148 A 
ATOM     93  C   UNL A   1      46.074  32.499  26.792  1.00  0.00     0.002 A 
ATOM     94  C   UNL A   1      46.639  34.166  28.438  1.00  0.00     0.091 A 
ATOM     95  F   UNL A   1      46.215  33.742  30.734  1.00  0.00    -0.205 F 
ATOM     96  C   UNL A   1      46.621  33.734  27.105  1.00  0.00     0.022 A 
BRANCH  94  97
ATOM     97  S   UNL A   1      47.309  35.810  28.740  1.00  0.00     0.127 S 
ATOM     98  O   UNL A   1      48.641  35.511  29.264  1.00  0.00    -0.237 OA
ATOM     99  O   UNL A   1      47.292  36.379  27.393  1.00  0.00    -0.237 OA
ATOM    100  O   UNL A   1      46.405  36.437  29.692  1.00  0.00    -0.744 OA
ENDBRANCH  94  97
ENDBRANCH  66  90
BRANCH  78 101
ATOM    101  C   UNL A   1      41.168  30.205  33.797  1.00  0.00     0.023 A 
ATOM    102  C   UNL A   1      41.313  31.202  34.780  1.00  0.00     0.012 A 
ATOM    103  C   UNL A   1      41.490  28.874  34.117  1.00  0.00     0.148 A 
ATOM    104  C   UNL A   1      41.739  30.880  36.068  1.00  0.00     0.002 A 
ATOM    105  C   UNL A   1      41.913  28.560  35.407  1.00  0.00     0.091 A 
ATOM    106  F   UNL A   1      41.340  27.921  33.184  1.00  0.00    -0.205 F 
ATOM    107  C   UNL A   1      42.031  29.558  36.385  1.00  0.00     0.022 A 
BRANCH 105 108
ATOM    108  S   UNL A   1      42.326  26.881  35.874  1.00  0.00     0.127 S 
ATOM    109  O   UNL A   1      42.790  27.022  37.255  1.00  0.00    -0.237 OA
ATOM    110  O   UNL A   1      41.043  26.201  35.728  1.00  0.00    -0.237 OA
ATOM    111  O   UNL A   1      43.377  26.477  34.947  1.00  0.00    -0.744 OA
ENDBRANCH 105 108
ENDBRANCH  78 101
ENDBRANCH  52  53
ENDBRANCH  45  47
ENDBRANCH  44  45
ENDBRANCH  43  44
ENDBRANCH  42  43
ENDBRANCH  41  42
ENDBRANCH  40  41
ENDBRANCH  39  40
ENDBRANCH  38  39
ENDBRANCH   1  38
TORSDOF 29
ENDMDL
