MODEL 1
REMARK VINA RESULT:      -7.8      0.000      0.000
REMARK SMILES C[C@@H](C(=O)OCCOCCOCCOCCOC(=O)c1ccc(-c2c3nc(c(-c4cccc(S(=O)(=O)[O-])c4F)c4ccc([nH]4)c(-c4cccc(S(=O)(=O)[O-])c4F)c4nc(c(-c5cccc(S(=O)(=O)[O-])c5F)c5ccc2[nH]5)C=C4)C=C3)cc1)c1ccc(C[C@H]2CCC[C@H]2O)cc1
REMARK SMILES IDX 10 1 9 2 8 3 7 4 6 5 5 6 3 7 4 8 2 9 1 10 83 11 84 12 95 13
REMARK SMILES IDX 85 14 94 15 86 16 87 17 88 18 89 19 92 20 90 21 91 22 93 23
REMARK SMILES IDX 11 25 12 26 13 27 14 28 15 29 16 30 17 31 18 32 19 33 20 34
REMARK SMILES IDX 21 35 82 36 22 37 81 38 23 39 24 40 25 41 75 42 26 43 80 44
REMARK SMILES IDX 74 45 76 46 27 47 79 48 73 49 72 50 28 52 60 53 40 54 59 55
REMARK SMILES IDX 41 56 44 57 58 58 77 59 42 60 43 61 57 63 78 64 45 65 29 66
REMARK SMILES IDX 30 67 38 68 31 69 33 70 39 71 32 72 34 73 35 74 36 75 37 76
REMARK SMILES IDX 61 77 62 78 70 79 63 80 65 81 71 82 64 83 66 84 67 85 68 86
REMARK SMILES IDX 69 87 46 88 47 89 55 90 48 91 50 92 56 93 49 94 51 95 52 96
REMARK SMILES IDX 53 97 54 98
REMARK H PARENT 93 24 76 51 44 62
REMARK Flexibility Score: inf
ROOT
ATOM      1  C   UNL A   1      33.834  37.451  32.536  1.00  0.00     0.188 C 
ENDROOT
BRANCH   1   2
ATOM      2  C   UNL A   1      32.941  36.725  31.510  1.00  0.00     0.188 C 
BRANCH   2   3
ATOM      3  O   UNL A   1      32.775  37.252  30.201  1.00  0.00    -0.376 OA
BRANCH   3   4
ATOM      4  C   UNL A   1      33.283  36.542  29.079  1.00  0.00     0.202 C 
BRANCH   4   5
ATOM      5  C   UNL A   1      33.236  35.001  29.003  1.00  0.00     0.261 C 
BRANCH   5   6
ATOM      6  O   UNL A   1      34.494  34.301  28.934  1.00  0.00    -0.463 OA
BRANCH   6   7
ATOM      7  C   UNL A   1      34.485  32.988  29.278  1.00  0.00     0.313 C 
ATOM      8  O   UNL A   1      34.184  32.583  30.398  1.00  0.00    -0.252 OA
BRANCH   7   9
ATOM      9  C   UNL A   1      34.877  32.026  28.129  1.00  0.00     0.126 C 
ATOM     10  C   UNL A   1      33.782  31.165  27.484  1.00  0.00     0.025 C 
BRANCH   9  11
ATOM     11  C   UNL A   1      36.132  31.238  28.516  1.00  0.00    -0.034 A 
ATOM     12  C   UNL A   1      37.332  31.848  28.914  1.00  0.00     0.005 A 
ATOM     13  C   UNL A   1      36.140  29.851  28.320  1.00  0.00     0.005 A 
ATOM     14  C   UNL A   1      38.519  31.116  29.004  1.00  0.00     0.004 A 
ATOM     15  C   UNL A   1      37.324  29.117  28.422  1.00  0.00     0.004 A 
ATOM     16  C   UNL A   1      38.538  29.754  28.701  1.00  0.00    -0.048 A 
BRANCH  16  17
ATOM     17  C   UNL A   1      39.840  28.994  28.626  1.00  0.00     0.041 C 
BRANCH  17  18
ATOM     18  C   UNL A   1      40.182  28.295  27.295  1.00  0.00     0.022 C 
ATOM     19  C   UNL A   1      41.247  28.972  26.416  1.00  0.00     0.007 C 
ATOM     20  C   UNL A   1      40.602  26.818  27.343  1.00  0.00     0.117 C 
ATOM     21  C   UNL A   1      41.927  27.851  25.624  1.00  0.00     0.003 C 
ATOM     22  C   UNL A   1      41.147  26.579  25.938  1.00  0.00     0.032 C 
BRANCH  20  23
ATOM     23  O   UNL A   1      41.608  26.524  28.294  1.00  0.00    -0.393 OA
ATOM     24  H   UNL A   1      41.488  25.620  28.625  1.00  0.00     0.210 HD
ENDBRANCH  20  23
ENDBRANCH  17  18
ENDBRANCH  16  17
ENDBRANCH   9  11
ENDBRANCH   7   9
ENDBRANCH   6   7
ENDBRANCH   5   6
ENDBRANCH   4   5
ENDBRANCH   3   4
ENDBRANCH   2   3
ENDBRANCH   1   2
BRANCH   1  25
ATOM     25  O   UNL A   1      34.513  36.608  33.439  1.00  0.00    -0.377 OA
BRANCH  25  26
ATOM     26  C   UNL A   1      34.625  35.241  33.079  1.00  0.00     0.188 C 
BRANCH  26  27
ATOM     27  C   UNL A   1      35.909  34.494  33.484  1.00  0.00     0.188 C 
BRANCH  27  28
ATOM     28  O   UNL A   1      36.158  33.310  32.732  1.00  0.00    -0.376 OA
BRANCH  28  29
ATOM     29  C   UNL A   1      36.835  32.231  33.359  1.00  0.00     0.202 C 
BRANCH  29  30
ATOM     30  C   UNL A   1      38.160  31.763  32.733  1.00  0.00     0.261 C 
BRANCH  30  31
ATOM     31  O   UNL A   1      39.359  32.347  33.260  1.00  0.00    -0.460 OA
BRANCH  31  32
ATOM     32  C   UNL A   1      39.848  33.449  32.653  1.00  0.00     0.338 C 
ATOM     33  O   UNL A   1      39.461  34.598  32.798  1.00  0.00    -0.246 OA
BRANCH  32  34
ATOM     34  C   UNL A   1      41.082  33.059  31.938  1.00  0.00     0.060 A 
ATOM     35  C   UNL A   1      40.981  32.614  30.614  1.00  0.00     0.016 A 
ATOM     36  C   UNL A   1      42.330  33.155  32.559  1.00  0.00     0.016 A 
ATOM     37  C   UNL A   1      42.126  32.227  29.917  1.00  0.00     0.010 A 
ATOM     38  C   UNL A   1      43.473  32.742  31.868  1.00  0.00     0.010 A 
ATOM     39  C   UNL A   1      43.370  32.242  30.558  1.00  0.00    -0.014 A 
BRANCH  39  40
ATOM     40  C   UNL A   1      44.518  31.537  29.941  1.00  0.00     0.031 A 
ATOM     41  C   UNL A   1      44.623  30.048  30.137  1.00  0.00     0.074 A 
ATOM     42  C   UNL A   1      45.446  32.193  29.222  1.00  0.00     0.049 A 
ATOM     43  N   UNL A   1      45.548  29.220  29.731  1.00  0.00    -0.248 NA
ATOM     44  C   UNL A   1      43.535  29.408  30.897  1.00  0.00     0.031 C 
ATOM     45  C   UNL A   1      45.444  33.628  28.943  1.00  0.00     0.029 A 
ATOM     46  N   UNL A   1      46.586  31.732  28.611  1.00  0.00    -0.354 N 
ATOM     47  C   UNL A   1      45.176  27.972  30.216  1.00  0.00     0.074 A 
ATOM     48  C   UNL A   1      43.943  28.150  30.950  1.00  0.00     0.031 C 
ATOM     49  C   UNL A   1      46.548  33.936  28.241  1.00  0.00     0.029 A 
ATOM     50  C   UNL A   1      47.347  32.728  28.045  1.00  0.00     0.049 A 
ATOM     51  H   UNL A   1      46.835  30.780  28.581  1.00  0.00     0.167 HD
ATOM     52  C   UNL A   1      45.799  26.782  30.057  1.00  0.00     0.034 A 
ATOM     53  C   UNL A   1      48.563  32.670  27.463  1.00  0.00     0.034 A 
ATOM     54  C   UNL A   1      47.018  26.605  29.317  1.00  0.00     0.049 A 
ATOM     55  C   UNL A   1      49.255  31.336  27.335  1.00  0.00     0.074 A 
ATOM     56  C   UNL A   1      47.703  25.431  29.058  1.00  0.00     0.029 A 
ATOM     57  N   UNL A   1      47.747  27.631  28.737  1.00  0.00    -0.354 N 
ATOM     58  N   UNL A   1      48.838  30.147  27.699  1.00  0.00    -0.248 NA
ATOM     59  C   UNL A   1      50.576  31.331  26.685  1.00  0.00     0.031 C 
ATOM     60  C   UNL A   1      48.870  25.754  28.359  1.00  0.00     0.029 A 
ATOM     61  C   UNL A   1      48.886  27.122  28.139  1.00  0.00     0.049 A 
ATOM     62  H   UNL A   1      47.493  28.582  28.749  1.00  0.00     0.167 HD
ATOM     63  C   UNL A   1      49.820  29.252  27.287  1.00  0.00     0.074 A 
ATOM     64  C   UNL A   1      50.846  30.034  26.629  1.00  0.00     0.031 C 
ATOM     65  C   UNL A   1      49.874  27.906  27.443  1.00  0.00     0.034 A 
BRANCH  52  66
ATOM     66  C   UNL A   1      45.174  25.573  30.701  1.00  0.00     0.023 A 
ATOM     67  C   UNL A   1      44.348  24.717  29.944  1.00  0.00     0.012 A 
ATOM     68  C   UNL A   1      45.446  25.259  32.047  1.00  0.00     0.148 A 
ATOM     69  C   UNL A   1      43.776  23.586  30.527  1.00  0.00     0.002 A 
ATOM     70  C   UNL A   1      44.916  24.104  32.605  1.00  0.00     0.091 A 
ATOM     71  F   UNL A   1      46.214  26.099  32.756  1.00  0.00    -0.205 F 
ATOM     72  C   UNL A   1      44.070  23.273  31.852  1.00  0.00     0.022 A 
BRANCH  70  73
ATOM     73  S   UNL A   1      45.299  23.571  34.277  1.00  0.00     0.127 S 
ATOM     74  O   UNL A   1      44.560  24.550  35.075  1.00  0.00    -0.237 OA
ATOM     75  O   UNL A   1      44.741  22.219  34.301  1.00  0.00    -0.237 OA
ATOM     76  O   UNL A   1      46.748  23.637  34.399  1.00  0.00    -0.744 OA
ENDBRANCH  70  73
ENDBRANCH  52  66
BRANCH  53  77
ATOM     77  C   UNL A   1      49.204  33.909  26.936  1.00  0.00     0.023 A 
ATOM     78  C   UNL A   1      48.935  34.328  25.619  1.00  0.00     0.012 A 
ATOM     79  C   UNL A   1      50.085  34.669  27.731  1.00  0.00     0.148 A 
ATOM     80  C   UNL A   1      49.558  35.459  25.090  1.00  0.00     0.002 A 
ATOM     81  C   UNL A   1      50.658  35.826  27.217  1.00  0.00     0.091 A 
ATOM     82  F   UNL A   1      50.341  34.246  28.977  1.00  0.00    -0.205 F 
ATOM     83  C   UNL A   1      50.412  36.213  25.891  1.00  0.00     0.022 A 
BRANCH  81  84
ATOM     84  S   UNL A   1      51.672  36.925  28.212  1.00  0.00     0.127 S 
ATOM     85  O   UNL A   1      51.800  38.088  27.337  1.00  0.00    -0.237 OA
ATOM     86  O   UNL A   1      50.825  37.131  29.388  1.00  0.00    -0.237 OA
ATOM     87  O   UNL A   1      52.904  36.196  28.477  1.00  0.00    -0.744 OA
ENDBRANCH  81  84
ENDBRANCH  53  77
BRANCH  65  88
ATOM     88  C   UNL A   1      51.049  27.172  26.848  1.00  0.00     0.023 A 
ATOM     89  C   UNL A   1      51.047  26.816  25.484  1.00  0.00     0.012 A 
ATOM     90  C   UNL A   1      52.192  26.907  27.628  1.00  0.00     0.148 A 
ATOM     91  C   UNL A   1      52.148  26.173  24.918  1.00  0.00     0.002 A 
ATOM     92  C   UNL A   1      53.307  26.317  27.043  1.00  0.00     0.091 A 
ATOM     93  F   UNL A   1      52.170  27.240  28.926  1.00  0.00    -0.205 F 
ATOM     94  C   UNL A   1      53.280  25.936  25.693  1.00  0.00     0.022 A 
BRANCH  92  95
ATOM     95  S   UNL A   1      54.845  26.066  27.937  1.00  0.00     0.127 S 
ATOM     96  O   UNL A   1      55.338  24.826  27.338  1.00  0.00    -0.237 OA
ATOM     97  O   UNL A   1      55.608  27.262  27.580  1.00  0.00    -0.237 OA
ATOM     98  O   UNL A   1      54.484  25.975  29.346  1.00  0.00    -0.744 OA
ENDBRANCH  92  95
ENDBRANCH  65  88
ENDBRANCH  39  40
ENDBRANCH  32  34
ENDBRANCH  31  32
ENDBRANCH  30  31
ENDBRANCH  29  30
ENDBRANCH  28  29
ENDBRANCH  27  28
ENDBRANCH  26  27
ENDBRANCH  25  26
ENDBRANCH   1  25
TORSDOF 27
ENDMDL
MODEL 2
REMARK VINA RESULT:      -7.7      4.602     10.228
REMARK SMILES C[C@@H](C(=O)OCCOCCOCCOCCOC(=O)c1ccc(-c2c3nc(c(-c4cccc(S(=O)(=O)[O-])c4F)c4ccc([nH]4)c(-c4cccc(S(=O)(=O)[O-])c4F)c4nc(c(-c5cccc(S(=O)(=O)[O-])c5F)c5ccc2[nH]5)C=C4)C=C3)cc1)c1ccc(C[C@H]2CCC[C@H]2O)cc1
REMARK SMILES IDX 10 1 9 2 8 3 7 4 6 5 5 6 3 7 4 8 2 9 1 10 83 11 84 12 95 13
REMARK SMILES IDX 85 14 94 15 86 16 87 17 88 18 89 19 92 20 90 21 91 22 93 23
REMARK SMILES IDX 11 25 12 26 13 27 14 28 15 29 16 30 17 31 18 32 19 33 20 34
REMARK SMILES IDX 21 35 82 36 22 37 81 38 23 39 24 40 25 41 75 42 26 43 80 44
REMARK SMILES IDX 74 45 76 46 27 47 79 48 73 49 72 50 28 52 60 53 40 54 59 55
REMARK SMILES IDX 41 56 44 57 58 58 77 59 42 60 43 61 57 63 78 64 45 65 29 66
REMARK SMILES IDX 30 67 38 68 31 69 33 70 39 71 32 72 34 73 35 74 36 75 37 76
REMARK SMILES IDX 61 77 62 78 70 79 63 80 65 81 71 82 64 83 66 84 67 85 68 86
REMARK SMILES IDX 69 87 46 88 47 89 55 90 48 91 50 92 56 93 49 94 51 95 52 96
REMARK SMILES IDX 53 97 54 98
REMARK H PARENT 93 24 76 51 44 62
REMARK Flexibility Score: inf
ROOT
ATOM      1  C   UNL A   1      40.807  26.004  27.556  1.00  0.00     0.188 C 
ENDROOT
BRANCH   1   2
ATOM      2  C   UNL A   1      39.433  25.312  27.457  1.00  0.00     0.188 C 
BRANCH   2   3
ATOM      3  O   UNL A   1      39.315  23.912  27.674  1.00  0.00    -0.376 OA
BRANCH   3   4
ATOM      4  C   UNL A   1      39.084  23.039  26.577  1.00  0.00     0.202 C 
BRANCH   4   5
ATOM      5  C   UNL A   1      37.913  23.258  25.596  1.00  0.00     0.261 C 
BRANCH   5   6
ATOM      6  O   UNL A   1      36.610  22.794  26.001  1.00  0.00    -0.463 OA
BRANCH   6   7
ATOM      7  C   UNL A   1      36.056  21.799  25.264  1.00  0.00     0.313 C 
ATOM      8  O   UNL A   1      36.716  20.952  24.665  1.00  0.00    -0.252 OA
BRANCH   7   9
ATOM      9  C   UNL A   1      34.508  21.805  25.245  1.00  0.00     0.126 C 
ATOM     10  C   UNL A   1      33.773  20.567  24.712  1.00  0.00     0.025 C 
BRANCH   9  11
ATOM     11  C   UNL A   1      34.000  23.124  24.656  1.00  0.00    -0.034 A 
ATOM     12  C   UNL A   1      33.921  23.372  23.277  1.00  0.00     0.005 A 
ATOM     13  C   UNL A   1      33.744  24.192  25.526  1.00  0.00     0.005 A 
ATOM     14  C   UNL A   1      33.706  24.664  22.787  1.00  0.00     0.004 A 
ATOM     15  C   UNL A   1      33.516  25.480  25.036  1.00  0.00     0.004 A 
ATOM     16  C   UNL A   1      33.560  25.740  23.662  1.00  0.00    -0.048 A 
BRANCH  16  17
ATOM     17  C   UNL A   1      33.500  27.157  23.146  1.00  0.00     0.041 C 
BRANCH  17  18
ATOM     18  C   UNL A   1      32.105  27.784  22.944  1.00  0.00     0.022 C 
ATOM     19  C   UNL A   1      30.908  26.818  22.958  1.00  0.00     0.007 C 
ATOM     20  C   UNL A   1      31.687  28.931  23.877  1.00  0.00     0.117 C 
ATOM     21  C   UNL A   1      29.711  27.624  23.471  1.00  0.00     0.003 C 
ATOM     22  C   UNL A   1      30.194  29.065  23.595  1.00  0.00     0.032 C 
BRANCH  20  23
ATOM     23  O   UNL A   1      31.884  28.669  25.253  1.00  0.00    -0.393 OA
ATOM     24  H   UNL A   1      32.809  28.420  25.407  1.00  0.00     0.210 HD
ENDBRANCH  20  23
ENDBRANCH  17  18
ENDBRANCH  16  17
ENDBRANCH   9  11
ENDBRANCH   7   9
ENDBRANCH   6   7
ENDBRANCH   5   6
ENDBRANCH   4   5
ENDBRANCH   3   4
ENDBRANCH   2   3
ENDBRANCH   1   2
BRANCH   1  25
ATOM     25  O   UNL A   1      41.827  25.226  28.140  1.00  0.00    -0.377 OA
BRANCH  25  26
ATOM     26  C   UNL A   1      42.916  24.868  27.305  1.00  0.00     0.188 C 
BRANCH  26  27
ATOM     27  C   UNL A   1      42.694  23.741  26.279  1.00  0.00     0.188 C 
BRANCH  27  28
ATOM     28  O   UNL A   1      43.466  23.875  25.089  1.00  0.00    -0.376 OA
BRANCH  28  29
ATOM     29  C   UNL A   1      44.457  22.899  24.804  1.00  0.00     0.202 C 
BRANCH  29  30
ATOM     30  C   UNL A   1      45.434  22.526  25.932  1.00  0.00     0.261 C 
BRANCH  30  31
ATOM     31  O   UNL A   1      46.634  23.306  26.023  1.00  0.00    -0.460 OA
BRANCH  31  32
ATOM     32  C   UNL A   1      46.800  24.319  25.147  1.00  0.00     0.338 C 
ATOM     33  O   UNL A   1      47.087  24.225  23.964  1.00  0.00    -0.246 OA
BRANCH  32  34
ATOM     34  C   UNL A   1      46.365  25.566  25.812  1.00  0.00     0.060 A 
ATOM     35  C   UNL A   1      45.586  26.479  25.090  1.00  0.00     0.016 A 
ATOM     36  C   UNL A   1      46.701  25.821  27.144  1.00  0.00     0.016 A 
ATOM     37  C   UNL A   1      45.171  27.670  25.686  1.00  0.00     0.010 A 
ATOM     38  C   UNL A   1      46.307  27.026  27.731  1.00  0.00     0.010 A 
ATOM     39  C   UNL A   1      45.572  27.970  26.993  1.00  0.00    -0.014 A 
BRANCH  39  40
ATOM     40  C   UNL A   1      45.411  29.352  27.506  1.00  0.00     0.031 A 
ATOM     41  C   UNL A   1      44.121  29.706  28.195  1.00  0.00     0.074 A 
ATOM     42  C   UNL A   1      46.382  30.272  27.372  1.00  0.00     0.049 A 
ATOM     43  N   UNL A   1      43.731  30.849  28.691  1.00  0.00    -0.248 NA
ATOM     44  C   UNL A   1      43.135  28.620  28.340  1.00  0.00     0.031 C 
ATOM     45  C   UNL A   1      47.683  30.046  26.744  1.00  0.00     0.029 A 
ATOM     46  N   UNL A   1      46.411  31.594  27.741  1.00  0.00    -0.354 N 
ATOM     47  C   UNL A   1      42.445  30.633  29.172  1.00  0.00     0.074 A 
ATOM     48  C   UNL A   1      42.117  29.250  28.905  1.00  0.00     0.031 C 
ATOM     49  C   UNL A   1      48.373  31.200  26.745  1.00  0.00     0.029 A 
ATOM     50  C   UNL A   1      47.552  32.251  27.345  1.00  0.00     0.049 A 
ATOM     51  H   UNL A   1      45.683  32.031  28.240  1.00  0.00     0.167 HD
ATOM     52  C   UNL A   1      41.614  31.503  29.790  1.00  0.00     0.034 A 
ATOM     53  C   UNL A   1      47.881  33.556  27.434  1.00  0.00     0.034 A 
ATOM     54  C   UNL A   1      41.946  32.874  30.065  1.00  0.00     0.049 A 
ATOM     55  C   UNL A   1      46.919  34.515  28.091  1.00  0.00     0.074 A 
ATOM     56  C   UNL A   1      41.191  33.825  30.729  1.00  0.00     0.029 A 
ATOM     57  N   UNL A   1      43.120  33.498  29.673  1.00  0.00    -0.354 N 
ATOM     58  N   UNL A   1      45.753  34.272  28.642  1.00  0.00    -0.248 NA
ATOM     59  C   UNL A   1      47.332  35.925  28.166  1.00  0.00     0.031 C 
ATOM     60  C   UNL A   1      41.890  35.034  30.699  1.00  0.00     0.029 A 
ATOM     61  C   UNL A   1      43.103  34.826  30.061  1.00  0.00     0.049 A 
ATOM     62  H   UNL A   1      43.858  33.060  29.189  1.00  0.00     0.167 HD
ATOM     63  C   UNL A   1      45.316  35.485  29.165  1.00  0.00     0.074 A 
ATOM     64  C   UNL A   1      46.349  36.459  28.880  1.00  0.00     0.031 C 
ATOM     65  C   UNL A   1      44.161  35.771  29.816  1.00  0.00     0.034 A 
BRANCH  52  66
ATOM     66  C   UNL A   1      40.258  31.000  30.209  1.00  0.00     0.023 A 
ATOM     67  C   UNL A   1      39.150  31.158  29.352  1.00  0.00     0.012 A 
ATOM     68  C   UNL A   1      40.094  30.326  31.435  1.00  0.00     0.148 A 
ATOM     69  C   UNL A   1      37.893  30.681  29.723  1.00  0.00     0.002 A 
ATOM     70  C   UNL A   1      38.851  29.809  31.774  1.00  0.00     0.091 A 
ATOM     71  F   UNL A   1      41.155  30.208  32.246  1.00  0.00    -0.205 F 
ATOM     72  C   UNL A   1      37.746  29.996  30.927  1.00  0.00     0.022 A 
BRANCH  70  73
ATOM     73  S   UNL A   1      38.578  28.843  33.263  1.00  0.00     0.127 S 
ATOM     74  O   UNL A   1      38.852  29.828  34.309  1.00  0.00    -0.237 OA
ATOM     75  O   UNL A   1      37.169  28.470  33.131  1.00  0.00    -0.237 OA
ATOM     76  O   UNL A   1      39.513  27.729  33.199  1.00  0.00    -0.744 OA
ENDBRANCH  70  73
ENDBRANCH  52  66
BRANCH  53  77
ATOM     77  C   UNL A   1      49.188  34.041  26.905  1.00  0.00     0.023 A 
ATOM     78  C   UNL A   1      49.282  34.474  25.568  1.00  0.00     0.012 A 
ATOM     79  C   UNL A   1      50.340  34.066  27.717  1.00  0.00     0.148 A 
ATOM     80  C   UNL A   1      50.505  34.889  25.038  1.00  0.00     0.002 A 
ATOM     81  C   UNL A   1      51.541  34.534  27.199  1.00  0.00     0.091 A 
ATOM     82  F   UNL A   1      50.234  33.635  28.981  1.00  0.00    -0.205 F 
ATOM     83  C   UNL A   1      51.632  34.928  25.856  1.00  0.00     0.022 A 
BRANCH  81  84
ATOM     84  S   UNL A   1      53.014  34.735  28.209  1.00  0.00     0.127 S 
ATOM     85  O   UNL A   1      52.533  35.625  29.263  1.00  0.00    -0.237 OA
ATOM     86  O   UNL A   1      53.273  33.359  28.635  1.00  0.00    -0.237 OA
ATOM     87  O   UNL A   1      54.027  35.294  27.325  1.00  0.00    -0.744 OA
ENDBRANCH  81  84
ENDBRANCH  53  77
BRANCH  65  88
ATOM     88  C   UNL A   1      43.965  37.178  30.321  1.00  0.00     0.023 A 
ATOM     89  C   UNL A   1      43.622  38.212  29.426  1.00  0.00     0.012 A 
ATOM     90  C   UNL A   1      44.044  37.457  31.700  1.00  0.00     0.148 A 
ATOM     91  C   UNL A   1      43.399  39.508  29.893  1.00  0.00     0.002 A 
ATOM     92  C   UNL A   1      43.765  38.738  32.164  1.00  0.00     0.091 A 
ATOM     93  F   UNL A   1      44.385  36.464  32.534  1.00  0.00    -0.205 F 
ATOM     94  C   UNL A   1      43.459  39.767  31.260  1.00  0.00     0.022 A 
BRANCH  92  95
ATOM     95  S   UNL A   1      43.717  39.141  33.914  1.00  0.00     0.127 S 
ATOM     96  O   UNL A   1      42.696  38.216  34.404  1.00  0.00    -0.237 OA
ATOM     97  O   UNL A   1      45.080  38.828  34.340  1.00  0.00    -0.237 OA
ATOM     98  O   UNL A   1      43.366  40.553  33.993  1.00  0.00    -0.744 OA
ENDBRANCH  92  95
ENDBRANCH  65  88
ENDBRANCH  39  40
ENDBRANCH  32  34
ENDBRANCH  31  32
ENDBRANCH  30  31
ENDBRANCH  29  30
ENDBRANCH  28  29
ENDBRANCH  27  28
ENDBRANCH  26  27
ENDBRANCH  25  26
ENDBRANCH   1  25
TORSDOF 27
ENDMDL
MODEL 3
REMARK VINA RESULT:      -7.4      3.604      8.624
REMARK SMILES C[C@@H](C(=O)OCCOCCOCCOCCOC(=O)c1ccc(-c2c3nc(c(-c4cccc(S(=O)(=O)[O-])c4F)c4ccc([nH]4)c(-c4cccc(S(=O)(=O)[O-])c4F)c4nc(c(-c5cccc(S(=O)(=O)[O-])c5F)c5ccc2[nH]5)C=C4)C=C3)cc1)c1ccc(C[C@H]2CCC[C@H]2O)cc1
REMARK SMILES IDX 10 1 9 2 8 3 7 4 6 5 5 6 3 7 4 8 2 9 1 10 83 11 84 12 95 13
REMARK SMILES IDX 85 14 94 15 86 16 87 17 88 18 89 19 92 20 90 21 91 22 93 23
REMARK SMILES IDX 11 25 12 26 13 27 14 28 15 29 16 30 17 31 18 32 19 33 20 34
REMARK SMILES IDX 21 35 82 36 22 37 81 38 23 39 24 40 25 41 75 42 26 43 80 44
REMARK SMILES IDX 74 45 76 46 27 47 79 48 73 49 72 50 28 52 60 53 40 54 59 55
REMARK SMILES IDX 41 56 44 57 58 58 77 59 42 60 43 61 57 63 78 64 45 65 29 66
REMARK SMILES IDX 30 67 38 68 31 69 33 70 39 71 32 72 34 73 35 74 36 75 37 76
REMARK SMILES IDX 61 77 62 78 70 79 63 80 65 81 71 82 64 83 66 84 67 85 68 86
REMARK SMILES IDX 69 87 46 88 47 89 55 90 48 91 50 92 56 93 49 94 51 95 52 96
REMARK SMILES IDX 53 97 54 98
REMARK H PARENT 93 24 76 51 44 62
REMARK Flexibility Score: inf
ROOT
ATOM      1  C   UNL A   1      33.721  37.413  32.642  1.00  0.00     0.188 C 
ENDROOT
BRANCH   1   2
ATOM      2  C   UNL A   1      32.901  36.610  31.613  1.00  0.00     0.188 C 
BRANCH   2   3
ATOM      3  O   UNL A   1      32.692  37.120  30.303  1.00  0.00    -0.376 OA
BRANCH   3   4
ATOM      4  C   UNL A   1      33.271  36.463  29.184  1.00  0.00     0.202 C 
BRANCH   4   5
ATOM      5  C   UNL A   1      33.333  34.924  29.087  1.00  0.00     0.261 C 
BRANCH   5   6
ATOM      6  O   UNL A   1      34.629  34.303  29.191  1.00  0.00    -0.463 OA
BRANCH   6   7
ATOM      7  C   UNL A   1      34.653  32.974  29.465  1.00  0.00     0.313 C 
ATOM      8  O   UNL A   1      34.367  32.504  30.564  1.00  0.00    -0.252 OA
BRANCH   7   9
ATOM      9  C   UNL A   1      35.061  32.083  28.267  1.00  0.00     0.126 C 
ATOM     10  C   UNL A   1      33.975  31.271  27.549  1.00  0.00     0.025 C 
BRANCH   9  11
ATOM     11  C   UNL A   1      36.305  31.263  28.628  1.00  0.00    -0.034 A 
ATOM     12  C   UNL A   1      37.537  31.843  28.966  1.00  0.00     0.005 A 
ATOM     13  C   UNL A   1      36.261  29.872  28.469  1.00  0.00     0.005 A 
ATOM     14  C   UNL A   1      38.703  31.074  29.031  1.00  0.00     0.004 A 
ATOM     15  C   UNL A   1      37.423  29.102  28.546  1.00  0.00     0.004 A 
ATOM     16  C   UNL A   1      38.667  29.705  28.763  1.00  0.00    -0.048 A 
BRANCH  16  17
ATOM     17  C   UNL A   1      39.939  28.901  28.661  1.00  0.00     0.041 C 
BRANCH  17  18
ATOM     18  C   UNL A   1      40.247  28.222  27.311  1.00  0.00     0.022 C 
ATOM     19  C   UNL A   1      41.314  28.895  26.430  1.00  0.00     0.007 C 
ATOM     20  C   UNL A   1      40.637  26.736  27.323  1.00  0.00     0.117 C 
ATOM     21  C   UNL A   1      41.959  27.777  25.606  1.00  0.00     0.003 C 
ATOM     22  C   UNL A   1      41.157  26.515  25.905  1.00  0.00     0.032 C 
BRANCH  20  23
ATOM     23  O   UNL A   1      41.650  26.402  28.252  1.00  0.00    -0.393 OA
ATOM     24  H   UNL A   1      41.245  26.168  29.102  1.00  0.00     0.210 HD
ENDBRANCH  20  23
ENDBRANCH  17  18
ENDBRANCH  16  17
ENDBRANCH   9  11
ENDBRANCH   7   9
ENDBRANCH   6   7
ENDBRANCH   5   6
ENDBRANCH   4   5
ENDBRANCH   3   4
ENDBRANCH   2   3
ENDBRANCH   1   2
BRANCH   1  25
ATOM     25  O   UNL A   1      34.334  36.642  33.650  1.00  0.00    -0.377 OA
BRANCH  25  26
ATOM     26  C   UNL A   1      34.531  35.266  33.373  1.00  0.00     0.188 C 
BRANCH  26  27
ATOM     27  C   UNL A   1      35.777  34.585  33.968  1.00  0.00     0.188 C 
BRANCH  27  28
ATOM     28  O   UNL A   1      36.162  33.386  33.301  1.00  0.00    -0.376 OA
BRANCH  28  29
ATOM     29  C   UNL A   1      36.972  32.447  33.994  1.00  0.00     0.202 C 
BRANCH  29  30
ATOM     30  C   UNL A   1      38.446  32.331  33.571  1.00  0.00     0.261 C 
BRANCH  30  31
ATOM     31  O   UNL A   1      39.394  33.082  34.341  1.00  0.00    -0.460 OA
BRANCH  31  32
ATOM     32  C   UNL A   1      39.469  34.414  34.131  1.00  0.00     0.338 C 
ATOM     33  O   UNL A   1      38.791  35.278  34.662  1.00  0.00    -0.246 OA
BRANCH  32  34
ATOM     34  C   UNL A   1      40.664  34.672  33.300  1.00  0.00     0.060 A 
ATOM     35  C   UNL A   1      40.601  34.404  31.927  1.00  0.00     0.016 A 
ATOM     36  C   UNL A   1      41.829  35.197  33.866  1.00  0.00     0.016 A 
ATOM     37  C   UNL A   1      41.716  34.625  31.118  1.00  0.00     0.010 A 
ATOM     38  C   UNL A   1      42.954  35.393  33.059  1.00  0.00     0.010 A 
ATOM     39  C   UNL A   1      42.912  35.073  31.691  1.00  0.00    -0.014 A 
BRANCH  39  40
ATOM     40  C   UNL A   1      44.169  34.999  30.908  1.00  0.00     0.031 A 
ATOM     41  C   UNL A   1      44.636  36.241  30.198  1.00  0.00     0.074 A 
ATOM     42  C   UNL A   1      44.885  33.864  30.828  1.00  0.00     0.049 A 
ATOM     43  N   UNL A   1      45.674  36.416  29.426  1.00  0.00    -0.248 NA
ATOM     44  C   UNL A   1      43.814  37.451  30.384  1.00  0.00     0.031 C 
ATOM     45  C   UNL A   1      44.549  32.602  31.486  1.00  0.00     0.029 A 
ATOM     46  N   UNL A   1      46.037  33.587  30.134  1.00  0.00    -0.354 N 
ATOM     47  C   UNL A   1      45.613  37.739  29.004  1.00  0.00     0.074 A 
ATOM     48  C   UNL A   1      44.432  38.322  29.602  1.00  0.00     0.031 C 
ATOM     49  C   UNL A   1      45.460  31.676  31.141  1.00  0.00     0.029 A 
ATOM     50  C   UNL A   1      46.424  32.269  30.216  1.00  0.00     0.049 A 
ATOM     51  H   UNL A   1      46.537  34.266  29.626  1.00  0.00     0.167 HD
ATOM     52  C   UNL A   1      46.467  38.412  28.200  1.00  0.00     0.034 A 
ATOM     53  C   UNL A   1      47.425  31.617  29.591  1.00  0.00     0.034 A 
ATOM     54  C   UNL A   1      47.646  37.834  27.616  1.00  0.00     0.049 A 
ATOM     55  C   UNL A   1      48.339  32.381  28.666  1.00  0.00     0.074 A 
ATOM     56  C   UNL A   1      48.602  38.446  26.825  1.00  0.00     0.029 A 
ATOM     57  N   UNL A   1      48.020  36.505  27.741  1.00  0.00    -0.354 N 
ATOM     58  N   UNL A   1      48.335  33.658  28.365  1.00  0.00    -0.248 NA
ATOM     59  C   UNL A   1      49.419  31.619  28.017  1.00  0.00     0.031 C 
ATOM     60  C   UNL A   1      49.530  37.477  26.435  1.00  0.00     0.029 A 
ATOM     61  C   UNL A   1      49.181  36.272  27.024  1.00  0.00     0.049 A 
ATOM     62  H   UNL A   1      47.532  35.828  28.262  1.00  0.00     0.167 HD
ATOM     63  C   UNL A   1      49.429  33.860  27.530  1.00  0.00     0.074 A 
ATOM     64  C   UNL A   1      50.085  32.577  27.386  1.00  0.00     0.031 C 
ATOM     65  C   UNL A   1      49.852  35.001  26.931  1.00  0.00     0.034 A 
BRANCH  52  66
ATOM     66  C   UNL A   1      46.155  39.854  27.897  1.00  0.00     0.023 A 
ATOM     67  C   UNL A   1      46.623  40.872  28.752  1.00  0.00     0.012 A 
ATOM     68  C   UNL A   1      45.437  40.201  26.736  1.00  0.00     0.148 A 
ATOM     69  C   UNL A   1      46.353  42.212  28.472  1.00  0.00     0.002 A 
ATOM     70  C   UNL A   1      45.217  41.539  26.437  1.00  0.00     0.091 A 
ATOM     71  F   UNL A   1      44.980  39.216  25.949  1.00  0.00    -0.205 F 
ATOM     72  C   UNL A   1      45.662  42.546  27.310  1.00  0.00     0.022 A 
BRANCH  70  73
ATOM     73  S   UNL A   1      44.409  42.073  24.925  1.00  0.00     0.127 S 
ATOM     74  O   UNL A   1      44.238  43.505  25.172  1.00  0.00    -0.237 OA
ATOM     75  O   UNL A   1      45.411  41.744  23.911  1.00  0.00    -0.237 OA
ATOM     76  O   UNL A   1      43.174  41.307  24.836  1.00  0.00    -0.744 OA
ENDBRANCH  70  73
ENDBRANCH  52  66
BRANCH  53  77
ATOM     77  C   UNL A   1      47.636  30.159  29.827  1.00  0.00     0.023 A 
ATOM     78  C   UNL A   1      48.447  29.736  30.899  1.00  0.00     0.012 A 
ATOM     79  C   UNL A   1      47.043  29.191  28.993  1.00  0.00     0.148 A 
ATOM     80  C   UNL A   1      48.695  28.380  31.112  1.00  0.00     0.002 A 
ATOM     81  C   UNL A   1      47.247  27.840  29.246  1.00  0.00     0.091 A 
ATOM     82  F   UNL A   1      46.288  29.613  27.969  1.00  0.00    -0.205 F 
ATOM     83  C   UNL A   1      48.088  27.432  30.292  1.00  0.00     0.022 A 
BRANCH  81  84
ATOM     84  S   UNL A   1      46.411  26.548  28.319  1.00  0.00     0.127 S 
ATOM     85  O   UNL A   1      46.233  25.517  29.340  1.00  0.00    -0.237 OA
ATOM     86  O   UNL A   1      45.181  27.225  27.907  1.00  0.00    -0.237 OA
ATOM     87  O   UNL A   1      47.307  26.203  27.224  1.00  0.00    -0.744 OA
ENDBRANCH  81  84
ENDBRANCH  53  77
BRANCH  65  88
ATOM     88  C   UNL A   1      51.112  34.941  26.106  1.00  0.00     0.023 A 
ATOM     89  C   UNL A   1      51.042  34.701  24.719  1.00  0.00     0.012 A 
ATOM     90  C   UNL A   1      52.364  35.203  26.698  1.00  0.00     0.148 A 
ATOM     91  C   UNL A   1      52.201  34.684  23.943  1.00  0.00     0.002 A 
ATOM     92  C   UNL A   1      53.508  35.241  25.910  1.00  0.00     0.091 A 
ATOM     93  F   UNL A   1      52.412  35.416  28.021  1.00  0.00    -0.205 F 
ATOM     94  C   UNL A   1      53.430  34.966  24.535  1.00  0.00     0.022 A 
BRANCH  92  95
ATOM     95  S   UNL A   1      55.117  35.695  26.565  1.00  0.00     0.127 S 
ATOM     96  O   UNL A   1      56.017  35.146  25.553  1.00  0.00    -0.237 OA
ATOM     97  O   UNL A   1      55.041  37.155  26.587  1.00  0.00    -0.237 OA
ATOM     98  O   UNL A   1      55.208  35.074  27.880  1.00  0.00    -0.744 OA
ENDBRANCH  92  95
ENDBRANCH  65  88
ENDBRANCH  39  40
ENDBRANCH  32  34
ENDBRANCH  31  32
ENDBRANCH  30  31
ENDBRANCH  29  30
ENDBRANCH  28  29
ENDBRANCH  27  28
ENDBRANCH  26  27
ENDBRANCH  25  26
ENDBRANCH   1  25
TORSDOF 27
ENDMDL
