MODEL 1
REMARK VINA RESULT:      -9.8      0.000      0.000
REMARK SMILES CN1C(=O)C[C@H](C(=O)OCCOCCOCCOCCOC(=O)c2ccc(-c3c4nc(c(-c5cccc(S(=O)(=O)[O-])c5F)c5ccc([nH]5)c(-c5cccc(S(=O)(=O)[O-])c5F)c5nc(c(-c6cccc(S(=O)(=O)[O-])c6F)c6ccc3[nH]6)C=C5)C=C4)cc2)C12CC[NH+](Cc1ccc(Cl)c(F)c1)CC2
REMARK SMILES IDX 16 1 15 2 14 3 13 4 12 5 11 6 10 7 9 8 7 9 8 10 6 11 1 12
REMARK SMILES IDX 2 13 3 14 87 15 4 16 5 17 88 18 101 19 89 20 100 21 90 22
REMARK SMILES IDX 91 24 92 25 93 26 99 27 94 28 97 29 95 30 98 31 96 32 17 33
REMARK SMILES IDX 18 34 19 35 20 36 21 37 22 38 23 39 24 40 25 41 86 42 26 43
REMARK SMILES IDX 85 44 27 45 28 46 29 47 79 48 30 49 84 50 78 51 80 52 31 53
REMARK SMILES IDX 83 54 77 55 76 56 32 58 64 59 44 60 63 61 45 62 48 63 62 64
REMARK SMILES IDX 81 65 46 66 47 67 61 69 82 70 49 71 33 72 34 73 42 74 35 75
REMARK SMILES IDX 37 76 43 77 36 78 38 79 39 80 40 81 41 82 65 83 66 84 74 85
REMARK SMILES IDX 67 86 69 87 75 88 68 89 70 90 71 91 72 92 73 93 50 94 51 95
REMARK SMILES IDX 59 96 52 97 54 98 60 99 53 100 55 101 56 102 57 103 58 104
REMARK H PARENT 90 23 80 57 48 68
REMARK Flexibility Score: inf
ROOT
ATOM      1  C   UNL A   1      35.021  31.188  27.660  1.00  0.00     0.188 C 
ENDROOT
BRANCH   1   2
ATOM      2  O   UNL A   1      34.599  29.858  27.939  1.00  0.00    -0.377 OA
BRANCH   2   3
ATOM      3  C   UNL A   1      34.676  28.871  26.924  1.00  0.00     0.188 C 
BRANCH   3   4
ATOM      4  C   UNL A   1      33.741  29.179  25.747  1.00  0.00     0.188 C 
BRANCH   4   5
ATOM      5  O   UNL A   1      32.353  28.930  25.960  1.00  0.00    -0.376 OA
BRANCH   5   6
ATOM      6  C   UNL A   1      31.433  29.886  25.418  1.00  0.00     0.202 C 
BRANCH   6   7
ATOM      7  C   UNL A   1      30.667  29.488  24.141  1.00  0.00     0.261 C 
BRANCH   7   8
ATOM      8  O   UNL A   1      31.189  28.305  23.481  1.00  0.00    -0.463 OA
BRANCH   8   9
ATOM      9  C   UNL A   1      30.583  27.127  23.730  1.00  0.00     0.311 C 
ATOM     10  O   UNL A   1      29.607  27.005  24.465  1.00  0.00    -0.252 OA
BRANCH   9  11
ATOM     11  C   UNL A   1      31.091  25.949  22.916  1.00  0.00     0.134 C 
ATOM     12  C   UNL A   1      33.576  23.267  22.002  1.00  0.00     0.147 C 
ATOM     13  N   UNL A   1      32.684  24.408  22.146  1.00  0.00    -0.339 N 
ATOM     14  C   UNL A   1      32.558  25.335  21.126  1.00  0.00     0.223 C 
ATOM     15  C   UNL A   1      32.053  24.836  23.434  1.00  0.00     0.067 C 
ATOM     16  O   UNL A   1      33.088  25.294  20.026  1.00  0.00    -0.275 OA
ATOM     17  C   UNL A   1      31.683  26.450  21.597  1.00  0.00     0.118 C 
ATOM     18  C   UNL A   1      31.237  23.678  24.052  1.00  0.00     0.091 C 
ATOM     19  C   UNL A   1      33.176  25.227  24.411  1.00  0.00     0.091 C 
ATOM     20  C   UNL A   1      30.822  23.955  25.494  1.00  0.00     0.265 C 
ATOM     21  C   UNL A   1      32.797  25.341  25.893  1.00  0.00     0.265 C 
ATOM     22  N   UNL A   1      31.931  24.279  26.375  1.00  0.00    -0.331 N 
ATOM     23  H   UNL A   1      31.449  24.716  27.161  1.00  0.00     0.348 HD
BRANCH  22  24
ATOM     24  C   UNL A   1      32.567  23.181  27.113  1.00  0.00     0.299 C 
BRANCH  24  25
ATOM     25  C   UNL A   1      33.705  22.488  26.391  1.00  0.00     0.009 A 
ATOM     26  C   UNL A   1      35.032  22.902  26.578  1.00  0.00     0.011 A 
ATOM     27  C   UNL A   1      33.456  21.366  25.582  1.00  0.00     0.050 A 
ATOM     28  C   UNL A   1      36.090  22.149  26.061  1.00  0.00     0.024 A 
ATOM     29  C   UNL A   1      34.511  20.604  25.095  1.00  0.00     0.142 A 
ATOM     30  C   UNL A   1      35.828  20.980  25.348  1.00  0.00     0.076 A 
ATOM     31  F   UNL A   1      34.235  19.467  24.439  1.00  0.00    -0.205 F 
ATOM     32  Cl  UNL A   1      37.138  19.984  24.843  1.00  0.00    -0.081 Cl
ENDBRANCH  24  25
ENDBRANCH  22  24
ENDBRANCH   9  11
ENDBRANCH   8   9
ENDBRANCH   7   8
ENDBRANCH   6   7
ENDBRANCH   5   6
ENDBRANCH   4   5
ENDBRANCH   3   4
ENDBRANCH   2   3
ENDBRANCH   1   2
BRANCH   1  33
ATOM     33  C   UNL A   1      35.072  32.133  28.860  1.00  0.00     0.188 C 
BRANCH  33  34
ATOM     34  O   UNL A   1      35.584  33.453  28.630  1.00  0.00    -0.376 OA
BRANCH  34  35
ATOM     35  C   UNL A   1      34.672  34.546  28.521  1.00  0.00     0.202 C 
BRANCH  35  36
ATOM     36  C   UNL A   1      33.554  34.548  29.560  1.00  0.00     0.261 C 
BRANCH  36  37
ATOM     37  O   UNL A   1      33.836  35.479  30.613  1.00  0.00    -0.460 OA
BRANCH  37  38
ATOM     38  C   UNL A   1      33.434  35.091  31.843  1.00  0.00     0.338 C 
ATOM     39  O   UNL A   1      32.287  34.936  32.239  1.00  0.00    -0.246 OA
BRANCH  38  40
ATOM     40  C   UNL A   1      34.616  34.708  32.623  1.00  0.00     0.060 A 
ATOM     41  C   UNL A   1      35.840  35.329  32.340  1.00  0.00     0.016 A 
ATOM     42  C   UNL A   1      34.530  33.684  33.568  1.00  0.00     0.016 A 
ATOM     43  C   UNL A   1      37.001  34.879  32.954  1.00  0.00     0.010 A 
ATOM     44  C   UNL A   1      35.696  33.222  34.169  1.00  0.00     0.010 A 
ATOM     45  C   UNL A   1      36.935  33.784  33.820  1.00  0.00    -0.014 A 
BRANCH  45  46
ATOM     46  C   UNL A   1      38.176  33.073  34.181  1.00  0.00     0.031 A 
ATOM     47  C   UNL A   1      38.605  31.919  33.319  1.00  0.00     0.074 A 
ATOM     48  C   UNL A   1      38.893  33.449  35.252  1.00  0.00     0.049 A 
ATOM     49  N   UNL A   1      39.603  31.093  33.480  1.00  0.00    -0.248 NA
ATOM     50  C   UNL A   1      37.790  31.655  32.119  1.00  0.00     0.031 C 
ATOM     51  C   UNL A   1      38.573  34.573  36.130  1.00  0.00     0.029 A 
ATOM     52  N   UNL A   1      40.023  32.900  35.796  1.00  0.00    -0.354 N 
ATOM     53  C   UNL A   1      39.515  30.190  32.425  1.00  0.00     0.074 A 
ATOM     54  C   UNL A   1      38.361  30.561  31.640  1.00  0.00     0.031 C 
ATOM     55  C   UNL A   1      39.473  34.612  37.127  1.00  0.00     0.029 A 
ATOM     56  C   UNL A   1      40.405  33.496  36.971  1.00  0.00     0.049 A 
ATOM     57  H   UNL A   1      40.513  32.152  35.385  1.00  0.00     0.167 HD
ATOM     58  C   UNL A   1      40.334  29.153  32.134  1.00  0.00     0.034 A 
ATOM     59  C   UNL A   1      41.379  33.154  37.836  1.00  0.00     0.034 A 
ATOM     60  C   UNL A   1      41.482  28.804  32.924  1.00  0.00     0.049 A 
ATOM     61  C   UNL A   1      42.249  31.968  37.513  1.00  0.00     0.074 A 
ATOM     62  C   UNL A   1      42.401  27.794  32.709  1.00  0.00     0.029 A 
ATOM     63  N   UNL A   1      41.860  29.449  34.092  1.00  0.00    -0.354 N 
ATOM     64  N   UNL A   1      42.212  31.173  36.470  1.00  0.00    -0.248 NA
ATOM     65  C   UNL A   1      43.316  31.649  38.472  1.00  0.00     0.031 C 
ATOM     66  C   UNL A   1      43.312  27.804  33.769  1.00  0.00     0.029 A 
ATOM     67  C   UNL A   1      42.990  28.851  34.618  1.00  0.00     0.049 A 
ATOM     68  H   UNL A   1      41.392  30.218  34.488  1.00  0.00     0.167 HD
ATOM     69  C   UNL A   1      43.277  30.292  36.621  1.00  0.00     0.074 A 
ATOM     70  C   UNL A   1      43.946  30.660  37.854  1.00  0.00     0.031 C 
ATOM     71  C   UNL A   1      43.666  29.268  35.821  1.00  0.00     0.034 A 
BRANCH  58  72
ATOM     72  C   UNL A   1      40.010  28.329  30.915  1.00  0.00     0.023 A 
ATOM     73  C   UNL A   1      39.009  27.339  30.978  1.00  0.00     0.012 A 
ATOM     74  C   UNL A   1      40.678  28.558  29.695  1.00  0.00     0.148 A 
ATOM     75  C   UNL A   1      38.705  26.562  29.860  1.00  0.00     0.002 A 
ATOM     76  C   UNL A   1      40.334  27.815  28.572  1.00  0.00     0.091 A 
ATOM     77  F   UNL A   1      41.644  29.486  29.661  1.00  0.00    -0.205 F 
ATOM     78  C   UNL A   1      39.360  26.808  28.656  1.00  0.00     0.022 A 
BRANCH  76  79
ATOM     79  S   UNL A   1      41.062  28.109  26.958  1.00  0.00     0.127 S 
ATOM     80  O   UNL A   1      42.465  28.330  27.301  1.00  0.00    -0.237 OA
ATOM     81  O   UNL A   1      40.793  26.846  26.268  1.00  0.00    -0.237 OA
ATOM     82  O   UNL A   1      40.367  29.263  26.405  1.00  0.00    -0.744 OA
ENDBRANCH  76  79
ENDBRANCH  58  72
BRANCH  59  83
ATOM     83  C   UNL A   1      41.599  33.959  39.068  1.00  0.00     0.023 A 
ATOM     84  C   UNL A   1      42.622  34.927  39.091  1.00  0.00     0.012 A 
ATOM     85  C   UNL A   1      40.790  33.787  40.208  1.00  0.00     0.148 A 
ATOM     86  C   UNL A   1      42.859  35.683  40.239  1.00  0.00     0.002 A 
ATOM     87  C   UNL A   1      40.994  34.584  41.329  1.00  0.00     0.091 A 
ATOM     88  F   UNL A   1      39.826  32.856  40.168  1.00  0.00    -0.205 F 
ATOM     89  C   UNL A   1      42.039  35.518  41.353  1.00  0.00     0.022 A 
BRANCH  87  90
ATOM     90  S   UNL A   1      39.907  34.531  42.758  1.00  0.00     0.127 S 
ATOM     91  O   UNL A   1      40.600  35.415  43.692  1.00  0.00    -0.237 OA
ATOM     92  O   UNL A   1      38.662  35.068  42.207  1.00  0.00    -0.237 OA
ATOM     93  O   UNL A   1      39.833  33.131  43.150  1.00  0.00    -0.744 OA
ENDBRANCH  87  90
ENDBRANCH  59  83
BRANCH  71  94
ATOM     94  C   UNL A   1      44.905  28.508  36.215  1.00  0.00     0.023 A 
ATOM     95  C   UNL A   1      46.174  28.943  35.786  1.00  0.00     0.012 A 
ATOM     96  C   UNL A   1      44.810  27.397  37.079  1.00  0.00     0.148 A 
ATOM     97  C   UNL A   1      47.326  28.261  36.178  1.00  0.00     0.002 A 
ATOM     98  C   UNL A   1      45.965  26.760  37.512  1.00  0.00     0.091 A 
ATOM     99  F   UNL A   1      43.592  26.990  37.464  1.00  0.00    -0.205 F 
ATOM    100  C   UNL A   1      47.222  27.180  37.049  1.00  0.00     0.022 A 
BRANCH  98 101
ATOM    101  S   UNL A   1      45.936  25.426  38.713  1.00  0.00     0.127 S 
ATOM    102  O   UNL A   1      45.403  24.320  37.917  1.00  0.00    -0.237 OA
ATOM    103  O   UNL A   1      47.351  25.298  39.066  1.00  0.00    -0.237 OA
ATOM    104  O   UNL A   1      45.079  25.879  39.800  1.00  0.00    -0.744 OA
ENDBRANCH  98 101
ENDBRANCH  71  94
ENDBRANCH  45  46
ENDBRANCH  38  40
ENDBRANCH  37  38
ENDBRANCH  36  37
ENDBRANCH  35  36
ENDBRANCH  34  35
ENDBRANCH  33  34
ENDBRANCH   1  33
TORSDOF 25
ENDMDL
MODEL 2
REMARK VINA RESULT:      -9.5      3.987      6.149
REMARK SMILES CN1C(=O)C[C@H](C(=O)OCCOCCOCCOCCOC(=O)c2ccc(-c3c4nc(c(-c5cccc(S(=O)(=O)[O-])c5F)c5ccc([nH]5)c(-c5cccc(S(=O)(=O)[O-])c5F)c5nc(c(-c6cccc(S(=O)(=O)[O-])c6F)c6ccc3[nH]6)C=C5)C=C4)cc2)C12CC[NH+](Cc1ccc(Cl)c(F)c1)CC2
REMARK SMILES IDX 16 1 15 2 14 3 13 4 12 5 11 6 10 7 9 8 7 9 8 10 6 11 1 12
REMARK SMILES IDX 2 13 3 14 87 15 4 16 5 17 88 18 101 19 89 20 100 21 90 22
REMARK SMILES IDX 91 24 92 25 93 26 99 27 94 28 97 29 95 30 98 31 96 32 17 33
REMARK SMILES IDX 18 34 19 35 20 36 21 37 22 38 23 39 24 40 25 41 86 42 26 43
REMARK SMILES IDX 85 44 27 45 28 46 29 47 79 48 30 49 84 50 78 51 80 52 31 53
REMARK SMILES IDX 83 54 77 55 76 56 32 58 64 59 44 60 63 61 45 62 48 63 62 64
REMARK SMILES IDX 81 65 46 66 47 67 61 69 82 70 49 71 33 72 34 73 42 74 35 75
REMARK SMILES IDX 37 76 43 77 36 78 38 79 39 80 40 81 41 82 65 83 66 84 74 85
REMARK SMILES IDX 67 86 69 87 75 88 68 89 70 90 71 91 72 92 73 93 50 94 51 95
REMARK SMILES IDX 59 96 52 97 54 98 60 99 53 100 55 101 56 102 57 103 58 104
REMARK H PARENT 90 23 80 57 48 68
REMARK Flexibility Score: inf
ROOT
ATOM      1  C   UNL A   1      35.180  31.775  28.934  1.00  0.00     0.188 C 
ENDROOT
BRANCH   1   2
ATOM      2  O   UNL A   1      34.615  31.800  27.627  1.00  0.00    -0.377 OA
BRANCH   2   3
ATOM      3  C   UNL A   1      33.279  31.368  27.433  1.00  0.00     0.188 C 
BRANCH   3   4
ATOM      4  C   UNL A   1      33.191  29.855  27.196  1.00  0.00     0.188 C 
BRANCH   4   5
ATOM      5  O   UNL A   1      31.915  29.347  26.812  1.00  0.00    -0.376 OA
BRANCH   5   6
ATOM      6  C   UNL A   1      31.486  29.620  25.471  1.00  0.00     0.202 C 
BRANCH   6   7
ATOM      7  C   UNL A   1      31.967  28.661  24.365  1.00  0.00     0.261 C 
BRANCH   7   8
ATOM      8  O   UNL A   1      30.910  28.188  23.490  1.00  0.00    -0.463 OA
BRANCH   8   9
ATOM      9  C   UNL A   1      30.378  26.976  23.744  1.00  0.00     0.311 C 
ATOM     10  O   UNL A   1      29.404  26.797  24.470  1.00  0.00    -0.252 OA
BRANCH   9  11
ATOM     11  C   UNL A   1      30.969  25.825  22.946  1.00  0.00     0.134 C 
ATOM     12  C   UNL A   1      33.585  23.233  22.145  1.00  0.00     0.147 C 
ATOM     13  N   UNL A   1      32.651  24.345  22.251  1.00  0.00    -0.339 N 
ATOM     14  C   UNL A   1      32.556  25.282  21.237  1.00  0.00     0.223 C 
ATOM     15  C   UNL A   1      31.933  24.734  23.505  1.00  0.00     0.067 C 
ATOM     16  O   UNL A   1      33.150  25.273  20.170  1.00  0.00    -0.275 OA
ATOM     17  C   UNL A   1      31.620  26.363  21.670  1.00  0.00     0.118 C 
ATOM     18  C   UNL A   1      31.119  23.544  24.060  1.00  0.00     0.091 C 
ATOM     19  C   UNL A   1      32.985  25.145  24.551  1.00  0.00     0.091 C 
ATOM     20  C   UNL A   1      30.613  23.786  25.479  1.00  0.00     0.265 C 
ATOM     21  C   UNL A   1      32.518  25.226  26.010  1.00  0.00     0.265 C 
ATOM     22  N   UNL A   1      31.658  24.132  26.427  1.00  0.00    -0.331 N 
ATOM     23  H   UNL A   1      31.119  24.542  27.189  1.00  0.00     0.348 HD
BRANCH  22  24
ATOM     24  C   UNL A   1      32.285  23.042  27.186  1.00  0.00     0.299 C 
BRANCH  24  25
ATOM     25  C   UNL A   1      33.566  22.491  26.594  1.00  0.00     0.009 A 
ATOM     26  C   UNL A   1      33.537  21.408  25.704  1.00  0.00     0.011 A 
ATOM     27  C   UNL A   1      34.798  23.109  26.866  1.00  0.00     0.050 A 
ATOM     28  C   UNL A   1      34.693  21.022  25.018  1.00  0.00     0.024 A 
ATOM     29  C   UNL A   1      35.938  22.742  26.160  1.00  0.00     0.142 A 
ATOM     30  C   UNL A   1      35.886  21.714  25.223  1.00  0.00     0.076 A 
ATOM     31  F   UNL A   1      37.066  23.442  26.351  1.00  0.00    -0.205 F 
ATOM     32  Cl  UNL A   1      37.264  21.327  24.267  1.00  0.00    -0.081 Cl
ENDBRANCH  24  25
ENDBRANCH  22  24
ENDBRANCH   9  11
ENDBRANCH   8   9
ENDBRANCH   7   8
ENDBRANCH   6   7
ENDBRANCH   5   6
ENDBRANCH   4   5
ENDBRANCH   3   4
ENDBRANCH   2   3
ENDBRANCH   1   2
BRANCH   1  33
ATOM     33  C   UNL A   1      34.731  32.895  29.871  1.00  0.00     0.188 C 
BRANCH  33  34
ATOM     34  O   UNL A   1      35.479  33.071  31.082  1.00  0.00    -0.376 OA
BRANCH  34  35
ATOM     35  C   UNL A   1      35.314  32.133  32.146  1.00  0.00     0.202 C 
BRANCH  35  36
ATOM     36  C   UNL A   1      36.564  31.326  32.483  1.00  0.00     0.261 C 
BRANCH  36  37
ATOM     37  O   UNL A   1      36.353  29.929  32.239  1.00  0.00    -0.460 OA
BRANCH  37  38
ATOM     38  C   UNL A   1      37.102  29.402  31.247  1.00  0.00     0.338 C 
ATOM     39  O   UNL A   1      36.768  29.189  30.090  1.00  0.00    -0.246 OA
BRANCH  38  40
ATOM     40  C   UNL A   1      38.483  29.264  31.727  1.00  0.00     0.060 A 
ATOM     41  C   UNL A   1      39.429  30.223  31.339  1.00  0.00     0.016 A 
ATOM     42  C   UNL A   1      38.853  28.151  32.483  1.00  0.00     0.016 A 
ATOM     43  C   UNL A   1      40.769  30.034  31.650  1.00  0.00     0.010 A 
ATOM     44  C   UNL A   1      40.198  27.954  32.779  1.00  0.00     0.010 A 
ATOM     45  C   UNL A   1      41.159  28.868  32.315  1.00  0.00    -0.014 A 
BRANCH  45  46
ATOM     46  C   UNL A   1      42.583  28.482  32.322  1.00  0.00     0.031 A 
ATOM     47  C   UNL A   1      43.145  27.835  31.088  1.00  0.00     0.074 A 
ATOM     48  C   UNL A   1      43.345  28.702  33.404  1.00  0.00     0.049 A 
ATOM     49  N   UNL A   1      44.333  27.335  30.884  1.00  0.00    -0.248 NA
ATOM     50  C   UNL A   1      42.239  27.727  29.930  1.00  0.00     0.031 C 
ATOM     51  C   UNL A   1      42.898  29.350  34.635  1.00  0.00     0.029 A 
ATOM     52  N   UNL A   1      44.652  28.373  33.646  1.00  0.00    -0.354 N 
ATOM     53  C   UNL A   1      44.307  26.821  29.592  1.00  0.00     0.074 A 
ATOM     54  C   UNL A   1      42.983  27.057  29.064  1.00  0.00     0.031 C 
ATOM     55  C   UNL A   1      43.909  29.342  35.520  1.00  0.00     0.029 A 
ATOM     56  C   UNL A   1      45.057  28.660  34.925  1.00  0.00     0.049 A 
ATOM     57  H   UNL A   1      45.243  27.970  32.969  1.00  0.00     0.167 HD
ATOM     58  C   UNL A   1      45.305  26.217  28.905  1.00  0.00     0.034 A 
ATOM     59  C   UNL A   1      46.215  28.371  35.550  1.00  0.00     0.034 A 
ATOM     60  C   UNL A   1      46.618  25.997  29.445  1.00  0.00     0.049 A 
ATOM     61  C   UNL A   1      47.295  27.658  34.778  1.00  0.00     0.074 A 
ATOM     62  C   UNL A   1      47.717  25.425  28.831  1.00  0.00     0.029 A 
ATOM     63  N   UNL A   1      47.005  26.329  30.734  1.00  0.00    -0.354 N 
ATOM     64  N   UNL A   1      47.291  27.253  33.530  1.00  0.00    -0.248 NA
ATOM     65  C   UNL A   1      48.551  27.389  35.492  1.00  0.00     0.031 C 
ATOM     66  C   UNL A   1      48.757  25.375  29.764  1.00  0.00     0.029 A 
ATOM     67  C   UNL A   1      48.322  25.962  30.943  1.00  0.00     0.049 A 
ATOM     68  H   UNL A   1      46.428  26.763  31.403  1.00  0.00     0.167 HD
ATOM     69  C   UNL A   1      48.556  26.726  33.294  1.00  0.00     0.074 A 
ATOM     70  C   UNL A   1      49.302  26.875  34.529  1.00  0.00     0.031 C 
ATOM     71  C   UNL A   1      49.057  26.166  32.165  1.00  0.00     0.034 A 
BRANCH  58  72
ATOM     72  C   UNL A   1      45.006  25.756  27.502  1.00  0.00     0.023 A 
ATOM     73  C   UNL A   1      45.206  26.629  26.415  1.00  0.00     0.012 A 
ATOM     74  C   UNL A   1      44.557  24.443  27.258  1.00  0.00     0.148 A 
ATOM     75  C   UNL A   1      44.925  26.219  25.112  1.00  0.00     0.002 A 
ATOM     76  C   UNL A   1      44.328  24.025  25.953  1.00  0.00     0.091 A 
ATOM     77  F   UNL A   1      44.349  23.634  28.307  1.00  0.00    -0.205 F 
ATOM     78  C   UNL A   1      44.496  24.915  24.881  1.00  0.00     0.022 A 
BRANCH  76  79
ATOM     79  S   UNL A   1      43.851  22.342  25.545  1.00  0.00     0.127 S 
ATOM     80  O   UNL A   1      42.751  22.112  26.479  1.00  0.00    -0.237 OA
ATOM     81  O   UNL A   1      43.446  22.472  24.145  1.00  0.00    -0.237 OA
ATOM     82  O   UNL A   1      45.035  21.523  25.763  1.00  0.00    -0.744 OA
ENDBRANCH  76  79
ENDBRANCH  58  72
BRANCH  59  83
ATOM     83  C   UNL A   1      46.422  28.781  36.965  1.00  0.00     0.023 A 
ATOM     84  C   UNL A   1      46.855  30.090  37.252  1.00  0.00     0.012 A 
ATOM     85  C   UNL A   1      46.172  27.891  38.027  1.00  0.00     0.148 A 
ATOM     86  C   UNL A   1      47.072  30.493  38.569  1.00  0.00     0.002 A 
ATOM     87  C   UNL A   1      46.334  28.317  39.340  1.00  0.00     0.091 A 
ATOM     88  F   UNL A   1      45.765  26.648  37.732  1.00  0.00    -0.205 F 
ATOM     89  C   UNL A   1      46.802  29.611  39.613  1.00  0.00     0.022 A 
BRANCH  87  90
ATOM     90  S   UNL A   1      45.887  27.294  40.747  1.00  0.00     0.127 S 
ATOM     91  O   UNL A   1      44.437  27.191  40.593  1.00  0.00    -0.237 OA
ATOM     92  O   UNL A   1      46.627  26.063  40.469  1.00  0.00    -0.237 OA
ATOM     93  O   UNL A   1      46.346  28.016  41.926  1.00  0.00    -0.744 OA
ENDBRANCH  87  90
ENDBRANCH  59  83
BRANCH  71  94
ATOM     94  C   UNL A   1      50.497  25.724  32.186  1.00  0.00     0.023 A 
ATOM     95  C   UNL A   1      51.529  26.652  31.947  1.00  0.00     0.012 A 
ATOM     96  C   UNL A   1      50.825  24.394  32.520  1.00  0.00     0.148 A 
ATOM     97  C   UNL A   1      52.865  26.254  32.001  1.00  0.00     0.002 A 
ATOM     98  C   UNL A   1      52.158  24.020  32.628  1.00  0.00     0.091 A 
ATOM     99  F   UNL A   1      49.827  23.523  32.730  1.00  0.00    -0.205 F 
ATOM    100  C   UNL A   1      53.178  24.944  32.353  1.00  0.00     0.022 A 
BRANCH  98 101
ATOM    101  S   UNL A   1      52.657  22.385  33.177  1.00  0.00     0.127 S 
ATOM    102  O   UNL A   1      52.091  21.534  32.130  1.00  0.00    -0.237 OA
ATOM    103  O   UNL A   1      54.117  22.486  33.158  1.00  0.00    -0.237 OA
ATOM    104  O   UNL A   1      52.078  22.208  34.502  1.00  0.00    -0.744 OA
ENDBRANCH  98 101
ENDBRANCH  71  94
ENDBRANCH  45  46
ENDBRANCH  38  40
ENDBRANCH  37  38
ENDBRANCH  36  37
ENDBRANCH  35  36
ENDBRANCH  34  35
ENDBRANCH  33  34
ENDBRANCH   1  33
TORSDOF 25
ENDMDL
MODEL 3
REMARK VINA RESULT:      -8.9      6.188      8.340
REMARK SMILES CN1C(=O)C[C@H](C(=O)OCCOCCOCCOCCOC(=O)c2ccc(-c3c4nc(c(-c5cccc(S(=O)(=O)[O-])c5F)c5ccc([nH]5)c(-c5cccc(S(=O)(=O)[O-])c5F)c5nc(c(-c6cccc(S(=O)(=O)[O-])c6F)c6ccc3[nH]6)C=C5)C=C4)cc2)C12CC[NH+](Cc1ccc(Cl)c(F)c1)CC2
REMARK SMILES IDX 16 1 15 2 14 3 13 4 12 5 11 6 10 7 9 8 7 9 8 10 6 11 1 12
REMARK SMILES IDX 2 13 3 14 87 15 4 16 5 17 88 18 101 19 89 20 100 21 90 22
REMARK SMILES IDX 91 24 92 25 93 26 99 27 94 28 97 29 95 30 98 31 96 32 17 33
REMARK SMILES IDX 18 34 19 35 20 36 21 37 22 38 23 39 24 40 25 41 86 42 26 43
REMARK SMILES IDX 85 44 27 45 28 46 29 47 79 48 30 49 84 50 78 51 80 52 31 53
REMARK SMILES IDX 83 54 77 55 76 56 32 58 64 59 44 60 63 61 45 62 48 63 62 64
REMARK SMILES IDX 81 65 46 66 47 67 61 69 82 70 49 71 33 72 34 73 42 74 35 75
REMARK SMILES IDX 37 76 43 77 36 78 38 79 39 80 40 81 41 82 65 83 66 84 74 85
REMARK SMILES IDX 67 86 69 87 75 88 68 89 70 90 71 91 72 92 73 93 50 94 51 95
REMARK SMILES IDX 59 96 52 97 54 98 60 99 53 100 55 101 56 102 57 103 58 104
REMARK H PARENT 90 23 80 57 48 68
REMARK Flexibility Score: inf
ROOT
ATOM      1  C   UNL A   1      35.826  30.605  28.845  1.00  0.00     0.188 C 
ENDROOT
BRANCH   1   2
ATOM      2  O   UNL A   1      35.110  29.884  27.848  1.00  0.00    -0.377 OA
BRANCH   2   3
ATOM      3  C   UNL A   1      34.090  30.536  27.108  1.00  0.00     0.188 C 
BRANCH   3   4
ATOM      4  C   UNL A   1      32.739  29.822  27.237  1.00  0.00     0.188 C 
BRANCH   4   5
ATOM      5  O   UNL A   1      31.634  30.435  26.575  1.00  0.00    -0.376 OA
BRANCH   5   6
ATOM      6  C   UNL A   1      31.371  30.014  25.230  1.00  0.00     0.202 C 
BRANCH   6   7
ATOM      7  C   UNL A   1      31.720  28.559  24.861  1.00  0.00     0.261 C 
BRANCH   7   8
ATOM      8  O   UNL A   1      31.029  28.063  23.685  1.00  0.00    -0.463 OA
BRANCH   8   9
ATOM      9  C   UNL A   1      30.385  26.884  23.784  1.00  0.00     0.311 C 
ATOM     10  O   UNL A   1      29.312  26.740  24.363  1.00  0.00    -0.252 OA
BRANCH   9  11
ATOM     11  C   UNL A   1      30.997  25.739  22.994  1.00  0.00     0.134 C 
ATOM     12  C   UNL A   1      33.659  23.189  22.210  1.00  0.00     0.147 C 
ATOM     13  N   UNL A   1      32.705  24.284  22.309  1.00  0.00    -0.339 N 
ATOM     14  C   UNL A   1      32.595  25.213  21.289  1.00  0.00     0.223 C 
ATOM     15  C   UNL A   1      31.979  24.669  23.560  1.00  0.00     0.067 C 
ATOM     16  O   UNL A   1      33.190  25.209  20.223  1.00  0.00    -0.275 OA
ATOM     17  C   UNL A   1      31.640  26.281  21.715  1.00  0.00     0.118 C 
ATOM     18  C   UNL A   1      31.186  23.468  24.121  1.00  0.00     0.091 C 
ATOM     19  C   UNL A   1      33.023  25.105  24.605  1.00  0.00     0.091 C 
ATOM     20  C   UNL A   1      30.674  23.710  25.538  1.00  0.00     0.265 C 
ATOM     21  C   UNL A   1      32.553  25.186  26.062  1.00  0.00     0.265 C 
ATOM     22  N   UNL A   1      31.712  24.079  26.485  1.00  0.00    -0.331 N 
ATOM     23  H   UNL A   1      31.164  24.484  27.244  1.00  0.00     0.348 HD
BRANCH  22  24
ATOM     24  C   UNL A   1      32.357  23.005  27.252  1.00  0.00     0.299 C 
BRANCH  24  25
ATOM     25  C   UNL A   1      33.610  22.425  26.628  1.00  0.00     0.009 A 
ATOM     26  C   UNL A   1      33.532  21.362  25.717  1.00  0.00     0.011 A 
ATOM     27  C   UNL A   1      34.866  22.997  26.893  1.00  0.00     0.050 A 
ATOM     28  C   UNL A   1      34.664  20.952  25.005  1.00  0.00     0.024 A 
ATOM     29  C   UNL A   1      35.982  22.607  26.162  1.00  0.00     0.142 A 
ATOM     30  C   UNL A   1      35.882  21.601  25.205  1.00  0.00     0.076 A 
ATOM     31  F   UNL A   1      37.136  23.265  26.349  1.00  0.00    -0.205 F 
ATOM     32  Cl  UNL A   1      37.232  21.189  24.220  1.00  0.00    -0.081 Cl
ENDBRANCH  24  25
ENDBRANCH  22  24
ENDBRANCH   9  11
ENDBRANCH   8   9
ENDBRANCH   7   8
ENDBRANCH   6   7
ENDBRANCH   5   6
ENDBRANCH   4   5
ENDBRANCH   3   4
ENDBRANCH   2   3
ENDBRANCH   1   2
BRANCH   1  33
ATOM     33  C   UNL A   1      35.188  31.917  29.299  1.00  0.00     0.188 C 
BRANCH  33  34
ATOM     34  O   UNL A   1      35.982  32.775  30.131  1.00  0.00    -0.376 OA
BRANCH  34  35
ATOM     35  C   UNL A   1      35.745  32.794  31.539  1.00  0.00     0.202 C 
BRANCH  35  36
ATOM     36  C   UNL A   1      36.989  33.026  32.391  1.00  0.00     0.261 C 
BRANCH  36  37
ATOM     37  O   UNL A   1      37.311  31.858  33.157  1.00  0.00    -0.460 OA
BRANCH  37  38
ATOM     38  C   UNL A   1      37.590  30.756  32.430  1.00  0.00     0.338 C 
ATOM     39  O   UNL A   1      36.849  29.814  32.186  1.00  0.00    -0.246 OA
BRANCH  38  40
ATOM     40  C   UNL A   1      38.910  30.926  31.809  1.00  0.00     0.060 A 
ATOM     41  C   UNL A   1      38.987  31.050  30.415  1.00  0.00     0.016 A 
ATOM     42  C   UNL A   1      40.063  30.879  32.594  1.00  0.00     0.016 A 
ATOM     43  C   UNL A   1      40.227  31.058  29.791  1.00  0.00     0.010 A 
ATOM     44  C   UNL A   1      41.305  30.870  31.967  1.00  0.00     0.010 A 
ATOM     45  C   UNL A   1      41.382  30.904  30.564  1.00  0.00    -0.014 A 
BRANCH  45  46
ATOM     46  C   UNL A   1      42.651  30.543  29.903  1.00  0.00     0.031 A 
ATOM     47  C   UNL A   1      42.883  29.098  29.563  1.00  0.00     0.074 A 
ATOM     48  C   UNL A   1      43.567  31.482  29.622  1.00  0.00     0.049 A 
ATOM     49  N   UNL A   1      43.944  28.526  29.063  1.00  0.00    -0.248 NA
ATOM     50  C   UNL A   1      41.771  28.170  29.837  1.00  0.00     0.031 C 
ATOM     51  C   UNL A   1      43.419  32.912  29.886  1.00  0.00     0.029 A 
ATOM     52  N   UNL A   1      44.817  31.363  29.078  1.00  0.00    -0.354 N 
ATOM     53  C   UNL A   1      43.643  27.170  28.994  1.00  0.00     0.074 A 
ATOM     54  C   UNL A   1      42.307  27.002  29.518  1.00  0.00     0.031 C 
ATOM     55  C   UNL A   1      44.554  33.537  29.531  1.00  0.00     0.029 A 
ATOM     56  C   UNL A   1      45.513  32.545  29.050  1.00  0.00     0.049 A 
ATOM     57  H   UNL A   1      45.181  30.512  28.740  1.00  0.00     0.167 HD
ATOM     58  C   UNL A   1      44.410  26.159  28.526  1.00  0.00     0.034 A 
ATOM     59  C   UNL A   1      46.792  32.786  28.704  1.00  0.00     0.034 A 
ATOM     60  C   UNL A   1      45.736  26.347  28.003  1.00  0.00     0.049 A 
ATOM     61  C   UNL A   1      47.642  31.636  28.227  1.00  0.00     0.074 A 
ATOM     62  C   UNL A   1      46.594  25.402  27.472  1.00  0.00     0.029 A 
ATOM     63  N   UNL A   1      46.400  27.564  27.959  1.00  0.00    -0.354 N 
ATOM     64  N   UNL A   1      47.320  30.372  28.086  1.00  0.00    -0.248 NA
ATOM     65  C   UNL A   1      49.022  31.951  27.834  1.00  0.00     0.031 C 
ATOM     66  C   UNL A   1      47.793  26.042  27.144  1.00  0.00     0.029 A 
ATOM     67  C   UNL A   1      47.663  27.394  27.423  1.00  0.00     0.049 A 
ATOM     68  H   UNL A   1      46.027  28.421  28.265  1.00  0.00     0.167 HD
ATOM     69  C   UNL A   1      48.439  29.750  27.542  1.00  0.00     0.074 A 
ATOM     70  C   UNL A   1      49.443  30.783  27.371  1.00  0.00     0.031 C 
ATOM     71  C   UNL A   1      48.626  28.447  27.218  1.00  0.00     0.034 A 
BRANCH  58  72
ATOM     72  C   UNL A   1      43.831  24.769  28.562  1.00  0.00     0.023 A 
ATOM     73  C   UNL A   1      43.876  24.017  29.753  1.00  0.00     0.012 A 
ATOM     74  C   UNL A   1      43.214  24.218  27.422  1.00  0.00     0.148 A 
ATOM     75  C   UNL A   1      43.353  22.725  29.799  1.00  0.00     0.002 A 
ATOM     76  C   UNL A   1      42.649  22.950  27.489  1.00  0.00     0.091 A 
ATOM     77  F   UNL A   1      43.202  24.938  26.291  1.00  0.00    -0.205 F 
ATOM     78  C   UNL A   1      42.731  22.196  28.671  1.00  0.00     0.022 A 
BRANCH  76  79
ATOM     79  S   UNL A   1      41.756  22.214  26.117  1.00  0.00     0.127 S 
ATOM     80  O   UNL A   1      42.620  22.551  24.987  1.00  0.00    -0.237 OA
ATOM     81  O   UNL A   1      41.753  20.796  26.481  1.00  0.00    -0.237 OA
ATOM     82  O   UNL A   1      40.442  22.842  26.106  1.00  0.00    -0.744 OA
ENDBRANCH  76  79
ENDBRANCH  58  72
BRANCH  59  83
ATOM     83  C   UNL A   1      47.334  34.170  28.766  1.00  0.00     0.023 A 
ATOM     84  C   UNL A   1      47.953  34.621  29.947  1.00  0.00     0.012 A 
ATOM     85  C   UNL A   1      47.258  35.035  27.656  1.00  0.00     0.148 A 
ATOM     86  C   UNL A   1      48.454  35.920  30.035  1.00  0.00     0.002 A 
ATOM     87  C   UNL A   1      47.811  36.308  27.731  1.00  0.00     0.091 A 
ATOM     88  F   UNL A   1      46.659  34.588  26.543  1.00  0.00    -0.205 F 
ATOM     89  C   UNL A   1      48.392  36.759  28.926  1.00  0.00     0.022 A 
BRANCH  87  90
ATOM     90  S   UNL A   1      47.892  37.407  26.314  1.00  0.00     0.127 S 
ATOM     91  O   UNL A   1      48.775  36.669  25.413  1.00  0.00    -0.237 OA
ATOM     92  O   UNL A   1      46.491  37.463  25.897  1.00  0.00    -0.237 OA
ATOM     93  O   UNL A   1      48.417  38.668  26.818  1.00  0.00    -0.744 OA
ENDBRANCH  87  90
ENDBRANCH  59  83
BRANCH  71  94
ATOM     94  C   UNL A   1      49.941  28.066  26.590  1.00  0.00     0.023 A 
ATOM     95  C   UNL A   1      50.113  28.148  25.194  1.00  0.00     0.012 A 
ATOM     96  C   UNL A   1      51.033  27.697  27.401  1.00  0.00     0.148 A 
ATOM     97  C   UNL A   1      51.340  27.831  24.612  1.00  0.00     0.002 A 
ATOM     98  C   UNL A   1      52.267  27.439  26.819  1.00  0.00     0.091 A 
ATOM     99  F   UNL A   1      50.845  27.611  28.726  1.00  0.00    -0.205 F 
ATOM    100  C   UNL A   1      52.418  27.489  25.424  1.00  0.00     0.022 A 
BRANCH  98 101
ATOM    101  S   UNL A   1      53.736  27.092  27.791  1.00  0.00     0.127 S 
ATOM    102  O   UNL A   1      54.083  25.746  27.338  1.00  0.00    -0.237 OA
ATOM    103  O   UNL A   1      54.655  28.142  27.347  1.00  0.00    -0.237 OA
ATOM    104  O   UNL A   1      53.331  27.193  29.187  1.00  0.00    -0.744 OA
ENDBRANCH  98 101
ENDBRANCH  71  94
ENDBRANCH  45  46
ENDBRANCH  38  40
ENDBRANCH  37  38
ENDBRANCH  36  37
ENDBRANCH  35  36
ENDBRANCH  34  35
ENDBRANCH  33  34
ENDBRANCH   1  33
TORSDOF 25
ENDMDL
