MODEL 1
REMARK VINA RESULT:     -10.8      0.000      0.000
REMARK SMILES COc1cc2c(CC(=O)OCCOCCOCCOCCOC(=O)c3ccc(-c4c5nc(c(-c6cccc(S(=O)(=O)[O-])c6F)c6ccc([nH]6)c(-c6cccc(S(=O)(=O)[O-])c6F)c6nc(c(-c7cccc(S(=O)(=O)[O-])c7F)c7ccc4[nH]7)C=C6)C=C5)cc3)c(C)n(C(=O)c3ccc(Cl)cc3)c2cc1Cl
REMARK SMILES IDX 16 1 15 2 14 3 13 4 12 5 11 6 10 7 8 8 9 9 7 10 6 11 3 12
REMARK SMILES IDX 4 13 102 14 5 15 101 16 103 17 100 18 88 19 90 20 89 21 2 22
REMARK SMILES IDX 1 23 91 24 92 25 93 26 94 27 99 28 95 29 98 30 96 31 97 32
REMARK SMILES IDX 17 33 18 34 19 35 20 36 21 37 22 38 23 39 24 40 25 41 26 42
REMARK SMILES IDX 87 43 27 44 86 45 28 46 29 47 30 48 80 49 31 50 85 51 79 52
REMARK SMILES IDX 81 53 32 54 84 55 78 56 77 57 33 59 65 60 45 61 64 62 46 63
REMARK SMILES IDX 49 64 63 65 82 66 47 67 48 68 62 70 83 71 50 72 34 73 35 74
REMARK SMILES IDX 43 75 36 76 38 77 44 78 37 79 39 80 40 81 41 82 42 83 66 84
REMARK SMILES IDX 67 85 75 86 68 87 70 88 76 89 69 90 71 91 72 92 73 93 74 94
REMARK SMILES IDX 51 95 52 96 60 97 53 98 55 99 61 100 54 101 56 102 57 103
REMARK SMILES IDX 58 104 59 105
REMARK H PARENT 81 58 49 69
REMARK Flexibility Score: inf
ROOT
ATOM      1  O   UNL A   1      33.704  25.822  22.547  1.00  0.00    -0.377 OA
ENDROOT
BRANCH   1   2
ATOM      2  C   UNL A   1      32.800  24.768  22.313  1.00  0.00     0.188 C 
BRANCH   2   3
ATOM      3  C   UNL A   1      33.203  23.401  21.774  1.00  0.00     0.188 C 
BRANCH   3   4
ATOM      4  O   UNL A   1      33.061  22.351  22.707  1.00  0.00    -0.376 OA
BRANCH   4   5
ATOM      5  C   UNL A   1      32.006  21.426  22.513  1.00  0.00     0.202 C 
BRANCH   5   6
ATOM      6  C   UNL A   1      32.286  19.919  22.699  1.00  0.00     0.261 C 
BRANCH   6   7
ATOM      7  O   UNL A   1      31.758  19.267  23.877  1.00  0.00    -0.463 OA
BRANCH   7   8
ATOM      8  C   UNL A   1      32.605  18.515  24.617  1.00  0.00     0.310 C 
ATOM      9  O   UNL A   1      32.937  17.374  24.301  1.00  0.00    -0.252 OA
BRANCH   8  10
ATOM     10  C   UNL A   1      33.207  19.193  25.849  1.00  0.00     0.160 C 
BRANCH  10  11
ATOM     11  C   UNL A   1      33.891  20.553  25.764  1.00  0.00    -0.008 A 
ATOM     12  C   UNL A   1      31.666  23.588  26.685  1.00  0.00     0.138 A 
ATOM     13  C   UNL A   1      31.972  22.252  26.351  1.00  0.00     0.058 A 
ATOM     14  C   UNL A   1      32.656  24.547  26.519  1.00  0.00     0.085 A 
ATOM     15  C   UNL A   1      33.282  21.834  25.986  1.00  0.00     0.008 A 
ATOM     16  C   UNL A   1      33.929  24.171  26.063  1.00  0.00     0.051 A 
ATOM     17  Cl  UNL A   1      32.457  26.250  26.769  1.00  0.00    -0.080 Cl
ATOM     18  C   UNL A   1      34.260  22.816  25.822  1.00  0.00     0.058 A 
ATOM     19  C   UNL A   1      35.191  20.808  25.333  1.00  0.00     0.028 A 
ATOM     20  N   UNL A   1      35.443  22.193  25.384  1.00  0.00    -0.280 N 
ATOM     21  C   UNL A   1      36.182  19.773  24.894  1.00  0.00     0.065 C 
BRANCH  12  22
ATOM     22  O   UNL A   1      30.379  23.734  27.128  1.00  0.00    -0.495 OA
ATOM     23  C   UNL A   1      29.478  22.638  27.033  1.00  0.00     0.278 C 
ENDBRANCH  12  22
BRANCH  20  24
ATOM     24  C   UNL A   1      36.651  22.869  25.016  1.00  0.00     0.262 C 
ATOM     25  O   UNL A   1      36.766  23.345  23.890  1.00  0.00    -0.268 OA
BRANCH  24  26
ATOM     26  C   UNL A   1      37.796  23.110  25.914  1.00  0.00     0.040 A 
ATOM     27  C   UNL A   1      37.975  24.366  26.505  1.00  0.00     0.015 A 
ATOM     28  C   UNL A   1      38.725  22.082  26.122  1.00  0.00     0.015 A 
ATOM     29  C   UNL A   1      39.132  24.613  27.253  1.00  0.00     0.021 A 
ATOM     30  C   UNL A   1      39.876  22.335  26.873  1.00  0.00     0.021 A 
ATOM     31  C   UNL A   1      40.080  23.602  27.422  1.00  0.00     0.041 A 
ATOM     32  Cl  UNL A   1      41.528  23.925  28.295  1.00  0.00    -0.084 Cl
ENDBRANCH  24  26
ENDBRANCH  20  24
ENDBRANCH  10  11
ENDBRANCH   8  10
ENDBRANCH   7   8
ENDBRANCH   6   7
ENDBRANCH   5   6
ENDBRANCH   4   5
ENDBRANCH   3   4
ENDBRANCH   2   3
ENDBRANCH   1   2
BRANCH   1  33
ATOM     33  C   UNL A   1      33.200  27.120  22.739  1.00  0.00     0.188 C 
BRANCH  33  34
ATOM     34  C   UNL A   1      33.807  27.897  23.915  1.00  0.00     0.188 C 
BRANCH  34  35
ATOM     35  O   UNL A   1      33.204  29.089  24.422  1.00  0.00    -0.376 OA
BRANCH  35  36
ATOM     36  C   UNL A   1      32.963  29.248  25.808  1.00  0.00     0.202 C 
BRANCH  36  37
ATOM     37  C   UNL A   1      33.550  30.468  26.540  1.00  0.00     0.261 C 
BRANCH  37  38
ATOM     38  O   UNL A   1      34.703  30.177  27.327  1.00  0.00    -0.460 OA
BRANCH  38  39
ATOM     39  C   UNL A   1      35.433  31.231  27.798  1.00  0.00     0.338 C 
ATOM     40  O   UNL A   1      35.061  32.348  28.006  1.00  0.00    -0.246 OA
BRANCH  39  41
ATOM     41  C   UNL A   1      36.704  30.627  28.281  1.00  0.00     0.060 A 
ATOM     42  C   UNL A   1      37.649  31.403  28.959  1.00  0.00     0.016 A 
ATOM     43  C   UNL A   1      37.051  29.380  27.742  1.00  0.00     0.016 A 
ATOM     44  C   UNL A   1      38.978  30.996  28.946  1.00  0.00     0.010 A 
ATOM     45  C   UNL A   1      38.387  28.978  27.733  1.00  0.00     0.010 A 
ATOM     46  C   UNL A   1      39.360  29.811  28.287  1.00  0.00    -0.014 A 
BRANCH  46  47
ATOM     47  C   UNL A   1      40.756  29.384  28.449  1.00  0.00     0.031 A 
ATOM     48  C   UNL A   1      41.061  29.037  29.864  1.00  0.00     0.074 A 
ATOM     49  C   UNL A   1      41.688  29.119  27.511  1.00  0.00     0.049 A 
ATOM     50  N   UNL A   1      41.876  29.626  30.678  1.00  0.00    -0.248 NA
ATOM     51  C   UNL A   1      40.226  27.991  30.472  1.00  0.00     0.031 C 
ATOM     52  C   UNL A   1      41.529  29.050  26.059  1.00  0.00     0.029 A 
ATOM     53  N   UNL A   1      42.987  28.719  27.700  1.00  0.00    -0.354 N 
ATOM     54  C   UNL A   1      41.790  28.895  31.857  1.00  0.00     0.074 A 
ATOM     55  C   UNL A   1      40.653  28.018  31.732  1.00  0.00     0.031 C 
ATOM     56  C   UNL A   1      42.597  28.403  25.531  1.00  0.00     0.029 A 
ATOM     57  C   UNL A   1      43.561  28.120  26.583  1.00  0.00     0.049 A 
ATOM     58  H   UNL A   1      43.468  28.845  28.550  1.00  0.00     0.167 HD
ATOM     59  C   UNL A   1      42.776  28.876  32.790  1.00  0.00     0.034 A 
ATOM     60  C   UNL A   1      44.695  27.375  26.564  1.00  0.00     0.034 A 
ATOM     61  C   UNL A   1      43.746  29.914  32.619  1.00  0.00     0.049 A 
ATOM     62  C   UNL A   1      45.466  27.700  27.789  1.00  0.00     0.074 A 
ATOM     63  C   UNL A   1      43.730  31.292  32.608  1.00  0.00     0.029 A 
ATOM     64  N   UNL A   1      44.962  29.539  32.108  1.00  0.00    -0.354 N 
ATOM     65  N   UNL A   1      46.071  28.833  28.007  1.00  0.00    -0.248 NA
ATOM     66  C   UNL A   1      45.355  26.816  28.939  1.00  0.00     0.031 C 
ATOM     67  C   UNL A   1      44.760  31.671  31.699  1.00  0.00     0.029 A 
ATOM     68  C   UNL A   1      45.336  30.498  31.208  1.00  0.00     0.049 A 
ATOM     69  H   UNL A   1      45.472  28.731  32.345  1.00  0.00     0.167 HD
ATOM     70  C   UNL A   1      46.053  28.978  29.386  1.00  0.00     0.074 A 
ATOM     71  C   UNL A   1      45.733  27.655  29.905  1.00  0.00     0.031 C 
ATOM     72  C   UNL A   1      46.014  30.213  29.963  1.00  0.00     0.034 A 
BRANCH  59  73
ATOM     73  C   UNL A   1      43.040  27.681  33.658  1.00  0.00     0.023 A 
ATOM     74  C   UNL A   1      43.828  26.635  33.145  1.00  0.00     0.012 A 
ATOM     75  C   UNL A   1      42.341  27.446  34.864  1.00  0.00     0.148 A 
ATOM     76  C   UNL A   1      43.927  25.411  33.813  1.00  0.00     0.002 A 
ATOM     77  C   UNL A   1      42.516  26.265  35.569  1.00  0.00     0.091 A 
ATOM     78  F   UNL A   1      41.403  28.313  35.268  1.00  0.00    -0.205 F 
ATOM     79  C   UNL A   1      43.289  25.233  35.038  1.00  0.00     0.022 A 
BRANCH  77  80
ATOM     80  S   UNL A   1      41.768  26.045  37.185  1.00  0.00     0.127 S 
ATOM     81  O   UNL A   1      41.394  24.636  37.147  1.00  0.00    -0.237 OA
ATOM     82  O   UNL A   1      42.878  26.371  38.082  1.00  0.00    -0.237 OA
ATOM     83  O   UNL A   1      40.675  27.010  37.222  1.00  0.00    -0.744 OA
ENDBRANCH  77  80
ENDBRANCH  59  73
BRANCH  60  84
ATOM     84  C   UNL A   1      45.124  26.244  25.694  1.00  0.00     0.023 A 
ATOM     85  C   UNL A   1      46.471  26.181  25.266  1.00  0.00     0.012 A 
ATOM     86  C   UNL A   1      44.330  25.092  25.516  1.00  0.00     0.148 A 
ATOM     87  C   UNL A   1      47.021  25.002  24.748  1.00  0.00     0.002 A 
ATOM     88  C   UNL A   1      44.876  23.926  24.979  1.00  0.00     0.091 A 
ATOM     89  F   UNL A   1      43.068  25.095  25.963  1.00  0.00    -0.205 F 
ATOM     90  C   UNL A   1      46.226  23.871  24.612  1.00  0.00     0.022 A 
BRANCH  88  91
ATOM     91  S   UNL A   1      43.893  22.435  24.772  1.00  0.00     0.127 S 
ATOM     92  O   UNL A   1      44.205  22.042  23.396  1.00  0.00    -0.237 OA
ATOM     93  O   UNL A   1      44.446  21.558  25.799  1.00  0.00    -0.237 OA
ATOM     94  O   UNL A   1      42.510  22.857  24.967  1.00  0.00    -0.744 OA
ENDBRANCH  88  91
ENDBRANCH  60  84
BRANCH  72  95
ATOM     95  C   UNL A   1      46.395  31.405  29.130  1.00  0.00     0.023 A 
ATOM     96  C   UNL A   1      47.722  31.880  29.066  1.00  0.00     0.012 A 
ATOM     97  C   UNL A   1      45.432  31.933  28.252  1.00  0.00     0.148 A 
ATOM     98  C   UNL A   1      48.075  32.875  28.153  1.00  0.00     0.002 A 
ATOM     99  C   UNL A   1      45.800  32.888  27.313  1.00  0.00     0.091 A 
ATOM    100  F   UNL A   1      44.180  31.456  28.326  1.00  0.00    -0.205 F 
ATOM    101  C   UNL A   1      47.118  33.366  27.266  1.00  0.00     0.022 A 
BRANCH  99 102
ATOM    102  S   UNL A   1      44.659  33.483  26.063  1.00  0.00     0.127 S 
ATOM    103  O   UNL A   1      45.538  34.265  25.196  1.00  0.00    -0.237 OA
ATOM    104  O   UNL A   1      44.172  32.234  25.475  1.00  0.00    -0.237 OA
ATOM    105  O   UNL A   1      43.643  34.252  26.771  1.00  0.00    -0.744 OA
ENDBRANCH  99 102
ENDBRANCH  72  95
ENDBRANCH  46  47
ENDBRANCH  39  41
ENDBRANCH  38  39
ENDBRANCH  37  38
ENDBRANCH  36  37
ENDBRANCH  35  36
ENDBRANCH  34  35
ENDBRANCH  33  34
ENDBRANCH   1  33
TORSDOF 27
ENDMDL
MODEL 2
REMARK VINA RESULT:      -8.9      4.235      9.753
REMARK SMILES COc1cc2c(CC(=O)OCCOCCOCCOCCOC(=O)c3ccc(-c4c5nc(c(-c6cccc(S(=O)(=O)[O-])c6F)c6ccc([nH]6)c(-c6cccc(S(=O)(=O)[O-])c6F)c6nc(c(-c7cccc(S(=O)(=O)[O-])c7F)c7ccc4[nH]7)C=C6)C=C5)cc3)c(C)n(C(=O)c3ccc(Cl)cc3)c2cc1Cl
REMARK SMILES IDX 16 1 15 2 14 3 13 4 12 5 11 6 10 7 8 8 9 9 7 10 6 11 3 12
REMARK SMILES IDX 4 13 102 14 5 15 101 16 103 17 100 18 88 19 90 20 89 21 2 22
REMARK SMILES IDX 1 23 91 24 92 25 93 26 94 27 99 28 95 29 98 30 96 31 97 32
REMARK SMILES IDX 17 33 18 34 19 35 20 36 21 37 22 38 23 39 24 40 25 41 26 42
REMARK SMILES IDX 87 43 27 44 86 45 28 46 29 47 30 48 80 49 31 50 85 51 79 52
REMARK SMILES IDX 81 53 32 54 84 55 78 56 77 57 33 59 65 60 45 61 64 62 46 63
REMARK SMILES IDX 49 64 63 65 82 66 47 67 48 68 62 70 83 71 50 72 34 73 35 74
REMARK SMILES IDX 43 75 36 76 38 77 44 78 37 79 39 80 40 81 41 82 42 83 66 84
REMARK SMILES IDX 67 85 75 86 68 87 70 88 76 89 69 90 71 91 72 92 73 93 74 94
REMARK SMILES IDX 51 95 52 96 60 97 53 98 55 99 61 100 54 101 56 102 57 103
REMARK SMILES IDX 58 104 59 105
REMARK H PARENT 81 58 49 69
REMARK Flexibility Score: inf
ROOT
ATOM      1  O   UNL A   1      35.549  18.812  24.792  1.00  0.00    -0.377 OA
ENDROOT
BRANCH   1   2
ATOM      2  C   UNL A   1      34.244  18.553  24.329  1.00  0.00     0.188 C 
BRANCH   2   3
ATOM      3  C   UNL A   1      33.033  18.389  25.239  1.00  0.00     0.188 C 
BRANCH   3   4
ATOM      4  O   UNL A   1      32.064  19.405  25.096  1.00  0.00    -0.376 OA
BRANCH   4   5
ATOM      5  C   UNL A   1      32.458  20.618  24.478  1.00  0.00     0.202 C 
BRANCH   5   6
ATOM      6  C   UNL A   1      32.796  21.837  25.363  1.00  0.00     0.261 C 
BRANCH   6   7
ATOM      7  O   UNL A   1      33.694  22.839  24.833  1.00  0.00    -0.463 OA
BRANCH   7   8
ATOM      8  C   UNL A   1      33.785  24.017  25.490  1.00  0.00     0.310 C 
ATOM      9  O   UNL A   1      33.836  24.098  26.716  1.00  0.00    -0.252 OA
BRANCH   8  10
ATOM     10  C   UNL A   1      33.906  25.268  24.617  1.00  0.00     0.160 C 
BRANCH  10  11
ATOM     11  C   UNL A   1      32.782  26.293  24.523  1.00  0.00    -0.008 A 
ATOM     12  C   UNL A   1      33.340  29.555  26.539  1.00  0.00     0.138 A 
ATOM     13  C   UNL A   1      33.566  28.225  26.125  1.00  0.00     0.058 A 
ATOM     14  C   UNL A   1      32.160  30.169  26.146  1.00  0.00     0.085 A 
ATOM     15  C   UNL A   1      32.705  27.548  25.218  1.00  0.00     0.008 A 
ATOM     16  C   UNL A   1      31.246  29.482  25.331  1.00  0.00     0.051 A 
ATOM     17  Cl  UNL A   1      31.642  31.751  26.629  1.00  0.00    -0.080 Cl
ATOM     18  C   UNL A   1      31.523  28.185  24.840  1.00  0.00     0.058 A 
ATOM     19  C   UNL A   1      31.571  26.145  23.849  1.00  0.00     0.028 A 
ATOM     20  N   UNL A   1      30.793  27.308  24.014  1.00  0.00    -0.280 N 
ATOM     21  C   UNL A   1      31.157  24.943  23.057  1.00  0.00     0.065 C 
BRANCH  12  22
ATOM     22  O   UNL A   1      34.361  30.043  27.308  1.00  0.00    -0.495 OA
ATOM     23  C   UNL A   1      35.558  29.288  27.445  1.00  0.00     0.278 C 
ENDBRANCH  12  22
BRANCH  20  24
ATOM     24  C   UNL A   1      29.483  27.556  23.492  1.00  0.00     0.262 C 
ATOM     25  O   UNL A   1      28.596  26.720  23.644  1.00  0.00    -0.268 OA
BRANCH  24  26
ATOM     26  C   UNL A   1      29.060  28.795  22.811  1.00  0.00     0.040 A 
ATOM     27  C   UNL A   1      29.914  29.424  21.899  1.00  0.00     0.015 A 
ATOM     28  C   UNL A   1      27.817  29.355  23.132  1.00  0.00     0.015 A 
ATOM     29  C   UNL A   1      29.548  30.661  21.358  1.00  0.00     0.021 A 
ATOM     30  C   UNL A   1      27.456  30.589  22.585  1.00  0.00     0.021 A 
ATOM     31  C   UNL A   1      28.329  31.242  21.713  1.00  0.00     0.041 A 
ATOM     32  Cl  UNL A   1      27.906  32.790  21.090  1.00  0.00    -0.084 Cl
ENDBRANCH  24  26
ENDBRANCH  20  24
ENDBRANCH  10  11
ENDBRANCH   8  10
ENDBRANCH   7   8
ENDBRANCH   6   7
ENDBRANCH   5   6
ENDBRANCH   4   5
ENDBRANCH   3   4
ENDBRANCH   2   3
ENDBRANCH   1   2
BRANCH   1  33
ATOM     33  C   UNL A   1      35.993  20.144  24.861  1.00  0.00     0.188 C 
BRANCH  33  34
ATOM     34  C   UNL A   1      37.514  20.331  24.935  1.00  0.00     0.188 C 
BRANCH  34  35
ATOM     35  O   UNL A   1      38.110  21.623  25.064  1.00  0.00    -0.376 OA
BRANCH  35  36
ATOM     36  C   UNL A   1      39.007  21.907  26.122  1.00  0.00     0.202 C 
BRANCH  36  37
ATOM     37  C   UNL A   1      40.300  21.082  26.257  1.00  0.00     0.261 C 
BRANCH  37  38
ATOM     38  O   UNL A   1      41.395  21.587  25.496  1.00  0.00    -0.460 OA
BRANCH  38  39
ATOM     39  C   UNL A   1      42.618  21.006  25.682  1.00  0.00     0.338 C 
ATOM     40  O   UNL A   1      42.906  19.850  25.577  1.00  0.00    -0.246 OA
BRANCH  39  41
ATOM     41  C   UNL A   1      43.573  22.145  25.746  1.00  0.00     0.060 A 
ATOM     42  C   UNL A   1      44.718  22.070  26.545  1.00  0.00     0.016 A 
ATOM     43  C   UNL A   1      43.114  23.377  25.260  1.00  0.00     0.016 A 
ATOM     44  C   UNL A   1      45.297  23.254  26.990  1.00  0.00     0.010 A 
ATOM     45  C   UNL A   1      43.702  24.560  25.710  1.00  0.00     0.010 A 
ATOM     46  C   UNL A   1      44.759  24.502  26.619  1.00  0.00    -0.014 A 
BRANCH  46  47
ATOM     47  C   UNL A   1      45.520  25.694  27.012  1.00  0.00     0.031 A 
ATOM     48  C   UNL A   1      46.831  25.763  26.312  1.00  0.00     0.074 A 
ATOM     49  C   UNL A   1      45.134  26.754  27.752  1.00  0.00     0.049 A 
ATOM     50  N   UNL A   1      48.019  25.690  26.819  1.00  0.00    -0.248 NA
ATOM     51  C   UNL A   1      46.784  25.758  24.842  1.00  0.00     0.031 C 
ATOM     52  C   UNL A   1      43.800  27.080  28.255  1.00  0.00     0.029 A 
ATOM     53  N   UNL A   1      45.875  27.856  28.099  1.00  0.00    -0.354 N 
ATOM     54  C   UNL A   1      48.877  25.823  25.733  1.00  0.00     0.074 A 
ATOM     55  C   UNL A   1      48.078  25.693  24.541  1.00  0.00     0.031 C 
ATOM     56  C   UNL A   1      43.775  28.387  28.616  1.00  0.00     0.029 A 
ATOM     57  C   UNL A   1      45.109  28.952  28.482  1.00  0.00     0.049 A 
ATOM     58  H   UNL A   1      46.859  27.869  28.079  1.00  0.00     0.167 HD
ATOM     59  C   UNL A   1      50.160  26.253  25.852  1.00  0.00     0.034 A 
ATOM     60  C   UNL A   1      45.538  30.236  28.587  1.00  0.00     0.034 A 
ATOM     61  C   UNL A   1      50.647  26.239  27.197  1.00  0.00     0.049 A 
ATOM     62  C   UNL A   1      47.016  30.207  28.702  1.00  0.00     0.074 A 
ATOM     63  C   UNL A   1      50.837  25.281  28.170  1.00  0.00     0.029 A 
ATOM     64  N   UNL A   1      50.750  27.453  27.826  1.00  0.00    -0.354 N 
ATOM     65  N   UNL A   1      47.671  29.777  29.742  1.00  0.00    -0.248 NA
ATOM     66  C   UNL A   1      47.814  30.435  27.507  1.00  0.00     0.031 C 
ATOM     67  C   UNL A   1      50.622  25.956  29.407  1.00  0.00     0.029 A 
ATOM     68  C   UNL A   1      50.306  27.284  29.108  1.00  0.00     0.049 A 
ATOM     69  H   UNL A   1      51.082  28.290  27.428  1.00  0.00     0.167 HD
ATOM     70  C   UNL A   1      48.867  29.298  29.228  1.00  0.00     0.074 A 
ATOM     71  C   UNL A   1      48.955  29.855  27.885  1.00  0.00     0.031 C 
ATOM     72  C   UNL A   1      49.529  28.269  29.828  1.00  0.00     0.034 A 
BRANCH  59  73
ATOM     73  C   UNL A   1      50.853  27.024  24.767  1.00  0.00     0.023 A 
ATOM     74  C   UNL A   1      50.081  27.555  23.717  1.00  0.00     0.012 A 
ATOM     75  C   UNL A   1      52.259  27.033  24.619  1.00  0.00     0.148 A 
ATOM     76  C   UNL A   1      50.686  28.087  22.575  1.00  0.00     0.002 A 
ATOM     77  C   UNL A   1      52.855  27.645  23.527  1.00  0.00     0.091 A 
ATOM     78  F   UNL A   1      53.022  26.336  25.471  1.00  0.00    -0.205 F 
ATOM     79  C   UNL A   1      52.074  28.153  22.489  1.00  0.00     0.022 A 
BRANCH  77  80
ATOM     80  S   UNL A   1      54.638  27.813  23.433  1.00  0.00     0.127 S 
ATOM     81  O   UNL A   1      54.799  28.542  22.180  1.00  0.00    -0.237 OA
ATOM     82  O   UNL A   1      54.937  28.580  24.643  1.00  0.00    -0.237 OA
ATOM     83  O   UNL A   1      55.142  26.444  23.461  1.00  0.00    -0.744 OA
ENDBRANCH  77  80
ENDBRANCH  59  73
BRANCH  60  84
ATOM     84  C   UNL A   1      44.832  31.535  28.404  1.00  0.00     0.023 A 
ATOM     85  C   UNL A   1      44.477  32.288  29.548  1.00  0.00     0.012 A 
ATOM     86  C   UNL A   1      44.759  32.179  27.152  1.00  0.00     0.148 A 
ATOM     87  C   UNL A   1      44.131  33.642  29.456  1.00  0.00     0.002 A 
ATOM     88  C   UNL A   1      44.392  33.523  27.062  1.00  0.00     0.091 A 
ATOM     89  F   UNL A   1      45.145  31.517  26.054  1.00  0.00    -0.205 F 
ATOM     90  C   UNL A   1      44.097  34.263  28.213  1.00  0.00     0.022 A 
BRANCH  88  91
ATOM     91  S   UNL A   1      44.324  34.376  25.480  1.00  0.00     0.127 S 
ATOM     92  O   UNL A   1      44.736  33.329  24.542  1.00  0.00    -0.237 OA
ATOM     93  O   UNL A   1      42.917  34.751  25.396  1.00  0.00    -0.237 OA
ATOM     94  O   UNL A   1      45.276  35.475  25.596  1.00  0.00    -0.744 OA
ENDBRANCH  88  91
ENDBRANCH  60  84
BRANCH  72  95
ATOM     95  C   UNL A   1      49.183  27.926  31.250  1.00  0.00     0.023 A 
ATOM     96  C   UNL A   1      49.848  28.515  32.345  1.00  0.00     0.012 A 
ATOM     97  C   UNL A   1      48.040  27.140  31.481  1.00  0.00     0.148 A 
ATOM     98  C   UNL A   1      49.388  28.310  33.647  1.00  0.00     0.002 A 
ATOM     99  C   UNL A   1      47.559  26.979  32.773  1.00  0.00     0.091 A 
ATOM    100  F   UNL A   1      47.419  26.600  30.421  1.00  0.00    -0.205 F 
ATOM    101  C   UNL A   1      48.235  27.557  33.859  1.00  0.00     0.022 A 
BRANCH  99 102
ATOM    102  S   UNL A   1      46.020  26.125  33.118  1.00  0.00     0.127 S 
ATOM    103  O   UNL A   1      45.578  26.775  34.349  1.00  0.00    -0.237 OA
ATOM    104  O   UNL A   1      45.221  26.446  31.934  1.00  0.00    -0.237 OA
ATOM    105  O   UNL A   1      46.358  24.712  33.249  1.00  0.00    -0.744 OA
ENDBRANCH  99 102
ENDBRANCH  72  95
ENDBRANCH  46  47
ENDBRANCH  39  41
ENDBRANCH  38  39
ENDBRANCH  37  38
ENDBRANCH  36  37
ENDBRANCH  35  36
ENDBRANCH  34  35
ENDBRANCH  33  34
ENDBRANCH   1  33
TORSDOF 27
ENDMDL
MODEL 3
REMARK VINA RESULT:      -8.6      1.808      3.772
REMARK SMILES COc1cc2c(CC(=O)OCCOCCOCCOCCOC(=O)c3ccc(-c4c5nc(c(-c6cccc(S(=O)(=O)[O-])c6F)c6ccc([nH]6)c(-c6cccc(S(=O)(=O)[O-])c6F)c6nc(c(-c7cccc(S(=O)(=O)[O-])c7F)c7ccc4[nH]7)C=C6)C=C5)cc3)c(C)n(C(=O)c3ccc(Cl)cc3)c2cc1Cl
REMARK SMILES IDX 16 1 15 2 14 3 13 4 12 5 11 6 10 7 8 8 9 9 7 10 6 11 3 12
REMARK SMILES IDX 4 13 102 14 5 15 101 16 103 17 100 18 88 19 90 20 89 21 2 22
REMARK SMILES IDX 1 23 91 24 92 25 93 26 94 27 99 28 95 29 98 30 96 31 97 32
REMARK SMILES IDX 17 33 18 34 19 35 20 36 21 37 22 38 23 39 24 40 25 41 26 42
REMARK SMILES IDX 87 43 27 44 86 45 28 46 29 47 30 48 80 49 31 50 85 51 79 52
REMARK SMILES IDX 81 53 32 54 84 55 78 56 77 57 33 59 65 60 45 61 64 62 46 63
REMARK SMILES IDX 49 64 63 65 82 66 47 67 48 68 62 70 83 71 50 72 34 73 35 74
REMARK SMILES IDX 43 75 36 76 38 77 44 78 37 79 39 80 40 81 41 82 42 83 66 84
REMARK SMILES IDX 67 85 75 86 68 87 70 88 76 89 69 90 71 91 72 92 73 93 74 94
REMARK SMILES IDX 51 95 52 96 60 97 53 98 55 99 61 100 54 101 56 102 57 103
REMARK SMILES IDX 58 104 59 105
REMARK H PARENT 81 58 49 69
REMARK Flexibility Score: inf
ROOT
ATOM      1  O   UNL A   1      34.210  26.444  23.965  1.00  0.00    -0.377 OA
ENDROOT
BRANCH   1   2
ATOM      2  C   UNL A   1      33.641  25.338  23.306  1.00  0.00     0.188 C 
BRANCH   2   3
ATOM      3  C   UNL A   1      33.321  25.305  21.816  1.00  0.00     0.188 C 
BRANCH   3   4
ATOM      4  O   UNL A   1      33.086  24.009  21.308  1.00  0.00    -0.376 OA
BRANCH   4   5
ATOM      5  C   UNL A   1      32.550  23.036  22.187  1.00  0.00     0.202 C 
BRANCH   5   6
ATOM      6  C   UNL A   1      32.741  21.540  21.857  1.00  0.00     0.261 C 
BRANCH   6   7
ATOM      7  O   UNL A   1      31.773  20.597  22.374  1.00  0.00    -0.463 OA
BRANCH   7   8
ATOM      8  C   UNL A   1      32.239  19.481  22.979  1.00  0.00     0.310 C 
ATOM      9  O   UNL A   1      32.395  18.414  22.386  1.00  0.00    -0.252 OA
BRANCH   8  10
ATOM     10  C   UNL A   1      32.647  19.628  24.446  1.00  0.00     0.160 C 
BRANCH  10  11
ATOM     11  C   UNL A   1      32.929  20.992  25.067  1.00  0.00    -0.008 A 
ATOM     12  C   UNL A   1      36.677  21.876  25.496  1.00  0.00     0.138 A 
ATOM     13  C   UNL A   1      35.551  21.061  25.252  1.00  0.00     0.058 A 
ATOM     14  C   UNL A   1      36.466  23.142  26.023  1.00  0.00     0.085 A 
ATOM     15  C   UNL A   1      34.217  21.535  25.395  1.00  0.00     0.008 A 
ATOM     16  C   UNL A   1      35.159  23.593  26.267  1.00  0.00     0.051 A 
ATOM     17  Cl  UNL A   1      37.708  24.255  26.491  1.00  0.00    -0.080 Cl
ATOM     18  C   UNL A   1      34.030  22.810  25.930  1.00  0.00     0.058 A 
ATOM     19  C   UNL A   1      31.988  21.902  25.545  1.00  0.00     0.028 A 
ATOM     20  N   UNL A   1      32.647  23.037  26.059  1.00  0.00    -0.280 N 
ATOM     21  C   UNL A   1      30.502  21.717  25.510  1.00  0.00     0.065 C 
BRANCH  12  22
ATOM     22  O   UNL A   1      37.852  21.253  25.171  1.00  0.00    -0.495 OA
ATOM     23  C   UNL A   1      37.823  19.930  24.651  1.00  0.00     0.278 C 
ENDBRANCH  12  22
BRANCH  20  24
ATOM     24  C   UNL A   1      32.046  24.193  26.652  1.00  0.00     0.262 C 
ATOM     25  O   UNL A   1      32.157  24.389  27.859  1.00  0.00    -0.268 OA
BRANCH  24  26
ATOM     26  C   UNL A   1      31.325  25.248  25.914  1.00  0.00     0.040 A 
ATOM     27  C   UNL A   1      30.650  24.942  24.727  1.00  0.00     0.015 A 
ATOM     28  C   UNL A   1      31.371  26.564  26.393  1.00  0.00     0.015 A 
ATOM     29  C   UNL A   1      30.078  25.976  23.978  1.00  0.00     0.021 A 
ATOM     30  C   UNL A   1      30.795  27.591  25.641  1.00  0.00     0.021 A 
ATOM     31  C   UNL A   1      30.165  27.295  24.432  1.00  0.00     0.041 A 
ATOM     32  Cl  UNL A   1      29.509  28.570  23.480  1.00  0.00    -0.084 Cl
ENDBRANCH  24  26
ENDBRANCH  20  24
ENDBRANCH  10  11
ENDBRANCH   8  10
ENDBRANCH   7   8
ENDBRANCH   6   7
ENDBRANCH   5   6
ENDBRANCH   4   5
ENDBRANCH   3   4
ENDBRANCH   2   3
ENDBRANCH   1   2
BRANCH   1  33
ATOM     33  C   UNL A   1      33.806  27.738  23.594  1.00  0.00     0.188 C 
BRANCH  33  34
ATOM     34  C   UNL A   1      33.908  28.804  24.693  1.00  0.00     0.188 C 
BRANCH  34  35
ATOM     35  O   UNL A   1      33.772  28.475  26.077  1.00  0.00    -0.376 OA
BRANCH  35  36
ATOM     36  C   UNL A   1      34.404  29.257  27.075  1.00  0.00     0.202 C 
BRANCH  36  37
ATOM     37  C   UNL A   1      33.860  30.662  27.388  1.00  0.00     0.261 C 
BRANCH  37  38
ATOM     38  O   UNL A   1      34.871  31.634  27.646  1.00  0.00    -0.460 OA
BRANCH  38  39
ATOM     39  C   UNL A   1      35.378  31.702  28.912  1.00  0.00     0.338 C 
ATOM     40  O   UNL A   1      34.780  31.859  29.936  1.00  0.00    -0.246 OA
BRANCH  39  41
ATOM     41  C   UNL A   1      36.787  31.241  28.783  1.00  0.00     0.060 A 
ATOM     42  C   UNL A   1      37.088  30.055  28.107  1.00  0.00     0.016 A 
ATOM     43  C   UNL A   1      37.725  31.844  29.632  1.00  0.00     0.016 A 
ATOM     44  C   UNL A   1      38.270  29.393  28.421  1.00  0.00     0.010 A 
ATOM     45  C   UNL A   1      38.909  31.174  29.941  1.00  0.00     0.010 A 
ATOM     46  C   UNL A   1      39.159  29.922  29.378  1.00  0.00    -0.014 A 
BRANCH  46  47
ATOM     47  C   UNL A   1      40.446  29.234  29.537  1.00  0.00     0.031 A 
ATOM     48  C   UNL A   1      40.858  29.166  30.965  1.00  0.00     0.074 A 
ATOM     49  C   UNL A   1      41.174  28.552  28.628  1.00  0.00     0.049 A 
ATOM     50  N   UNL A   1      41.876  29.725  31.536  1.00  0.00    -0.248 NA
ATOM     51  C   UNL A   1      39.914  28.512  31.883  1.00  0.00     0.031 C 
ATOM     52  C   UNL A   1      40.815  28.185  27.259  1.00  0.00     0.029 A 
ATOM     53  N   UNL A   1      42.377  27.919  28.814  1.00  0.00    -0.354 N 
ATOM     54  C   UNL A   1      41.798  29.328  32.866  1.00  0.00     0.074 A 
ATOM     55  C   UNL A   1      40.499  28.732  33.057  1.00  0.00     0.031 C 
ATOM     56  C   UNL A   1      41.649  27.205  26.834  1.00  0.00     0.029 A 
ATOM     57  C   UNL A   1      42.664  26.960  27.847  1.00  0.00     0.049 A 
ATOM     58  H   UNL A   1      42.981  28.124  29.563  1.00  0.00     0.167 HD
ATOM     59  C   UNL A   1      42.874  29.300  33.694  1.00  0.00     0.034 A 
ATOM     60  C   UNL A   1      43.611  25.991  27.932  1.00  0.00     0.034 A 
ATOM     61  C   UNL A   1      44.004  30.018  33.190  1.00  0.00     0.049 A 
ATOM     62  C   UNL A   1      44.586  26.405  28.970  1.00  0.00     0.074 A 
ATOM     63  C   UNL A   1      44.268  31.321  32.827  1.00  0.00     0.029 A 
ATOM     64  N   UNL A   1      45.040  29.265  32.700  1.00  0.00    -0.354 N 
ATOM     65  N   UNL A   1      45.432  27.387  28.843  1.00  0.00    -0.248 NA
ATOM     66  C   UNL A   1      44.449  25.864  30.313  1.00  0.00     0.031 C 
ATOM     67  C   UNL A   1      45.225  31.231  31.775  1.00  0.00     0.029 A 
ATOM     68  C   UNL A   1      45.480  29.875  31.558  1.00  0.00     0.049 A 
ATOM     69  H   UNL A   1      45.400  28.439  33.096  1.00  0.00     0.167 HD
ATOM     70  C   UNL A   1      45.626  27.850  30.136  1.00  0.00     0.074 A 
ATOM     71  C   UNL A   1      45.113  26.794  31.000  1.00  0.00     0.031 C 
ATOM     72  C   UNL A   1      45.916  29.160  30.379  1.00  0.00     0.034 A 
BRANCH  59  73
ATOM     73  C   UNL A   1      43.000  28.312  34.817  1.00  0.00     0.023 A 
ATOM     74  C   UNL A   1      43.276  28.793  36.110  1.00  0.00     0.012 A 
ATOM     75  C   UNL A   1      43.097  26.919  34.599  1.00  0.00     0.148 A 
ATOM     76  C   UNL A   1      43.620  27.919  37.146  1.00  0.00     0.002 A 
ATOM     77  C   UNL A   1      43.348  26.051  35.650  1.00  0.00     0.091 A 
ATOM     78  F   UNL A   1      43.076  26.440  33.348  1.00  0.00    -0.205 F 
ATOM     79  C   UNL A   1      43.633  26.545  36.922  1.00  0.00     0.022 A 
BRANCH  77  80
ATOM     80  S   UNL A   1      43.293  24.275  35.401  1.00  0.00     0.127 S 
ATOM     81  O   UNL A   1      41.875  24.059  35.136  1.00  0.00    -0.237 OA
ATOM     82  O   UNL A   1      44.176  24.100  34.247  1.00  0.00    -0.237 OA
ATOM     83  O   UNL A   1      43.818  23.711  36.639  1.00  0.00    -0.744 OA
ENDBRANCH  77  80
ENDBRANCH  59  73
BRANCH  60  84
ATOM     84  C   UNL A   1      43.682  24.621  27.350  1.00  0.00     0.023 A 
ATOM     85  C   UNL A   1      42.639  23.705  27.625  1.00  0.00     0.012 A 
ATOM     86  C   UNL A   1      44.581  24.292  26.315  1.00  0.00     0.148 A 
ATOM     87  C   UNL A   1      42.459  22.547  26.859  1.00  0.00     0.002 A 
ATOM     88  C   UNL A   1      44.412  23.126  25.568  1.00  0.00     0.091 A 
ATOM     89  F   UNL A   1      45.544  25.162  25.986  1.00  0.00    -0.205 F 
ATOM     90  C   UNL A   1      43.341  22.261  25.824  1.00  0.00     0.022 A 
BRANCH  88  91
ATOM     91  S   UNL A   1      45.526  22.700  24.222  1.00  0.00     0.127 S 
ATOM     92  O   UNL A   1      46.275  21.573  24.780  1.00  0.00    -0.237 OA
ATOM     93  O   UNL A   1      44.596  22.347  23.154  1.00  0.00    -0.237 OA
ATOM     94  O   UNL A   1      46.333  23.895  24.001  1.00  0.00    -0.744 OA
ENDBRANCH  88  91
ENDBRANCH  60  84
BRANCH  72  95
ATOM     95  C   UNL A   1      46.419  30.004  29.242  1.00  0.00     0.023 A 
ATOM     96  C   UNL A   1      47.749  29.920  28.779  1.00  0.00     0.012 A 
ATOM     97  C   UNL A   1      45.482  30.755  28.511  1.00  0.00     0.148 A 
ATOM     98  C   UNL A   1      48.137  30.585  27.615  1.00  0.00     0.002 A 
ATOM     99  C   UNL A   1      45.862  31.375  27.328  1.00  0.00     0.091 A 
ATOM    100  F   UNL A   1      44.221  30.810  28.967  1.00  0.00    -0.205 F 
ATOM    101  C   UNL A   1      47.190  31.298  26.881  1.00  0.00     0.022 A 
BRANCH  99 102
ATOM    102  S   UNL A   1      44.680  32.211  26.268  1.00  0.00     0.127 S 
ATOM    103  O   UNL A   1      43.672  31.174  26.057  1.00  0.00    -0.237 OA
ATOM    104  O   UNL A   1      44.246  33.324  27.113  1.00  0.00    -0.237 OA
ATOM    105  O   UNL A   1      45.415  32.612  25.075  1.00  0.00    -0.744 OA
ENDBRANCH  99 102
ENDBRANCH  72  95
ENDBRANCH  46  47
ENDBRANCH  39  41
ENDBRANCH  38  39
ENDBRANCH  37  38
ENDBRANCH  36  37
ENDBRANCH  35  36
ENDBRANCH  34  35
ENDBRANCH  33  34
ENDBRANCH   1  33
TORSDOF 27
ENDMDL
