MODEL 1
REMARK VINA RESULT:      -9.3      0.000      0.000
REMARK SMILES Cc1ccc([C@H](CC2CCCC2)C(=O)OCCOCCOCCOCCOC(=O)c2ccc(-c3c4nc(c(-c5cccc(S(=O)(=O)[O-])c5F)c5ccc([nH]5)c(-c5cccc(S(=O)(=O)[O-])c5F)c5nc(c(-c6cccc(S(=O)(=O)[O-])c6F)c6ccc3[nH]6)C=C5)C=C4)cc2)cc1
REMARK SMILES IDX 22 1 21 2 20 3 19 4 18 5 17 6 16 7 15 8 13 9 14 10 6 11 5 12
REMARK SMILES IDX 1 13 2 14 3 15 94 16 4 17 93 18 7 19 8 20 9 21 12 22 10 23
REMARK SMILES IDX 11 24 23 25 24 26 25 27 26 28 27 29 28 30 29 31 30 32 31 33
REMARK SMILES IDX 92 34 32 35 91 36 33 37 34 38 35 39 85 40 36 41 90 42 84 43
REMARK SMILES IDX 86 44 37 45 89 46 83 47 82 48 38 50 70 51 50 52 69 53 51 54
REMARK SMILES IDX 54 55 68 56 87 57 52 58 53 59 67 61 88 62 55 63 39 64 40 65
REMARK SMILES IDX 48 66 41 67 43 68 49 69 42 70 44 71 45 72 46 73 47 74 71 75
REMARK SMILES IDX 72 76 80 77 73 78 75 79 81 80 74 81 76 82 77 83 78 84 79 85
REMARK SMILES IDX 56 86 57 87 65 88 58 89 60 90 66 91 59 92 61 93 62 94 63 95
REMARK SMILES IDX 64 96
REMARK H PARENT 86 49 54 60
REMARK Flexibility Score: inf
ROOT
ATOM      1  C   UNL A   1      41.338  21.158  27.291  1.00  0.00     0.188 C 
ENDROOT
BRANCH   1   2
ATOM      2  O   UNL A   1      40.818  22.285  26.616  1.00  0.00    -0.377 OA
BRANCH   2   3
ATOM      3  C   UNL A   1      39.440  22.478  26.886  1.00  0.00     0.188 C 
BRANCH   3   4
ATOM      4  C   UNL A   1      38.504  22.042  25.739  1.00  0.00     0.188 C 
BRANCH   4   5
ATOM      5  O   UNL A   1      37.409  22.893  25.446  1.00  0.00    -0.376 OA
BRANCH   5   6
ATOM      6  C   UNL A   1      36.598  22.439  24.372  1.00  0.00     0.202 C 
BRANCH   6   7
ATOM      7  C   UNL A   1      35.620  23.477  23.801  1.00  0.00     0.261 C 
BRANCH   7   8
ATOM      8  O   UNL A   1      35.040  23.146  22.512  1.00  0.00    -0.463 OA
BRANCH   8   9
ATOM      9  C   UNL A   1      33.722  23.421  22.314  1.00  0.00     0.313 C 
ATOM     10  O   UNL A   1      33.237  23.804  21.254  1.00  0.00    -0.252 OA
BRANCH   9  11
ATOM     11  C   UNL A   1      32.857  23.197  23.561  1.00  0.00     0.129 C 
BRANCH  11  12
ATOM     12  C   UNL A   1      32.752  21.710  23.886  1.00  0.00    -0.034 A 
ATOM     13  C   UNL A   1      32.453  17.557  25.049  1.00  0.00     0.044 C 
ATOM     14  C   UNL A   1      32.584  18.989  24.625  1.00  0.00    -0.051 A 
ATOM     15  C   UNL A   1      32.979  19.952  25.556  1.00  0.00     0.004 A 
ATOM     16  C   UNL A   1      32.298  19.389  23.315  1.00  0.00     0.004 A 
ATOM     17  C   UNL A   1      33.070  21.294  25.189  1.00  0.00     0.005 A 
ATOM     18  C   UNL A   1      32.390  20.737  22.944  1.00  0.00     0.005 A 
ENDBRANCH  11  12
BRANCH  11  19
ATOM     19  C   UNL A   1      31.501  23.958  23.607  1.00  0.00     0.023 C 
BRANCH  19  20
ATOM     20  C   UNL A   1      31.512  25.266  24.443  1.00  0.00    -0.010 C 
ATOM     21  C   UNL A   1      31.382  25.085  25.958  1.00  0.00     0.003 C 
ATOM     22  C   UNL A   1      32.866  25.989  24.392  1.00  0.00     0.003 C 
ATOM     23  C   UNL A   1      31.881  26.379  26.582  1.00  0.00     0.000 C 
ATOM     24  C   UNL A   1      32.821  26.984  25.551  1.00  0.00     0.000 C 
ENDBRANCH  19  20
ENDBRANCH  11  19
ENDBRANCH   9  11
ENDBRANCH   8   9
ENDBRANCH   7   8
ENDBRANCH   6   7
ENDBRANCH   5   6
ENDBRANCH   4   5
ENDBRANCH   3   4
ENDBRANCH   2   3
ENDBRANCH   1   2
BRANCH   1  25
ATOM     25  C   UNL A   1      42.185  20.332  26.334  1.00  0.00     0.188 C 
BRANCH  25  26
ATOM     26  O   UNL A   1      43.474  20.917  26.242  1.00  0.00    -0.376 OA
BRANCH  26  27
ATOM     27  C   UNL A   1      44.264  20.402  25.165  1.00  0.00     0.202 C 
BRANCH  27  28
ATOM     28  C   UNL A   1      45.757  20.810  25.128  1.00  0.00     0.261 C 
BRANCH  28  29
ATOM     29  O   UNL A   1      45.922  22.110  25.754  1.00  0.00    -0.460 OA
BRANCH  29  30
ATOM     30  C   UNL A   1      45.714  23.196  24.962  1.00  0.00     0.338 C 
ATOM     31  O   UNL A   1      46.441  23.499  24.023  1.00  0.00    -0.246 OA
BRANCH  30  32
ATOM     32  C   UNL A   1      44.650  24.069  25.573  1.00  0.00     0.060 A 
ATOM     33  C   UNL A   1      44.340  25.281  24.949  1.00  0.00     0.016 A 
ATOM     34  C   UNL A   1      44.186  23.860  26.874  1.00  0.00     0.016 A 
ATOM     35  C   UNL A   1      43.760  26.342  25.681  1.00  0.00     0.010 A 
ATOM     36  C   UNL A   1      43.697  24.947  27.621  1.00  0.00     0.010 A 
ATOM     37  C   UNL A   1      43.538  26.228  27.058  1.00  0.00    -0.014 A 
BRANCH  37  38
ATOM     38  C   UNL A   1      43.389  27.395  27.984  1.00  0.00     0.031 A 
ATOM     39  C   UNL A   1      42.141  28.254  28.042  1.00  0.00     0.074 A 
ATOM     40  C   UNL A   1      44.251  27.555  29.032  1.00  0.00     0.049 A 
ATOM     41  N   UNL A   1      42.023  29.300  28.808  1.00  0.00    -0.248 NA
ATOM     42  C   UNL A   1      40.937  28.060  27.232  1.00  0.00     0.031 C 
ATOM     43  C   UNL A   1      43.903  28.172  30.316  1.00  0.00     0.029 A 
ATOM     44  N   UNL A   1      45.609  27.244  29.210  1.00  0.00    -0.354 N 
ATOM     45  C   UNL A   1      40.688  29.623  28.902  1.00  0.00     0.074 A 
ATOM     46  C   UNL A   1      40.087  28.942  27.782  1.00  0.00     0.031 C 
ATOM     47  C   UNL A   1      44.976  28.302  31.088  1.00  0.00     0.029 A 
ATOM     48  C   UNL A   1      46.113  28.047  30.251  1.00  0.00     0.049 A 
ATOM     49  H   UNL A   1      46.120  26.579  28.695  1.00  0.00     0.167 HD
ATOM     50  C   UNL A   1      40.218  30.310  29.988  1.00  0.00     0.034 A 
ATOM     51  C   UNL A   1      47.199  28.866  30.218  1.00  0.00     0.034 A 
ATOM     52  C   UNL A   1      41.286  30.833  30.866  1.00  0.00     0.049 A 
ATOM     53  C   UNL A   1      46.875  30.325  30.505  1.00  0.00     0.074 A 
ATOM     54  C   UNL A   1      41.543  30.821  32.230  1.00  0.00     0.029 A 
ATOM     55  N   UNL A   1      42.351  31.520  30.300  1.00  0.00    -0.354 N 
ATOM     56  N   UNL A   1      45.750  30.749  31.018  1.00  0.00    -0.248 NA
ATOM     57  C   UNL A   1      47.758  31.442  30.171  1.00  0.00     0.031 C 
ATOM     58  C   UNL A   1      42.820  31.409  32.459  1.00  0.00     0.029 A 
ATOM     59  C   UNL A   1      43.285  31.889  31.250  1.00  0.00     0.049 A 
ATOM     60  H   UNL A   1      42.432  31.721  29.340  1.00  0.00     0.167 HD
ATOM     61  C   UNL A   1      45.626  32.101  30.808  1.00  0.00     0.074 A 
ATOM     62  C   UNL A   1      46.967  32.501  30.423  1.00  0.00     0.031 C 
ATOM     63  C   UNL A   1      44.406  32.729  30.844  1.00  0.00     0.034 A 
BRANCH  50  64
ATOM     64  C   UNL A   1      38.746  30.472  30.375  1.00  0.00     0.023 A 
ATOM     65  C   UNL A   1      38.090  29.344  30.927  1.00  0.00     0.012 A 
ATOM     66  C   UNL A   1      37.933  31.612  30.165  1.00  0.00     0.148 A 
ATOM     67  C   UNL A   1      36.721  29.333  31.231  1.00  0.00     0.002 A 
ATOM     68  C   UNL A   1      36.589  31.635  30.564  1.00  0.00     0.091 A 
ATOM     69  F   UNL A   1      38.421  32.663  29.498  1.00  0.00    -0.205 F 
ATOM     70  C   UNL A   1      35.973  30.487  31.071  1.00  0.00     0.022 A 
BRANCH  68  71
ATOM     71  S   UNL A   1      35.577  33.127  30.507  1.00  0.00     0.127 S 
ATOM     72  O   UNL A   1      35.361  33.303  29.072  1.00  0.00    -0.237 OA
ATOM     73  O   UNL A   1      34.384  32.725  31.256  1.00  0.00    -0.237 OA
ATOM     74  O   UNL A   1      36.363  34.174  31.149  1.00  0.00    -0.744 OA
ENDBRANCH  68  71
ENDBRANCH  50  64
BRANCH  51  75
ATOM     75  C   UNL A   1      48.360  28.288  29.507  1.00  0.00     0.023 A 
ATOM     76  C   UNL A   1      49.013  27.244  30.201  1.00  0.00     0.012 A 
ATOM     77  C   UNL A   1      48.457  28.353  28.109  1.00  0.00     0.148 A 
ATOM     78  C   UNL A   1      49.623  26.200  29.508  1.00  0.00     0.002 A 
ATOM     79  C   UNL A   1      49.023  27.281  27.423  1.00  0.00     0.091 A 
ATOM     80  F   UNL A   1      47.847  29.366  27.480  1.00  0.00    -0.205 F 
ATOM     81  C   UNL A   1      49.586  26.197  28.119  1.00  0.00     0.022 A 
BRANCH  79  82
ATOM     82  S   UNL A   1      48.831  27.076  25.647  1.00  0.00     0.127 S 
ATOM     83  O   UNL A   1      49.384  28.327  25.139  1.00  0.00    -0.237 OA
ATOM     84  O   UNL A   1      49.648  25.889  25.399  1.00  0.00    -0.237 OA
ATOM     85  O   UNL A   1      47.404  26.877  25.436  1.00  0.00    -0.744 OA
ENDBRANCH  79  82
ENDBRANCH  51  75
BRANCH  63  86
ATOM     86  C   UNL A   1      44.074  34.155  30.393  1.00  0.00     0.023 A 
ATOM     87  C   UNL A   1      44.099  35.260  31.263  1.00  0.00     0.012 A 
ATOM     88  C   UNL A   1      43.877  34.457  29.011  1.00  0.00     0.148 A 
ATOM     89  C   UNL A   1      43.932  36.576  30.804  1.00  0.00     0.002 A 
ATOM     90  C   UNL A   1      43.816  35.770  28.549  1.00  0.00     0.091 A 
ATOM     91  F   UNL A   1      43.717  33.464  28.123  1.00  0.00    -0.205 F 
ATOM     92  C   UNL A   1      43.823  36.835  29.447  1.00  0.00     0.022 A 
BRANCH  90  93
ATOM     93  S   UNL A   1      43.888  36.142  26.787  1.00  0.00     0.127 S 
ATOM     94  O   UNL A   1      43.939  37.602  26.787  1.00  0.00    -0.237 OA
ATOM     95  O   UNL A   1      45.133  35.490  26.377  1.00  0.00    -0.237 OA
ATOM     96  O   UNL A   1      42.686  35.538  26.228  1.00  0.00    -0.744 OA
ENDBRANCH  90  93
ENDBRANCH  63  86
ENDBRANCH  37  38
ENDBRANCH  30  32
ENDBRANCH  29  30
ENDBRANCH  28  29
ENDBRANCH  27  28
ENDBRANCH  26  27
ENDBRANCH  25  26
ENDBRANCH   1  25
TORSDOF 26
ENDMDL
MODEL 2
REMARK VINA RESULT:      -8.5      4.537      6.330
REMARK SMILES Cc1ccc([C@H](CC2CCCC2)C(=O)OCCOCCOCCOCCOC(=O)c2ccc(-c3c4nc(c(-c5cccc(S(=O)(=O)[O-])c5F)c5ccc([nH]5)c(-c5cccc(S(=O)(=O)[O-])c5F)c5nc(c(-c6cccc(S(=O)(=O)[O-])c6F)c6ccc3[nH]6)C=C5)C=C4)cc2)cc1
REMARK SMILES IDX 22 1 21 2 20 3 19 4 18 5 17 6 16 7 15 8 13 9 14 10 6 11 5 12
REMARK SMILES IDX 1 13 2 14 3 15 94 16 4 17 93 18 7 19 8 20 9 21 12 22 10 23
REMARK SMILES IDX 11 24 23 25 24 26 25 27 26 28 27 29 28 30 29 31 30 32 31 33
REMARK SMILES IDX 92 34 32 35 91 36 33 37 34 38 35 39 85 40 36 41 90 42 84 43
REMARK SMILES IDX 86 44 37 45 89 46 83 47 82 48 38 50 70 51 50 52 69 53 51 54
REMARK SMILES IDX 54 55 68 56 87 57 52 58 53 59 67 61 88 62 55 63 39 64 40 65
REMARK SMILES IDX 48 66 41 67 43 68 49 69 42 70 44 71 45 72 46 73 47 74 71 75
REMARK SMILES IDX 72 76 80 77 73 78 75 79 81 80 74 81 76 82 77 83 78 84 79 85
REMARK SMILES IDX 56 86 57 87 65 88 58 89 60 90 66 91 59 92 61 93 62 94 63 95
REMARK SMILES IDX 64 96
REMARK H PARENT 86 49 54 60
REMARK Flexibility Score: inf
ROOT
ATOM      1  C   UNL A   1      41.341  21.456  26.783  1.00  0.00     0.188 C 
ENDROOT
BRANCH   1   2
ATOM      2  O   UNL A   1      40.586  22.471  27.411  1.00  0.00    -0.377 OA
BRANCH   2   3
ATOM      3  C   UNL A   1      40.109  23.431  26.485  1.00  0.00     0.188 C 
BRANCH   3   4
ATOM      4  C   UNL A   1      38.604  23.747  26.620  1.00  0.00     0.188 C 
BRANCH   4   5
ATOM      5  O   UNL A   1      37.820  23.653  25.443  1.00  0.00    -0.376 OA
BRANCH   5   6
ATOM      6  C   UNL A   1      36.434  23.463  25.688  1.00  0.00     0.202 C 
BRANCH   6   7
ATOM      7  C   UNL A   1      35.494  23.981  24.589  1.00  0.00     0.261 C 
BRANCH   7   8
ATOM      8  O   UNL A   1      34.767  25.197  24.911  1.00  0.00    -0.463 OA
BRANCH   8   9
ATOM      9  C   UNL A   1      33.556  25.391  24.324  1.00  0.00     0.313 C 
ATOM     10  O   UNL A   1      33.214  24.914  23.246  1.00  0.00    -0.252 OA
BRANCH   9  11
ATOM     11  C   UNL A   1      32.612  26.276  25.147  1.00  0.00     0.129 C 
BRANCH  11  12
ATOM     12  C   UNL A   1      31.857  27.248  24.244  1.00  0.00    -0.034 A 
ATOM     13  C   UNL A   1      29.512  29.954  21.823  1.00  0.00     0.044 C 
ATOM     14  C   UNL A   1      30.336  28.999  22.633  1.00  0.00    -0.051 A 
ATOM     15  C   UNL A   1      29.702  28.078  23.470  1.00  0.00     0.004 A 
ATOM     16  C   UNL A   1      31.734  29.023  22.587  1.00  0.00     0.004 A 
ATOM     17  C   UNL A   1      30.453  27.207  24.259  1.00  0.00     0.005 A 
ATOM     18  C   UNL A   1      32.490  28.148  23.378  1.00  0.00     0.005 A 
ENDBRANCH  11  12
BRANCH  11  19
ATOM     19  C   UNL A   1      33.215  26.930  26.423  1.00  0.00     0.023 C 
BRANCH  19  20
ATOM     20  C   UNL A   1      33.368  28.474  26.359  1.00  0.00    -0.010 C 
ATOM     21  C   UNL A   1      32.232  29.280  26.994  1.00  0.00     0.003 C 
ATOM     22  C   UNL A   1      34.543  28.987  27.205  1.00  0.00     0.003 C 
ATOM     23  C   UNL A   1      32.789  30.673  27.242  1.00  0.00     0.000 C 
ATOM     24  C   UNL A   1      34.295  30.488  27.347  1.00  0.00     0.000 C 
ENDBRANCH  19  20
ENDBRANCH  11  19
ENDBRANCH   9  11
ENDBRANCH   8   9
ENDBRANCH   7   8
ENDBRANCH   6   7
ENDBRANCH   5   6
ENDBRANCH   4   5
ENDBRANCH   3   4
ENDBRANCH   2   3
ENDBRANCH   1   2
BRANCH   1  25
ATOM     25  C   UNL A   1      42.342  22.080  25.822  1.00  0.00     0.188 C 
BRANCH  25  26
ATOM     26  O   UNL A   1      43.443  22.575  26.567  1.00  0.00    -0.376 OA
BRANCH  26  27
ATOM     27  C   UNL A   1      43.932  23.837  26.101  1.00  0.00     0.202 C 
BRANCH  27  28
ATOM     28  C   UNL A   1      44.804  24.660  27.081  1.00  0.00     0.261 C 
BRANCH  28  29
ATOM     29  O   UNL A   1      44.014  25.740  27.646  1.00  0.00    -0.460 OA
BRANCH  29  30
ATOM     30  C   UNL A   1      43.931  26.881  26.910  1.00  0.00     0.338 C 
ATOM     31  O   UNL A   1      44.816  27.266  26.154  1.00  0.00    -0.246 OA
BRANCH  30  32
ATOM     32  C   UNL A   1      42.746  27.690  27.365  1.00  0.00     0.060 A 
ATOM     33  C   UNL A   1      42.859  29.083  27.398  1.00  0.00     0.016 A 
ATOM     34  C   UNL A   1      41.666  27.102  28.028  1.00  0.00     0.016 A 
ATOM     35  C   UNL A   1      42.034  29.856  28.246  1.00  0.00     0.010 A 
ATOM     36  C   UNL A   1      40.910  27.862  28.939  1.00  0.00     0.010 A 
ATOM     37  C   UNL A   1      41.125  29.243  29.116  1.00  0.00    -0.014 A 
BRANCH  37  38
ATOM     38  C   UNL A   1      40.571  29.894  30.346  1.00  0.00     0.031 A 
ATOM     39  C   UNL A   1      39.756  31.172  30.313  1.00  0.00     0.074 A 
ATOM     40  C   UNL A   1      40.517  29.203  31.523  1.00  0.00     0.049 A 
ATOM     41  N   UNL A   1      39.313  31.770  31.380  1.00  0.00    -0.248 NA
ATOM     42  C   UNL A   1      39.396  31.919  29.106  1.00  0.00     0.031 C 
ATOM     43  C   UNL A   1      39.494  29.391  32.558  1.00  0.00     0.029 A 
ATOM     44  N   UNL A   1      41.336  28.214  32.091  1.00  0.00    -0.354 N 
ATOM     45  C   UNL A   1      38.330  32.658  31.007  1.00  0.00     0.074 A 
ATOM     46  C   UNL A   1      38.543  32.835  29.592  1.00  0.00     0.031 C 
ATOM     47  C   UNL A   1      39.775  28.672  33.640  1.00  0.00     0.029 A 
ATOM     48  C   UNL A   1      41.123  28.209  33.483  1.00  0.00     0.049 A 
ATOM     49  H   UNL A   1      41.952  27.624  31.599  1.00  0.00     0.167 HD
ATOM     50  C   UNL A   1      37.363  33.035  31.899  1.00  0.00     0.034 A 
ATOM     51  C   UNL A   1      42.057  28.319  34.466  1.00  0.00     0.034 A 
ATOM     52  C   UNL A   1      37.627  32.587  33.283  1.00  0.00     0.049 A 
ATOM     53  C   UNL A   1      41.849  29.519  35.377  1.00  0.00     0.074 A 
ATOM     54  C   UNL A   1      36.896  31.950  34.276  1.00  0.00     0.029 A 
ATOM     55  N   UNL A   1      38.884  32.799  33.834  1.00  0.00    -0.354 N 
ATOM     56  N   UNL A   1      40.752  30.228  35.433  1.00  0.00    -0.248 NA
ATOM     57  C   UNL A   1      42.882  30.074  36.251  1.00  0.00     0.031 C 
ATOM     58  C   UNL A   1      37.757  31.686  35.379  1.00  0.00     0.029 A 
ATOM     59  C   UNL A   1      38.979  32.272  35.108  1.00  0.00     0.049 A 
ATOM     60  H   UNL A   1      39.617  33.268  33.374  1.00  0.00     0.167 HD
ATOM     61  C   UNL A   1      41.006  31.427  36.054  1.00  0.00     0.074 A 
ATOM     62  C   UNL A   1      42.298  31.210  36.679  1.00  0.00     0.031 C 
ATOM     63  C   UNL A   1      40.191  32.518  35.881  1.00  0.00     0.034 A 
BRANCH  50  64
ATOM     64  C   UNL A   1      36.059  33.758  31.552  1.00  0.00     0.023 A 
ATOM     65  C   UNL A   1      35.356  33.318  30.404  1.00  0.00     0.012 A 
ATOM     66  C   UNL A   1      35.512  34.885  32.212  1.00  0.00     0.148 A 
ATOM     67  C   UNL A   1      34.204  33.958  29.925  1.00  0.00     0.002 A 
ATOM     68  C   UNL A   1      34.304  35.462  31.793  1.00  0.00     0.091 A 
ATOM     69  F   UNL A   1      36.193  35.472  33.201  1.00  0.00    -0.205 F 
ATOM     70  C   UNL A   1      33.664  35.018  30.633  1.00  0.00     0.022 A 
BRANCH  68  71
ATOM     71  S   UNL A   1      33.466  36.760  32.723  1.00  0.00     0.127 S 
ATOM     72  O   UNL A   1      33.653  36.324  34.106  1.00  0.00    -0.237 OA
ATOM     73  O   UNL A   1      34.232  37.953  32.355  1.00  0.00    -0.237 OA
ATOM     74  O   UNL A   1      32.085  36.767  32.256  1.00  0.00    -0.744 OA
ENDBRANCH  68  71
ENDBRANCH  50  64
BRANCH  51  75
ATOM     75  C   UNL A   1      43.290  27.543  34.207  1.00  0.00     0.023 A 
ATOM     76  C   UNL A   1      44.380  28.312  33.740  1.00  0.00     0.012 A 
ATOM     77  C   UNL A   1      43.535  26.333  34.873  1.00  0.00     0.148 A 
ATOM     78  C   UNL A   1      45.689  27.960  34.060  1.00  0.00     0.002 A 
ATOM     79  C   UNL A   1      44.842  26.015  35.234  1.00  0.00     0.091 A 
ATOM     80  F   UNL A   1      42.483  25.614  35.286  1.00  0.00    -0.205 F 
ATOM     81  C   UNL A   1      45.916  26.837  34.847  1.00  0.00     0.022 A 
BRANCH  79  82
ATOM     82  S   UNL A   1      45.217  24.722  36.424  1.00  0.00     0.127 S 
ATOM     83  O   UNL A   1      46.674  24.671  36.363  1.00  0.00    -0.237 OA
ATOM     84  O   UNL A   1      44.666  25.286  37.655  1.00  0.00    -0.237 OA
ATOM     85  O   UNL A   1      44.517  23.541  35.940  1.00  0.00    -0.744 OA
ENDBRANCH  79  82
ENDBRANCH  51  75
BRANCH  63  86
ATOM     86  C   UNL A   1      40.468  33.968  36.292  1.00  0.00     0.023 A 
ATOM     87  C   UNL A   1      39.891  34.566  37.427  1.00  0.00     0.012 A 
ATOM     88  C   UNL A   1      41.465  34.739  35.622  1.00  0.00     0.148 A 
ATOM     89  C   UNL A   1      40.264  35.844  37.869  1.00  0.00     0.002 A 
ATOM     90  C   UNL A   1      41.905  35.963  36.125  1.00  0.00     0.091 A 
ATOM     91  F   UNL A   1      41.984  34.307  34.463  1.00  0.00    -0.205 F 
ATOM     92  C   UNL A   1      41.292  36.529  37.239  1.00  0.00     0.022 A 
BRANCH  90  93
ATOM     93  S   UNL A   1      43.372  36.770  35.457  1.00  0.00     0.127 S 
ATOM     94  O   UNL A   1      43.618  37.816  36.447  1.00  0.00    -0.237 OA
ATOM     95  O   UNL A   1      44.357  35.687  35.459  1.00  0.00    -0.237 OA
ATOM     96  O   UNL A   1      42.980  37.218  34.128  1.00  0.00    -0.744 OA
ENDBRANCH  90  93
ENDBRANCH  63  86
ENDBRANCH  37  38
ENDBRANCH  30  32
ENDBRANCH  29  30
ENDBRANCH  28  29
ENDBRANCH  27  28
ENDBRANCH  26  27
ENDBRANCH  25  26
ENDBRANCH   1  25
TORSDOF 26
ENDMDL
MODEL 3
REMARK VINA RESULT:      -7.9      4.546      6.570
REMARK SMILES Cc1ccc([C@H](CC2CCCC2)C(=O)OCCOCCOCCOCCOC(=O)c2ccc(-c3c4nc(c(-c5cccc(S(=O)(=O)[O-])c5F)c5ccc([nH]5)c(-c5cccc(S(=O)(=O)[O-])c5F)c5nc(c(-c6cccc(S(=O)(=O)[O-])c6F)c6ccc3[nH]6)C=C5)C=C4)cc2)cc1
REMARK SMILES IDX 22 1 21 2 20 3 19 4 18 5 17 6 16 7 15 8 13 9 14 10 6 11 5 12
REMARK SMILES IDX 1 13 2 14 3 15 94 16 4 17 93 18 7 19 8 20 9 21 12 22 10 23
REMARK SMILES IDX 11 24 23 25 24 26 25 27 26 28 27 29 28 30 29 31 30 32 31 33
REMARK SMILES IDX 92 34 32 35 91 36 33 37 34 38 35 39 85 40 36 41 90 42 84 43
REMARK SMILES IDX 86 44 37 45 89 46 83 47 82 48 38 50 70 51 50 52 69 53 51 54
REMARK SMILES IDX 54 55 68 56 87 57 52 58 53 59 67 61 88 62 55 63 39 64 40 65
REMARK SMILES IDX 48 66 41 67 43 68 49 69 42 70 44 71 45 72 46 73 47 74 71 75
REMARK SMILES IDX 72 76 80 77 73 78 75 79 81 80 74 81 76 82 77 83 78 84 79 85
REMARK SMILES IDX 56 86 57 87 65 88 58 89 60 90 66 91 59 92 61 93 62 94 63 95
REMARK SMILES IDX 64 96
REMARK H PARENT 86 49 54 60
REMARK Flexibility Score: inf
ROOT
ATOM      1  C   UNL A   1      41.778  21.506  26.819  1.00  0.00     0.188 C 
ENDROOT
BRANCH   1   2
ATOM      2  O   UNL A   1      41.034  22.494  27.501  1.00  0.00    -0.377 OA
BRANCH   2   3
ATOM      3  C   UNL A   1      40.400  23.393  26.609  1.00  0.00     0.188 C 
BRANCH   3   4
ATOM      4  C   UNL A   1      38.867  23.471  26.772  1.00  0.00     0.188 C 
BRANCH   4   5
ATOM      5  O   UNL A   1      38.086  23.246  25.611  1.00  0.00    -0.376 OA
BRANCH   5   6
ATOM      6  C   UNL A   1      36.698  23.088  25.872  1.00  0.00     0.202 C 
BRANCH   6   7
ATOM      7  C   UNL A   1      35.758  23.633  24.786  1.00  0.00     0.261 C 
BRANCH   7   8
ATOM      8  O   UNL A   1      35.141  24.915  25.080  1.00  0.00    -0.463 OA
BRANCH   8   9
ATOM      9  C   UNL A   1      33.915  25.170  24.548  1.00  0.00     0.313 C 
ATOM     10  O   UNL A   1      33.451  24.614  23.557  1.00  0.00    -0.252 OA
BRANCH   9  11
ATOM     11  C   UNL A   1      33.126  26.238  25.314  1.00  0.00     0.129 C 
BRANCH  11  12
ATOM     12  C   UNL A   1      32.373  27.150  24.350  1.00  0.00    -0.034 A 
ATOM     13  C   UNL A   1      30.045  29.729  21.778  1.00  0.00     0.044 C 
ATOM     14  C   UNL A   1      30.858  28.813  22.642  1.00  0.00    -0.051 A 
ATOM     15  C   UNL A   1      30.232  28.083  23.655  1.00  0.00     0.004 A 
ATOM     16  C   UNL A   1      32.241  28.689  22.471  1.00  0.00     0.004 A 
ATOM     17  C   UNL A   1      30.980  27.256  24.493  1.00  0.00     0.005 A 
ATOM     18  C   UNL A   1      32.993  27.856  23.311  1.00  0.00     0.005 A 
ENDBRANCH  11  12
BRANCH  11  19
ATOM     19  C   UNL A   1      33.895  26.993  26.436  1.00  0.00     0.023 C 
BRANCH  19  20
ATOM     20  C   UNL A   1      33.769  28.540  26.390  1.00  0.00    -0.010 C 
ATOM     21  C   UNL A   1      32.584  29.131  27.158  1.00  0.00     0.003 C 
ATOM     22  C   UNL A   1      34.919  29.249  27.121  1.00  0.00     0.003 C 
ATOM     23  C   UNL A   1      32.912  30.600  27.378  1.00  0.00     0.000 C 
ATOM     24  C   UNL A   1      34.430  30.682  27.321  1.00  0.00     0.000 C 
ENDBRANCH  19  20
ENDBRANCH  11  19
ENDBRANCH   9  11
ENDBRANCH   8   9
ENDBRANCH   7   8
ENDBRANCH   6   7
ENDBRANCH   5   6
ENDBRANCH   4   5
ENDBRANCH   3   4
ENDBRANCH   2   3
ENDBRANCH   1   2
BRANCH   1  25
ATOM     25  C   UNL A   1      42.642  22.160  25.750  1.00  0.00     0.188 C 
BRANCH  25  26
ATOM     26  O   UNL A   1      43.770  22.754  26.373  1.00  0.00    -0.376 OA
BRANCH  26  27
ATOM     27  C   UNL A   1      44.136  24.019  25.813  1.00  0.00     0.202 C 
BRANCH  27  28
ATOM     28  C   UNL A   1      45.155  24.873  26.608  1.00  0.00     0.261 C 
BRANCH  28  29
ATOM     29  O   UNL A   1      44.453  25.904  27.350  1.00  0.00    -0.460 OA
BRANCH  29  30
ATOM     30  C   UNL A   1      44.246  27.083  26.704  1.00  0.00     0.338 C 
ATOM     31  O   UNL A   1      45.032  27.558  25.892  1.00  0.00    -0.246 OA
BRANCH  30  32
ATOM     32  C   UNL A   1      43.079  27.801  27.326  1.00  0.00     0.060 A 
ATOM     33  C   UNL A   1      43.121  29.196  27.417  1.00  0.00     0.016 A 
ATOM     34  C   UNL A   1      42.112  27.122  28.073  1.00  0.00     0.016 A 
ATOM     35  C   UNL A   1      42.357  29.880  28.388  1.00  0.00     0.010 A 
ATOM     36  C   UNL A   1      41.424  27.797  29.098  1.00  0.00     0.010 A 
ATOM     37  C   UNL A   1      41.585  29.178  29.321  1.00  0.00    -0.014 A 
BRANCH  37  38
ATOM     38  C   UNL A   1      41.138  29.741  30.635  1.00  0.00     0.031 A 
ATOM     39  C   UNL A   1      40.395  31.055  30.765  1.00  0.00     0.074 A 
ATOM     40  C   UNL A   1      41.114  28.949  31.747  1.00  0.00     0.049 A 
ATOM     41  N   UNL A   1      40.047  31.575  31.907  1.00  0.00    -0.248 NA
ATOM     42  C   UNL A   1      40.009  31.927  29.654  1.00  0.00     0.031 C 
ATOM     43  C   UNL A   1      40.164  29.092  32.856  1.00  0.00     0.029 A 
ATOM     44  N   UNL A   1      41.907  27.872  32.174  1.00  0.00    -0.354 N 
ATOM     45  C   UNL A   1      39.095  32.542  31.675  1.00  0.00     0.074 A 
ATOM     46  C   UNL A   1      39.237  32.836  30.270  1.00  0.00     0.031 C 
ATOM     47  C   UNL A   1      40.466  28.264  33.851  1.00  0.00     0.029 A 
ATOM     48  C   UNL A   1      41.775  27.751  33.570  1.00  0.00     0.049 A 
ATOM     49  H   UNL A   1      42.462  27.299  31.595  1.00  0.00     0.167 HD
ATOM     50  C   UNL A   1      38.203  32.883  32.655  1.00  0.00     0.034 A 
ATOM     51  C   UNL A   1      42.768  27.723  34.500  1.00  0.00     0.034 A 
ATOM     52  C   UNL A   1      38.521  32.298  33.975  1.00  0.00     0.049 A 
ATOM     53  C   UNL A   1      42.679  28.844  35.525  1.00  0.00     0.074 A 
ATOM     54  C   UNL A   1      37.813  31.609  34.950  1.00  0.00     0.029 A 
ATOM     55  N   UNL A   1      39.816  32.395  34.463  1.00  0.00    -0.354 N 
ATOM     56  N   UNL A   1      41.628  29.599  35.711  1.00  0.00    -0.248 NA
ATOM     57  C   UNL A   1      43.789  29.264  36.379  1.00  0.00     0.031 C 
ATOM     58  C   UNL A   1      38.720  31.204  35.971  1.00  0.00     0.029 A 
ATOM     59  C   UNL A   1      39.955  31.750  35.678  1.00  0.00     0.049 A 
ATOM     60  H   UNL A   1      40.547  32.867  34.002  1.00  0.00     0.167 HD
ATOM     61  C   UNL A   1      41.983  30.722  36.418  1.00  0.00     0.074 A 
ATOM     62  C   UNL A   1      43.294  30.384  36.940  1.00  0.00     0.031 C 
ATOM     63  C   UNL A   1      41.221  31.863  36.393  1.00  0.00     0.034 A 
BRANCH  50  64
ATOM     64  C   UNL A   1      36.924  33.698  32.454  1.00  0.00     0.023 A 
ATOM     65  C   UNL A   1      36.535  34.570  33.501  1.00  0.00     0.012 A 
ATOM     66  C   UNL A   1      36.029  33.619  31.359  1.00  0.00     0.148 A 
ATOM     67  C   UNL A   1      35.336  35.297  33.481  1.00  0.00     0.002 A 
ATOM     68  C   UNL A   1      34.882  34.422  31.293  1.00  0.00     0.091 A 
ATOM     69  F   UNL A   1      36.226  32.704  30.405  1.00  0.00    -0.205 F 
ATOM     70  C   UNL A   1      34.518  35.241  32.366  1.00  0.00     0.022 A 
BRANCH  68  71
ATOM     71  S   UNL A   1      33.830  34.506  29.830  1.00  0.00     0.127 S 
ATOM     72  O   UNL A   1      34.707  35.144  28.850  1.00  0.00    -0.237 OA
ATOM     73  O   UNL A   1      33.550  33.094  29.564  1.00  0.00    -0.237 OA
ATOM     74  O   UNL A   1      32.660  35.286  30.216  1.00  0.00    -0.744 OA
ENDBRANCH  68  71
ENDBRANCH  50  64
BRANCH  51  75
ATOM     75  C   UNL A   1      43.939  26.914  34.098  1.00  0.00     0.023 A 
ATOM     76  C   UNL A   1      45.131  27.653  33.920  1.00  0.00     0.012 A 
ATOM     77  C   UNL A   1      44.016  25.548  34.411  1.00  0.00     0.148 A 
ATOM     78  C   UNL A   1      46.371  27.083  34.195  1.00  0.00     0.002 A 
ATOM     79  C   UNL A   1      45.254  25.000  34.735  1.00  0.00     0.091 A 
ATOM     80  F   UNL A   1      42.871  24.868  34.552  1.00  0.00    -0.205 F 
ATOM     81  C   UNL A   1      46.428  25.770  34.648  1.00  0.00     0.022 A 
BRANCH  79  82
ATOM     82  S   UNL A   1      45.410  23.397  35.534  1.00  0.00     0.127 S 
ATOM     83  O   UNL A   1      44.366  22.627  34.866  1.00  0.00    -0.237 OA
ATOM     84  O   UNL A   1      46.779  23.026  35.182  1.00  0.00    -0.237 OA
ATOM     85  O   UNL A   1      45.204  23.654  36.952  1.00  0.00    -0.744 OA
ENDBRANCH  79  82
ENDBRANCH  51  75
BRANCH  63  86
ATOM     86  C   UNL A   1      41.601  33.253  36.913  1.00  0.00     0.023 A 
ATOM     87  C   UNL A   1      42.445  34.130  36.209  1.00  0.00     0.012 A 
ATOM     88  C   UNL A   1      40.977  33.793  38.079  1.00  0.00     0.148 A 
ATOM     89  C   UNL A   1      42.668  35.451  36.629  1.00  0.00     0.002 A 
ATOM     90  C   UNL A   1      41.120  35.133  38.432  1.00  0.00     0.091 A 
ATOM     91  F   UNL A   1      40.253  32.999  38.882  1.00  0.00    -0.205 F 
ATOM     92  C   UNL A   1      41.983  35.962  37.720  1.00  0.00     0.022 A 
BRANCH  90  93
ATOM     93  S   UNL A   1      40.086  35.876  39.708  1.00  0.00     0.127 S 
ATOM     94  O   UNL A   1      40.435  37.290  39.597  1.00  0.00    -0.237 OA
ATOM     95  O   UNL A   1      38.735  35.545  39.251  1.00  0.00    -0.237 OA
ATOM     96  O   UNL A   1      40.478  35.208  40.942  1.00  0.00    -0.744 OA
ENDBRANCH  90  93
ENDBRANCH  63  86
ENDBRANCH  37  38
ENDBRANCH  30  32
ENDBRANCH  29  30
ENDBRANCH  28  29
ENDBRANCH  27  28
ENDBRANCH  26  27
ENDBRANCH  25  26
ENDBRANCH   1  25
TORSDOF 26
ENDMDL
