MODEL 1
REMARK VINA RESULT:      -9.4      0.000      0.000
REMARK SMILES Cc1cccc(C)c1Nc1ccccc1CC(=O)OCCOCCOCCOCCOC(=O)c1ccc(-c2c3nc(c(-c4cccc(S(=O)(=O)[O-])c4F)c4ccc([nH]4)c(-c4cccc(S(=O)(=O)[O-])c4F)c4nc(c(-c5cccc(S(=O)(=O)[O-])c5F)c5ccc2[nH]5)C=C4)C=C3)cc1
REMARK SMILES IDX 25 1 24 2 23 3 22 4 21 5 20 6 19 7 17 8 18 9 16 10 15 11
REMARK SMILES IDX 10 12 11 13 12 14 14 15 13 16 9 17 8 19 1 20 2 21 3 22 4 23
REMARK SMILES IDX 6 24 5 25 7 26 26 27 27 28 28 29 29 30 30 31 31 32 32 33
REMARK SMILES IDX 33 34 34 35 35 36 96 37 36 38 95 39 37 40 38 41 39 42 89 43
REMARK SMILES IDX 40 44 94 45 88 46 90 47 41 48 93 49 87 50 86 51 42 53 74 54
REMARK SMILES IDX 54 55 73 56 55 57 58 58 72 59 91 60 56 61 57 62 71 64 92 65
REMARK SMILES IDX 59 66 43 67 44 68 52 69 45 70 47 71 53 72 46 73 48 74 49 75
REMARK SMILES IDX 50 76 51 77 75 78 76 79 84 80 77 81 79 82 85 83 78 84 80 85
REMARK SMILES IDX 81 86 82 87 83 88 60 89 61 90 69 91 62 92 64 93 70 94 63 95
REMARK SMILES IDX 65 96 66 97 67 98 68 99
REMARK H PARENT 9 18 90 52 58 63
REMARK Flexibility Score: inf
ROOT
ATOM      1  O   UNL A   1      43.872  18.333  25.643  1.00  0.00    -0.377 OA
ENDROOT
BRANCH   1   2
ATOM      2  C   UNL A   1      42.878  19.324  25.785  1.00  0.00     0.188 C 
BRANCH   2   3
ATOM      3  C   UNL A   1      42.089  19.238  27.108  1.00  0.00     0.188 C 
BRANCH   3   4
ATOM      4  O   UNL A   1      41.248  20.305  27.551  1.00  0.00    -0.376 OA
BRANCH   4   5
ATOM      5  C   UNL A   1      41.069  21.439  26.716  1.00  0.00     0.202 C 
BRANCH   5   6
ATOM      6  C   UNL A   1      40.110  22.535  27.230  1.00  0.00     0.261 C 
BRANCH   6   7
ATOM      7  O   UNL A   1      38.851  22.649  26.522  1.00  0.00    -0.463 OA
BRANCH   7   8
ATOM      8  C   UNL A   1      38.237  23.851  26.567  1.00  0.00     0.310 C 
ATOM      9  O   UNL A   1      38.851  24.918  26.514  1.00  0.00    -0.252 OA
BRANCH   8  10
ATOM     10  C   UNL A   1      36.717  23.856  26.528  1.00  0.00     0.160 C 
BRANCH  10  11
ATOM     11  C   UNL A   1      35.856  23.604  25.286  1.00  0.00    -0.013 A 
ATOM     12  C   UNL A   1      34.452  23.703  25.266  1.00  0.00     0.042 A 
ATOM     13  C   UNL A   1      33.738  23.342  24.100  1.00  0.00     0.026 A 
ATOM     14  C   UNL A   1      34.394  23.034  22.914  1.00  0.00     0.002 A 
ATOM     15  C   UNL A   1      36.496  23.388  24.042  1.00  0.00     0.006 A 
ATOM     16  C   UNL A   1      35.778  23.106  22.873  1.00  0.00     0.000 A 
BRANCH  12  17
ATOM     17  N   UNL A   1      33.712  24.370  26.259  1.00  0.00    -0.355 N 
ATOM     18  H   UNL A   1      34.116  24.344  27.156  1.00  0.00     0.167 HD
BRANCH  17  19
ATOM     19  C   UNL A   1      32.486  25.072  26.186  1.00  0.00     0.044 A 
ATOM     20  C   UNL A   1      33.868  27.171  25.754  1.00  0.00     0.046 C 
ATOM     21  C   UNL A   1      32.549  26.444  25.839  1.00  0.00    -0.027 A 
ATOM     22  C   UNL A   1      31.378  27.133  25.494  1.00  0.00     0.005 A 
ATOM     23  C   UNL A   1      30.147  26.489  25.496  1.00  0.00     0.001 A 
ATOM     24  C   UNL A   1      31.210  24.449  26.288  1.00  0.00    -0.027 A 
ATOM     25  C   UNL A   1      30.062  25.163  25.900  1.00  0.00     0.005 A 
ATOM     26  C   UNL A   1      30.980  23.021  26.719  1.00  0.00     0.046 C 
ENDBRANCH  17  19
ENDBRANCH  12  17
ENDBRANCH  10  11
ENDBRANCH   8  10
ENDBRANCH   7   8
ENDBRANCH   6   7
ENDBRANCH   5   6
ENDBRANCH   4   5
ENDBRANCH   3   4
ENDBRANCH   2   3
ENDBRANCH   1   2
BRANCH   1  27
ATOM     27  C   UNL A   1      44.935  18.666  24.783  1.00  0.00     0.188 C 
BRANCH  27  28
ATOM     28  C   UNL A   1      46.278  18.857  25.499  1.00  0.00     0.188 C 
BRANCH  28  29
ATOM     29  O   UNL A   1      46.898  20.103  25.192  1.00  0.00    -0.376 OA
BRANCH  29  30
ATOM     30  C   UNL A   1      46.127  21.135  24.604  1.00  0.00     0.202 C 
BRANCH  30  31
ATOM     31  C   UNL A   1      45.856  22.424  25.402  1.00  0.00     0.261 C 
BRANCH  31  32
ATOM     32  O   UNL A   1      45.219  23.507  24.717  1.00  0.00    -0.460 OA
BRANCH  32  33
ATOM     33  C   UNL A   1      43.891  23.688  24.917  1.00  0.00     0.338 C 
ATOM     34  O   UNL A   1      43.006  22.916  24.634  1.00  0.00    -0.246 OA
BRANCH  33  35
ATOM     35  C   UNL A   1      43.733  24.908  25.751  1.00  0.00     0.060 A 
ATOM     36  C   UNL A   1      43.377  26.107  25.119  1.00  0.00     0.016 A 
ATOM     37  C   UNL A   1      43.881  24.861  27.139  1.00  0.00     0.016 A 
ATOM     38  C   UNL A   1      43.183  27.266  25.870  1.00  0.00     0.010 A 
ATOM     39  C   UNL A   1      43.727  26.033  27.888  1.00  0.00     0.010 A 
ATOM     40  C   UNL A   1      43.408  27.246  27.252  1.00  0.00    -0.014 A 
BRANCH  40  41
ATOM     41  C   UNL A   1      43.539  28.530  27.981  1.00  0.00     0.031 A 
ATOM     42  C   UNL A   1      42.296  29.116  28.594  1.00  0.00     0.074 A 
ATOM     43  C   UNL A   1      44.721  29.157  28.111  1.00  0.00     0.049 A 
ATOM     44  N   UNL A   1      42.144  30.230  29.259  1.00  0.00    -0.248 NA
ATOM     45  C   UNL A   1      41.057  28.334  28.436  1.00  0.00     0.031 C 
ATOM     46  C   UNL A   1      45.996  28.680  27.580  1.00  0.00     0.029 A 
ATOM     47  N   UNL A   1      45.031  30.350  28.717  1.00  0.00    -0.354 N 
ATOM     48  C   UNL A   1      40.791  30.299  29.571  1.00  0.00     0.074 A 
ATOM     49  C   UNL A   1      40.164  29.121  29.017  1.00  0.00     0.031 C 
ATOM     50  C   UNL A   1      46.948  29.590  27.854  1.00  0.00     0.029 A 
ATOM     51  C   UNL A   1      46.345  30.723  28.556  1.00  0.00     0.049 A 
ATOM     52  H   UNL A   1      44.376  30.886  29.218  1.00  0.00     0.167 HD
ATOM     53  C   UNL A   1      40.129  31.254  30.264  1.00  0.00     0.034 A 
ATOM     54  C   UNL A   1      46.976  31.861  28.910  1.00  0.00     0.034 A 
ATOM     55  C   UNL A   1      40.755  32.424  30.816  1.00  0.00     0.049 A 
ATOM     56  C   UNL A   1      46.207  32.931  29.645  1.00  0.00     0.074 A 
ATOM     57  C   UNL A   1      40.179  33.431  31.569  1.00  0.00     0.029 A 
ATOM     58  N   UNL A   1      42.091  32.756  30.655  1.00  0.00    -0.354 N 
ATOM     59  N   UNL A   1      44.953  32.933  30.031  1.00  0.00    -0.248 NA
ATOM     60  C   UNL A   1      46.949  34.144  30.024  1.00  0.00     0.031 C 
ATOM     61  C   UNL A   1      41.159  34.395  31.826  1.00  0.00     0.029 A 
ATOM     62  C   UNL A   1      42.356  33.962  31.277  1.00  0.00     0.049 A 
ATOM     63  H   UNL A   1      42.753  32.212  30.170  1.00  0.00     0.167 HD
ATOM     64  C   UNL A   1      44.768  34.123  30.729  1.00  0.00     0.074 A 
ATOM     65  C   UNL A   1      46.043  34.809  30.728  1.00  0.00     0.031 C 
ATOM     66  C   UNL A   1      43.643  34.610  31.310  1.00  0.00     0.034 A 
BRANCH  53  67
ATOM     67  C   UNL A   1      38.649  31.071  30.463  1.00  0.00     0.023 A 
ATOM     68  C   UNL A   1      38.173  30.156  31.424  1.00  0.00     0.012 A 
ATOM     69  C   UNL A   1      37.727  31.837  29.722  1.00  0.00     0.148 A 
ATOM     70  C   UNL A   1      36.804  29.982  31.622  1.00  0.00     0.002 A 
ATOM     71  C   UNL A   1      36.366  31.695  29.960  1.00  0.00     0.091 A 
ATOM     72  F   UNL A   1      38.200  32.682  28.794  1.00  0.00    -0.205 F 
ATOM     73  C   UNL A   1      35.902  30.759  30.899  1.00  0.00     0.022 A 
BRANCH  71  74
ATOM     74  S   UNL A   1      35.130  32.704  29.137  1.00  0.00     0.127 S 
ATOM     75  O   UNL A   1      34.317  33.154  30.265  1.00  0.00    -0.237 OA
ATOM     76  O   UNL A   1      35.950  33.748  28.521  1.00  0.00    -0.237 OA
ATOM     77  O   UNL A   1      34.455  31.825  28.193  1.00  0.00    -0.744 OA
ENDBRANCH  71  74
ENDBRANCH  53  67
BRANCH  54  78
ATOM     78  C   UNL A   1      48.420  32.049  28.589  1.00  0.00     0.023 A 
ATOM     79  C   UNL A   1      49.403  31.588  29.485  1.00  0.00     0.012 A 
ATOM     80  C   UNL A   1      48.822  32.688  27.399  1.00  0.00     0.148 A 
ATOM     81  C   UNL A   1      50.759  31.789  29.220  1.00  0.00     0.002 A 
ATOM     82  C   UNL A   1      50.174  32.835  27.113  1.00  0.00     0.091 A 
ATOM     83  F   UNL A   1      47.872  33.136  26.567  1.00  0.00    -0.205 F 
ATOM     84  C   UNL A   1      51.144  32.403  28.031  1.00  0.00     0.022 A 
BRANCH  82  85
ATOM     85  S   UNL A   1      50.765  33.505  25.555  1.00  0.00     0.127 S 
ATOM     86  O   UNL A   1      51.937  34.265  25.981  1.00  0.00    -0.237 OA
ATOM     87  O   UNL A   1      51.062  32.287  24.799  1.00  0.00    -0.237 OA
ATOM     88  O   UNL A   1      49.664  34.293  25.019  1.00  0.00    -0.744 OA
ENDBRANCH  82  85
ENDBRANCH  54  78
BRANCH  66  89
ATOM     89  C   UNL A   1      43.739  35.925  32.041  1.00  0.00     0.023 A 
ATOM     90  C   UNL A   1      43.843  35.949  33.446  1.00  0.00     0.012 A 
ATOM     91  C   UNL A   1      43.810  37.136  31.323  1.00  0.00     0.148 A 
ATOM     92  C   UNL A   1      43.976  37.160  34.126  1.00  0.00     0.002 A 
ATOM     93  C   UNL A   1      43.999  38.332  32.003  1.00  0.00     0.091 A 
ATOM     94  F   UNL A   1      43.697  37.094  29.987  1.00  0.00    -0.205 F 
ATOM     95  C   UNL A   1      44.067  38.348  33.405  1.00  0.00     0.022 A 
BRANCH  93  96
ATOM     96  S   UNL A   1      44.229  39.898  31.154  1.00  0.00     0.127 S 
ATOM     97  O   UNL A   1      45.375  39.606  30.294  1.00  0.00    -0.237 OA
ATOM     98  O   UNL A   1      42.958  40.053  30.443  1.00  0.00    -0.237 OA
ATOM     99  O   UNL A   1      44.467  40.891  32.192  1.00  0.00    -0.744 OA
ENDBRANCH  93  96
ENDBRANCH  66  89
ENDBRANCH  40  41
ENDBRANCH  33  35
ENDBRANCH  32  33
ENDBRANCH  31  32
ENDBRANCH  30  31
ENDBRANCH  29  30
ENDBRANCH  28  29
ENDBRANCH  27  28
ENDBRANCH   1  27
TORSDOF 26
ENDMDL
MODEL 2
REMARK VINA RESULT:      -9.3      1.793      2.444
REMARK SMILES Cc1cccc(C)c1Nc1ccccc1CC(=O)OCCOCCOCCOCCOC(=O)c1ccc(-c2c3nc(c(-c4cccc(S(=O)(=O)[O-])c4F)c4ccc([nH]4)c(-c4cccc(S(=O)(=O)[O-])c4F)c4nc(c(-c5cccc(S(=O)(=O)[O-])c5F)c5ccc2[nH]5)C=C4)C=C3)cc1
REMARK SMILES IDX 25 1 24 2 23 3 22 4 21 5 20 6 19 7 17 8 18 9 16 10 15 11
REMARK SMILES IDX 10 12 11 13 12 14 14 15 13 16 9 17 8 19 1 20 2 21 3 22 4 23
REMARK SMILES IDX 6 24 5 25 7 26 26 27 27 28 28 29 29 30 30 31 31 32 32 33
REMARK SMILES IDX 33 34 34 35 35 36 96 37 36 38 95 39 37 40 38 41 39 42 89 43
REMARK SMILES IDX 40 44 94 45 88 46 90 47 41 48 93 49 87 50 86 51 42 53 74 54
REMARK SMILES IDX 54 55 73 56 55 57 58 58 72 59 91 60 56 61 57 62 71 64 92 65
REMARK SMILES IDX 59 66 43 67 44 68 52 69 45 70 47 71 53 72 46 73 48 74 49 75
REMARK SMILES IDX 50 76 51 77 75 78 76 79 84 80 77 81 79 82 85 83 78 84 80 85
REMARK SMILES IDX 81 86 82 87 83 88 60 89 61 90 69 91 62 92 64 93 70 94 63 95
REMARK SMILES IDX 65 96 66 97 67 98 68 99
REMARK H PARENT 9 18 90 52 58 63
REMARK Flexibility Score: inf
ROOT
ATOM      1  O   UNL A   1      43.824  18.378  25.865  1.00  0.00    -0.377 OA
ENDROOT
BRANCH   1   2
ATOM      2  C   UNL A   1      42.838  19.385  25.807  1.00  0.00     0.188 C 
BRANCH   2   3
ATOM      3  C   UNL A   1      42.031  19.550  27.111  1.00  0.00     0.188 C 
BRANCH   3   4
ATOM      4  O   UNL A   1      41.103  20.622  27.289  1.00  0.00    -0.376 OA
BRANCH   4   5
ATOM      5  C   UNL A   1      40.335  21.066  26.181  1.00  0.00     0.202 C 
BRANCH   5   6
ATOM      6  C   UNL A   1      39.489  22.341  26.389  1.00  0.00     0.261 C 
BRANCH   6   7
ATOM      7  O   UNL A   1      38.054  22.147  26.394  1.00  0.00    -0.463 OA
BRANCH   7   8
ATOM      8  C   UNL A   1      37.386  22.527  25.283  1.00  0.00     0.310 C 
ATOM      9  O   UNL A   1      37.376  21.858  24.248  1.00  0.00    -0.252 OA
BRANCH   8  10
ATOM     10  C   UNL A   1      36.498  23.756  25.392  1.00  0.00     0.160 C 
BRANCH  10  11
ATOM     11  C   UNL A   1      35.047  23.767  25.880  1.00  0.00    -0.013 A 
ATOM     12  C   UNL A   1      34.093  24.730  25.500  1.00  0.00     0.042 A 
ATOM     13  C   UNL A   1      32.809  24.721  26.092  1.00  0.00     0.026 A 
ATOM     14  C   UNL A   1      32.405  23.689  26.933  1.00  0.00     0.002 A 
ATOM     15  C   UNL A   1      34.576  22.679  26.655  1.00  0.00     0.006 A 
ATOM     16  C   UNL A   1      33.277  22.640  27.175  1.00  0.00     0.000 A 
BRANCH  12  17
ATOM     17  N   UNL A   1      34.250  25.570  24.383  1.00  0.00    -0.355 N 
ATOM     18  H   UNL A   1      35.170  25.627  24.041  1.00  0.00     0.167 HD
BRANCH  17  19
ATOM     19  C   UNL A   1      33.308  26.348  23.669  1.00  0.00     0.044 A 
ATOM     20  C   UNL A   1      33.004  24.328  22.141  1.00  0.00     0.046 C 
ATOM     21  C   UNL A   1      32.613  25.706  22.614  1.00  0.00    -0.027 A 
ATOM     22  C   UNL A   1      31.492  26.322  22.038  1.00  0.00     0.005 A 
ATOM     23  C   UNL A   1      31.055  27.563  22.485  1.00  0.00     0.001 A 
ATOM     24  C   UNL A   1      32.917  27.663  24.046  1.00  0.00    -0.027 A 
ATOM     25  C   UNL A   1      31.767  28.232  23.471  1.00  0.00     0.005 A 
ATOM     26  C   UNL A   1      33.608  28.499  25.097  1.00  0.00     0.046 C 
ENDBRANCH  17  19
ENDBRANCH  12  17
ENDBRANCH  10  11
ENDBRANCH   8  10
ENDBRANCH   7   8
ENDBRANCH   6   7
ENDBRANCH   5   6
ENDBRANCH   4   5
ENDBRANCH   3   4
ENDBRANCH   2   3
ENDBRANCH   1   2
BRANCH   1  27
ATOM     27  C   UNL A   1      44.858  18.492  24.916  1.00  0.00     0.188 C 
BRANCH  27  28
ATOM     28  C   UNL A   1      46.248  18.695  25.533  1.00  0.00     0.188 C 
BRANCH  28  29
ATOM     29  O   UNL A   1      46.943  19.810  24.981  1.00  0.00    -0.376 OA
BRANCH  29  30
ATOM     30  C   UNL A   1      46.207  20.934  24.534  1.00  0.00     0.202 C 
BRANCH  30  31
ATOM     31  C   UNL A   1      45.623  21.915  25.568  1.00  0.00     0.261 C 
BRANCH  31  32
ATOM     32  O   UNL A   1      45.348  23.251  25.135  1.00  0.00    -0.460 OA
BRANCH  32  33
ATOM     33  C   UNL A   1      44.051  23.631  25.042  1.00  0.00     0.338 C 
ATOM     34  O   UNL A   1      43.141  22.988  24.574  1.00  0.00    -0.246 OA
BRANCH  33  35
ATOM     35  C   UNL A   1      43.903  24.887  25.822  1.00  0.00     0.060 A 
ATOM     36  C   UNL A   1      43.499  26.048  25.148  1.00  0.00     0.016 A 
ATOM     37  C   UNL A   1      44.108  24.911  27.203  1.00  0.00     0.016 A 
ATOM     38  C   UNL A   1      43.313  27.238  25.849  1.00  0.00     0.010 A 
ATOM     39  C   UNL A   1      43.963  26.116  27.900  1.00  0.00     0.010 A 
ATOM     40  C   UNL A   1      43.595  27.291  27.220  1.00  0.00    -0.014 A 
BRANCH  40  41
ATOM     41  C   UNL A   1      43.730  28.611  27.879  1.00  0.00     0.031 A 
ATOM     42  C   UNL A   1      42.523  29.168  28.585  1.00  0.00     0.074 A 
ATOM     43  C   UNL A   1      44.887  29.296  27.870  1.00  0.00     0.049 A 
ATOM     44  N   UNL A   1      42.380  30.303  29.215  1.00  0.00    -0.248 NA
ATOM     45  C   UNL A   1      41.315  28.325  28.579  1.00  0.00     0.031 C 
ATOM     46  C   UNL A   1      46.129  28.853  27.238  1.00  0.00     0.029 A 
ATOM     47  N   UNL A   1      45.194  30.528  28.393  1.00  0.00    -0.354 N 
ATOM     48  C   UNL A   1      41.061  30.326  29.653  1.00  0.00     0.074 A 
ATOM     49  C   UNL A   1      40.443  29.096  29.210  1.00  0.00     0.031 C 
ATOM     50  C   UNL A   1      47.056  29.816  27.382  1.00  0.00     0.029 A 
ATOM     51  C   UNL A   1      46.467  30.951  28.092  1.00  0.00     0.049 A 
ATOM     52  H   UNL A   1      44.563  31.056  28.933  1.00  0.00     0.167 HD
ATOM     53  C   UNL A   1      40.421  31.279  30.366  1.00  0.00     0.034 A 
ATOM     54  C   UNL A   1      47.072  32.132  28.336  1.00  0.00     0.034 A 
ATOM     55  C   UNL A   1      41.038  32.500  30.807  1.00  0.00     0.049 A 
ATOM     56  C   UNL A   1      46.324  33.199  29.098  1.00  0.00     0.074 A 
ATOM     57  C   UNL A   1      40.486  33.514  31.570  1.00  0.00     0.029 A 
ATOM     58  N   UNL A   1      42.335  32.885  30.505  1.00  0.00    -0.354 N 
ATOM     59  N   UNL A   1      45.113  33.162  29.602  1.00  0.00    -0.248 NA
ATOM     60  C   UNL A   1      47.038  34.460  29.353  1.00  0.00     0.031 C 
ATOM     61  C   UNL A   1      41.438  34.532  31.692  1.00  0.00     0.029 A 
ATOM     62  C   UNL A   1      42.598  34.129  31.048  1.00  0.00     0.049 A 
ATOM     63  H   UNL A   1      42.974  32.350  29.981  1.00  0.00     0.167 HD
ATOM     64  C   UNL A   1      44.936  34.373  30.265  1.00  0.00     0.074 A 
ATOM     65  C   UNL A   1      46.171  35.114  30.113  1.00  0.00     0.031 C 
ATOM     66  C   UNL A   1      43.849  34.834  30.931  1.00  0.00     0.034 A 
BRANCH  53  67
ATOM     67  C   UNL A   1      38.977  31.040  30.714  1.00  0.00     0.023 A 
ATOM     68  C   UNL A   1      38.641  30.221  31.812  1.00  0.00     0.012 A 
ATOM     69  C   UNL A   1      37.950  31.659  29.974  1.00  0.00     0.148 A 
ATOM     70  C   UNL A   1      37.307  29.996  32.147  1.00  0.00     0.002 A 
ATOM     71  C   UNL A   1      36.625  31.471  30.345  1.00  0.00     0.091 A 
ATOM     72  F   UNL A   1      38.290  32.412  28.918  1.00  0.00    -0.205 F 
ATOM     73  C   UNL A   1      36.300  30.629  31.422  1.00  0.00     0.022 A 
BRANCH  71  74
ATOM     74  S   UNL A   1      35.263  32.304  29.524  1.00  0.00     0.127 S 
ATOM     75  O   UNL A   1      34.817  31.281  28.579  1.00  0.00    -0.237 OA
ATOM     76  O   UNL A   1      34.343  32.550  30.635  1.00  0.00    -0.237 OA
ATOM     77  O   UNL A   1      35.826  33.504  28.923  1.00  0.00    -0.744 OA
ENDBRANCH  71  74
ENDBRANCH  53  67
BRANCH  54  78
ATOM     78  C   UNL A   1      48.468  32.370  27.870  1.00  0.00     0.023 A 
ATOM     79  C   UNL A   1      48.696  32.992  26.628  1.00  0.00     0.012 A 
ATOM     80  C   UNL A   1      49.572  31.978  28.653  1.00  0.00     0.148 A 
ATOM     81  C   UNL A   1      49.995  33.190  26.157  1.00  0.00     0.002 A 
ATOM     82  C   UNL A   1      50.864  32.229  28.206  1.00  0.00     0.091 A 
ATOM     83  F   UNL A   1      49.335  31.372  29.825  1.00  0.00    -0.205 F 
ATOM     84  C   UNL A   1      51.078  32.817  26.949  1.00  0.00     0.022 A 
BRANCH  82  85
ATOM     85  S   UNL A   1      52.315  31.892  29.208  1.00  0.00     0.127 S 
ATOM     86  O   UNL A   1      52.282  30.435  29.305  1.00  0.00    -0.237 OA
ATOM     87  O   UNL A   1      53.389  32.430  28.371  1.00  0.00    -0.237 OA
ATOM     88  O   UNL A   1      52.110  32.611  30.458  1.00  0.00    -0.744 OA
ENDBRANCH  82  85
ENDBRANCH  54  78
BRANCH  66  89
ATOM     89  C   UNL A   1      43.949  36.184  31.596  1.00  0.00     0.023 A 
ATOM     90  C   UNL A   1      43.787  37.361  30.839  1.00  0.00     0.012 A 
ATOM     91  C   UNL A   1      44.125  36.279  32.991  1.00  0.00     0.148 A 
ATOM     92  C   UNL A   1      43.835  38.612  31.455  1.00  0.00     0.002 A 
ATOM     93  C   UNL A   1      44.116  37.525  33.605  1.00  0.00     0.091 A 
ATOM     94  F   UNL A   1      44.289  35.148  33.693  1.00  0.00    -0.205 F 
ATOM     95  C   UNL A   1      43.986  38.694  32.837  1.00  0.00     0.022 A 
BRANCH  93  96
ATOM     96  S   UNL A   1      44.202  37.722  35.389  1.00  0.00     0.127 S 
ATOM     97  O   UNL A   1      44.249  39.178  35.526  1.00  0.00    -0.237 OA
ATOM     98  O   UNL A   1      42.949  37.108  35.828  1.00  0.00    -0.237 OA
ATOM     99  O   UNL A   1      45.404  37.019  35.816  1.00  0.00    -0.744 OA
ENDBRANCH  93  96
ENDBRANCH  66  89
ENDBRANCH  40  41
ENDBRANCH  33  35
ENDBRANCH  32  33
ENDBRANCH  31  32
ENDBRANCH  30  31
ENDBRANCH  29  30
ENDBRANCH  28  29
ENDBRANCH  27  28
ENDBRANCH   1  27
TORSDOF 26
ENDMDL
MODEL 3
REMARK VINA RESULT:      -8.9      5.407     10.463
REMARK SMILES Cc1cccc(C)c1Nc1ccccc1CC(=O)OCCOCCOCCOCCOC(=O)c1ccc(-c2c3nc(c(-c4cccc(S(=O)(=O)[O-])c4F)c4ccc([nH]4)c(-c4cccc(S(=O)(=O)[O-])c4F)c4nc(c(-c5cccc(S(=O)(=O)[O-])c5F)c5ccc2[nH]5)C=C4)C=C3)cc1
REMARK SMILES IDX 25 1 24 2 23 3 22 4 21 5 20 6 19 7 17 8 18 9 16 10 15 11
REMARK SMILES IDX 10 12 11 13 12 14 14 15 13 16 9 17 8 19 1 20 2 21 3 22 4 23
REMARK SMILES IDX 6 24 5 25 7 26 26 27 27 28 28 29 29 30 30 31 31 32 32 33
REMARK SMILES IDX 33 34 34 35 35 36 96 37 36 38 95 39 37 40 38 41 39 42 89 43
REMARK SMILES IDX 40 44 94 45 88 46 90 47 41 48 93 49 87 50 86 51 42 53 74 54
REMARK SMILES IDX 54 55 73 56 55 57 58 58 72 59 91 60 56 61 57 62 71 64 92 65
REMARK SMILES IDX 59 66 43 67 44 68 52 69 45 70 47 71 53 72 46 73 48 74 49 75
REMARK SMILES IDX 50 76 51 77 75 78 76 79 84 80 77 81 79 82 85 83 78 84 80 85
REMARK SMILES IDX 81 86 82 87 83 88 60 89 61 90 69 91 62 92 64 93 70 94 63 95
REMARK SMILES IDX 65 96 66 97 67 98 68 99
REMARK H PARENT 9 18 90 52 58 63
REMARK Flexibility Score: inf
ROOT
ATOM      1  O   UNL A   1      42.309  28.917  28.303  1.00  0.00    -0.377 OA
ENDROOT
BRANCH   1   2
ATOM      2  C   UNL A   1      41.897  30.021  29.079  1.00  0.00     0.188 C 
BRANCH   2   3
ATOM      3  C   UNL A   1      40.427  29.950  29.543  1.00  0.00     0.188 C 
BRANCH   3   4
ATOM      4  O   UNL A   1      39.501  31.002  29.263  1.00  0.00    -0.376 OA
BRANCH   4   5
ATOM      5  C   UNL A   1      38.129  30.820  29.577  1.00  0.00     0.202 C 
BRANCH   5   6
ATOM      6  C   UNL A   1      37.281  30.034  28.553  1.00  0.00     0.261 C 
BRANCH   6   7
ATOM      7  O   UNL A   1      36.635  30.831  27.530  1.00  0.00    -0.463 OA
BRANCH   7   8
ATOM      8  C   UNL A   1      35.609  31.614  27.929  1.00  0.00     0.310 C 
ATOM      9  O   UNL A   1      34.516  31.159  28.272  1.00  0.00    -0.252 OA
BRANCH   8  10
ATOM     10  C   UNL A   1      35.892  33.098  28.097  1.00  0.00     0.160 C 
BRANCH  10  11
ATOM     11  C   UNL A   1      34.978  34.106  28.800  1.00  0.00    -0.013 A 
ATOM     12  C   UNL A   1      34.745  34.125  30.188  1.00  0.00     0.042 A 
ATOM     13  C   UNL A   1      33.797  35.024  30.730  1.00  0.00     0.026 A 
ATOM     14  C   UNL A   1      33.193  36.001  29.946  1.00  0.00     0.002 A 
ATOM     15  C   UNL A   1      34.429  35.173  28.049  1.00  0.00     0.006 A 
ATOM     16  C   UNL A   1      33.549  36.106  28.611  1.00  0.00     0.000 A 
BRANCH  12  17
ATOM     17  N   UNL A   1      35.571  33.469  31.117  1.00  0.00    -0.355 N 
ATOM     18  H   UNL A   1      35.622  32.493  31.001  1.00  0.00     0.167 HD
BRANCH  17  19
ATOM     19  C   UNL A   1      36.341  33.973  32.192  1.00  0.00     0.044 A 
ATOM     20  C   UNL A   1      34.369  33.392  33.700  1.00  0.00     0.046 C 
ATOM     21  C   UNL A   1      35.791  33.849  33.491  1.00  0.00    -0.027 A 
ATOM     22  C   UNL A   1      36.594  34.082  34.617  1.00  0.00     0.005 A 
ATOM     23  C   UNL A   1      37.929  34.443  34.475  1.00  0.00     0.001 A 
ATOM     24  C   UNL A   1      37.677  34.446  32.056  1.00  0.00    -0.027 A 
ATOM     25  C   UNL A   1      38.461  34.634  33.208  1.00  0.00     0.005 A 
ATOM     26  C   UNL A   1      38.372  34.700  30.740  1.00  0.00     0.046 C 
ENDBRANCH  17  19
ENDBRANCH  12  17
ENDBRANCH  10  11
ENDBRANCH   8  10
ENDBRANCH   7   8
ENDBRANCH   6   7
ENDBRANCH   5   6
ENDBRANCH   4   5
ENDBRANCH   3   4
ENDBRANCH   2   3
ENDBRANCH   1   2
BRANCH   1  27
ATOM     27  C   UNL A   1      41.557  28.687  27.136  1.00  0.00     0.188 C 
BRANCH  27  28
ATOM     28  C   UNL A   1      40.417  27.677  27.318  1.00  0.00     0.188 C 
BRANCH  28  29
ATOM     29  O   UNL A   1      40.546  26.905  28.509  1.00  0.00    -0.376 OA
BRANCH  29  30
ATOM     30  C   UNL A   1      39.432  26.170  28.983  1.00  0.00     0.202 C 
BRANCH  30  31
ATOM     31  C   UNL A   1      38.773  26.572  30.315  1.00  0.00     0.261 C 
BRANCH  31  32
ATOM     32  O   UNL A   1      39.505  27.446  31.181  1.00  0.00    -0.460 OA
BRANCH  32  33
ATOM     33  C   UNL A   1      38.934  27.791  32.361  1.00  0.00     0.338 C 
ATOM     34  O   UNL A   1      38.182  27.116  33.024  1.00  0.00    -0.246 OA
BRANCH  33  35
ATOM     35  C   UNL A   1      39.573  29.056  32.806  1.00  0.00     0.060 A 
ATOM     36  C   UNL A   1      38.763  30.187  32.984  1.00  0.00     0.016 A 
ATOM     37  C   UNL A   1      40.938  29.116  33.096  1.00  0.00     0.016 A 
ATOM     38  C   UNL A   1      39.318  31.383  33.436  1.00  0.00     0.010 A 
ATOM     39  C   UNL A   1      41.501  30.328  33.510  1.00  0.00     0.010 A 
ATOM     40  C   UNL A   1      40.698  31.474  33.651  1.00  0.00    -0.014 A 
BRANCH  40  41
ATOM     41  C   UNL A   1      41.320  32.812  33.792  1.00  0.00     0.031 A 
ATOM     42  C   UNL A   1      41.805  33.492  32.540  1.00  0.00     0.074 A 
ATOM     43  C   UNL A   1      41.443  33.418  34.985  1.00  0.00     0.049 A 
ATOM     44  N   UNL A   1      42.399  34.648  32.400  1.00  0.00    -0.248 NA
ATOM     45  C   UNL A   1      41.587  32.769  31.275  1.00  0.00     0.031 C 
ATOM     46  C   UNL A   1      40.995  32.870  36.264  1.00  0.00     0.029 A 
ATOM     47  N   UNL A   1      42.008  34.625  35.314  1.00  0.00    -0.354 N 
ATOM     48  C   UNL A   1      42.653  34.776  31.039  1.00  0.00     0.074 A 
ATOM     49  C   UNL A   1      42.157  33.580  30.397  1.00  0.00     0.031 C 
ATOM     50  C   UNL A   1      41.333  33.725  37.245  1.00  0.00     0.029 A 
ATOM     51  C   UNL A   1      42.043  34.866  36.667  1.00  0.00     0.049 A 
ATOM     52  H   UNL A   1      42.355  35.258  34.645  1.00  0.00     0.167 HD
ATOM     53  C   UNL A   1      43.239  35.801  30.380  1.00  0.00     0.034 A 
ATOM     54  C   UNL A   1      42.610  35.876  37.357  1.00  0.00     0.034 A 
ATOM     55  C   UNL A   1      43.730  36.991  31.020  1.00  0.00     0.049 A 
ATOM     56  C   UNL A   1      43.297  36.989  36.603  1.00  0.00     0.074 A 
ATOM     57  C   UNL A   1      44.305  38.105  30.437  1.00  0.00     0.029 A 
ATOM     58  N   UNL A   1      43.726  37.211  32.389  1.00  0.00    -0.354 N 
ATOM     59  N   UNL A   1      43.431  37.152  35.308  1.00  0.00    -0.248 NA
ATOM     60  C   UNL A   1      43.882  38.076  37.404  1.00  0.00     0.031 C 
ATOM     61  C   UNL A   1      44.689  38.981  31.457  1.00  0.00     0.029 A 
ATOM     62  C   UNL A   1      44.305  38.434  32.673  1.00  0.00     0.049 A 
ATOM     63  H   UNL A   1      43.363  36.588  33.060  1.00  0.00     0.167 HD
ATOM     64  C   UNL A   1      44.078  38.372  35.140  1.00  0.00     0.074 A 
ATOM     65  C   UNL A   1      44.293  38.916  36.465  1.00  0.00     0.031 C 
ATOM     66  C   UNL A   1      44.468  38.985  33.994  1.00  0.00     0.034 A 
BRANCH  53  67
ATOM     67  C   UNL A   1      43.383  35.679  28.887  1.00  0.00     0.023 A 
ATOM     68  C   UNL A   1      42.416  36.252  28.036  1.00  0.00     0.012 A 
ATOM     69  C   UNL A   1      44.500  35.030  28.326  1.00  0.00     0.148 A 
ATOM     70  C   UNL A   1      42.541  36.150  26.651  1.00  0.00     0.002 A 
ATOM     71  C   UNL A   1      44.644  34.977  26.946  1.00  0.00     0.091 A 
ATOM     72  F   UNL A   1      45.395  34.470  29.154  1.00  0.00    -0.205 F 
ATOM     73  C   UNL A   1      43.660  35.524  26.107  1.00  0.00     0.022 A 
BRANCH  71  74
ATOM     74  S   UNL A   1      46.086  34.262  26.150  1.00  0.00     0.127 S 
ATOM     75  O   UNL A   1      47.162  35.097  26.683  1.00  0.00    -0.237 OA
ATOM     76  O   UNL A   1      46.068  32.891  26.662  1.00  0.00    -0.237 OA
ATOM     77  O   UNL A   1      45.857  34.380  24.718  1.00  0.00    -0.744 OA
ENDBRANCH  71  74
ENDBRANCH  53  67
BRANCH  54  78
ATOM     78  C   UNL A   1      42.545  35.897  38.847  1.00  0.00     0.023 A 
ATOM     79  C   UNL A   1      43.511  35.203  39.601  1.00  0.00     0.012 A 
ATOM     80  C   UNL A   1      41.526  36.601  39.519  1.00  0.00     0.148 A 
ATOM     81  C   UNL A   1      43.445  35.179  40.995  1.00  0.00     0.002 A 
ATOM     82  C   UNL A   1      41.498  36.621  40.909  1.00  0.00     0.091 A 
ATOM     83  F   UNL A   1      40.606  37.241  38.785  1.00  0.00    -0.205 F 
ATOM     84  C   UNL A   1      42.445  35.896  41.648  1.00  0.00     0.022 A 
BRANCH  82  85
ATOM     85  S   UNL A   1      40.321  37.611  41.837  1.00  0.00     0.127 S 
ATOM     86  O   UNL A   1      40.087  38.729  40.927  1.00  0.00    -0.237 OA
ATOM     87  O   UNL A   1      39.196  36.685  41.977  1.00  0.00    -0.237 OA
ATOM     88  O   UNL A   1      40.985  37.946  43.089  1.00  0.00    -0.744 OA
ENDBRANCH  82  85
ENDBRANCH  54  78
BRANCH  66  89
ATOM     89  C   UNL A   1      45.123  40.338  34.106  1.00  0.00     0.023 A 
ATOM     90  C   UNL A   1      46.514  40.439  34.300  1.00  0.00     0.012 A 
ATOM     91  C   UNL A   1      44.363  41.514  33.935  1.00  0.00     0.148 A 
ATOM     92  C   UNL A   1      47.133  41.688  34.361  1.00  0.00     0.002 A 
ATOM     93  C   UNL A   1      44.994  42.751  33.941  1.00  0.00     0.091 A 
ATOM     94  F   UNL A   1      43.038  41.398  33.763  1.00  0.00    -0.205 F 
ATOM     95  C   UNL A   1      46.376  42.842  34.169  1.00  0.00     0.022 A 
BRANCH  93  96
ATOM     96  S   UNL A   1      44.117  44.282  33.602  1.00  0.00     0.127 S 
ATOM     97  O   UNL A   1      43.679  44.075  32.222  1.00  0.00    -0.237 OA
ATOM     98  O   UNL A   1      43.042  44.248  34.595  1.00  0.00    -0.237 OA
ATOM     99  O   UNL A   1      45.084  45.353  33.794  1.00  0.00    -0.744 OA
ENDBRANCH  93  96
ENDBRANCH  66  89
ENDBRANCH  40  41
ENDBRANCH  33  35
ENDBRANCH  32  33
ENDBRANCH  31  32
ENDBRANCH  30  31
ENDBRANCH  29  30
ENDBRANCH  28  29
ENDBRANCH  27  28
ENDBRANCH   1  27
TORSDOF 26
ENDMDL
