MODEL 1
REMARK VINA RESULT:      -9.5      0.000      0.000
REMARK SMILES Cc1ccc([C@H](C)Nc2ccc(C(=O)OCCOCCOCCOCCOC(=O)c3ccc(-c4c5nc(c(-c6cccc(S(=O)(=O)[O-])c6F)c6ccc([nH]6)c(-c6cccc(S(=O)(=O)[O-])c6F)c6nc(c(-c7cccc(S(=O)(=O)[O-])c7F)c7ccc4[nH]7)C=C6)C=C5)cc3)cc2Cl)cc1F
REMARK SMILES IDX 21 1 20 2 19 3 18 4 17 5 16 6 15 7 13 8 14 9 12 10 9 11
REMARK SMILES IDX 10 12 94 13 11 14 93 15 95 16 8 17 6 19 7 20 5 21 1 22 2 23
REMARK SMILES IDX 3 24 97 25 4 26 96 27 98 28 22 29 23 30 24 31 25 32 26 33
REMARK SMILES IDX 27 34 28 35 29 36 30 37 31 38 92 39 32 40 91 41 33 42 34 43
REMARK SMILES IDX 35 44 85 45 36 46 90 47 84 48 86 49 37 50 89 51 83 52 82 53
REMARK SMILES IDX 38 55 70 56 50 57 69 58 51 59 54 60 68 61 87 62 52 63 53 64
REMARK SMILES IDX 67 66 88 67 55 68 39 69 40 70 48 71 41 72 43 73 49 74 42 75
REMARK SMILES IDX 44 76 45 77 46 78 47 79 71 80 72 81 80 82 73 83 75 84 81 85
REMARK SMILES IDX 74 86 76 87 77 88 78 89 79 90 56 91 57 92 65 93 58 94 60 95
REMARK SMILES IDX 66 96 59 97 61 98 62 99 63 100 64 101
REMARK H PARENT 8 18 86 54 54 65
REMARK Flexibility Score: inf
ROOT
ATOM      1  O   UNL A   1      34.181  25.335  26.051  1.00  0.00    -0.377 OA
ENDROOT
BRANCH   1   2
ATOM      2  C   UNL A   1      34.277  26.511  25.260  1.00  0.00     0.188 C 
BRANCH   2   3
ATOM      3  C   UNL A   1      33.941  27.872  25.901  1.00  0.00     0.188 C 
BRANCH   3   4
ATOM      4  O   UNL A   1      33.900  28.967  25.004  1.00  0.00    -0.376 OA
BRANCH   4   5
ATOM      5  C   UNL A   1      32.850  29.086  24.065  1.00  0.00     0.202 C 
BRANCH   5   6
ATOM      6  C   UNL A   1      31.402  29.289  24.537  1.00  0.00     0.261 C 
BRANCH   6   7
ATOM      7  O   UNL A   1      30.442  28.351  24.049  1.00  0.00    -0.460 OA
BRANCH   7   8
ATOM      8  C   UNL A   1      30.646  27.830  22.818  1.00  0.00     0.338 C 
ATOM      9  O   UNL A   1      30.731  28.423  21.768  1.00  0.00    -0.246 OA
BRANCH   8  10
ATOM     10  C   UNL A   1      30.943  26.394  23.010  1.00  0.00     0.061 A 
ATOM     11  C   UNL A   1      31.453  23.645  23.316  1.00  0.00     0.053 A 
ATOM     12  C   UNL A   1      30.192  24.184  23.618  1.00  0.00     0.028 A 
ATOM     13  C   UNL A   1      32.444  24.518  22.817  1.00  0.00     0.065 A 
ATOM     14  C   UNL A   1      29.939  25.549  23.487  1.00  0.00     0.018 A 
ATOM     15  C   UNL A   1      32.184  25.877  22.645  1.00  0.00     0.038 A 
ATOM     16  Cl  UNL A   1      34.012  23.984  22.316  1.00  0.00    -0.082 Cl
BRANCH  11  17
ATOM     17  N   UNL A   1      31.662  22.304  23.618  1.00  0.00    -0.377 N 
ATOM     18  H   UNL A   1      31.187  21.610  23.106  1.00  0.00     0.161 HD
BRANCH  17  19
ATOM     19  C   UNL A   1      32.580  21.913  24.689  1.00  0.00     0.106 C 
ATOM     20  C   UNL A   1      31.870  22.168  26.026  1.00  0.00     0.036 C 
BRANCH  19  21
ATOM     21  C   UNL A   1      33.080  20.496  24.428  1.00  0.00    -0.023 A 
ATOM     22  C   UNL A   1      34.586  16.430  24.363  1.00  0.00     0.047 C 
ATOM     23  C   UNL A   1      34.058  17.830  24.329  1.00  0.00    -0.015 A 
ATOM     24  C   UNL A   1      32.716  18.108  24.055  1.00  0.00     0.007 A 
ATOM     25  C   UNL A   1      34.907  18.891  24.625  1.00  0.00     0.126 A 
ATOM     26  C   UNL A   1      32.233  19.424  24.107  1.00  0.00     0.006 A 
ATOM     27  C   UNL A   1      34.435  20.197  24.666  1.00  0.00     0.045 A 
ATOM     28  F   UNL A   1      36.194  18.656  24.913  1.00  0.00    -0.207 F 
ENDBRANCH  19  21
ENDBRANCH  17  19
ENDBRANCH  11  17
ENDBRANCH   8  10
ENDBRANCH   7   8
ENDBRANCH   6   7
ENDBRANCH   5   6
ENDBRANCH   4   5
ENDBRANCH   3   4
ENDBRANCH   2   3
ENDBRANCH   1   2
BRANCH   1  29
ATOM     29  C   UNL A   1      34.919  24.169  25.696  1.00  0.00     0.188 C 
BRANCH  29  30
ATOM     30  C   UNL A   1      36.467  24.137  25.565  1.00  0.00     0.188 C 
BRANCH  30  31
ATOM     31  O   UNL A   1      37.239  24.677  26.614  1.00  0.00    -0.376 OA
BRANCH  31  32
ATOM     32  C   UNL A   1      38.626  24.440  26.707  1.00  0.00     0.202 C 
BRANCH  32  33
ATOM     33  C   UNL A   1      39.621  25.530  27.039  1.00  0.00     0.261 C 
BRANCH  33  34
ATOM     34  O   UNL A   1      39.158  26.796  27.515  1.00  0.00    -0.460 OA
BRANCH  34  35
ATOM     35  C   UNL A   1      39.281  26.969  28.857  1.00  0.00     0.338 C 
ATOM     36  O   UNL A   1      39.806  26.191  29.643  1.00  0.00    -0.246 OA
BRANCH  35  37
ATOM     37  C   UNL A   1      38.486  28.105  29.369  1.00  0.00     0.060 A 
ATOM     38  C   UNL A   1      38.530  29.227  28.522  1.00  0.00     0.016 A 
ATOM     39  C   UNL A   1      38.375  28.236  30.754  1.00  0.00     0.016 A 
ATOM     40  C   UNL A   1      38.882  30.435  29.084  1.00  0.00     0.010 A 
ATOM     41  C   UNL A   1      38.702  29.454  31.312  1.00  0.00     0.010 A 
ATOM     42  C   UNL A   1      39.074  30.500  30.471  1.00  0.00    -0.014 A 
BRANCH  42  43
ATOM     43  C   UNL A   1      39.665  31.694  31.050  1.00  0.00     0.031 A 
ATOM     44  C   UNL A   1      40.869  31.438  31.844  1.00  0.00     0.074 A 
ATOM     45  C   UNL A   1      39.020  32.884  31.096  1.00  0.00     0.049 A 
ATOM     46  N   UNL A   1      40.995  31.723  33.091  1.00  0.00    -0.248 NA
ATOM     47  C   UNL A   1      41.969  30.642  31.304  1.00  0.00     0.031 C 
ATOM     48  C   UNL A   1      39.470  34.110  31.738  1.00  0.00     0.029 A 
ATOM     49  N   UNL A   1      37.707  33.166  30.733  1.00  0.00    -0.354 N 
ATOM     50  C   UNL A   1      42.323  31.523  33.383  1.00  0.00     0.074 A 
ATOM     51  C   UNL A   1      42.821  30.663  32.333  1.00  0.00     0.031 C 
ATOM     52  C   UNL A   1      38.410  34.912  31.949  1.00  0.00     0.029 A 
ATOM     53  C   UNL A   1      37.203  34.220  31.519  1.00  0.00     0.049 A 
ATOM     54  H   UNL A   1      37.204  32.697  30.029  1.00  0.00     0.167 HD
ATOM     55  C   UNL A   1      42.929  32.312  34.315  1.00  0.00     0.034 A 
ATOM     56  C   UNL A   1      36.049  34.119  32.260  1.00  0.00     0.034 A 
ATOM     57  C   UNL A   1      41.976  33.269  34.874  1.00  0.00     0.049 A 
ATOM     58  C   UNL A   1      36.361  33.998  33.734  1.00  0.00     0.074 A 
ATOM     59  C   UNL A   1      41.710  34.588  34.535  1.00  0.00     0.029 A 
ATOM     60  N   UNL A   1      40.872  32.823  35.597  1.00  0.00    -0.354 N 
ATOM     61  N   UNL A   1      37.553  33.769  34.206  1.00  0.00    -0.248 NA
ATOM     62  C   UNL A   1      35.343  34.065  34.777  1.00  0.00     0.031 C 
ATOM     63  C   UNL A   1      40.409  34.908  34.988  1.00  0.00     0.029 A 
ATOM     64  C   UNL A   1      39.888  33.797  35.625  1.00  0.00     0.049 A 
ATOM     65  H   UNL A   1      40.801  31.942  36.026  1.00  0.00     0.167 HD
ATOM     66  C   UNL A   1      37.499  33.727  35.571  1.00  0.00     0.074 A 
ATOM     67  C   UNL A   1      36.092  33.911  35.882  1.00  0.00     0.031 C 
ATOM     68  C   UNL A   1      38.627  33.583  36.326  1.00  0.00     0.034 A 
BRANCH  55  69
ATOM     69  C   UNL A   1      44.435  32.454  34.331  1.00  0.00     0.023 A 
ATOM     70  C   UNL A   1      45.246  31.660  35.172  1.00  0.00     0.012 A 
ATOM     71  C   UNL A   1      45.114  33.333  33.461  1.00  0.00     0.148 A 
ATOM     72  C   UNL A   1      46.641  31.614  35.039  1.00  0.00     0.002 A 
ATOM     73  C   UNL A   1      46.507  33.323  33.365  1.00  0.00     0.091 A 
ATOM     74  F   UNL A   1      44.429  34.192  32.697  1.00  0.00    -0.205 F 
ATOM     75  C   UNL A   1      47.275  32.440  34.123  1.00  0.00     0.022 A 
BRANCH  73  76
ATOM     76  S   UNL A   1      47.311  34.483  32.254  1.00  0.00     0.127 S 
ATOM     77  O   UNL A   1      46.973  33.959  30.934  1.00  0.00    -0.237 OA
ATOM     78  O   UNL A   1      46.717  35.763  32.627  1.00  0.00    -0.237 OA
ATOM     79  O   UNL A   1      48.726  34.356  32.607  1.00  0.00    -0.744 OA
ENDBRANCH  73  76
ENDBRANCH  55  69
BRANCH  56  80
ATOM     80  C   UNL A   1      34.930  33.323  31.637  1.00  0.00     0.023 A 
ATOM     81  C   UNL A   1      35.289  31.997  31.410  1.00  0.00     0.012 A 
ATOM     82  C   UNL A   1      34.143  33.994  30.671  1.00  0.00     0.148 A 
ATOM     83  C   UNL A   1      35.422  31.637  30.085  1.00  0.00     0.002 A 
ATOM     84  C   UNL A   1      34.173  33.554  29.359  1.00  0.00     0.091 A 
ATOM     85  F   UNL A   1      33.498  35.114  31.025  1.00  0.00    -0.205 F 
ATOM     86  C   UNL A   1      34.976  32.468  29.060  1.00  0.00     0.022 A 
BRANCH  84  87
ATOM     87  S   UNL A   1      33.361  34.424  28.023  1.00  0.00     0.127 S 
ATOM     88  O   UNL A   1      34.458  34.645  27.086  1.00  0.00    -0.237 OA
ATOM     89  O   UNL A   1      32.308  33.514  27.594  1.00  0.00    -0.237 OA
ATOM     90  O   UNL A   1      32.871  35.647  28.665  1.00  0.00    -0.744 OA
ENDBRANCH  84  87
ENDBRANCH  56  80
BRANCH  68  91
ATOM     91  C   UNL A   1      38.668  33.450  37.824  1.00  0.00     0.023 A 
ATOM     92  C   UNL A   1      39.355  34.452  38.556  1.00  0.00     0.012 A 
ATOM     93  C   UNL A   1      38.111  32.399  38.560  1.00  0.00     0.148 A 
ATOM     94  C   UNL A   1      39.462  34.424  39.945  1.00  0.00     0.002 A 
ATOM     95  C   UNL A   1      38.105  32.444  39.952  1.00  0.00     0.091 A 
ATOM     96  F   UNL A   1      37.623  31.318  37.936  1.00  0.00    -0.205 F 
ATOM     97  C   UNL A   1      38.802  33.433  40.652  1.00  0.00     0.022 A 
BRANCH  95  98
ATOM     98  S   UNL A   1      37.030  31.313  40.833  1.00  0.00     0.127 S 
ATOM     99  O   UNL A   1      37.903  30.161  41.055  1.00  0.00    -0.237 OA
ATOM    100  O   UNL A   1      36.638  32.066  42.019  1.00  0.00    -0.237 OA
ATOM    101  O   UNL A   1      35.943  31.068  39.884  1.00  0.00    -0.744 OA
ENDBRANCH  95  98
ENDBRANCH  68  91
ENDBRANCH  42  43
ENDBRANCH  35  37
ENDBRANCH  34  35
ENDBRANCH  33  34
ENDBRANCH  32  33
ENDBRANCH  31  32
ENDBRANCH  30  31
ENDBRANCH  29  30
ENDBRANCH   1  29
TORSDOF 26
ENDMDL
MODEL 2
REMARK VINA RESULT:      -9.4      4.273      7.310
REMARK SMILES Cc1ccc([C@H](C)Nc2ccc(C(=O)OCCOCCOCCOCCOC(=O)c3ccc(-c4c5nc(c(-c6cccc(S(=O)(=O)[O-])c6F)c6ccc([nH]6)c(-c6cccc(S(=O)(=O)[O-])c6F)c6nc(c(-c7cccc(S(=O)(=O)[O-])c7F)c7ccc4[nH]7)C=C6)C=C5)cc3)cc2Cl)cc1F
REMARK SMILES IDX 21 1 20 2 19 3 18 4 17 5 16 6 15 7 13 8 14 9 12 10 9 11
REMARK SMILES IDX 10 12 94 13 11 14 93 15 95 16 8 17 6 19 7 20 5 21 1 22 2 23
REMARK SMILES IDX 3 24 97 25 4 26 96 27 98 28 22 29 23 30 24 31 25 32 26 33
REMARK SMILES IDX 27 34 28 35 29 36 30 37 31 38 92 39 32 40 91 41 33 42 34 43
REMARK SMILES IDX 35 44 85 45 36 46 90 47 84 48 86 49 37 50 89 51 83 52 82 53
REMARK SMILES IDX 38 55 70 56 50 57 69 58 51 59 54 60 68 61 87 62 52 63 53 64
REMARK SMILES IDX 67 66 88 67 55 68 39 69 40 70 48 71 41 72 43 73 49 74 42 75
REMARK SMILES IDX 44 76 45 77 46 78 47 79 71 80 72 81 80 82 73 83 75 84 81 85
REMARK SMILES IDX 74 86 76 87 77 88 78 89 79 90 56 91 57 92 65 93 58 94 60 95
REMARK SMILES IDX 66 96 59 97 61 98 62 99 63 100 64 101
REMARK H PARENT 8 18 86 54 54 65
REMARK Flexibility Score: inf
ROOT
ATOM      1  O   UNL A   1      34.075  28.987  27.352  1.00  0.00    -0.377 OA
ENDROOT
BRANCH   1   2
ATOM      2  C   UNL A   1      34.595  28.763  26.049  1.00  0.00     0.188 C 
BRANCH   2   3
ATOM      3  C   UNL A   1      33.621  28.410  24.907  1.00  0.00     0.188 C 
BRANCH   3   4
ATOM      4  O   UNL A   1      32.769  29.463  24.496  1.00  0.00    -0.376 OA
BRANCH   4   5
ATOM      5  C   UNL A   1      31.433  29.526  24.956  1.00  0.00     0.202 C 
BRANCH   5   6
ATOM      6  C   UNL A   1      30.268  29.178  24.017  1.00  0.00     0.261 C 
BRANCH   6   7
ATOM      7  O   UNL A   1      29.982  27.788  23.856  1.00  0.00    -0.460 OA
BRANCH   7   8
ATOM      8  C   UNL A   1      30.591  27.137  22.840  1.00  0.00     0.338 C 
ATOM      9  O   UNL A   1      30.727  27.508  21.698  1.00  0.00    -0.246 OA
BRANCH   8  10
ATOM     10  C   UNL A   1      31.244  25.948  23.431  1.00  0.00     0.061 A 
ATOM     11  C   UNL A   1      32.557  23.727  24.552  1.00  0.00     0.053 A 
ATOM     12  C   UNL A   1      32.865  24.170  23.255  1.00  0.00     0.028 A 
ATOM     13  C   UNL A   1      31.598  24.454  25.289  1.00  0.00     0.065 A 
ATOM     14  C   UNL A   1      32.203  25.259  22.687  1.00  0.00     0.018 A 
ATOM     15  C   UNL A   1      30.962  25.568  24.741  1.00  0.00     0.038 A 
ATOM     16  Cl  UNL A   1      31.183  24.084  26.928  1.00  0.00    -0.082 Cl
BRANCH  11  17
ATOM     17  N   UNL A   1      33.155  22.547  24.981  1.00  0.00    -0.377 N 
ATOM     18  H   UNL A   1      32.902  22.163  25.851  1.00  0.00     0.161 HD
BRANCH  17  19
ATOM     19  C   UNL A   1      34.155  21.871  24.154  1.00  0.00     0.106 C 
ATOM     20  C   UNL A   1      35.540  22.254  24.695  1.00  0.00     0.036 C 
BRANCH  19  21
ATOM     21  C   UNL A   1      33.824  20.384  24.082  1.00  0.00    -0.023 A 
ATOM     22  C   UNL A   1      32.917  16.171  24.561  1.00  0.00     0.047 C 
ATOM     23  C   UNL A   1      33.222  17.620  24.339  1.00  0.00    -0.015 A 
ATOM     24  C   UNL A   1      32.248  18.525  23.911  1.00  0.00     0.007 A 
ATOM     25  C   UNL A   1      34.499  18.101  24.612  1.00  0.00     0.126 A 
ATOM     26  C   UNL A   1      32.545  19.890  23.787  1.00  0.00     0.006 A 
ATOM     27  C   UNL A   1      34.801  19.451  24.479  1.00  0.00     0.045 A 
ATOM     28  F   UNL A   1      35.450  17.262  25.046  1.00  0.00    -0.207 F 
ENDBRANCH  19  21
ENDBRANCH  17  19
ENDBRANCH  11  17
ENDBRANCH   8  10
ENDBRANCH   7   8
ENDBRANCH   6   7
ENDBRANCH   5   6
ENDBRANCH   4   5
ENDBRANCH   3   4
ENDBRANCH   2   3
ENDBRANCH   1   2
BRANCH   1  29
ATOM     29  C   UNL A   1      34.278  30.239  28.001  1.00  0.00     0.188 C 
BRANCH  29  30
ATOM     30  C   UNL A   1      33.447  31.515  27.688  1.00  0.00     0.188 C 
BRANCH  30  31
ATOM     31  O   UNL A   1      33.958  32.763  28.099  1.00  0.00    -0.376 OA
BRANCH  31  32
ATOM     32  C   UNL A   1      35.104  32.859  28.915  1.00  0.00     0.202 C 
BRANCH  32  33
ATOM     33  C   UNL A   1      35.034  32.853  30.426  1.00  0.00     0.261 C 
BRANCH  33  34
ATOM     34  O   UNL A   1      35.859  33.745  31.181  1.00  0.00    -0.460 OA
BRANCH  34  35
ATOM     35  C   UNL A   1      37.048  33.215  31.569  1.00  0.00     0.338 C 
ATOM     36  O   UNL A   1      37.533  33.266  32.691  1.00  0.00    -0.246 OA
BRANCH  35  37
ATOM     37  C   UNL A   1      37.874  32.754  30.433  1.00  0.00     0.060 A 
ATOM     38  C   UNL A   1      38.086  31.365  30.441  1.00  0.00     0.016 A 
ATOM     39  C   UNL A   1      38.834  33.640  29.939  1.00  0.00     0.016 A 
ATOM     40  C   UNL A   1      39.387  30.918  30.353  1.00  0.00     0.010 A 
ATOM     41  C   UNL A   1      40.130  33.183  29.826  1.00  0.00     0.010 A 
ATOM     42  C   UNL A   1      40.408  31.859  30.158  1.00  0.00    -0.014 A 
BRANCH  42  43
ATOM     43  C   UNL A   1      41.793  31.442  30.293  1.00  0.00     0.031 A 
ATOM     44  C   UNL A   1      42.111  30.197  29.592  1.00  0.00     0.074 A 
ATOM     45  C   UNL A   1      42.637  31.985  31.202  1.00  0.00     0.049 A 
ATOM     46  N   UNL A   1      42.557  29.132  30.160  1.00  0.00    -0.248 NA
ATOM     47  C   UNL A   1      41.750  30.011  28.189  1.00  0.00     0.031 C 
ATOM     48  C   UNL A   1      44.004  31.578  31.494  1.00  0.00     0.029 A 
ATOM     49  N   UNL A   1      42.348  32.904  32.205  1.00  0.00    -0.354 N 
ATOM     50  C   UNL A   1      42.920  28.292  29.136  1.00  0.00     0.074 A 
ATOM     51  C   UNL A   1      42.211  28.776  27.972  1.00  0.00     0.031 C 
ATOM     52  C   UNL A   1      44.351  32.037  32.711  1.00  0.00     0.029 A 
ATOM     53  C   UNL A   1      43.202  32.706  33.307  1.00  0.00     0.049 A 
ATOM     54  H   UNL A   1      41.646  33.593  32.153  1.00  0.00     0.167 HD
ATOM     55  C   UNL A   1      43.978  27.449  29.305  1.00  0.00     0.034 A 
ATOM     56  C   UNL A   1      42.743  32.492  34.584  1.00  0.00     0.034 A 
ATOM     57  C   UNL A   1      44.546  27.603  30.643  1.00  0.00     0.049 A 
ATOM     58  C   UNL A   1      42.914  31.044  34.986  1.00  0.00     0.074 A 
ATOM     59  C   UNL A   1      45.613  28.366  31.094  1.00  0.00     0.029 A 
ATOM     60  N   UNL A   1      43.789  27.290  31.770  1.00  0.00    -0.354 N 
ATOM     61  N   UNL A   1      43.218  30.093  34.150  1.00  0.00    -0.248 NA
ATOM     62  C   UNL A   1      42.695  30.557  36.343  1.00  0.00     0.031 C 
ATOM     63  C   UNL A   1      45.452  28.577  32.483  1.00  0.00     0.029 A 
ATOM     64  C   UNL A   1      44.302  27.925  32.888  1.00  0.00     0.049 A 
ATOM     65  H   UNL A   1      43.001  26.702  31.771  1.00  0.00     0.167 HD
ATOM     66  C   UNL A   1      43.307  28.908  34.827  1.00  0.00     0.074 A 
ATOM     67  C   UNL A   1      42.964  29.249  36.196  1.00  0.00     0.031 C 
ATOM     68  C   UNL A   1      43.694  27.757  34.203  1.00  0.00     0.034 A 
BRANCH  55  69
ATOM     69  C   UNL A   1      44.694  26.872  28.104  1.00  0.00     0.023 A 
ATOM     70  C   UNL A   1      44.502  25.532  27.699  1.00  0.00     0.012 A 
ATOM     71  C   UNL A   1      45.533  27.656  27.283  1.00  0.00     0.148 A 
ATOM     72  C   UNL A   1      44.971  25.047  26.470  1.00  0.00     0.002 A 
ATOM     73  C   UNL A   1      46.042  27.156  26.083  1.00  0.00     0.091 A 
ATOM     74  F   UNL A   1      45.849  28.906  27.639  1.00  0.00    -0.205 F 
ATOM     75  C   UNL A   1      45.734  25.866  25.652  1.00  0.00     0.022 A 
BRANCH  73  76
ATOM     76  S   UNL A   1      47.123  28.197  25.096  1.00  0.00     0.127 S 
ATOM     77  O   UNL A   1      48.307  28.329  25.939  1.00  0.00    -0.237 OA
ATOM     78  O   UNL A   1      47.274  27.438  23.860  1.00  0.00    -0.237 OA
ATOM     79  O   UNL A   1      46.350  29.432  24.948  1.00  0.00    -0.744 OA
ENDBRANCH  73  76
ENDBRANCH  55  69
BRANCH  56  80
ATOM     80  C   UNL A   1      41.513  33.267  34.985  1.00  0.00     0.023 A 
ATOM     81  C   UNL A   1      41.786  34.223  35.959  1.00  0.00     0.012 A 
ATOM     82  C   UNL A   1      40.306  32.532  35.066  1.00  0.00     0.148 A 
ATOM     83  C   UNL A   1      41.250  33.970  37.205  1.00  0.00     0.002 A 
ATOM     84  C   UNL A   1      39.693  32.384  36.297  1.00  0.00     0.091 A 
ATOM     85  F   UNL A   1      39.864  31.890  33.976  1.00  0.00    -0.205 F 
ATOM     86  C   UNL A   1      40.297  32.973  37.395  1.00  0.00     0.022 A 
BRANCH  84  87
ATOM     87  S   UNL A   1      38.265  31.338  36.554  1.00  0.00     0.127 S 
ATOM     88  O   UNL A   1      37.243  32.007  35.754  1.00  0.00    -0.237 OA
ATOM     89  O   UNL A   1      38.698  30.025  36.095  1.00  0.00    -0.237 OA
ATOM     90  O   UNL A   1      38.040  31.424  37.999  1.00  0.00    -0.744 OA
ENDBRANCH  84  87
ENDBRANCH  56  80
BRANCH  68  91
ATOM     91  C   UNL A   1      43.751  26.394  34.837  1.00  0.00     0.023 A 
ATOM     92  C   UNL A   1      42.538  25.667  34.949  1.00  0.00     0.012 A 
ATOM     93  C   UNL A   1      44.901  25.790  35.357  1.00  0.00     0.148 A 
ATOM     94  C   UNL A   1      42.474  24.401  35.525  1.00  0.00     0.002 A 
ATOM     95  C   UNL A   1      44.857  24.473  35.810  1.00  0.00     0.091 A 
ATOM     96  F   UNL A   1      46.040  26.485  35.471  1.00  0.00    -0.205 F 
ATOM     97  C   UNL A   1      43.647  23.783  35.926  1.00  0.00     0.022 A 
BRANCH  95  98
ATOM     98  S   UNL A   1      46.407  23.612  36.069  1.00  0.00     0.127 S 
ATOM     99  O   UNL A   1      47.035  24.411  37.120  1.00  0.00    -0.237 OA
ATOM    100  O   UNL A   1      45.992  22.264  36.440  1.00  0.00    -0.237 OA
ATOM    101  O   UNL A   1      47.070  23.706  34.767  1.00  0.00    -0.744 OA
ENDBRANCH  95  98
ENDBRANCH  68  91
ENDBRANCH  42  43
ENDBRANCH  35  37
ENDBRANCH  34  35
ENDBRANCH  33  34
ENDBRANCH  32  33
ENDBRANCH  31  32
ENDBRANCH  30  31
ENDBRANCH  29  30
ENDBRANCH   1  29
TORSDOF 26
ENDMDL
MODEL 3
REMARK VINA RESULT:      -9.4      3.212      4.177
REMARK SMILES Cc1ccc([C@H](C)Nc2ccc(C(=O)OCCOCCOCCOCCOC(=O)c3ccc(-c4c5nc(c(-c6cccc(S(=O)(=O)[O-])c6F)c6ccc([nH]6)c(-c6cccc(S(=O)(=O)[O-])c6F)c6nc(c(-c7cccc(S(=O)(=O)[O-])c7F)c7ccc4[nH]7)C=C6)C=C5)cc3)cc2Cl)cc1F
REMARK SMILES IDX 21 1 20 2 19 3 18 4 17 5 16 6 15 7 13 8 14 9 12 10 9 11
REMARK SMILES IDX 10 12 94 13 11 14 93 15 95 16 8 17 6 19 7 20 5 21 1 22 2 23
REMARK SMILES IDX 3 24 97 25 4 26 96 27 98 28 22 29 23 30 24 31 25 32 26 33
REMARK SMILES IDX 27 34 28 35 29 36 30 37 31 38 92 39 32 40 91 41 33 42 34 43
REMARK SMILES IDX 35 44 85 45 36 46 90 47 84 48 86 49 37 50 89 51 83 52 82 53
REMARK SMILES IDX 38 55 70 56 50 57 69 58 51 59 54 60 68 61 87 62 52 63 53 64
REMARK SMILES IDX 67 66 88 67 55 68 39 69 40 70 48 71 41 72 43 73 49 74 42 75
REMARK SMILES IDX 44 76 45 77 46 78 47 79 71 80 72 81 80 82 73 83 75 84 81 85
REMARK SMILES IDX 74 86 76 87 77 88 78 89 79 90 56 91 57 92 65 93 58 94 60 95
REMARK SMILES IDX 66 96 59 97 61 98 62 99 63 100 64 101
REMARK H PARENT 8 18 86 54 54 65
REMARK Flexibility Score: inf
ROOT
ATOM      1  O   UNL A   1      34.390  24.542  25.399  1.00  0.00    -0.377 OA
ENDROOT
BRANCH   1   2
ATOM      2  C   UNL A   1      34.229  25.849  24.870  1.00  0.00     0.188 C 
BRANCH   2   3
ATOM      3  C   UNL A   1      33.438  26.893  25.684  1.00  0.00     0.188 C 
BRANCH   3   4
ATOM      4  O   UNL A   1      33.721  28.244  25.367  1.00  0.00    -0.376 OA
BRANCH   4   5
ATOM      5  C   UNL A   1      32.958  28.926  24.392  1.00  0.00     0.202 C 
BRANCH   5   6
ATOM      6  C   UNL A   1      31.500  29.319  24.678  1.00  0.00     0.261 C 
BRANCH   6   7
ATOM      7  O   UNL A   1      30.501  28.397  24.239  1.00  0.00    -0.460 OA
BRANCH   7   8
ATOM      8  C   UNL A   1      30.584  27.942  22.969  1.00  0.00     0.338 C 
ATOM      9  O   UNL A   1      30.597  28.591  21.949  1.00  0.00    -0.246 OA
BRANCH   8  10
ATOM     10  C   UNL A   1      30.853  26.490  23.056  1.00  0.00     0.061 A 
ATOM     11  C   UNL A   1      31.290  23.714  23.187  1.00  0.00     0.053 A 
ATOM     12  C   UNL A   1      30.267  24.321  23.935  1.00  0.00     0.028 A 
ATOM     13  C   UNL A   1      32.065  24.534  22.338  1.00  0.00     0.065 A 
ATOM     14  C   UNL A   1      30.058  25.700  23.888  1.00  0.00     0.018 A 
ATOM     15  C   UNL A   1      31.834  25.907  22.258  1.00  0.00     0.038 A 
ATOM     16  Cl  UNL A   1      33.296  23.917  21.291  1.00  0.00    -0.082 Cl
BRANCH  11  17
ATOM     17  N   UNL A   1      31.524  22.362  23.408  1.00  0.00    -0.377 N 
ATOM     18  H   UNL A   1      31.126  21.694  22.803  1.00  0.00     0.161 HD
BRANCH  17  19
ATOM     19  C   UNL A   1      32.354  21.920  24.529  1.00  0.00     0.106 C 
ATOM     20  C   UNL A   1      31.596  22.245  25.825  1.00  0.00     0.036 C 
BRANCH  19  21
ATOM     21  C   UNL A   1      32.760  20.466  24.309  1.00  0.00    -0.023 A 
ATOM     22  C   UNL A   1      34.174  16.552  23.092  1.00  0.00     0.047 C 
ATOM     23  C   UNL A   1      33.670  17.881  23.562  1.00  0.00    -0.015 A 
ATOM     24  C   UNL A   1      34.283  18.578  24.607  1.00  0.00     0.007 A 
ATOM     25  C   UNL A   1      32.590  18.472  22.915  1.00  0.00     0.126 A 
ATOM     26  C   UNL A   1      33.835  19.856  24.973  1.00  0.00     0.006 A 
ATOM     27  C   UNL A   1      32.136  19.733  23.283  1.00  0.00     0.045 A 
ATOM     28  F   UNL A   1      31.994  17.839  21.896  1.00  0.00    -0.207 F 
ENDBRANCH  19  21
ENDBRANCH  17  19
ENDBRANCH  11  17
ENDBRANCH   8  10
ENDBRANCH   7   8
ENDBRANCH   6   7
ENDBRANCH   5   6
ENDBRANCH   4   5
ENDBRANCH   3   4
ENDBRANCH   2   3
ENDBRANCH   1   2
BRANCH   1  29
ATOM     29  C   UNL A   1      35.207  23.589  24.724  1.00  0.00     0.188 C 
BRANCH  29  30
ATOM     30  C   UNL A   1      36.760  23.588  24.790  1.00  0.00     0.188 C 
BRANCH  30  31
ATOM     31  O   UNL A   1      37.376  23.577  26.058  1.00  0.00    -0.376 OA
BRANCH  31  32
ATOM     32  C   UNL A   1      38.635  22.975  26.261  1.00  0.00     0.202 C 
BRANCH  32  33
ATOM     33  C   UNL A   1      39.825  23.732  26.810  1.00  0.00     0.261 C 
BRANCH  33  34
ATOM     34  O   UNL A   1      39.684  25.104  27.186  1.00  0.00    -0.460 OA
BRANCH  34  35
ATOM     35  C   UNL A   1      40.492  25.491  28.207  1.00  0.00     0.338 C 
ATOM     36  O   UNL A   1      41.258  24.773  28.837  1.00  0.00    -0.246 OA
BRANCH  35  37
ATOM     37  C   UNL A   1      40.197  26.855  28.694  1.00  0.00     0.060 A 
ATOM     38  C   UNL A   1      40.967  27.841  28.053  1.00  0.00     0.016 A 
ATOM     39  C   UNL A   1      39.796  26.987  30.025  1.00  0.00     0.016 A 
ATOM     40  C   UNL A   1      41.667  28.720  28.851  1.00  0.00     0.010 A 
ATOM     41  C   UNL A   1      40.480  27.887  30.814  1.00  0.00     0.010 A 
ATOM     42  C   UNL A   1      41.494  28.650  30.240  1.00  0.00    -0.014 A 
BRANCH  42  43
ATOM     43  C   UNL A   1      42.387  29.401  31.106  1.00  0.00     0.031 A 
ATOM     44  C   UNL A   1      42.819  28.668  32.297  1.00  0.00     0.074 A 
ATOM     45  C   UNL A   1      42.576  30.736  30.981  1.00  0.00     0.049 A 
ATOM     46  N   UNL A   1      42.601  29.048  33.506  1.00  0.00    -0.248 NA
ATOM     47  C   UNL A   1      43.371  27.320  32.190  1.00  0.00     0.031 C 
ATOM     48  C   UNL A   1      43.360  31.603  31.849  1.00  0.00     0.029 A 
ATOM     49  N   UNL A   1      41.917  31.625  30.139  1.00  0.00    -0.354 N 
ATOM     50  C   UNL A   1      43.346  28.205  34.297  1.00  0.00     0.074 A 
ATOM     51  C   UNL A   1      43.616  27.047  33.475  1.00  0.00     0.031 C 
ATOM     52  C   UNL A   1      42.964  32.878  31.674  1.00  0.00     0.029 A 
ATOM     53  C   UNL A   1      41.851  32.900  30.734  1.00  0.00     0.049 A 
ATOM     54  H   UNL A   1      41.548  31.396  29.255  1.00  0.00     0.167 HD
ATOM     55  C   UNL A   1      43.885  28.679  35.456  1.00  0.00     0.034 A 
ATOM     56  C   UNL A   1      40.672  33.578  30.929  1.00  0.00     0.034 A 
ATOM     57  C   UNL A   1      43.523  30.081  35.653  1.00  0.00     0.049 A 
ATOM     58  C   UNL A   1      40.273  33.564  32.387  1.00  0.00     0.074 A 
ATOM     59  C   UNL A   1      44.208  31.247  35.345  1.00  0.00     0.029 A 
ATOM     60  N   UNL A   1      42.190  30.448  35.824  1.00  0.00    -0.354 N 
ATOM     61  N   UNL A   1      40.834  32.803  33.283  1.00  0.00    -0.248 NA
ATOM     62  C   UNL A   1      39.174  34.357  32.926  1.00  0.00     0.031 C 
ATOM     63  C   UNL A   1      43.271  32.302  35.253  1.00  0.00     0.029 A 
ATOM     64  C   UNL A   1      42.016  31.789  35.528  1.00  0.00     0.049 A 
ATOM     65  H   UNL A   1      41.474  29.840  36.114  1.00  0.00     0.167 HD
ATOM     66  C   UNL A   1      40.254  33.034  34.500  1.00  0.00     0.074 A 
ATOM     67  C   UNL A   1      39.215  34.011  34.224  1.00  0.00     0.031 C 
ATOM     68  C   UNL A   1      40.709  32.427  35.635  1.00  0.00     0.034 A 
BRANCH  55  69
ATOM     69  C   UNL A   1      45.058  27.971  36.096  1.00  0.00     0.023 A 
ATOM     70  C   UNL A   1      46.392  28.285  35.750  1.00  0.00     0.012 A 
ATOM     71  C   UNL A   1      44.890  27.014  37.119  1.00  0.00     0.148 A 
ATOM     72  C   UNL A   1      47.487  27.811  36.487  1.00  0.00     0.002 A 
ATOM     73  C   UNL A   1      45.984  26.503  37.819  1.00  0.00     0.091 A 
ATOM     74  F   UNL A   1      43.666  26.583  37.447  1.00  0.00    -0.205 F 
ATOM     75  C   UNL A   1      47.282  26.924  37.534  1.00  0.00     0.022 A 
BRANCH  73  76
ATOM     76  S   UNL A   1      45.702  25.270  39.094  1.00  0.00     0.127 S 
ATOM     77  O   UNL A   1      47.052  24.968  39.560  1.00  0.00    -0.237 OA
ATOM     78  O   UNL A   1      44.820  25.959  40.031  1.00  0.00    -0.237 OA
ATOM     79  O   UNL A   1      45.059  24.176  38.364  1.00  0.00    -0.744 OA
ENDBRANCH  73  76
ENDBRANCH  55  69
BRANCH  56  80
ATOM     80  C   UNL A   1      39.638  33.434  29.841  1.00  0.00     0.023 A 
ATOM     81  C   UNL A   1      39.195  34.666  29.368  1.00  0.00     0.012 A 
ATOM     82  C   UNL A   1      38.701  32.384  29.999  1.00  0.00     0.148 A 
ATOM     83  C   UNL A   1      37.890  34.987  29.681  1.00  0.00     0.002 A 
ATOM     84  C   UNL A   1      37.367  32.699  30.185  1.00  0.00     0.091 A 
ATOM     85  F   UNL A   1      39.150  31.125  30.098  1.00  0.00    -0.205 F 
ATOM     86  C   UNL A   1      37.015  34.037  30.203  1.00  0.00     0.022 A 
BRANCH  84  87
ATOM     87  S   UNL A   1      36.122  31.472  30.567  1.00  0.00     0.127 S 
ATOM     88  O   UNL A   1      36.171  30.605  29.393  1.00  0.00    -0.237 OA
ATOM     89  O   UNL A   1      36.568  30.892  31.827  1.00  0.00    -0.237 OA
ATOM     90  O   UNL A   1      34.893  32.262  30.673  1.00  0.00    -0.744 OA
ENDBRANCH  84  87
ENDBRANCH  56  80
BRANCH  68  91
ATOM     91  C   UNL A   1      40.097  32.555  37.003  1.00  0.00     0.023 A 
ATOM     92  C   UNL A   1      40.905  33.088  38.039  1.00  0.00     0.012 A 
ATOM     93  C   UNL A   1      38.801  32.160  37.350  1.00  0.00     0.148 A 
ATOM     94  C   UNL A   1      40.442  33.243  39.344  1.00  0.00     0.002 A 
ATOM     95  C   UNL A   1      38.300  32.440  38.620  1.00  0.00     0.091 A 
ATOM     96  F   UNL A   1      38.047  31.469  36.485  1.00  0.00    -0.205 F 
ATOM     97  C   UNL A   1      39.119  32.951  39.630  1.00  0.00     0.022 A 
BRANCH  95  98
ATOM     98  S   UNL A   1      36.532  32.303  38.884  1.00  0.00     0.127 S 
ATOM     99  O   UNL A   1      35.991  33.134  37.810  1.00  0.00    -0.237 OA
ATOM    100  O   UNL A   1      36.282  30.869  38.782  1.00  0.00    -0.237 OA
ATOM    101  O   UNL A   1      36.345  32.857  40.225  1.00  0.00    -0.744 OA
ENDBRANCH  95  98
ENDBRANCH  68  91
ENDBRANCH  42  43
ENDBRANCH  35  37
ENDBRANCH  34  35
ENDBRANCH  33  34
ENDBRANCH  32  33
ENDBRANCH  31  32
ENDBRANCH  30  31
ENDBRANCH  29  30
ENDBRANCH   1  29
TORSDOF 26
ENDMDL
