MODEL 1
REMARK VINA RESULT:     -10.6      0.000      0.000
REMARK SMILES Cc1oc2c(c1C(=O)OCCOCCOCCOCCOC(=O)c1ccc(-c3c4nc(c(-c5cccc(S(=O)(=O)[O-])c5F)c5ccc([nH]5)c(-c5cccc(S(=O)(=O)[O-])c5F)c5nc(c(-c6cccc(S(=O)(=O)[O-])c6F)c6ccc3[nH]6)C=C5)C=C4)cc1)C(=O)C[C@H](c1ccco1)C2
REMARK SMILES IDX 16 1 15 2 14 3 13 4 12 5 11 6 10 7 9 8 7 9 8 10 6 11 1 12
REMARK SMILES IDX 2 13 3 14 4 15 5 16 96 17 87 18 90 19 88 20 89 21 91 22
REMARK SMILES IDX 92 23 95 24 93 25 94 26 17 27 18 28 19 29 20 30 21 31 22 32
REMARK SMILES IDX 23 33 24 34 25 35 86 36 26 37 85 38 27 39 28 40 29 41 79 42
REMARK SMILES IDX 30 43 84 44 78 45 80 46 31 47 83 48 77 49 76 50 32 52 64 53
REMARK SMILES IDX 44 54 63 55 45 56 48 57 62 58 81 59 46 60 47 61 61 63 82 64
REMARK SMILES IDX 49 65 33 66 34 67 42 68 35 69 37 70 43 71 36 72 38 73 39 74
REMARK SMILES IDX 40 75 41 76 65 77 66 78 74 79 67 80 69 81 75 82 68 83 70 84
REMARK SMILES IDX 71 85 72 86 73 87 50 88 51 89 59 90 52 91 54 92 60 93 53 94
REMARK SMILES IDX 55 95 56 96 57 97 58 98
REMARK H PARENT 80 51 48 62
REMARK Flexibility Score: inf
ROOT
ATOM      1  C   UNL A   1      39.233  22.166  26.452  1.00  0.00     0.188 C 
ENDROOT
BRANCH   1   2
ATOM      2  O   UNL A   1      38.799  23.524  26.455  1.00  0.00    -0.377 OA
BRANCH   2   3
ATOM      3  C   UNL A   1      37.595  23.761  25.743  1.00  0.00     0.188 C 
BRANCH   3   4
ATOM      4  C   UNL A   1      37.171  22.604  24.806  1.00  0.00     0.188 C 
BRANCH   4   5
ATOM      5  O   UNL A   1      35.889  21.987  24.897  1.00  0.00    -0.376 OA
BRANCH   5   6
ATOM      6  C   UNL A   1      35.365  21.559  26.141  1.00  0.00     0.202 C 
BRANCH   6   7
ATOM      7  C   UNL A   1      34.189  22.298  26.799  1.00  0.00     0.261 C 
BRANCH   7   8
ATOM      8  O   UNL A   1      32.896  21.731  26.581  1.00  0.00    -0.460 OA
BRANCH   8   9
ATOM      9  C   UNL A   1      31.855  22.605  26.550  1.00  0.00     0.342 C 
ATOM     10  O   UNL A   1      31.167  22.908  27.519  1.00  0.00    -0.246 OA
BRANCH   9  11
ATOM     11  C   UNL A   1      31.677  23.205  25.241  1.00  0.00     0.112 A 
ATOM     12  C   UNL A   1      32.369  21.279  23.559  1.00  0.00     0.088 C 
ATOM     13  C   UNL A   1      31.881  22.604  24.002  1.00  0.00     0.116 A 
ATOM     14  O   UNL A   1      31.508  23.453  22.995  1.00  0.00    -0.465 OA
ATOM     15  C   UNL A   1      31.142  24.610  23.586  1.00  0.00     0.116 A 
ATOM     16  C   UNL A   1      31.293  24.546  24.946  1.00  0.00     0.074 A 
ATOM     17  C   UNL A   1      30.636  25.732  22.769  1.00  0.00     0.088 C 
ATOM     18  C   UNL A   1      31.086  25.730  25.752  1.00  0.00     0.168 C 
ATOM     19  C   UNL A   1      30.791  27.056  23.562  1.00  0.00     0.071 C 
ATOM     20  O   UNL A   1      31.406  25.798  26.935  1.00  0.00    -0.294 OA
ATOM     21  C   UNL A   1      30.424  26.912  25.059  1.00  0.00     0.093 C 
BRANCH  19  22
ATOM     22  C   UNL A   1      29.977  28.169  22.968  1.00  0.00     0.107 A 
ATOM     23  C   UNL A   1      28.647  28.526  23.081  1.00  0.00     0.046 A 
ATOM     24  O   UNL A   1      30.601  29.003  22.087  1.00  0.00    -0.469 OA
ATOM     25  C   UNL A   1      28.455  29.634  22.219  1.00  0.00     0.042 A 
ATOM     26  C   UNL A   1      29.677  29.890  21.647  1.00  0.00     0.195 A 
ENDBRANCH  19  22
ENDBRANCH   9  11
ENDBRANCH   8   9
ENDBRANCH   7   8
ENDBRANCH   6   7
ENDBRANCH   5   6
ENDBRANCH   4   5
ENDBRANCH   3   4
ENDBRANCH   2   3
ENDBRANCH   1   2
BRANCH   1  27
ATOM     27  C   UNL A   1      40.615  21.871  27.086  1.00  0.00     0.188 C 
BRANCH  27  28
ATOM     28  O   UNL A   1      40.781  20.525  27.531  1.00  0.00    -0.376 OA
BRANCH  28  29
ATOM     29  C   UNL A   1      41.034  19.484  26.602  1.00  0.00     0.202 C 
BRANCH  29  30
ATOM     30  C   UNL A   1      42.494  19.305  26.207  1.00  0.00     0.261 C 
BRANCH  30  31
ATOM     31  O   UNL A   1      42.897  20.180  25.173  1.00  0.00    -0.460 OA
BRANCH  31  32
ATOM     32  C   UNL A   1      44.223  20.259  24.957  1.00  0.00     0.338 C 
ATOM     33  O   UNL A   1      45.025  19.344  24.907  1.00  0.00    -0.246 OA
BRANCH  32  34
ATOM     34  C   UNL A   1      44.575  21.678  24.897  1.00  0.00     0.060 A 
ATOM     35  C   UNL A   1      45.809  22.019  25.448  1.00  0.00     0.016 A 
ATOM     36  C   UNL A   1      43.547  22.610  24.682  1.00  0.00     0.016 A 
ATOM     37  C   UNL A   1      45.899  23.234  26.076  1.00  0.00     0.010 A 
ATOM     38  C   UNL A   1      43.624  23.804  25.339  1.00  0.00     0.010 A 
ATOM     39  C   UNL A   1      44.757  24.038  26.109  1.00  0.00    -0.014 A 
BRANCH  39  40
ATOM     40  C   UNL A   1      44.758  25.150  27.018  1.00  0.00     0.031 A 
ATOM     41  C   UNL A   1      45.863  26.087  26.783  1.00  0.00     0.074 A 
ATOM     42  C   UNL A   1      43.763  25.324  27.905  1.00  0.00     0.049 A 
ATOM     43  N   UNL A   1      46.889  26.289  27.538  1.00  0.00    -0.248 NA
ATOM     44  C   UNL A   1      45.933  26.735  25.465  1.00  0.00     0.031 C 
ATOM     45  C   UNL A   1      42.475  24.625  27.966  1.00  0.00     0.029 A 
ATOM     46  N   UNL A   1      43.636  26.299  28.838  1.00  0.00    -0.354 N 
ATOM     47  C   UNL A   1      47.608  27.286  26.891  1.00  0.00     0.074 A 
ATOM     48  C   UNL A   1      47.118  27.338  25.540  1.00  0.00     0.031 C 
ATOM     49  C   UNL A   1      41.612  25.376  28.687  1.00  0.00     0.029 A 
ATOM     50  C   UNL A   1      42.322  26.528  29.216  1.00  0.00     0.049 A 
ATOM     51  H   UNL A   1      44.402  26.794  29.210  1.00  0.00     0.167 HD
ATOM     52  C   UNL A   1      48.333  28.193  27.593  1.00  0.00     0.034 A 
ATOM     53  C   UNL A   1      41.857  27.661  29.798  1.00  0.00     0.034 A 
ATOM     54  C   UNL A   1      48.568  27.763  28.947  1.00  0.00     0.049 A 
ATOM     55  C   UNL A   1      43.029  28.380  30.367  1.00  0.00     0.074 A 
ATOM     56  C   UNL A   1      49.120  26.636  29.526  1.00  0.00     0.029 A 
ATOM     57  N   UNL A   1      47.850  28.385  29.941  1.00  0.00    -0.354 N 
ATOM     58  N   UNL A   1      43.736  27.937  31.371  1.00  0.00    -0.248 NA
ATOM     59  C   UNL A   1      43.687  29.380  29.537  1.00  0.00     0.031 C 
ATOM     60  C   UNL A   1      48.326  26.391  30.683  1.00  0.00     0.029 A 
ATOM     61  C   UNL A   1      47.370  27.405  30.770  1.00  0.00     0.049 A 
ATOM     62  H   UNL A   1      47.707  29.355  30.040  1.00  0.00     0.167 HD
ATOM     63  C   UNL A   1      45.050  28.256  31.043  1.00  0.00     0.074 A 
ATOM     64  C   UNL A   1      44.944  29.238  29.967  1.00  0.00     0.031 C 
ATOM     65  C   UNL A   1      46.097  27.477  31.455  1.00  0.00     0.034 A 
BRANCH  52  66
ATOM     66  C   UNL A   1      48.505  29.627  27.169  1.00  0.00     0.023 A 
ATOM     67  C   UNL A   1      49.808  30.162  27.222  1.00  0.00     0.012 A 
ATOM     68  C   UNL A   1      47.441  30.539  26.976  1.00  0.00     0.148 A 
ATOM     69  C   UNL A   1      50.035  31.537  27.128  1.00  0.00     0.002 A 
ATOM     70  C   UNL A   1      47.681  31.892  26.783  1.00  0.00     0.091 A 
ATOM     71  F   UNL A   1      46.173  30.143  27.123  1.00  0.00    -0.205 F 
ATOM     72  C   UNL A   1      48.973  32.404  26.892  1.00  0.00     0.022 A 
BRANCH  70  73
ATOM     73  S   UNL A   1      46.336  33.021  26.403  1.00  0.00     0.127 S 
ATOM     74  O   UNL A   1      45.876  33.391  27.737  1.00  0.00    -0.237 OA
ATOM     75  O   UNL A   1      47.029  34.080  25.668  1.00  0.00    -0.237 OA
ATOM     76  O   UNL A   1      45.408  32.246  25.589  1.00  0.00    -0.744 OA
ENDBRANCH  70  73
ENDBRANCH  52  66
BRANCH  53  77
ATOM     77  C   UNL A   1      40.527  28.296  29.645  1.00  0.00     0.023 A 
ATOM     78  C   UNL A   1      39.938  28.366  28.367  1.00  0.00     0.012 A 
ATOM     79  C   UNL A   1      39.725  28.621  30.762  1.00  0.00     0.148 A 
ATOM     80  C   UNL A   1      38.595  28.730  28.211  1.00  0.00     0.002 A 
ATOM     81  C   UNL A   1      38.398  29.010  30.600  1.00  0.00     0.091 A 
ATOM     82  F   UNL A   1      40.224  28.458  31.995  1.00  0.00    -0.205 F 
ATOM     83  C   UNL A   1      37.825  29.053  29.326  1.00  0.00     0.022 A 
BRANCH  81  84
ATOM     84  S   UNL A   1      37.364  29.449  32.005  1.00  0.00     0.127 S 
ATOM     85  O   UNL A   1      37.500  28.273  32.867  1.00  0.00    -0.237 OA
ATOM     86  O   UNL A   1      38.022  30.653  32.503  1.00  0.00    -0.237 OA
ATOM     87  O   UNL A   1      36.023  29.633  31.462  1.00  0.00    -0.744 OA
ENDBRANCH  81  84
ENDBRANCH  53  77
BRANCH  65  88
ATOM     88  C   UNL A   1      45.842  26.400  32.483  1.00  0.00     0.023 A 
ATOM     89  C   UNL A   1      45.343  25.131  32.121  1.00  0.00     0.012 A 
ATOM     90  C   UNL A   1      46.310  26.594  33.795  1.00  0.00     0.148 A 
ATOM     91  C   UNL A   1      45.291  24.088  33.050  1.00  0.00     0.002 A 
ATOM     92  C   UNL A   1      46.303  25.540  34.702  1.00  0.00     0.091 A 
ATOM     93  F   UNL A   1      46.790  27.803  34.126  1.00  0.00    -0.205 F 
ATOM     94  C   UNL A   1      45.786  24.288  34.336  1.00  0.00     0.022 A 
BRANCH  92  95
ATOM     95  S   UNL A   1      47.057  25.694  36.324  1.00  0.00     0.127 S 
ATOM     96  O   UNL A   1      46.307  26.805  36.905  1.00  0.00    -0.237 OA
ATOM     97  O   UNL A   1      46.784  24.389  36.927  1.00  0.00    -0.237 OA
ATOM     98  O   UNL A   1      48.473  25.948  36.081  1.00  0.00    -0.744 OA
ENDBRANCH  92  95
ENDBRANCH  65  88
ENDBRANCH  39  40
ENDBRANCH  32  34
ENDBRANCH  31  32
ENDBRANCH  30  31
ENDBRANCH  29  30
ENDBRANCH  28  29
ENDBRANCH  27  28
ENDBRANCH   1  27
TORSDOF 24
ENDMDL
MODEL 2
REMARK VINA RESULT:     -10.4      3.452      5.602
REMARK SMILES Cc1oc2c(c1C(=O)OCCOCCOCCOCCOC(=O)c1ccc(-c3c4nc(c(-c5cccc(S(=O)(=O)[O-])c5F)c5ccc([nH]5)c(-c5cccc(S(=O)(=O)[O-])c5F)c5nc(c(-c6cccc(S(=O)(=O)[O-])c6F)c6ccc3[nH]6)C=C5)C=C4)cc1)C(=O)C[C@H](c1ccco1)C2
REMARK SMILES IDX 16 1 15 2 14 3 13 4 12 5 11 6 10 7 9 8 7 9 8 10 6 11 1 12
REMARK SMILES IDX 2 13 3 14 4 15 5 16 96 17 87 18 90 19 88 20 89 21 91 22
REMARK SMILES IDX 92 23 95 24 93 25 94 26 17 27 18 28 19 29 20 30 21 31 22 32
REMARK SMILES IDX 23 33 24 34 25 35 86 36 26 37 85 38 27 39 28 40 29 41 79 42
REMARK SMILES IDX 30 43 84 44 78 45 80 46 31 47 83 48 77 49 76 50 32 52 64 53
REMARK SMILES IDX 44 54 63 55 45 56 48 57 62 58 81 59 46 60 47 61 61 63 82 64
REMARK SMILES IDX 49 65 33 66 34 67 42 68 35 69 37 70 43 71 36 72 38 73 39 74
REMARK SMILES IDX 40 75 41 76 65 77 66 78 74 79 67 80 69 81 75 82 68 83 70 84
REMARK SMILES IDX 71 85 72 86 73 87 50 88 51 89 59 90 52 91 54 92 60 93 53 94
REMARK SMILES IDX 55 95 56 96 57 97 58 98
REMARK H PARENT 80 51 48 62
REMARK Flexibility Score: inf
ROOT
ATOM      1  C   UNL A   1      40.240  20.337  26.190  1.00  0.00     0.188 C 
ENDROOT
BRANCH   1   2
ATOM      2  O   UNL A   1      39.713  21.440  26.924  1.00  0.00    -0.377 OA
BRANCH   2   3
ATOM      3  C   UNL A   1      39.642  22.655  26.195  1.00  0.00     0.188 C 
BRANCH   3   4
ATOM      4  C   UNL A   1      38.437  23.552  26.567  1.00  0.00     0.188 C 
BRANCH   4   5
ATOM      5  O   UNL A   1      37.510  24.018  25.589  1.00  0.00    -0.376 OA
BRANCH   5   6
ATOM      6  C   UNL A   1      36.124  23.746  25.700  1.00  0.00     0.202 C 
BRANCH   6   7
ATOM      7  C   UNL A   1      35.080  24.744  25.178  1.00  0.00     0.261 C 
BRANCH   7   8
ATOM      8  O   UNL A   1      34.088  25.158  26.120  1.00  0.00    -0.460 OA
BRANCH   8   9
ATOM      9  C   UNL A   1      32.802  25.151  25.680  1.00  0.00     0.342 C 
ATOM     10  O   UNL A   1      31.964  26.003  25.955  1.00  0.00    -0.246 OA
BRANCH   9  11
ATOM     11  C   UNL A   1      32.533  24.045  24.779  1.00  0.00     0.112 A 
ATOM     12  C   UNL A   1      31.583  25.214  22.601  1.00  0.00     0.088 C 
ATOM     13  C   UNL A   1      32.040  24.116  23.480  1.00  0.00     0.116 A 
ATOM     14  O   UNL A   1      32.018  22.870  22.912  1.00  0.00    -0.465 OA
ATOM     15  C   UNL A   1      32.419  22.007  23.869  1.00  0.00     0.116 A 
ATOM     16  C   UNL A   1      32.676  22.653  25.050  1.00  0.00     0.074 A 
ATOM     17  C   UNL A   1      32.551  20.568  23.562  1.00  0.00     0.088 C 
ATOM     18  C   UNL A   1      32.986  21.888  26.239  1.00  0.00     0.168 C 
ATOM     19  C   UNL A   1      32.498  19.753  24.880  1.00  0.00     0.071 C 
ATOM     20  O   UNL A   1      33.016  22.382  27.362  1.00  0.00    -0.294 OA
ATOM     21  C   UNL A   1      33.295  20.413  26.032  1.00  0.00     0.093 C 
BRANCH  19  22
ATOM     22  C   UNL A   1      32.988  18.346  24.695  1.00  0.00     0.107 A 
ATOM     23  C   UNL A   1      34.109  17.812  24.088  1.00  0.00     0.046 A 
ATOM     24  O   UNL A   1      32.189  17.338  25.147  1.00  0.00    -0.469 OA
ATOM     25  C   UNL A   1      33.978  16.403  24.174  1.00  0.00     0.042 A 
ATOM     26  C   UNL A   1      32.798  16.169  24.837  1.00  0.00     0.195 A 
ENDBRANCH  19  22
ENDBRANCH   9  11
ENDBRANCH   8   9
ENDBRANCH   7   8
ENDBRANCH   6   7
ENDBRANCH   5   6
ENDBRANCH   4   5
ENDBRANCH   3   4
ENDBRANCH   2   3
ENDBRANCH   1   2
BRANCH   1  27
ATOM     27  C   UNL A   1      41.481  19.626  26.786  1.00  0.00     0.188 C 
BRANCH  27  28
ATOM     28  O   UNL A   1      42.630  20.461  26.913  1.00  0.00    -0.376 OA
BRANCH  28  29
ATOM     29  C   UNL A   1      43.391  20.821  25.771  1.00  0.00     0.202 C 
BRANCH  29  30
ATOM     30  C   UNL A   1      43.160  22.235  25.254  1.00  0.00     0.261 C 
BRANCH  30  31
ATOM     31  O   UNL A   1      43.639  23.231  26.135  1.00  0.00    -0.460 OA
BRANCH  31  32
ATOM     32  C   UNL A   1      43.359  24.501  25.791  1.00  0.00     0.338 C 
ATOM     33  O   UNL A   1      43.782  25.122  24.833  1.00  0.00    -0.246 OA
BRANCH  32  34
ATOM     34  C   UNL A   1      42.521  25.068  26.847  1.00  0.00     0.060 A 
ATOM     35  C   UNL A   1      41.502  25.918  26.420  1.00  0.00     0.016 A 
ATOM     36  C   UNL A   1      43.011  25.060  28.163  1.00  0.00     0.016 A 
ATOM     37  C   UNL A   1      41.192  26.979  27.229  1.00  0.00     0.010 A 
ATOM     38  C   UNL A   1      42.729  26.137  28.953  1.00  0.00     0.010 A 
ATOM     39  C   UNL A   1      41.909  27.124  28.419  1.00  0.00    -0.014 A 
BRANCH  39  40
ATOM     40  C   UNL A   1      41.806  28.383  29.104  1.00  0.00     0.031 A 
ATOM     41  C   UNL A   1      42.797  29.368  28.653  1.00  0.00     0.074 A 
ATOM     42  C   UNL A   1      40.816  28.618  29.982  1.00  0.00     0.049 A 
ATOM     43  N   UNL A   1      43.809  29.816  29.313  1.00  0.00    -0.248 NA
ATOM     44  C   UNL A   1      42.768  29.757  27.235  1.00  0.00     0.031 C 
ATOM     45  C   UNL A   1      39.615  27.813  30.225  1.00  0.00     0.029 A 
ATOM     46  N   UNL A   1      40.603  29.733  30.721  1.00  0.00    -0.354 N 
ATOM     47  C   UNL A   1      44.400  30.740  28.463  1.00  0.00     0.074 A 
ATOM     48  C   UNL A   1      43.880  30.484  27.147  1.00  0.00     0.031 C 
ATOM     49  C   UNL A   1      38.690  28.593  30.828  1.00  0.00     0.029 A 
ATOM     50  C   UNL A   1      39.279  29.892  31.103  1.00  0.00     0.049 A 
ATOM     51  H   UNL A   1      41.316  30.368  30.962  1.00  0.00     0.167 HD
ATOM     52  C   UNL A   1      45.036  31.835  28.952  1.00  0.00     0.034 A 
ATOM     53  C   UNL A   1      38.705  31.060  31.482  1.00  0.00     0.034 A 
ATOM     54  C   UNL A   1      45.345  31.697  30.353  1.00  0.00     0.049 A 
ATOM     55  C   UNL A   1      39.802  31.992  31.858  1.00  0.00     0.074 A 
ATOM     56  C   UNL A   1      46.029  30.764  31.108  1.00  0.00     0.029 A 
ATOM     57  N   UNL A   1      44.583  32.419  31.242  1.00  0.00    -0.354 N 
ATOM     58  N   UNL A   1      40.574  31.825  32.897  1.00  0.00    -0.248 NA
ATOM     59  C   UNL A   1      40.328  32.880  30.830  1.00  0.00     0.031 C 
ATOM     60  C   UNL A   1      45.291  30.662  32.322  1.00  0.00     0.029 A 
ATOM     61  C   UNL A   1      44.231  31.569  32.258  1.00  0.00     0.049 A 
ATOM     62  H   UNL A   1      44.336  33.369  31.163  1.00  0.00     0.167 HD
ATOM     63  C   UNL A   1      41.838  32.210  32.462  1.00  0.00     0.074 A 
ATOM     64  C   UNL A   1      41.602  32.953  31.227  1.00  0.00     0.031 C 
ATOM     65  C   UNL A   1      42.972  31.638  32.968  1.00  0.00     0.034 A 
BRANCH  52  66
ATOM     66  C   UNL A   1      45.040  33.173  28.262  1.00  0.00     0.023 A 
ATOM     67  C   UNL A   1      46.296  33.739  27.963  1.00  0.00     0.012 A 
ATOM     68  C   UNL A   1      43.907  34.009  28.127  1.00  0.00     0.148 A 
ATOM     69  C   UNL A   1      46.420  35.079  27.589  1.00  0.00     0.002 A 
ATOM     70  C   UNL A   1      44.027  35.310  27.660  1.00  0.00     0.091 A 
ATOM     71  F   UNL A   1      42.715  33.616  28.588  1.00  0.00    -0.205 F 
ATOM     72  C   UNL A   1      45.284  35.863  27.422  1.00  0.00     0.022 A 
BRANCH  70  73
ATOM     73  S   UNL A   1      42.571  36.319  27.363  1.00  0.00     0.127 S 
ATOM     74  O   UNL A   1      41.909  36.271  28.663  1.00  0.00    -0.237 OA
ATOM     75  O   UNL A   1      43.164  37.611  27.014  1.00  0.00    -0.237 OA
ATOM     76  O   UNL A   1      41.876  35.670  26.258  1.00  0.00    -0.744 OA
ENDBRANCH  70  73
ENDBRANCH  52  66
BRANCH  53  77
ATOM     77  C   UNL A   1      37.310  31.512  31.268  1.00  0.00     0.023 A 
ATOM     78  C   UNL A   1      36.552  31.958  32.367  1.00  0.00     0.012 A 
ATOM     79  C   UNL A   1      36.790  31.734  29.972  1.00  0.00     0.148 A 
ATOM     80  C   UNL A   1      35.330  32.616  32.182  1.00  0.00     0.002 A 
ATOM     81  C   UNL A   1      35.562  32.364  29.793  1.00  0.00     0.091 A 
ATOM     82  F   UNL A   1      37.538  31.420  28.905  1.00  0.00    -0.205 F 
ATOM     83  C   UNL A   1      34.834  32.819  30.896  1.00  0.00     0.022 A 
BRANCH  81  84
ATOM     84  S   UNL A   1      34.870  32.639  28.155  1.00  0.00     0.127 S 
ATOM     85  O   UNL A   1      33.657  33.401  28.458  1.00  0.00    -0.237 OA
ATOM     86  O   UNL A   1      35.928  33.405  27.502  1.00  0.00    -0.237 OA
ATOM     87  O   UNL A   1      34.615  31.312  27.610  1.00  0.00    -0.744 OA
ENDBRANCH  81  84
ENDBRANCH  53  77
BRANCH  65  88
ATOM     88  C   UNL A   1      42.859  30.755  34.189  1.00  0.00     0.023 A 
ATOM     89  C   UNL A   1      42.858  31.289  35.495  1.00  0.00     0.012 A 
ATOM     90  C   UNL A   1      42.536  29.397  34.014  1.00  0.00     0.148 A 
ATOM     91  C   UNL A   1      42.565  30.485  36.600  1.00  0.00     0.002 A 
ATOM     92  C   UNL A   1      42.197  28.613  35.110  1.00  0.00     0.091 A 
ATOM     93  F   UNL A   1      42.532  28.901  32.767  1.00  0.00    -0.205 F 
ATOM     94  C   UNL A   1      42.219  29.151  36.406  1.00  0.00     0.022 A 
BRANCH  92  95
ATOM     95  S   UNL A   1      41.604  26.929  34.911  1.00  0.00     0.127 S 
ATOM     96  O   UNL A   1      40.515  27.100  33.952  1.00  0.00    -0.237 OA
ATOM     97  O   UNL A   1      42.781  26.237  34.385  1.00  0.00    -0.237 OA
ATOM     98  O   UNL A   1      41.207  26.489  36.244  1.00  0.00    -0.744 OA
ENDBRANCH  92  95
ENDBRANCH  65  88
ENDBRANCH  39  40
ENDBRANCH  32  34
ENDBRANCH  31  32
ENDBRANCH  30  31
ENDBRANCH  29  30
ENDBRANCH  28  29
ENDBRANCH  27  28
ENDBRANCH   1  27
TORSDOF 24
ENDMDL
MODEL 3
REMARK VINA RESULT:     -10.0      1.498      2.101
REMARK SMILES Cc1oc2c(c1C(=O)OCCOCCOCCOCCOC(=O)c1ccc(-c3c4nc(c(-c5cccc(S(=O)(=O)[O-])c5F)c5ccc([nH]5)c(-c5cccc(S(=O)(=O)[O-])c5F)c5nc(c(-c6cccc(S(=O)(=O)[O-])c6F)c6ccc3[nH]6)C=C5)C=C4)cc1)C(=O)C[C@H](c1ccco1)C2
REMARK SMILES IDX 16 1 15 2 14 3 13 4 12 5 11 6 10 7 9 8 7 9 8 10 6 11 1 12
REMARK SMILES IDX 2 13 3 14 4 15 5 16 96 17 87 18 90 19 88 20 89 21 91 22
REMARK SMILES IDX 92 23 95 24 93 25 94 26 17 27 18 28 19 29 20 30 21 31 22 32
REMARK SMILES IDX 23 33 24 34 25 35 86 36 26 37 85 38 27 39 28 40 29 41 79 42
REMARK SMILES IDX 30 43 84 44 78 45 80 46 31 47 83 48 77 49 76 50 32 52 64 53
REMARK SMILES IDX 44 54 63 55 45 56 48 57 62 58 81 59 46 60 47 61 61 63 82 64
REMARK SMILES IDX 49 65 33 66 34 67 42 68 35 69 37 70 43 71 36 72 38 73 39 74
REMARK SMILES IDX 40 75 41 76 65 77 66 78 74 79 67 80 69 81 75 82 68 83 70 84
REMARK SMILES IDX 71 85 72 86 73 87 50 88 51 89 59 90 52 91 54 92 60 93 53 94
REMARK SMILES IDX 55 95 56 96 57 97 58 98
REMARK H PARENT 80 51 48 62
REMARK Flexibility Score: inf
ROOT
ATOM      1  C   UNL A   1      39.600  22.112  26.777  1.00  0.00     0.188 C 
ENDROOT
BRANCH   1   2
ATOM      2  O   UNL A   1      39.129  23.452  26.903  1.00  0.00    -0.377 OA
BRANCH   2   3
ATOM      3  C   UNL A   1      37.971  23.745  26.137  1.00  0.00     0.188 C 
BRANCH   3   4
ATOM      4  C   UNL A   1      37.598  22.654  25.104  1.00  0.00     0.188 C 
BRANCH   4   5
ATOM      5  O   UNL A   1      36.664  21.620  25.399  1.00  0.00    -0.376 OA
BRANCH   5   6
ATOM      6  C   UNL A   1      35.678  21.782  26.404  1.00  0.00     0.202 C 
BRANCH   6   7
ATOM      7  C   UNL A   1      34.295  22.360  26.067  1.00  0.00     0.261 C 
BRANCH   7   8
ATOM      8  O   UNL A   1      34.132  22.850  24.735  1.00  0.00    -0.460 OA
BRANCH   8   9
ATOM      9  C   UNL A   1      32.864  23.174  24.367  1.00  0.00     0.342 C 
ATOM     10  O   UNL A   1      32.256  22.664  23.431  1.00  0.00    -0.246 OA
BRANCH   9  11
ATOM     11  C   UNL A   1      32.266  24.159  25.249  1.00  0.00     0.112 A 
ATOM     12  C   UNL A   1      30.349  22.819  26.493  1.00  0.00     0.088 C 
ATOM     13  C   UNL A   1      31.222  23.963  26.148  1.00  0.00     0.116 A 
ATOM     14  O   UNL A   1      31.005  25.100  26.879  1.00  0.00    -0.465 OA
ATOM     15  C   UNL A   1      31.852  26.033  26.396  1.00  0.00     0.116 A 
ATOM     16  C   UNL A   1      32.594  25.543  25.353  1.00  0.00     0.074 A 
ATOM     17  C   UNL A   1      31.903  27.377  27.007  1.00  0.00     0.088 C 
ATOM     18  C   UNL A   1      33.462  26.427  24.606  1.00  0.00     0.168 C 
ATOM     19  C   UNL A   1      32.515  28.380  25.995  1.00  0.00     0.071 C 
ATOM     20  O   UNL A   1      33.986  26.107  23.543  1.00  0.00    -0.294 OA
ATOM     21  C   UNL A   1      33.719  27.796  25.217  1.00  0.00     0.093 C 
BRANCH  19  22
ATOM     22  C   UNL A   1      32.937  29.661  26.653  1.00  0.00     0.107 A 
ATOM     23  C   UNL A   1      32.285  30.856  26.892  1.00  0.00     0.046 A 
ATOM     24  O   UNL A   1      34.229  29.752  27.080  1.00  0.00    -0.469 OA
ATOM     25  C   UNL A   1      33.236  31.718  27.492  1.00  0.00     0.042 A 
ATOM     26  C   UNL A   1      34.399  30.994  27.594  1.00  0.00     0.195 A 
ENDBRANCH  19  22
ENDBRANCH   9  11
ENDBRANCH   8   9
ENDBRANCH   7   8
ENDBRANCH   6   7
ENDBRANCH   5   6
ENDBRANCH   4   5
ENDBRANCH   3   4
ENDBRANCH   2   3
ENDBRANCH   1   2
BRANCH   1  27
ATOM     27  C   UNL A   1      41.083  21.854  27.144  1.00  0.00     0.188 C 
BRANCH  27  28
ATOM     28  O   UNL A   1      41.388  20.489  27.426  1.00  0.00    -0.376 OA
BRANCH  28  29
ATOM     29  C   UNL A   1      41.695  19.586  26.376  1.00  0.00     0.202 C 
BRANCH  29  30
ATOM     30  C   UNL A   1      43.150  19.584  25.925  1.00  0.00     0.261 C 
BRANCH  30  31
ATOM     31  O   UNL A   1      43.458  20.648  25.048  1.00  0.00    -0.460 OA
BRANCH  31  32
ATOM     32  C   UNL A   1      44.769  20.896  24.867  1.00  0.00     0.338 C 
ATOM     33  O   UNL A   1      45.683  20.092  24.852  1.00  0.00    -0.246 OA
BRANCH  32  34
ATOM     34  C   UNL A   1      44.936  22.347  24.794  1.00  0.00     0.060 A 
ATOM     35  C   UNL A   1      46.163  22.838  25.238  1.00  0.00     0.016 A 
ATOM     36  C   UNL A   1      43.785  23.145  24.683  1.00  0.00     0.016 A 
ATOM     37  C   UNL A   1      46.158  24.054  25.871  1.00  0.00     0.010 A 
ATOM     38  C   UNL A   1      43.774  24.338  25.346  1.00  0.00     0.010 A 
ATOM     39  C   UNL A   1      44.933  24.710  26.016  1.00  0.00    -0.014 A 
BRANCH  39  40
ATOM     40  C   UNL A   1      44.879  25.811  26.936  1.00  0.00     0.031 A 
ATOM     41  C   UNL A   1      45.898  26.834  26.673  1.00  0.00     0.074 A 
ATOM     42  C   UNL A   1      43.904  25.900  27.857  1.00  0.00     0.049 A 
ATOM     43  N   UNL A   1      46.931  27.110  27.395  1.00  0.00    -0.248 NA
ATOM     44  C   UNL A   1      45.872  27.495  25.360  1.00  0.00     0.031 C 
ATOM     45  C   UNL A   1      42.678  25.102  27.954  1.00  0.00     0.029 A 
ATOM     46  N   UNL A   1      43.734  26.855  28.804  1.00  0.00    -0.354 N 
ATOM     47  C   UNL A   1      47.546  28.165  26.735  1.00  0.00     0.074 A 
ATOM     48  C   UNL A   1      47.008  28.189  25.401  1.00  0.00     0.031 C 
ATOM     49  C   UNL A   1      41.784  25.777  28.712  1.00  0.00     0.029 A 
ATOM     50  C   UNL A   1      42.419  26.978  29.228  1.00  0.00     0.049 A 
ATOM     51  H   UNL A   1      44.470  27.406  29.155  1.00  0.00     0.167 HD
ATOM     52  C   UNL A   1      48.223  29.121  27.421  1.00  0.00     0.034 A 
ATOM     53  C   UNL A   1      41.888  28.066  29.837  1.00  0.00     0.034 A 
ATOM     54  C   UNL A   1      48.537  28.701  28.762  1.00  0.00     0.049 A 
ATOM     55  C   UNL A   1      43.018  28.870  30.374  1.00  0.00     0.074 A 
ATOM     56  C   UNL A   1      49.195  27.616  29.310  1.00  0.00     0.029 A 
ATOM     57  N   UNL A   1      47.807  29.257  29.786  1.00  0.00    -0.354 N 
ATOM     58  N   UNL A   1      43.792  28.477  31.349  1.00  0.00    -0.248 NA
ATOM     59  C   UNL A   1      43.567  29.925  29.533  1.00  0.00     0.031 C 
ATOM     60  C   UNL A   1      48.463  27.300  30.491  1.00  0.00     0.029 A 
ATOM     61  C   UNL A   1      47.434  28.236  30.620  1.00  0.00     0.049 A 
ATOM     62  H   UNL A   1      47.592  30.212  29.899  1.00  0.00     0.167 HD
ATOM     63  C   UNL A   1      45.066  28.900  30.980  1.00  0.00     0.074 A 
ATOM     64  C   UNL A   1      44.846  29.879  29.918  1.00  0.00     0.031 C 
ATOM     65  C   UNL A   1      46.183  28.203  31.348  1.00  0.00     0.034 A 
BRANCH  52  66
ATOM     66  C   UNL A   1      48.267  30.568  27.007  1.00  0.00     0.023 A 
ATOM     67  C   UNL A   1      49.529  31.196  26.998  1.00  0.00     0.012 A 
ATOM     68  C   UNL A   1      47.131  31.400  26.879  1.00  0.00     0.148 A 
ATOM     69  C   UNL A   1      49.650  32.585  26.909  1.00  0.00     0.002 A 
ATOM     70  C   UNL A   1      47.261  32.769  26.691  1.00  0.00     0.091 A 
ATOM     71  F   UNL A   1      45.904  30.911  27.087  1.00  0.00    -0.205 F 
ATOM     72  C   UNL A   1      48.517  33.373  26.739  1.00  0.00     0.022 A 
BRANCH  70  73
ATOM     73  S   UNL A   1      45.820  33.799  26.395  1.00  0.00     0.127 S 
ATOM     74  O   UNL A   1      45.246  33.894  27.733  1.00  0.00    -0.237 OA
ATOM     75  O   UNL A   1      46.428  35.031  25.889  1.00  0.00    -0.237 OA
ATOM     76  O   UNL A   1      45.033  33.077  25.402  1.00  0.00    -0.744 OA
ENDBRANCH  70  73
ENDBRANCH  52  66
BRANCH  53  77
ATOM     77  C   UNL A   1      40.507  28.595  29.735  1.00  0.00     0.023 A 
ATOM     78  C   UNL A   1      39.846  28.566  28.492  1.00  0.00     0.012 A 
ATOM     79  C   UNL A   1      39.745  28.911  30.883  1.00  0.00     0.148 A 
ATOM     80  C   UNL A   1      38.474  28.825  28.399  1.00  0.00     0.002 A 
ATOM     81  C   UNL A   1      38.387  29.195  30.783  1.00  0.00     0.091 A 
ATOM     82  F   UNL A   1      40.321  28.840  32.091  1.00  0.00    -0.205 F 
ATOM     83  C   UNL A   1      37.743  29.140  29.542  1.00  0.00     0.022 A 
BRANCH  81  84
ATOM     84  S   UNL A   1      37.400  29.620  32.225  1.00  0.00     0.127 S 
ATOM     85  O   UNL A   1      37.377  28.357  32.966  1.00  0.00    -0.237 OA
ATOM     86  O   UNL A   1      38.199  30.676  32.841  1.00  0.00    -0.237 OA
ATOM     87  O   UNL A   1      36.100  30.026  31.705  1.00  0.00    -0.744 OA
ENDBRANCH  81  84
ENDBRANCH  53  77
BRANCH  65  88
ATOM     88  C   UNL A   1      46.049  27.101  32.373  1.00  0.00     0.023 A 
ATOM     89  C   UNL A   1      45.694  25.785  32.008  1.00  0.00     0.012 A 
ATOM     90  C   UNL A   1      46.492  27.342  33.686  1.00  0.00     0.148 A 
ATOM     91  C   UNL A   1      45.757  24.741  32.934  1.00  0.00     0.002 A 
ATOM     92  C   UNL A   1      46.601  26.292  34.590  1.00  0.00     0.091 A 
ATOM     93  F   UNL A   1      46.835  28.595  34.021  1.00  0.00    -0.205 F 
ATOM     94  C   UNL A   1      46.226  24.991  34.221  1.00  0.00     0.022 A 
BRANCH  92  95
ATOM     95  S   UNL A   1      47.333  26.524  36.214  1.00  0.00     0.127 S 
ATOM     96  O   UNL A   1      46.833  25.361  36.943  1.00  0.00    -0.237 OA
ATOM     97  O   UNL A   1      48.767  26.495  35.923  1.00  0.00    -0.237 OA
ATOM     98  O   UNL A   1      46.852  27.818  36.684  1.00  0.00    -0.744 OA
ENDBRANCH  92  95
ENDBRANCH  65  88
ENDBRANCH  39  40
ENDBRANCH  32  34
ENDBRANCH  31  32
ENDBRANCH  30  31
ENDBRANCH  29  30
ENDBRANCH  28  29
ENDBRANCH  27  28
ENDBRANCH   1  27
TORSDOF 24
ENDMDL
