MODEL 1
REMARK VINA RESULT:      -9.7      0.000      0.000
REMARK SMILES COc1ccc2c(c1)c(CC(=O)OCCOCCOCCOCCOC(=O)c1ccc(-c3c4nc(c(-c5cccc(S(=O)(=O)[O-])c5F)c5ccc([nH]5)c(-c5cccc(S(=O)(=O)[O-])c5F)c5nc(c(-c6cccc(S(=O)(=O)[O-])c6F)c6ccc3[nH]6)C=C5)C=C4)cc1)c(C(F)(F)F)n2C(=O)c1ccc(Cl)cc1
REMARK SMILES IDX 19 1 18 2 17 3 16 4 15 5 14 6 13 7 11 8 12 9 10 10 9 11 3 12
REMARK SMILES IDX 4 13 8 14 5 15 7 16 6 17 96 18 91 19 2 20 1 21 97 22 98 23
REMARK SMILES IDX 99 24 100 25 105 26 101 27 104 28 102 29 103 30 92 31 93 32
REMARK SMILES IDX 94 33 95 34 20 35 21 36 22 37 23 38 24 39 25 40 26 41 27 42
REMARK SMILES IDX 28 43 29 44 90 45 30 46 89 47 31 48 32 49 33 50 83 51 34 52
REMARK SMILES IDX 88 53 82 54 84 55 35 56 87 57 81 58 80 59 36 61 68 62 48 63
REMARK SMILES IDX 67 64 49 65 52 66 66 67 85 68 50 69 51 70 65 72 86 73 53 74
REMARK SMILES IDX 37 75 38 76 46 77 39 78 41 79 47 80 40 81 42 82 43 83 44 84
REMARK SMILES IDX 45 85 69 86 70 87 78 88 71 89 73 90 79 91 72 92 74 93 75 94
REMARK SMILES IDX 76 95 77 96 54 97 55 98 63 99 56 100 58 101 64 102 57 103
REMARK SMILES IDX 59 104 60 105 61 106 62 107
REMARK H PARENT 84 60 52 71
REMARK Flexibility Score: inf
ROOT
ATOM      1  O   UNL A   1      33.731  34.688  28.408  1.00  0.00    -0.377 OA
ENDROOT
BRANCH   1   2
ATOM      2  C   UNL A   1      33.206  33.387  28.435  1.00  0.00     0.188 C 
BRANCH   2   3
ATOM      3  C   UNL A   1      33.325  32.374  27.303  1.00  0.00     0.188 C 
BRANCH   3   4
ATOM      4  O   UNL A   1      32.125  32.122  26.618  1.00  0.00    -0.376 OA
BRANCH   4   5
ATOM      5  C   UNL A   1      31.558  30.827  26.574  1.00  0.00     0.202 C 
BRANCH   5   6
ATOM      6  C   UNL A   1      32.374  29.530  26.351  1.00  0.00     0.261 C 
BRANCH   6   7
ATOM      7  O   UNL A   1      31.689  28.290  26.066  1.00  0.00    -0.463 OA
BRANCH   7   8
ATOM      8  C   UNL A   1      31.493  27.431  27.093  1.00  0.00     0.310 C 
ATOM      9  O   UNL A   1      31.436  27.798  28.265  1.00  0.00    -0.252 OA
BRANCH   8  10
ATOM     10  C   UNL A   1      31.258  25.959  26.728  1.00  0.00     0.161 C 
BRANCH  10  11
ATOM     11  C   UNL A   1      31.901  25.277  25.512  1.00  0.00     0.002 A 
ATOM     12  C   UNL A   1      31.094  26.901  22.113  1.00  0.00     0.119 A 
ATOM     13  C   UNL A   1      31.915  26.089  21.361  1.00  0.00     0.048 A 
ATOM     14  C   UNL A   1      30.913  26.615  23.476  1.00  0.00     0.057 A 
ATOM     15  C   UNL A   1      32.591  25.024  21.959  1.00  0.00     0.031 A 
ATOM     16  C   UNL A   1      31.689  25.618  24.133  1.00  0.00     0.008 A 
ATOM     17  C   UNL A   1      32.507  24.798  23.353  1.00  0.00     0.057 A 
ATOM     18  N   UNL A   1      33.095  23.830  24.197  1.00  0.00    -0.271 N 
ATOM     19  C   UNL A   1      32.677  24.109  25.513  1.00  0.00     0.135 A 
BRANCH  12  20
ATOM     20  O   UNL A   1      30.458  28.024  21.656  1.00  0.00    -0.497 OA
ATOM     21  C   UNL A   1      30.930  29.284  22.132  1.00  0.00     0.278 C 
ENDBRANCH  12  20
BRANCH  18  22
ATOM     22  C   UNL A   1      33.915  22.754  23.735  1.00  0.00     0.262 C 
ATOM     23  O   UNL A   1      34.969  22.996  23.159  1.00  0.00    -0.268 OA
BRANCH  22  24
ATOM     24  C   UNL A   1      33.652  21.315  23.928  1.00  0.00     0.040 A 
ATOM     25  C   UNL A   1      34.562  20.517  24.632  1.00  0.00     0.015 A 
ATOM     26  C   UNL A   1      32.485  20.760  23.387  1.00  0.00     0.015 A 
ATOM     27  C   UNL A   1      34.336  19.140  24.727  1.00  0.00     0.021 A 
ATOM     28  C   UNL A   1      32.261  19.385  23.491  1.00  0.00     0.021 A 
ATOM     29  C   UNL A   1      33.195  18.579  24.147  1.00  0.00     0.041 A 
ATOM     30  Cl  UNL A   1      32.946  16.878  24.221  1.00  0.00    -0.084 Cl
ENDBRANCH  22  24
ENDBRANCH  18  22
BRANCH  19  31
ATOM     31  C   UNL A   1      32.984  23.310  26.746  1.00  0.00     0.432 C 
ATOM     32  F   UNL A   1      34.293  23.439  27.076  1.00  0.00    -0.165 F 
ATOM     33  F   UNL A   1      32.280  23.835  27.792  1.00  0.00    -0.165 F 
ATOM     34  F   UNL A   1      32.694  21.999  26.762  1.00  0.00    -0.165 F 
ENDBRANCH  19  31
ENDBRANCH  10  11
ENDBRANCH   8  10
ENDBRANCH   7   8
ENDBRANCH   6   7
ENDBRANCH   5   6
ENDBRANCH   4   5
ENDBRANCH   3   4
ENDBRANCH   2   3
ENDBRANCH   1   2
BRANCH   1  35
ATOM     35  C   UNL A   1      34.381  35.141  29.561  1.00  0.00     0.188 C 
BRANCH  35  36
ATOM     36  C   UNL A   1      34.343  34.146  30.726  1.00  0.00     0.188 C 
BRANCH  36  37
ATOM     37  O   UNL A   1      35.541  33.573  31.241  1.00  0.00    -0.376 OA
BRANCH  37  38
ATOM     38  C   UNL A   1      36.800  34.177  30.994  1.00  0.00     0.202 C 
BRANCH  38  39
ATOM     39  C   UNL A   1      37.629  33.870  29.727  1.00  0.00     0.261 C 
BRANCH  39  40
ATOM     40  O   UNL A   1      38.916  34.488  29.661  1.00  0.00    -0.460 OA
BRANCH  40  41
ATOM     41  C   UNL A   1      40.000  33.770  30.078  1.00  0.00     0.338 C 
ATOM     42  O   UNL A   1      40.005  32.672  30.562  1.00  0.00    -0.246 OA
BRANCH  41  43
ATOM     43  C   UNL A   1      41.185  34.485  29.521  1.00  0.00     0.060 A 
ATOM     44  C   UNL A   1      42.294  34.771  30.320  1.00  0.00     0.016 A 
ATOM     45  C   UNL A   1      40.978  35.173  28.315  1.00  0.00     0.016 A 
ATOM     46  C   UNL A   1      43.082  35.875  29.996  1.00  0.00     0.010 A 
ATOM     47  C   UNL A   1      41.765  36.285  28.002  1.00  0.00     0.010 A 
ATOM     48  C   UNL A   1      42.783  36.676  28.871  1.00  0.00    -0.014 A 
BRANCH  48  49
ATOM     49  C   UNL A   1      43.764  37.710  28.502  1.00  0.00     0.031 A 
ATOM     50  C   UNL A   1      45.054  37.076  28.121  1.00  0.00     0.074 A 
ATOM     51  C   UNL A   1      43.612  39.043  28.328  1.00  0.00     0.049 A 
ATOM     52  N   UNL A   1      46.181  37.124  28.753  1.00  0.00    -0.248 NA
ATOM     53  C   UNL A   1      45.010  36.108  27.013  1.00  0.00     0.031 C 
ATOM     54  C   UNL A   1      42.384  39.835  28.341  1.00  0.00     0.029 A 
ATOM     55  N   UNL A   1      44.565  39.968  27.976  1.00  0.00    -0.354 N 
ATOM     56  C   UNL A   1      47.047  36.345  27.995  1.00  0.00     0.074 A 
ATOM     57  C   UNL A   1      46.239  35.600  27.063  1.00  0.00     0.031 C 
ATOM     58  C   UNL A   1      42.629  41.049  27.787  1.00  0.00     0.029 A 
ATOM     59  C   UNL A   1      44.046  41.167  27.484  1.00  0.00     0.049 A 
ATOM     60  H   UNL A   1      45.532  39.800  28.064  1.00  0.00     0.167 HD
ATOM     61  C   UNL A   1      48.390  36.538  28.000  1.00  0.00     0.034 A 
ATOM     62  C   UNL A   1      44.729  42.132  26.809  1.00  0.00     0.034 A 
ATOM     63  C   UNL A   1      48.833  37.343  29.100  1.00  0.00     0.049 A 
ATOM     64  C   UNL A   1      46.165  41.951  27.124  1.00  0.00     0.074 A 
ATOM     65  C   UNL A   1      48.786  37.248  30.474  1.00  0.00     0.029 A 
ATOM     66  N   UNL A   1      49.144  38.647  28.815  1.00  0.00    -0.354 N 
ATOM     67  N   UNL A   1      46.695  42.178  28.290  1.00  0.00    -0.248 NA
ATOM     68  C   UNL A   1      46.987  41.199  26.191  1.00  0.00     0.031 C 
ATOM     69  C   UNL A   1      48.633  38.588  30.934  1.00  0.00     0.029 A 
ATOM     70  C   UNL A   1      48.623  39.420  29.814  1.00  0.00     0.049 A 
ATOM     71  H   UNL A   1      49.650  38.968  28.033  1.00  0.00     0.167 HD
ATOM     72  C   UNL A   1      47.710  41.239  28.391  1.00  0.00     0.074 A 
ATOM     73  C   UNL A   1      47.921  40.754  27.032  1.00  0.00     0.031 C 
ATOM     74  C   UNL A   1      48.079  40.742  29.604  1.00  0.00     0.034 A 
BRANCH  61  75
ATOM     75  C   UNL A   1      49.245  36.316  26.784  1.00  0.00     0.023 A 
ATOM     76  C   UNL A   1      49.108  37.207  25.703  1.00  0.00     0.012 A 
ATOM     77  C   UNL A   1      49.971  35.124  26.561  1.00  0.00     0.148 A 
ATOM     78  C   UNL A   1      49.669  36.921  24.455  1.00  0.00     0.002 A 
ATOM     79  C   UNL A   1      50.599  34.885  25.348  1.00  0.00     0.091 A 
ATOM     80  F   UNL A   1      49.941  34.146  27.475  1.00  0.00    -0.205 F 
ATOM     81  C   UNL A   1      50.432  35.769  24.282  1.00  0.00     0.022 A 
BRANCH  79  82
ATOM     82  S   UNL A   1      51.625  33.433  25.102  1.00  0.00     0.127 S 
ATOM     83  O   UNL A   1      50.690  32.359  25.423  1.00  0.00    -0.237 OA
ATOM     84  O   UNL A   1      51.976  33.552  23.687  1.00  0.00    -0.237 OA
ATOM     85  O   UNL A   1      52.751  33.603  26.011  1.00  0.00    -0.744 OA
ENDBRANCH  79  82
ENDBRANCH  61  75
BRANCH  62  86
ATOM     86  C   UNL A   1      44.323  43.068  25.720  1.00  0.00     0.023 A 
ATOM     87  C   UNL A   1      44.987  44.314  25.597  1.00  0.00     0.012 A 
ATOM     88  C   UNL A   1      43.544  42.638  24.626  1.00  0.00     0.148 A 
ATOM     89  C   UNL A   1      44.942  45.056  24.409  1.00  0.00     0.002 A 
ATOM     90  C   UNL A   1      43.491  43.387  23.450  1.00  0.00     0.091 A 
ATOM     91  F   UNL A   1      42.935  41.448  24.694  1.00  0.00    -0.205 F 
ATOM     92  C   UNL A   1      44.206  44.584  23.329  1.00  0.00     0.022 A 
BRANCH  90  93
ATOM     93  S   UNL A   1      42.563  42.828  22.015  1.00  0.00     0.127 S 
ATOM     94  O   UNL A   1      42.413  44.064  21.245  1.00  0.00    -0.237 OA
ATOM     95  O   UNL A   1      43.471  41.848  21.428  1.00  0.00    -0.237 OA
ATOM     96  O   UNL A   1      41.310  42.301  22.542  1.00  0.00    -0.744 OA
ENDBRANCH  90  93
ENDBRANCH  62  86
BRANCH  74  97
ATOM     97  C   UNL A   1      47.648  41.483  30.838  1.00  0.00     0.023 A 
ATOM     98  C   UNL A   1      48.446  42.474  31.445  1.00  0.00     0.012 A 
ATOM     99  C   UNL A   1      46.326  41.298  31.274  1.00  0.00     0.148 A 
ATOM    100  C   UNL A   1      47.926  43.265  32.472  1.00  0.00     0.002 A 
ATOM    101  C   UNL A   1      45.801  42.117  32.261  1.00  0.00     0.091 A 
ATOM    102  F   UNL A   1      45.593  40.346  30.675  1.00  0.00    -0.205 F 
ATOM    103  C   UNL A   1      46.599  43.102  32.866  1.00  0.00     0.022 A 
BRANCH 101 104
ATOM    104  S   UNL A   1      44.076  42.030  32.744  1.00  0.00     0.127 S 
ATOM    105  O   UNL A   1      44.068  42.800  33.987  1.00  0.00    -0.237 OA
ATOM    106  O   UNL A   1      43.409  42.680  31.615  1.00  0.00    -0.237 OA
ATOM    107  O   UNL A   1      43.765  40.614  32.893  1.00  0.00    -0.744 OA
ENDBRANCH 101 104
ENDBRANCH  74  97
ENDBRANCH  48  49
ENDBRANCH  41  43
ENDBRANCH  40  41
ENDBRANCH  39  40
ENDBRANCH  38  39
ENDBRANCH  37  38
ENDBRANCH  36  37
ENDBRANCH  35  36
ENDBRANCH   1  35
TORSDOF 28
ENDMDL
MODEL 2
REMARK VINA RESULT:      -9.6      5.667     10.100
REMARK SMILES COc1ccc2c(c1)c(CC(=O)OCCOCCOCCOCCOC(=O)c1ccc(-c3c4nc(c(-c5cccc(S(=O)(=O)[O-])c5F)c5ccc([nH]5)c(-c5cccc(S(=O)(=O)[O-])c5F)c5nc(c(-c6cccc(S(=O)(=O)[O-])c6F)c6ccc3[nH]6)C=C5)C=C4)cc1)c(C(F)(F)F)n2C(=O)c1ccc(Cl)cc1
REMARK SMILES IDX 19 1 18 2 17 3 16 4 15 5 14 6 13 7 11 8 12 9 10 10 9 11 3 12
REMARK SMILES IDX 4 13 8 14 5 15 7 16 6 17 96 18 91 19 2 20 1 21 97 22 98 23
REMARK SMILES IDX 99 24 100 25 105 26 101 27 104 28 102 29 103 30 92 31 93 32
REMARK SMILES IDX 94 33 95 34 20 35 21 36 22 37 23 38 24 39 25 40 26 41 27 42
REMARK SMILES IDX 28 43 29 44 90 45 30 46 89 47 31 48 32 49 33 50 83 51 34 52
REMARK SMILES IDX 88 53 82 54 84 55 35 56 87 57 81 58 80 59 36 61 68 62 48 63
REMARK SMILES IDX 67 64 49 65 52 66 66 67 85 68 50 69 51 70 65 72 86 73 53 74
REMARK SMILES IDX 37 75 38 76 46 77 39 78 41 79 47 80 40 81 42 82 43 83 44 84
REMARK SMILES IDX 45 85 69 86 70 87 78 88 71 89 73 90 79 91 72 92 74 93 75 94
REMARK SMILES IDX 76 95 77 96 54 97 55 98 63 99 56 100 58 101 64 102 57 103
REMARK SMILES IDX 59 104 60 105 61 106 62 107
REMARK H PARENT 84 60 52 71
REMARK Flexibility Score: inf
ROOT
ATOM      1  O   UNL A   1      42.884  18.896  26.203  1.00  0.00    -0.377 OA
ENDROOT
BRANCH   1   2
ATOM      2  C   UNL A   1      42.481  20.109  26.780  1.00  0.00     0.188 C 
BRANCH   2   3
ATOM      3  C   UNL A   1      41.034  20.524  27.017  1.00  0.00     0.188 C 
BRANCH   3   4
ATOM      4  O   UNL A   1      40.516  21.408  26.055  1.00  0.00    -0.376 OA
BRANCH   4   5
ATOM      5  C   UNL A   1      39.348  22.166  26.302  1.00  0.00     0.202 C 
BRANCH   5   6
ATOM      6  C   UNL A   1      39.353  23.651  26.739  1.00  0.00     0.261 C 
BRANCH   6   7
ATOM      7  O   UNL A   1      38.191  24.475  26.497  1.00  0.00    -0.463 OA
BRANCH   7   8
ATOM      8  C   UNL A   1      37.190  23.947  25.757  1.00  0.00     0.310 C 
ATOM      9  O   UNL A   1      37.271  23.798  24.538  1.00  0.00    -0.252 OA
BRANCH   8  10
ATOM     10  C   UNL A   1      35.952  23.453  26.518  1.00  0.00     0.161 C 
BRANCH  10  11
ATOM     11  C   UNL A   1      34.726  22.838  25.829  1.00  0.00     0.002 A 
ATOM     12  C   UNL A   1      31.432  24.773  26.325  1.00  0.00     0.119 A 
ATOM     13  C   UNL A   1      30.668  23.981  25.496  1.00  0.00     0.048 A 
ATOM     14  C   UNL A   1      32.752  24.388  26.611  1.00  0.00     0.057 A 
ATOM     15  C   UNL A   1      31.215  22.836  24.915  1.00  0.00     0.031 A 
ATOM     16  C   UNL A   1      33.370  23.301  25.931  1.00  0.00     0.008 A 
ATOM     17  C   UNL A   1      32.577  22.503  25.104  1.00  0.00     0.057 A 
ATOM     18  N   UNL A   1      33.371  21.440  24.621  1.00  0.00    -0.271 N 
ATOM     19  C   UNL A   1      34.677  21.634  25.113  1.00  0.00     0.135 A 
BRANCH  12  20
ATOM     20  O   UNL A   1      31.032  25.963  26.873  1.00  0.00    -0.497 OA
ATOM     21  C   UNL A   1      31.630  27.154  26.361  1.00  0.00     0.278 C 
ENDBRANCH  12  20
BRANCH  18  22
ATOM     22  C   UNL A   1      32.873  20.361  23.826  1.00  0.00     0.262 C 
ATOM     23  O   UNL A   1      32.465  20.580  22.692  1.00  0.00    -0.268 OA
BRANCH  22  24
ATOM     24  C   UNL A   1      32.840  18.937  24.213  1.00  0.00     0.040 A 
ATOM     25  C   UNL A   1      32.521  18.567  25.525  1.00  0.00     0.015 A 
ATOM     26  C   UNL A   1      33.144  17.966  23.250  1.00  0.00     0.015 A 
ATOM     27  C   UNL A   1      32.583  17.218  25.891  1.00  0.00     0.021 A 
ATOM     28  C   UNL A   1      33.197  16.620  23.620  1.00  0.00     0.021 A 
ATOM     29  C   UNL A   1      32.931  16.254  24.942  1.00  0.00     0.041 A 
ATOM     30  Cl  UNL A   1      33.057  14.602  25.407  1.00  0.00    -0.084 Cl
ENDBRANCH  22  24
ENDBRANCH  18  22
BRANCH  19  31
ATOM     31  C   UNL A   1      35.856  20.722  24.929  1.00  0.00     0.432 C 
ATOM     32  F   UNL A   1      36.601  20.684  26.061  1.00  0.00    -0.165 F 
ATOM     33  F   UNL A   1      35.397  19.450  24.739  1.00  0.00    -0.165 F 
ATOM     34  F   UNL A   1      36.695  20.940  23.903  1.00  0.00    -0.165 F 
ENDBRANCH  19  31
ENDBRANCH  10  11
ENDBRANCH   8  10
ENDBRANCH   7   8
ENDBRANCH   6   7
ENDBRANCH   5   6
ENDBRANCH   4   5
ENDBRANCH   3   4
ENDBRANCH   2   3
ENDBRANCH   1   2
BRANCH   1  35
ATOM     35  C   UNL A   1      43.702  18.965  25.069  1.00  0.00     0.188 C 
BRANCH  35  36
ATOM     36  C   UNL A   1      44.546  20.241  24.992  1.00  0.00     0.188 C 
BRANCH  36  37
ATOM     37  O   UNL A   1      44.547  21.049  23.818  1.00  0.00    -0.376 OA
BRANCH  37  38
ATOM     38  C   UNL A   1      44.448  22.461  23.908  1.00  0.00     0.202 C 
BRANCH  38  39
ATOM     39  C   UNL A   1      43.362  23.159  24.757  1.00  0.00     0.261 C 
BRANCH  39  40
ATOM     40  O   UNL A   1      43.754  23.538  26.078  1.00  0.00    -0.460 OA
BRANCH  40  41
ATOM     41  C   UNL A   1      45.038  23.957  26.276  1.00  0.00     0.338 C 
ATOM     42  O   UNL A   1      46.047  23.402  25.935  1.00  0.00    -0.246 OA
BRANCH  41  43
ATOM     43  C   UNL A   1      44.927  25.381  26.709  1.00  0.00     0.060 A 
ATOM     44  C   UNL A   1      45.500  25.815  27.906  1.00  0.00     0.016 A 
ATOM     45  C   UNL A   1      43.930  26.140  26.078  1.00  0.00     0.016 A 
ATOM     46  C   UNL A   1      44.932  26.910  28.557  1.00  0.00     0.010 A 
ATOM     47  C   UNL A   1      43.358  27.230  26.741  1.00  0.00     0.010 A 
ATOM     48  C   UNL A   1      43.818  27.584  28.009  1.00  0.00    -0.014 A 
BRANCH  48  49
ATOM     49  C   UNL A   1      43.394  28.831  28.667  1.00  0.00     0.031 A 
ATOM     50  C   UNL A   1      44.358  29.922  28.360  1.00  0.00     0.074 A 
ATOM     51  C   UNL A   1      42.256  29.131  29.333  1.00  0.00     0.049 A 
ATOM     52  N   UNL A   1      45.177  30.510  29.170  1.00  0.00    -0.248 NA
ATOM     53  C   UNL A   1      44.568  30.234  26.937  1.00  0.00     0.031 C 
ATOM     54  C   UNL A   1      41.046  28.325  29.490  1.00  0.00     0.029 A 
ATOM     55  N   UNL A   1      41.907  30.320  29.927  1.00  0.00    -0.354 N 
ATOM     56  C   UNL A   1      45.865  31.421  28.377  1.00  0.00     0.074 A 
ATOM     57  C   UNL A   1      45.595  31.077  27.005  1.00  0.00     0.031 C 
ATOM     58  C   UNL A   1      40.033  29.119  29.917  1.00  0.00     0.029 A 
ATOM     59  C   UNL A   1      40.539  30.458  30.173  1.00  0.00     0.049 A 
ATOM     60  H   UNL A   1      42.565  31.014  30.161  1.00  0.00     0.167 HD
ATOM     61  C   UNL A   1      46.413  32.554  28.884  1.00  0.00     0.034 A 
ATOM     62  C   UNL A   1      39.882  31.609  30.482  1.00  0.00     0.034 A 
ATOM     63  C   UNL A   1      46.527  32.529  30.313  1.00  0.00     0.049 A 
ATOM     64  C   UNL A   1      40.889  32.560  31.005  1.00  0.00     0.074 A 
ATOM     65  C   UNL A   1      47.173  31.738  31.237  1.00  0.00     0.029 A 
ATOM     66  N   UNL A   1      45.597  33.256  31.010  1.00  0.00    -0.354 N 
ATOM     67  N   UNL A   1      41.503  32.427  32.144  1.00  0.00    -0.248 NA
ATOM     68  C   UNL A   1      41.459  33.535  30.090  1.00  0.00     0.031 C 
ATOM     69  C   UNL A   1      46.305  31.702  32.367  1.00  0.00     0.029 A 
ATOM     70  C   UNL A   1      45.195  32.495  32.072  1.00  0.00     0.049 A 
ATOM     71  H   UNL A   1      45.278  34.161  30.788  1.00  0.00     0.167 HD
ATOM     72  C   UNL A   1      42.761  32.962  31.918  1.00  0.00     0.074 A 
ATOM     73  C   UNL A   1      42.634  33.734  30.688  1.00  0.00     0.031 C 
ATOM     74  C   UNL A   1      43.847  32.493  32.592  1.00  0.00     0.034 A 
BRANCH  61  75
ATOM     75  C   UNL A   1      46.485  33.838  28.105  1.00  0.00     0.023 A 
ATOM     76  C   UNL A   1      45.285  34.527  27.847  1.00  0.00     0.012 A 
ATOM     77  C   UNL A   1      47.638  34.245  27.396  1.00  0.00     0.148 A 
ATOM     78  C   UNL A   1      45.237  35.574  26.922  1.00  0.00     0.002 A 
ATOM     79  C   UNL A   1      47.606  35.339  26.545  1.00  0.00     0.091 A 
ATOM     80  F   UNL A   1      48.742  33.489  27.433  1.00  0.00    -0.205 F 
ATOM     81  C   UNL A   1      46.401  35.994  26.284  1.00  0.00     0.022 A 
BRANCH  79  82
ATOM     82  S   UNL A   1      49.095  35.935  25.740  1.00  0.00     0.127 S 
ATOM     83  O   UNL A   1      49.305  34.910  24.723  1.00  0.00    -0.237 OA
ATOM     84  O   UNL A   1      48.659  37.237  25.233  1.00  0.00    -0.237 OA
ATOM     85  O   UNL A   1      50.095  36.013  26.797  1.00  0.00    -0.744 OA
ENDBRANCH  79  82
ENDBRANCH  61  75
BRANCH  62  86
ATOM     86  C   UNL A   1      38.506  32.091  30.162  1.00  0.00     0.023 A 
ATOM     87  C   UNL A   1      37.898  31.686  28.947  1.00  0.00     0.012 A 
ATOM     88  C   UNL A   1      37.672  32.656  31.148  1.00  0.00     0.148 A 
ATOM     89  C   UNL A   1      36.512  31.766  28.757  1.00  0.00     0.002 A 
ATOM     90  C   UNL A   1      36.294  32.747  30.949  1.00  0.00     0.091 A 
ATOM     91  F   UNL A   1      38.207  33.013  32.321  1.00  0.00    -0.205 F 
ATOM     92  C   UNL A   1      35.707  32.283  29.766  1.00  0.00     0.022 A 
BRANCH  90  93
ATOM     93  S   UNL A   1      35.197  33.399  32.217  1.00  0.00     0.127 S 
ATOM     94  O   UNL A   1      35.412  32.463  33.322  1.00  0.00    -0.237 OA
ATOM     95  O   UNL A   1      35.741  34.735  32.432  1.00  0.00    -0.237 OA
ATOM     96  O   UNL A   1      33.858  33.340  31.642  1.00  0.00    -0.744 OA
ENDBRANCH  90  93
ENDBRANCH  62  86
BRANCH  74  97
ATOM     97  C   UNL A   1      43.618  31.673  33.830  1.00  0.00     0.023 A 
ATOM     98  C   UNL A   1      43.473  32.251  35.107  1.00  0.00     0.012 A 
ATOM     99  C   UNL A   1      43.356  30.304  33.658  1.00  0.00     0.148 A 
ATOM    100  C   UNL A   1      43.074  31.468  36.194  1.00  0.00     0.002 A 
ATOM    101  C   UNL A   1      42.914  29.543  34.729  1.00  0.00     0.091 A 
ATOM    102  F   UNL A   1      43.503  29.784  32.429  1.00  0.00    -0.205 F 
ATOM    103  C   UNL A   1      42.775  30.121  36.001  1.00  0.00     0.022 A 
BRANCH 101 104
ATOM    104  S   UNL A   1      42.416  27.832  34.531  1.00  0.00     0.127 S 
ATOM    105  O   UNL A   1      42.952  27.508  33.210  1.00  0.00    -0.237 OA
ATOM    106  O   UNL A   1      43.102  27.182  35.648  1.00  0.00    -0.237 OA
ATOM    107  O   UNL A   1      40.961  27.817  34.627  1.00  0.00    -0.744 OA
ENDBRANCH 101 104
ENDBRANCH  74  97
ENDBRANCH  48  49
ENDBRANCH  41  43
ENDBRANCH  40  41
ENDBRANCH  39  40
ENDBRANCH  38  39
ENDBRANCH  37  38
ENDBRANCH  36  37
ENDBRANCH  35  36
ENDBRANCH   1  35
TORSDOF 28
ENDMDL
MODEL 3
REMARK VINA RESULT:      -8.9      7.163     12.629
REMARK SMILES COc1ccc2c(c1)c(CC(=O)OCCOCCOCCOCCOC(=O)c1ccc(-c3c4nc(c(-c5cccc(S(=O)(=O)[O-])c5F)c5ccc([nH]5)c(-c5cccc(S(=O)(=O)[O-])c5F)c5nc(c(-c6cccc(S(=O)(=O)[O-])c6F)c6ccc3[nH]6)C=C5)C=C4)cc1)c(C(F)(F)F)n2C(=O)c1ccc(Cl)cc1
REMARK SMILES IDX 19 1 18 2 17 3 16 4 15 5 14 6 13 7 11 8 12 9 10 10 9 11 3 12
REMARK SMILES IDX 4 13 8 14 5 15 7 16 6 17 96 18 91 19 2 20 1 21 97 22 98 23
REMARK SMILES IDX 99 24 100 25 105 26 101 27 104 28 102 29 103 30 92 31 93 32
REMARK SMILES IDX 94 33 95 34 20 35 21 36 22 37 23 38 24 39 25 40 26 41 27 42
REMARK SMILES IDX 28 43 29 44 90 45 30 46 89 47 31 48 32 49 33 50 83 51 34 52
REMARK SMILES IDX 88 53 82 54 84 55 35 56 87 57 81 58 80 59 36 61 68 62 48 63
REMARK SMILES IDX 67 64 49 65 52 66 66 67 85 68 50 69 51 70 65 72 86 73 53 74
REMARK SMILES IDX 37 75 38 76 46 77 39 78 41 79 47 80 40 81 42 82 43 83 44 84
REMARK SMILES IDX 45 85 69 86 70 87 78 88 71 89 73 90 79 91 72 92 74 93 75 94
REMARK SMILES IDX 76 95 77 96 54 97 55 98 63 99 56 100 58 101 64 102 57 103
REMARK SMILES IDX 59 104 60 105 61 106 62 107
REMARK H PARENT 84 60 52 71
REMARK Flexibility Score: inf
ROOT
ATOM      1  O   UNL A   1      43.062  19.046  26.445  1.00  0.00    -0.377 OA
ENDROOT
BRANCH   1   2
ATOM      2  C   UNL A   1      42.303  19.944  27.210  1.00  0.00     0.188 C 
BRANCH   2   3
ATOM      3  C   UNL A   1      40.797  20.142  27.083  1.00  0.00     0.188 C 
BRANCH   3   4
ATOM      4  O   UNL A   1      40.406  20.972  26.018  1.00  0.00    -0.376 OA
BRANCH   4   5
ATOM      5  C   UNL A   1      39.316  21.864  26.140  1.00  0.00     0.202 C 
BRANCH   5   6
ATOM      6  C   UNL A   1      39.461  23.378  26.433  1.00  0.00     0.261 C 
BRANCH   6   7
ATOM      7  O   UNL A   1      38.283  24.209  26.522  1.00  0.00    -0.463 OA
BRANCH   7   8
ATOM      8  C   UNL A   1      37.212  23.863  25.771  1.00  0.00     0.310 C 
ATOM      9  O   UNL A   1      37.247  23.821  24.543  1.00  0.00    -0.252 OA
BRANCH   8  10
ATOM     10  C   UNL A   1      35.946  23.435  26.527  1.00  0.00     0.161 C 
BRANCH  10  11
ATOM     11  C   UNL A   1      34.725  22.807  25.841  1.00  0.00     0.002 A 
ATOM     12  C   UNL A   1      31.430  24.756  26.273  1.00  0.00     0.119 A 
ATOM     13  C   UNL A   1      30.670  23.949  25.454  1.00  0.00     0.048 A 
ATOM     14  C   UNL A   1      32.747  24.375  26.576  1.00  0.00     0.057 A 
ATOM     15  C   UNL A   1      31.221  22.791  24.900  1.00  0.00     0.031 A 
ATOM     16  C   UNL A   1      33.369  23.274  25.923  1.00  0.00     0.008 A 
ATOM     17  C   UNL A   1      32.581  22.460  25.106  1.00  0.00     0.057 A 
ATOM     18  N   UNL A   1      33.378  21.387  24.651  1.00  0.00    -0.271 N 
ATOM     19  C   UNL A   1      34.680  21.589  25.148  1.00  0.00     0.135 A 
BRANCH  12  20
ATOM     20  O   UNL A   1      31.027  25.957  26.793  1.00  0.00    -0.497 OA
ATOM     21  C   UNL A   1      31.024  27.084  25.917  1.00  0.00     0.278 C 
ENDBRANCH  12  20
BRANCH  18  22
ATOM     22  C   UNL A   1      32.883  20.293  23.874  1.00  0.00     0.262 C 
ATOM     23  O   UNL A   1      32.412  20.501  22.763  1.00  0.00    -0.268 OA
BRANCH  22  24
ATOM     24  C   UNL A   1      32.927  18.867  24.251  1.00  0.00     0.040 A 
ATOM     25  C   UNL A   1      33.312  17.899  23.316  1.00  0.00     0.015 A 
ATOM     26  C   UNL A   1      32.568  18.500  25.555  1.00  0.00     0.015 A 
ATOM     27  C   UNL A   1      33.262  16.546  23.670  1.00  0.00     0.021 A 
ATOM     28  C   UNL A   1      32.527  17.147  25.903  1.00  0.00     0.021 A 
ATOM     29  C   UNL A   1      32.859  16.176  24.956  1.00  0.00     0.041 A 
ATOM     30  Cl  UNL A   1      32.748  14.510  25.371  1.00  0.00    -0.084 Cl
ENDBRANCH  22  24
ENDBRANCH  18  22
BRANCH  19  31
ATOM     31  C   UNL A   1      35.859  20.673  24.992  1.00  0.00     0.432 C 
ATOM     32  F   UNL A   1      35.442  19.419  24.687  1.00  0.00    -0.165 F 
ATOM     33  F   UNL A   1      36.599  21.092  23.924  1.00  0.00    -0.165 F 
ATOM     34  F   UNL A   1      36.741  20.567  25.999  1.00  0.00    -0.165 F 
ENDBRANCH  19  31
ENDBRANCH  10  11
ENDBRANCH   8  10
ENDBRANCH   7   8
ENDBRANCH   6   7
ENDBRANCH   5   6
ENDBRANCH   4   5
ENDBRANCH   3   4
ENDBRANCH   2   3
ENDBRANCH   1   2
BRANCH   1  35
ATOM     35  C   UNL A   1      43.500  19.484  25.190  1.00  0.00     0.188 C 
BRANCH  35  36
ATOM     36  C   UNL A   1      44.661  20.482  25.252  1.00  0.00     0.188 C 
BRANCH  36  37
ATOM     37  O   UNL A   1      45.010  21.272  24.119  1.00  0.00    -0.376 OA
BRANCH  37  38
ATOM     38  C   UNL A   1      44.305  22.465  23.821  1.00  0.00     0.202 C 
BRANCH  38  39
ATOM     39  C   UNL A   1      43.361  23.143  24.840  1.00  0.00     0.261 C 
BRANCH  39  40
ATOM     40  O   UNL A   1      43.631  24.519  25.116  1.00  0.00    -0.460 OA
BRANCH  40  41
ATOM     41  C   UNL A   1      44.654  24.819  25.970  1.00  0.00     0.338 C 
ATOM     42  O   UNL A   1      45.817  24.556  25.835  1.00  0.00    -0.246 OA
BRANCH  41  43
ATOM     43  C   UNL A   1      44.087  25.807  26.934  1.00  0.00     0.060 A 
ATOM     44  C   UNL A   1      44.686  27.055  27.122  1.00  0.00     0.016 A 
ATOM     45  C   UNL A   1      43.194  25.294  27.887  1.00  0.00     0.016 A 
ATOM     46  C   UNL A   1      44.530  27.690  28.353  1.00  0.00     0.010 A 
ATOM     47  C   UNL A   1      43.050  25.931  29.123  1.00  0.00     0.010 A 
ATOM     48  C   UNL A   1      43.763  27.100  29.383  1.00  0.00    -0.014 A 
BRANCH  48  49
ATOM     49  C   UNL A   1      43.504  27.916  30.581  1.00  0.00     0.031 A 
ATOM     50  C   UNL A   1      42.256  28.707  30.399  1.00  0.00     0.074 A 
ATOM     51  C   UNL A   1      44.115  27.926  31.787  1.00  0.00     0.049 A 
ATOM     52  N   UNL A   1      42.139  29.988  30.270  1.00  0.00    -0.248 NA
ATOM     53  C   UNL A   1      41.028  27.944  30.123  1.00  0.00     0.031 C 
ATOM     54  C   UNL A   1      45.151  27.028  32.297  1.00  0.00     0.029 A 
ATOM     55  N   UNL A   1      43.829  28.709  32.879  1.00  0.00    -0.354 N 
ATOM     56  C   UNL A   1      40.777  30.203  30.099  1.00  0.00     0.074 A 
ATOM     57  C   UNL A   1      40.177  28.923  29.825  1.00  0.00     0.031 C 
ATOM     58  C   UNL A   1      45.232  27.159  33.644  1.00  0.00     0.029 A 
ATOM     59  C   UNL A   1      44.343  28.223  34.083  1.00  0.00     0.049 A 
ATOM     60  H   UNL A   1      43.308  29.542  32.818  1.00  0.00     0.167 HD
ATOM     61  C   UNL A   1      40.179  31.374  30.437  1.00  0.00     0.034 A 
ATOM     62  C   UNL A   1      43.990  28.621  35.336  1.00  0.00     0.034 A 
ATOM     63  C   UNL A   1      41.115  32.442  30.629  1.00  0.00     0.049 A 
ATOM     64  C   UNL A   1      43.378  29.963  35.211  1.00  0.00     0.074 A 
ATOM     65  C   UNL A   1      42.055  33.084  29.851  1.00  0.00     0.029 A 
ATOM     66  N   UNL A   1      41.395  32.780  31.928  1.00  0.00    -0.354 N 
ATOM     67  N   UNL A   1      44.030  31.041  34.889  1.00  0.00    -0.248 NA
ATOM     68  C   UNL A   1      41.929  30.057  35.145  1.00  0.00     0.031 C 
ATOM     69  C   UNL A   1      43.114  33.414  30.745  1.00  0.00     0.029 A 
ATOM     70  C   UNL A   1      42.744  32.977  32.018  1.00  0.00     0.049 A 
ATOM     71  H   UNL A   1      40.743  32.866  32.662  1.00  0.00     0.167 HD
ATOM     72  C   UNL A   1      43.115  31.791  34.168  1.00  0.00     0.074 A 
ATOM     73  C   UNL A   1      41.816  31.199  34.464  1.00  0.00     0.031 C 
ATOM     74  C   UNL A   1      43.528  32.634  33.182  1.00  0.00     0.034 A 
BRANCH  61  75
ATOM     75  C   UNL A   1      38.776  31.442  30.970  1.00  0.00     0.023 A 
ATOM     76  C   UNL A   1      38.449  30.647  32.085  1.00  0.00     0.012 A 
ATOM     77  C   UNL A   1      37.711  32.045  30.261  1.00  0.00     0.148 A 
ATOM     78  C   UNL A   1      37.119  30.461  32.473  1.00  0.00     0.002 A 
ATOM     79  C   UNL A   1      36.402  31.928  30.701  1.00  0.00     0.091 A 
ATOM     80  F   UNL A   1      37.944  32.619  29.075  1.00  0.00    -0.205 F 
ATOM     81  C   UNL A   1      36.095  31.116  31.794  1.00  0.00     0.022 A 
BRANCH  79  82
ATOM     82  S   UNL A   1      35.063  32.793  29.877  1.00  0.00     0.127 S 
ATOM     83  O   UNL A   1      34.800  31.911  28.745  1.00  0.00    -0.237 OA
ATOM     84  O   UNL A   1      34.030  32.803  30.914  1.00  0.00    -0.237 OA
ATOM     85  O   UNL A   1      35.598  34.111  29.559  1.00  0.00    -0.744 OA
ENDBRANCH  79  82
ENDBRANCH  61  75
BRANCH  62  86
ATOM     86  C   UNL A   1      43.898  27.883  36.630  1.00  0.00     0.023 A 
ATOM     87  C   UNL A   1      43.004  26.790  36.740  1.00  0.00     0.012 A 
ATOM     88  C   UNL A   1      44.882  28.019  37.631  1.00  0.00     0.148 A 
ATOM     89  C   UNL A   1      43.136  25.831  37.753  1.00  0.00     0.002 A 
ATOM     90  C   UNL A   1      45.002  27.069  38.647  1.00  0.00     0.091 A 
ATOM     91  F   UNL A   1      45.767  29.018  37.537  1.00  0.00    -0.205 F 
ATOM     92  C   UNL A   1      44.146  25.963  38.699  1.00  0.00     0.022 A 
BRANCH  90  93
ATOM     93  S   UNL A   1      46.291  27.179  39.896  1.00  0.00     0.127 S 
ATOM     94  O   UNL A   1      46.767  25.796  39.970  1.00  0.00    -0.237 OA
ATOM     95  O   UNL A   1      47.228  28.116  39.285  1.00  0.00    -0.237 OA
ATOM     96  O   UNL A   1      45.623  27.643  41.106  1.00  0.00    -0.744 OA
ENDBRANCH  90  93
ENDBRANCH  62  86
BRANCH  74  97
ATOM     97  C   UNL A   1      44.980  33.022  33.138  1.00  0.00     0.023 A 
ATOM     98  C   UNL A   1      45.500  34.096  33.886  1.00  0.00     0.012 A 
ATOM     99  C   UNL A   1      45.859  32.155  32.470  1.00  0.00     0.148 A 
ATOM    100  C   UNL A   1      46.881  34.299  33.962  1.00  0.00     0.002 A 
ATOM    101  C   UNL A   1      47.229  32.332  32.587  1.00  0.00     0.091 A 
ATOM    102  F   UNL A   1      45.331  31.140  31.767  1.00  0.00    -0.205 F 
ATOM    103  C   UNL A   1      47.745  33.406  33.330  1.00  0.00     0.022 A 
BRANCH 101 104
ATOM    104  S   UNL A   1      48.397  31.166  31.887  1.00  0.00     0.127 S 
ATOM    105  O   UNL A   1      48.083  31.239  30.460  1.00  0.00    -0.237 OA
ATOM    106  O   UNL A   1      49.682  31.755  32.263  1.00  0.00    -0.237 OA
ATOM    107  O   UNL A   1      48.117  29.881  32.515  1.00  0.00    -0.744 OA
ENDBRANCH 101 104
ENDBRANCH  74  97
ENDBRANCH  48  49
ENDBRANCH  41  43
ENDBRANCH  40  41
ENDBRANCH  39  40
ENDBRANCH  38  39
ENDBRANCH  37  38
ENDBRANCH  36  37
ENDBRANCH  35  36
ENDBRANCH   1  35
TORSDOF 28
ENDMDL
