MODEL 1
REMARK VINA RESULT:      -9.5      0.000      0.000
REMARK SMILES COc1cc(C)cc2c1[C@@H](C)[C@@H](CC(=O)N[C@@H](Cc1c[nH]c3ccccc13)C(=O)OCCOCCOCCOCCOC(=O)c1ccc(-c3c4nc(c(-c5cccc(S(=O)(=O)[O-])c5F)c5ccc([nH]5)c(-c5cccc(S(=O)(=O)[O-])c5F)c5nc(c(-c6cccc(S(=O)(=O)[O-])c6F)c6ccc3[nH]6)C=C5)C=C4)cc1)C(=O)O2
REMARK SMILES IDX 35 1 34 2 33 3 32 4 31 5 30 6 28 7 29 8 17 9 16 10 14 11
REMARK SMILES IDX 15 12 13 14 12 15 3 16 4 17 9 18 5 19 8 20 10 21 6 22 7 23
REMARK SMILES IDX 110 24 11 25 108 26 109 27 2 28 1 29 18 30 19 31 20 32 27 33
REMARK SMILES IDX 21 34 22 35 26 36 23 38 25 39 24 40 36 41 37 42 38 43 39 44
REMARK SMILES IDX 40 45 41 46 42 47 43 48 44 49 45 50 46 51 107 52 47 53
REMARK SMILES IDX 106 54 48 55 49 56 50 57 100 58 51 59 105 60 99 61 101 62
REMARK SMILES IDX 52 63 104 64 98 65 97 66 53 68 85 69 65 70 84 71 66 72 69 73
REMARK SMILES IDX 83 74 102 75 67 76 68 77 82 79 103 80 70 81 54 82 55 83
REMARK SMILES IDX 63 84 56 85 58 86 64 87 57 88 59 89 60 90 61 91 62 92 86 93
REMARK SMILES IDX 87 94 95 95 88 96 90 97 96 98 89 99 91 100 92 101 93 102
REMARK SMILES IDX 94 103 71 104 72 105 80 106 73 107 75 108 81 109 74 110
REMARK SMILES IDX 76 111 77 112 78 113 79 114
REMARK H PARENT 16 13 21 37 101 67 69 78
REMARK Flexibility Score: inf
ROOT
ATOM      1  C   UNL A   1      37.470  21.457  25.238  1.00  0.00     0.188 C 
ENDROOT
BRANCH   1   2
ATOM      2  C   UNL A   1      36.010  21.442  25.701  1.00  0.00     0.188 C 
BRANCH   2   3
ATOM      3  O   UNL A   1      35.017  22.085  24.924  1.00  0.00    -0.376 OA
BRANCH   3   4
ATOM      4  C   UNL A   1      34.380  23.264  25.414  1.00  0.00     0.202 C 
BRANCH   4   5
ATOM      5  C   UNL A   1      33.022  23.190  26.122  1.00  0.00     0.261 C 
BRANCH   5   6
ATOM      6  O   UNL A   1      31.944  23.731  25.333  1.00  0.00    -0.462 OA
BRANCH   6   7
ATOM      7  C   UNL A   1      31.370  24.845  25.829  1.00  0.00     0.329 C 
ATOM      8  O   UNL A   1      30.533  24.835  26.731  1.00  0.00    -0.250 OA
BRANCH   7   9
ATOM      9  C   UNL A   1      31.851  26.174  25.225  1.00  0.00     0.196 C 
BRANCH   9  10
ATOM     10  N   UNL A   1      33.059  26.925  25.535  1.00  0.00    -0.342 N 
ATOM     11  C   UNL A   1      33.395  28.184  25.102  1.00  0.00     0.221 C 
ATOM     12  O   UNL A   1      34.574  28.461  24.876  1.00  0.00    -0.275 OA
ATOM     13  H   UNL A   1      33.709  26.480  26.125  1.00  0.00     0.164 HD
BRANCH  11  14
ATOM     14  C   UNL A   1      32.341  29.291  25.128  1.00  0.00     0.116 C 
BRANCH  14  15
ATOM     15  C   UNL A   1      31.564  29.563  26.435  1.00  0.00     0.116 C 
ATOM     16  C   UNL A   1      34.060  32.151  27.747  1.00  0.00     0.126 A 
ATOM     17  C   UNL A   1      35.452  32.083  27.931  1.00  0.00     0.050 A 
ATOM     18  C   UNL A   1      33.322  30.983  27.530  1.00  0.00     0.041 A 
ATOM     19  C   UNL A   1      36.124  30.850  27.926  1.00  0.00    -0.044 A 
ATOM     20  C   UNL A   1      33.988  29.767  27.725  1.00  0.00     0.138 A 
ATOM     21  C   UNL A   1      31.858  30.936  27.111  1.00  0.00     0.038 C 
ATOM     22  C   UNL A   1      37.616  30.795  28.079  1.00  0.00     0.044 C 
ATOM     23  C   UNL A   1      35.370  29.679  27.875  1.00  0.00     0.051 A 
ATOM     24  O   UNL A   1      33.264  28.567  27.852  1.00  0.00    -0.426 OA
ATOM     25  C   UNL A   1      31.393  32.079  26.199  1.00  0.00     0.014 C 
ATOM     26  C   UNL A   1      31.918  28.575  27.512  1.00  0.00     0.315 C 
ATOM     27  O   UNL A   1      31.118  27.773  27.978  1.00  0.00    -0.251 OA
BRANCH  16  28
ATOM     28  O   UNL A   1      33.346  33.305  27.908  1.00  0.00    -0.496 OA
ATOM     29  C   UNL A   1      33.827  34.202  28.899  1.00  0.00     0.278 C 
ENDBRANCH  16  28
ENDBRANCH  14  15
ENDBRANCH  11  14
ENDBRANCH   9  10
BRANCH   9  30
ATOM     30  C   UNL A   1      31.630  26.157  23.721  1.00  0.00     0.074 C 
BRANCH  30  31
ATOM     31  C   UNL A   1      30.291  26.511  23.121  1.00  0.00    -0.020 A 
ATOM     32  C   UNL A   1      29.241  25.596  23.174  1.00  0.00     0.087 A 
ATOM     33  C   UNL A   1      29.615  27.768  22.861  1.00  0.00     0.003 A 
ATOM     34  N   UNL A   1      28.314  26.312  23.917  1.00  0.00    -0.361 N 
ATOM     35  C   UNL A   1      28.337  27.599  23.418  1.00  0.00     0.046 A 
ATOM     36  C   UNL A   1      29.900  29.051  22.341  1.00  0.00     0.010 A 
ATOM     37  H   UNL A   1      27.752  25.972  24.650  1.00  0.00     0.166 HD
ATOM     38  C   UNL A   1      27.376  28.608  23.518  1.00  0.00     0.026 A 
ATOM     39  C   UNL A   1      28.914  30.055  22.350  1.00  0.00     0.001 A 
ATOM     40  C   UNL A   1      27.674  29.837  22.938  1.00  0.00     0.002 A 
ENDBRANCH  30  31
ENDBRANCH   9  30
ENDBRANCH   7   9
ENDBRANCH   6   7
ENDBRANCH   5   6
ENDBRANCH   4   5
ENDBRANCH   3   4
ENDBRANCH   2   3
ENDBRANCH   1   2
BRANCH   1  41
ATOM     41  O   UNL A   1      38.426  21.976  26.136  1.00  0.00    -0.377 OA
BRANCH  41  42
ATOM     42  C   UNL A   1      39.797  21.630  25.989  1.00  0.00     0.188 C 
BRANCH  42  43
ATOM     43  C   UNL A   1      40.372  20.382  26.688  1.00  0.00     0.188 C 
BRANCH  43  44
ATOM     44  O   UNL A   1      40.998  19.437  25.836  1.00  0.00    -0.376 OA
BRANCH  44  45
ATOM     45  C   UNL A   1      42.360  19.097  26.048  1.00  0.00     0.202 C 
BRANCH  45  46
ATOM     46  C   UNL A   1      43.453  20.034  25.508  1.00  0.00     0.261 C 
BRANCH  46  47
ATOM     47  O   UNL A   1      43.619  21.297  26.172  1.00  0.00    -0.460 OA
BRANCH  47  48
ATOM     48  C   UNL A   1      43.369  22.437  25.493  1.00  0.00     0.338 C 
ATOM     49  O   UNL A   1      43.068  22.541  24.317  1.00  0.00    -0.246 OA
BRANCH  48  50
ATOM     50  C   UNL A   1      43.309  23.534  26.485  1.00  0.00     0.060 A 
ATOM     51  C   UNL A   1      42.721  23.326  27.735  1.00  0.00     0.016 A 
ATOM     52  C   UNL A   1      43.818  24.793  26.143  1.00  0.00     0.016 A 
ATOM     53  C   UNL A   1      42.689  24.370  28.661  1.00  0.00     0.010 A 
ATOM     54  C   UNL A   1      43.778  25.840  27.069  1.00  0.00     0.010 A 
ATOM     55  C   UNL A   1      43.243  25.625  28.347  1.00  0.00    -0.014 A 
BRANCH  55  56
ATOM     56  C   UNL A   1      43.452  26.620  29.428  1.00  0.00     0.031 A 
ATOM     57  C   UNL A   1      42.372  27.551  29.889  1.00  0.00     0.074 A 
ATOM     58  C   UNL A   1      44.675  26.666  29.997  1.00  0.00     0.049 A 
ATOM     59  N   UNL A   1      42.394  28.380  30.901  1.00  0.00    -0.248 NA
ATOM     60  C   UNL A   1      41.113  27.565  29.128  1.00  0.00     0.031 C 
ATOM     61  C   UNL A   1      45.822  25.851  29.585  1.00  0.00     0.029 A 
ATOM     62  N   UNL A   1      45.157  27.414  31.039  1.00  0.00    -0.354 N 
ATOM     63  C   UNL A   1      41.158  29.014  30.906  1.00  0.00     0.074 A 
ATOM     64  C   UNL A   1      40.414  28.491  29.780  1.00  0.00     0.031 C 
ATOM     65  C   UNL A   1      46.862  26.118  30.390  1.00  0.00     0.029 A 
ATOM     66  C   UNL A   1      46.464  27.130  31.361  1.00  0.00     0.049 A 
ATOM     67  H   UNL A   1      44.619  28.090  31.513  1.00  0.00     0.167 HD
ATOM     68  C   UNL A   1      40.686  29.925  31.790  1.00  0.00     0.034 A 
ATOM     69  C   UNL A   1      47.251  27.613  32.341  1.00  0.00     0.034 A 
ATOM     70  C   UNL A   1      41.425  30.421  32.922  1.00  0.00     0.049 A 
ATOM     71  C   UNL A   1      46.691  28.618  33.305  1.00  0.00     0.074 A 
ATOM     72  C   UNL A   1      40.992  31.296  33.906  1.00  0.00     0.029 A 
ATOM     73  N   UNL A   1      42.737  30.100  33.221  1.00  0.00    -0.354 N 
ATOM     74  N   UNL A   1      45.472  29.089  33.381  1.00  0.00    -0.248 NA
ATOM     75  C   UNL A   1      47.605  29.138  34.333  1.00  0.00     0.031 C 
ATOM     76  C   UNL A   1      42.049  31.515  34.792  1.00  0.00     0.029 A 
ATOM     77  C   UNL A   1      43.134  30.767  34.367  1.00  0.00     0.049 A 
ATOM     78  H   UNL A   1      43.304  29.489  32.696  1.00  0.00     0.167 HD
ATOM     79  C   UNL A   1      45.463  29.941  34.478  1.00  0.00     0.074 A 
ATOM     80  C   UNL A   1      46.794  29.912  35.046  1.00  0.00     0.031 C 
ATOM     81  C   UNL A   1      44.444  30.691  34.957  1.00  0.00     0.034 A 
BRANCH  68  82
ATOM     82  C   UNL A   1      39.268  30.406  31.649  1.00  0.00     0.023 A 
ATOM     83  C   UNL A   1      38.221  29.516  31.959  1.00  0.00     0.012 A 
ATOM     84  C   UNL A   1      38.979  31.765  31.414  1.00  0.00     0.148 A 
ATOM     85  C   UNL A   1      36.907  29.970  32.047  1.00  0.00     0.002 A 
ATOM     86  C   UNL A   1      37.668  32.216  31.526  1.00  0.00     0.091 A 
ATOM     87  F   UNL A   1      39.995  32.591  31.128  1.00  0.00    -0.205 F 
ATOM     88  C   UNL A   1      36.633  31.321  31.843  1.00  0.00     0.022 A 
BRANCH  86  89
ATOM     89  S   UNL A   1      37.210  33.944  31.338  1.00  0.00     0.127 S 
ATOM     90  O   UNL A   1      37.521  34.179  29.928  1.00  0.00    -0.237 OA
ATOM     91  O   UNL A   1      35.782  33.917  31.651  1.00  0.00    -0.237 OA
ATOM     92  O   UNL A   1      38.036  34.688  32.278  1.00  0.00    -0.744 OA
ENDBRANCH  86  89
ENDBRANCH  68  82
BRANCH  69  93
ATOM     93  C   UNL A   1      48.630  27.083  32.510  1.00  0.00     0.023 A 
ATOM     94  C   UNL A   1      49.704  27.764  31.906  1.00  0.00     0.012 A 
ATOM     95  C   UNL A   1      48.886  25.936  33.285  1.00  0.00     0.148 A 
ATOM     96  C   UNL A   1      51.010  27.298  32.052  1.00  0.00     0.002 A 
ATOM     97  C   UNL A   1      50.193  25.498  33.455  1.00  0.00     0.091 A 
ATOM     98  F   UNL A   1      47.845  25.306  33.848  1.00  0.00    -0.205 F 
ATOM     99  C   UNL A   1      51.255  26.170  32.831  1.00  0.00     0.022 A 
BRANCH  97 100
ATOM    100  S   UNL A   1      50.617  24.105  34.507  1.00  0.00     0.127 S 
ATOM    101  O   UNL A   1      50.302  24.627  35.834  1.00  0.00    -0.237 OA
ATOM    102  O   UNL A   1      49.705  23.070  34.018  1.00  0.00    -0.237 OA
ATOM    103  O   UNL A   1      52.027  23.835  34.257  1.00  0.00    -0.744 OA
ENDBRANCH  97 100
ENDBRANCH  69  93
BRANCH  81 104
ATOM    104  C   UNL A   1      44.696  31.548  36.166  1.00  0.00     0.023 A 
ATOM    105  C   UNL A   1      44.916  32.928  35.996  1.00  0.00     0.012 A 
ATOM    106  C   UNL A   1      44.565  31.017  37.464  1.00  0.00     0.148 A 
ATOM    107  C   UNL A   1      45.001  33.770  37.103  1.00  0.00     0.002 A 
ATOM    108  C   UNL A   1      44.618  31.867  38.561  1.00  0.00     0.091 A 
ATOM    109  F   UNL A   1      44.359  29.698  37.595  1.00  0.00    -0.205 F 
ATOM    110  C   UNL A   1      44.838  33.244  38.382  1.00  0.00     0.022 A 
BRANCH 108 111
ATOM    111  S   UNL A   1      44.349  31.301  40.244  1.00  0.00     0.127 S 
ATOM    112  O   UNL A   1      44.882  29.939  40.189  1.00  0.00    -0.237 OA
ATOM    113  O   UNL A   1      45.158  32.242  41.019  1.00  0.00    -0.237 OA
ATOM    114  O   UNL A   1      42.914  31.389  40.479  1.00  0.00    -0.744 OA
ENDBRANCH 108 111
ENDBRANCH  81 104
ENDBRANCH  55  56
ENDBRANCH  48  50
ENDBRANCH  47  48
ENDBRANCH  46  47
ENDBRANCH  45  46
ENDBRANCH  44  45
ENDBRANCH  43  44
ENDBRANCH  42  43
ENDBRANCH  41  42
ENDBRANCH   1  41
TORSDOF 29
ENDMDL
MODEL 2
REMARK VINA RESULT:      -8.9      2.451      2.951
REMARK SMILES COc1cc(C)cc2c1[C@@H](C)[C@@H](CC(=O)N[C@@H](Cc1c[nH]c3ccccc13)C(=O)OCCOCCOCCOCCOC(=O)c1ccc(-c3c4nc(c(-c5cccc(S(=O)(=O)[O-])c5F)c5ccc([nH]5)c(-c5cccc(S(=O)(=O)[O-])c5F)c5nc(c(-c6cccc(S(=O)(=O)[O-])c6F)c6ccc3[nH]6)C=C5)C=C4)cc1)C(=O)O2
REMARK SMILES IDX 35 1 34 2 33 3 32 4 31 5 30 6 28 7 29 8 17 9 16 10 14 11
REMARK SMILES IDX 15 12 13 14 12 15 3 16 4 17 9 18 5 19 8 20 10 21 6 22 7 23
REMARK SMILES IDX 110 24 11 25 108 26 109 27 2 28 1 29 18 30 19 31 20 32 27 33
REMARK SMILES IDX 21 34 22 35 26 36 23 38 25 39 24 40 36 41 37 42 38 43 39 44
REMARK SMILES IDX 40 45 41 46 42 47 43 48 44 49 45 50 46 51 107 52 47 53
REMARK SMILES IDX 106 54 48 55 49 56 50 57 100 58 51 59 105 60 99 61 101 62
REMARK SMILES IDX 52 63 104 64 98 65 97 66 53 68 85 69 65 70 84 71 66 72 69 73
REMARK SMILES IDX 83 74 102 75 67 76 68 77 82 79 103 80 70 81 54 82 55 83
REMARK SMILES IDX 63 84 56 85 58 86 64 87 57 88 59 89 60 90 61 91 62 92 86 93
REMARK SMILES IDX 87 94 95 95 88 96 90 97 96 98 89 99 91 100 92 101 93 102
REMARK SMILES IDX 94 103 71 104 72 105 80 106 73 107 75 108 81 109 74 110
REMARK SMILES IDX 76 111 77 112 78 113 79 114
REMARK H PARENT 16 13 21 37 101 67 69 78
REMARK Flexibility Score: inf
ROOT
ATOM      1  C   UNL A   1      37.530  21.390  25.320  1.00  0.00     0.188 C 
ENDROOT
BRANCH   1   2
ATOM      2  C   UNL A   1      36.029  21.463  25.611  1.00  0.00     0.188 C 
BRANCH   2   3
ATOM      3  O   UNL A   1      35.140  21.941  24.618  1.00  0.00    -0.376 OA
BRANCH   3   4
ATOM      4  C   UNL A   1      34.466  23.185  24.803  1.00  0.00     0.202 C 
BRANCH   4   5
ATOM      5  C   UNL A   1      33.270  23.300  25.757  1.00  0.00     0.261 C 
BRANCH   5   6
ATOM      6  O   UNL A   1      32.069  23.755  25.105  1.00  0.00    -0.462 OA
BRANCH   6   7
ATOM      7  C   UNL A   1      31.480  24.829  25.667  1.00  0.00     0.329 C 
ATOM      8  O   UNL A   1      30.619  24.752  26.542  1.00  0.00    -0.250 OA
BRANCH   7   9
ATOM      9  C   UNL A   1      31.976  26.199  25.177  1.00  0.00     0.196 C 
BRANCH   9  10
ATOM     10  N   UNL A   1      33.186  26.913  25.556  1.00  0.00    -0.342 N 
ATOM     11  C   UNL A   1      33.569  28.174  25.170  1.00  0.00     0.221 C 
ATOM     12  O   UNL A   1      34.763  28.428  25.001  1.00  0.00    -0.275 OA
ATOM     13  H   UNL A   1      33.800  26.438  26.162  1.00  0.00     0.164 HD
BRANCH  11  14
ATOM     14  C   UNL A   1      32.540  29.305  25.181  1.00  0.00     0.116 C 
BRANCH  14  15
ATOM     15  C   UNL A   1      31.695  29.546  26.451  1.00  0.00     0.116 C 
ATOM     16  C   UNL A   1      33.921  32.363  27.775  1.00  0.00     0.126 A 
ATOM     17  C   UNL A   1      35.306  32.415  28.010  1.00  0.00     0.050 A 
ATOM     18  C   UNL A   1      33.289  31.133  27.566  1.00  0.00     0.041 A 
ATOM     19  C   UNL A   1      36.077  31.243  28.064  1.00  0.00    -0.044 A 
ATOM     20  C   UNL A   1      34.045  29.982  27.819  1.00  0.00     0.138 A 
ATOM     21  C   UNL A   1      31.851  30.954  27.097  1.00  0.00     0.038 C 
ATOM     22  C   UNL A   1      37.561  31.315  28.270  1.00  0.00     0.044 C 
ATOM     23  C   UNL A   1      35.423  30.012  28.020  1.00  0.00     0.051 A 
ATOM     24  O   UNL A   1      33.417  28.730  27.955  1.00  0.00    -0.426 OA
ATOM     25  C   UNL A   1      31.328  32.032  26.138  1.00  0.00     0.014 C 
ATOM     26  C   UNL A   1      32.089  28.618  27.568  1.00  0.00     0.315 C 
ATOM     27  O   UNL A   1      31.340  27.764  28.029  1.00  0.00    -0.251 OA
BRANCH  16  28
ATOM     28  O   UNL A   1      33.110  33.459  27.878  1.00  0.00    -0.496 OA
ATOM     29  C   UNL A   1      33.742  34.667  28.276  1.00  0.00     0.278 C 
ENDBRANCH  16  28
ENDBRANCH  14  15
ENDBRANCH  11  14
ENDBRANCH   9  10
BRANCH   9  30
ATOM     30  C   UNL A   1      31.766  26.307  23.675  1.00  0.00     0.074 C 
BRANCH  30  31
ATOM     31  C   UNL A   1      30.400  26.571  23.090  1.00  0.00    -0.020 A 
ATOM     32  C   UNL A   1      29.411  25.592  23.162  1.00  0.00     0.087 A 
ATOM     33  C   UNL A   1      29.643  27.780  22.831  1.00  0.00     0.003 A 
ATOM     34  N   UNL A   1      28.450  26.253  23.913  1.00  0.00    -0.361 N 
ATOM     35  C   UNL A   1      28.385  27.535  23.406  1.00  0.00     0.046 A 
ATOM     36  C   UNL A   1      29.839  29.076  22.299  1.00  0.00     0.010 A 
ATOM     37  H   UNL A   1      27.919  25.883  24.656  1.00  0.00     0.166 HD
ATOM     38  C   UNL A   1      27.363  28.482  23.512  1.00  0.00     0.026 A 
ATOM     39  C   UNL A   1      28.792  30.015  22.315  1.00  0.00     0.001 A 
ATOM     40  C   UNL A   1      27.576  29.723  22.921  1.00  0.00     0.002 A 
ENDBRANCH  30  31
ENDBRANCH   9  30
ENDBRANCH   7   9
ENDBRANCH   6   7
ENDBRANCH   5   6
ENDBRANCH   4   5
ENDBRANCH   3   4
ENDBRANCH   2   3
ENDBRANCH   1   2
BRANCH   1  41
ATOM     41  O   UNL A   1      38.388  22.114  26.174  1.00  0.00    -0.377 OA
BRANCH  41  42
ATOM     42  C   UNL A   1      39.794  21.911  26.103  1.00  0.00     0.188 C 
BRANCH  42  43
ATOM     43  C   UNL A   1      40.491  20.906  27.041  1.00  0.00     0.188 C 
BRANCH  43  44
ATOM     44  O   UNL A   1      41.076  19.781  26.405  1.00  0.00    -0.376 OA
BRANCH  44  45
ATOM     45  C   UNL A   1      42.481  19.588  26.477  1.00  0.00     0.202 C 
BRANCH  45  46
ATOM     46  C   UNL A   1      43.401  20.518  25.669  1.00  0.00     0.261 C 
BRANCH  46  47
ATOM     47  O   UNL A   1      43.726  21.788  26.256  1.00  0.00    -0.460 OA
BRANCH  47  48
ATOM     48  C   UNL A   1      43.307  22.921  25.652  1.00  0.00     0.338 C 
ATOM     49  O   UNL A   1      42.769  23.017  24.563  1.00  0.00    -0.246 OA
BRANCH  48  50
ATOM     50  C   UNL A   1      43.416  24.012  26.645  1.00  0.00     0.060 A 
ATOM     51  C   UNL A   1      42.269  24.555  27.230  1.00  0.00     0.016 A 
ATOM     52  C   UNL A   1      44.682  24.520  26.966  1.00  0.00     0.016 A 
ATOM     53  C   UNL A   1      42.396  25.574  28.175  1.00  0.00     0.010 A 
ATOM     54  C   UNL A   1      44.806  25.546  27.908  1.00  0.00     0.010 A 
ATOM     55  C   UNL A   1      43.666  26.057  28.543  1.00  0.00    -0.014 A 
BRANCH  55  56
ATOM     56  C   UNL A   1      43.796  26.927  29.739  1.00  0.00     0.031 A 
ATOM     57  C   UNL A   1      43.414  28.377  29.728  1.00  0.00     0.074 A 
ATOM     58  C   UNL A   1      44.283  26.363  30.864  1.00  0.00     0.049 A 
ATOM     59  N   UNL A   1      43.369  29.210  30.736  1.00  0.00    -0.248 NA
ATOM     60  C   UNL A   1      43.041  28.974  28.437  1.00  0.00     0.031 C 
ATOM     61  C   UNL A   1      44.748  24.976  30.972  1.00  0.00     0.029 A 
ATOM     62  N   UNL A   1      44.462  26.872  32.123  1.00  0.00    -0.354 N 
ATOM     63  C   UNL A   1      42.961  30.429  30.209  1.00  0.00     0.074 A 
ATOM     64  C   UNL A   1      42.793  30.234  28.784  1.00  0.00     0.031 C 
ATOM     65  C   UNL A   1      45.123  24.736  32.237  1.00  0.00     0.029 A 
ATOM     66  C   UNL A   1      44.943  25.950  33.024  1.00  0.00     0.049 A 
ATOM     67  H   UNL A   1      44.265  27.807  32.361  1.00  0.00     0.167 HD
ATOM     68  C   UNL A   1      42.722  31.588  30.865  1.00  0.00     0.034 A 
ATOM     69  C   UNL A   1      45.191  26.061  34.343  1.00  0.00     0.034 A 
ATOM     70  C   UNL A   1      42.868  31.766  32.287  1.00  0.00     0.049 A 
ATOM     71  C   UNL A   1      44.910  27.361  35.038  1.00  0.00     0.074 A 
ATOM     72  C   UNL A   1      42.581  32.892  33.040  1.00  0.00     0.029 A 
ATOM     73  N   UNL A   1      43.343  30.808  33.166  1.00  0.00    -0.354 N 
ATOM     74  N   UNL A   1      44.381  28.455  34.548  1.00  0.00    -0.248 NA
ATOM     75  C   UNL A   1      45.234  27.437  36.471  1.00  0.00     0.031 C 
ATOM     76  C   UNL A   1      42.896  32.620  34.373  1.00  0.00     0.029 A 
ATOM     77  C   UNL A   1      43.367  31.321  34.451  1.00  0.00     0.049 A 
ATOM     78  H   UNL A   1      43.623  29.898  32.914  1.00  0.00     0.167 HD
ATOM     79  C   UNL A   1      44.285  29.339  35.614  1.00  0.00     0.074 A 
ATOM     80  C   UNL A   1      44.796  28.652  36.780  1.00  0.00     0.031 C 
ATOM     81  C   UNL A   1      43.827  30.613  35.616  1.00  0.00     0.034 A 
BRANCH  68  82
ATOM     82  C   UNL A   1      42.190  32.764  30.093  1.00  0.00     0.023 A 
ATOM     83  C   UNL A   1      40.844  33.136  30.277  1.00  0.00     0.012 A 
ATOM     84  C   UNL A   1      43.051  33.605  29.359  1.00  0.00     0.148 A 
ATOM     85  C   UNL A   1      40.362  34.333  29.752  1.00  0.00     0.002 A 
ATOM     86  C   UNL A   1      42.568  34.809  28.857  1.00  0.00     0.091 A 
ATOM     87  F   UNL A   1      44.328  33.229  29.206  1.00  0.00    -0.205 F 
ATOM     88  C   UNL A   1      41.226  35.174  29.053  1.00  0.00     0.022 A 
BRANCH  86  89
ATOM     89  S   UNL A   1      43.606  35.993  27.991  1.00  0.00     0.127 S 
ATOM     90  O   UNL A   1      44.605  36.311  29.012  1.00  0.00    -0.237 OA
ATOM     91  O   UNL A   1      44.111  35.197  26.873  1.00  0.00    -0.237 OA
ATOM     92  O   UNL A   1      42.737  37.100  27.620  1.00  0.00    -0.744 OA
ENDBRANCH  86  89
ENDBRANCH  68  82
BRANCH  69  93
ATOM     93  C   UNL A   1      45.656  24.874  35.109  1.00  0.00     0.023 A 
ATOM     94  C   UNL A   1      44.704  24.036  35.718  1.00  0.00     0.012 A 
ATOM     95  C   UNL A   1      47.024  24.556  35.212  1.00  0.00     0.148 A 
ATOM     96  C   UNL A   1      45.106  22.910  36.437  1.00  0.00     0.002 A 
ATOM     97  C   UNL A   1      47.416  23.415  35.899  1.00  0.00     0.091 A 
ATOM     98  F   UNL A   1      47.910  25.372  34.624  1.00  0.00    -0.205 F 
ATOM     99  C   UNL A   1      46.460  22.597  36.522  1.00  0.00     0.022 A 
BRANCH  97 100
ATOM    100  S   UNL A   1      49.128  22.881  35.993  1.00  0.00     0.127 S 
ATOM    101  O   UNL A   1      49.447  22.656  34.586  1.00  0.00    -0.237 OA
ATOM    102  O   UNL A   1      49.774  24.050  36.593  1.00  0.00    -0.237 OA
ATOM    103  O   UNL A   1      49.128  21.693  36.836  1.00  0.00    -0.744 OA
ENDBRANCH  97 100
ENDBRANCH  69  93
BRANCH  81 104
ATOM    104  C   UNL A   1      43.837  31.372  36.914  1.00  0.00     0.023 A 
ATOM    105  C   UNL A   1      45.028  31.994  37.336  1.00  0.00     0.012 A 
ATOM    106  C   UNL A   1      42.643  31.592  37.627  1.00  0.00     0.148 A 
ATOM    107  C   UNL A   1      45.029  32.828  38.452  1.00  0.00     0.002 A 
ATOM    108  C   UNL A   1      42.645  32.451  38.719  1.00  0.00     0.091 A 
ATOM    109  F   UNL A   1      41.525  30.984  37.202  1.00  0.00    -0.205 F 
ATOM    110  C   UNL A   1      43.838  33.068  39.133  1.00  0.00     0.022 A 
BRANCH 108 111
ATOM    111  S   UNL A   1      41.152  32.882  39.619  1.00  0.00     0.127 S 
ATOM    112  O   UNL A   1      41.362  34.306  39.880  1.00  0.00    -0.237 OA
ATOM    113  O   UNL A   1      40.106  32.588  38.641  1.00  0.00    -0.237 OA
ATOM    114  O   UNL A   1      41.135  32.038  40.806  1.00  0.00    -0.744 OA
ENDBRANCH 108 111
ENDBRANCH  81 104
ENDBRANCH  55  56
ENDBRANCH  48  50
ENDBRANCH  47  48
ENDBRANCH  46  47
ENDBRANCH  45  46
ENDBRANCH  44  45
ENDBRANCH  43  44
ENDBRANCH  42  43
ENDBRANCH  41  42
ENDBRANCH   1  41
TORSDOF 29
ENDMDL
MODEL 3
REMARK VINA RESULT:      -8.8      4.800      5.910
REMARK SMILES COc1cc(C)cc2c1[C@@H](C)[C@@H](CC(=O)N[C@@H](Cc1c[nH]c3ccccc13)C(=O)OCCOCCOCCOCCOC(=O)c1ccc(-c3c4nc(c(-c5cccc(S(=O)(=O)[O-])c5F)c5ccc([nH]5)c(-c5cccc(S(=O)(=O)[O-])c5F)c5nc(c(-c6cccc(S(=O)(=O)[O-])c6F)c6ccc3[nH]6)C=C5)C=C4)cc1)C(=O)O2
REMARK SMILES IDX 35 1 34 2 33 3 32 4 31 5 30 6 28 7 29 8 17 9 16 10 14 11
REMARK SMILES IDX 15 12 13 14 12 15 3 16 4 17 9 18 5 19 8 20 10 21 6 22 7 23
REMARK SMILES IDX 110 24 11 25 108 26 109 27 2 28 1 29 18 30 19 31 20 32 27 33
REMARK SMILES IDX 21 34 22 35 26 36 23 38 25 39 24 40 36 41 37 42 38 43 39 44
REMARK SMILES IDX 40 45 41 46 42 47 43 48 44 49 45 50 46 51 107 52 47 53
REMARK SMILES IDX 106 54 48 55 49 56 50 57 100 58 51 59 105 60 99 61 101 62
REMARK SMILES IDX 52 63 104 64 98 65 97 66 53 68 85 69 65 70 84 71 66 72 69 73
REMARK SMILES IDX 83 74 102 75 67 76 68 77 82 79 103 80 70 81 54 82 55 83
REMARK SMILES IDX 63 84 56 85 58 86 64 87 57 88 59 89 60 90 61 91 62 92 86 93
REMARK SMILES IDX 87 94 95 95 88 96 90 97 96 98 89 99 91 100 92 101 93 102
REMARK SMILES IDX 94 103 71 104 72 105 80 106 73 107 75 108 81 109 74 110
REMARK SMILES IDX 76 111 77 112 78 113 79 114
REMARK H PARENT 16 13 21 37 101 67 69 78
REMARK Flexibility Score: inf
ROOT
ATOM      1  C   UNL A   1      36.425  22.322  25.585  1.00  0.00     0.188 C 
ENDROOT
BRANCH   1   2
ATOM      2  C   UNL A   1      34.963  21.883  25.711  1.00  0.00     0.188 C 
BRANCH   2   3
ATOM      3  O   UNL A   1      34.102  21.964  24.590  1.00  0.00    -0.376 OA
BRANCH   3   4
ATOM      4  C   UNL A   1      33.228  23.083  24.442  1.00  0.00     0.202 C 
BRANCH   4   5
ATOM      5  C   UNL A   1      32.556  23.724  25.662  1.00  0.00     0.261 C 
BRANCH   5   6
ATOM      6  O   UNL A   1      31.147  23.960  25.471  1.00  0.00    -0.462 OA
BRANCH   6   7
ATOM      7  C   UNL A   1      30.719  25.193  25.810  1.00  0.00     0.329 C 
ATOM      8  O   UNL A   1      29.808  25.399  26.611  1.00  0.00    -0.250 OA
BRANCH   7   9
ATOM      9  C   UNL A   1      31.469  26.366  25.160  1.00  0.00     0.196 C 
BRANCH   9  10
ATOM     10  N   UNL A   1      32.806  26.860  25.452  1.00  0.00    -0.342 N 
ATOM     11  C   UNL A   1      33.361  28.054  25.061  1.00  0.00     0.221 C 
ATOM     12  O   UNL A   1      34.563  28.115  24.799  1.00  0.00    -0.275 OA
ATOM     13  H   UNL A   1      33.379  26.270  25.993  1.00  0.00     0.164 HD
BRANCH  11  14
ATOM     14  C   UNL A   1      32.538  29.337  25.182  1.00  0.00     0.116 C 
BRANCH  14  15
ATOM     15  C   UNL A   1      31.708  29.585  26.461  1.00  0.00     0.116 C 
ATOM     16  C   UNL A   1      34.016  32.329  27.799  1.00  0.00     0.126 A 
ATOM     17  C   UNL A   1      35.403  32.343  28.025  1.00  0.00     0.050 A 
ATOM     18  C   UNL A   1      33.351  31.118  27.582  1.00  0.00     0.041 A 
ATOM     19  C   UNL A   1      36.144  31.150  28.060  1.00  0.00    -0.044 A 
ATOM     20  C   UNL A   1      34.078  29.945  27.816  1.00  0.00     0.138 A 
ATOM     21  C   UNL A   1      31.905  30.981  27.121  1.00  0.00     0.038 C 
ATOM     22  C   UNL A   1      37.631  31.182  28.256  1.00  0.00     0.044 C 
ATOM     23  C   UNL A   1      35.459  29.937  28.007  1.00  0.00     0.051 A 
ATOM     24  O   UNL A   1      33.420  28.708  27.943  1.00  0.00    -0.426 OA
ATOM     25  C   UNL A   1      31.404  32.083  26.178  1.00  0.00     0.014 C 
ATOM     26  C   UNL A   1      32.086  28.635  27.564  1.00  0.00     0.315 C 
ATOM     27  O   UNL A   1      31.319  27.795  28.021  1.00  0.00    -0.251 OA
BRANCH  16  28
ATOM     28  O   UNL A   1      33.234  33.444  27.920  1.00  0.00    -0.496 OA
ATOM     29  C   UNL A   1      33.781  34.508  28.686  1.00  0.00     0.278 C 
ENDBRANCH  16  28
ENDBRANCH  14  15
ENDBRANCH  11  14
ENDBRANCH   9  10
BRANCH   9  30
ATOM     30  C   UNL A   1      31.250  26.337  23.656  1.00  0.00     0.074 C 
BRANCH  30  31
ATOM     31  C   UNL A   1      29.993  26.896  23.034  1.00  0.00    -0.020 A 
ATOM     32  C   UNL A   1      28.812  26.156  23.068  1.00  0.00     0.087 A 
ATOM     33  C   UNL A   1      29.526  28.242  22.766  1.00  0.00     0.003 A 
ATOM     34  N   UNL A   1      27.996  27.008  23.797  1.00  0.00    -0.361 N 
ATOM     35  C   UNL A   1      28.228  28.275  23.301  1.00  0.00     0.046 A 
ATOM     36  C   UNL A   1      30.017  29.465  22.253  1.00  0.00     0.010 A 
ATOM     37  H   UNL A   1      27.375  26.761  24.520  1.00  0.00     0.166 HD
ATOM     38  C   UNL A   1      27.435  29.422  23.387  1.00  0.00     0.026 A 
ATOM     39  C   UNL A   1      29.200  30.611  22.248  1.00  0.00     0.001 A 
ATOM     40  C   UNL A   1      27.931  30.589  22.815  1.00  0.00     0.002 A 
ENDBRANCH  30  31
ENDBRANCH   9  30
ENDBRANCH   7   9
ENDBRANCH   6   7
ENDBRANCH   5   6
ENDBRANCH   4   5
ENDBRANCH   3   4
ENDBRANCH   2   3
ENDBRANCH   1   2
BRANCH   1  41
ATOM     41  O   UNL A   1      36.797  23.516  26.234  1.00  0.00    -0.377 OA
BRANCH  41  42
ATOM     42  C   UNL A   1      38.072  24.093  25.980  1.00  0.00     0.188 C 
BRANCH  42  43
ATOM     43  C   UNL A   1      39.228  23.916  26.985  1.00  0.00     0.188 C 
BRANCH  43  44
ATOM     44  O   UNL A   1      40.069  22.796  26.758  1.00  0.00    -0.376 OA
BRANCH  44  45
ATOM     45  C   UNL A   1      41.477  22.971  26.732  1.00  0.00     0.202 C 
BRANCH  45  46
ATOM     46  C   UNL A   1      42.056  24.230  26.065  1.00  0.00     0.261 C 
BRANCH  46  47
ATOM     47  O   UNL A   1      42.465  25.300  26.931  1.00  0.00    -0.460 OA
BRANCH  47  48
ATOM     48  C   UNL A   1      43.782  25.510  27.144  1.00  0.00     0.338 C 
ATOM     49  O   UNL A   1      44.706  24.799  26.790  1.00  0.00    -0.246 OA
BRANCH  48  50
ATOM     50  C   UNL A   1      43.924  26.876  27.694  1.00  0.00     0.060 A 
ATOM     51  C   UNL A   1      43.373  27.971  27.023  1.00  0.00     0.016 A 
ATOM     52  C   UNL A   1      44.648  27.064  28.879  1.00  0.00     0.016 A 
ATOM     53  C   UNL A   1      43.506  29.249  27.568  1.00  0.00     0.010 A 
ATOM     54  C   UNL A   1      44.787  28.346  29.419  1.00  0.00     0.010 A 
ATOM     55  C   UNL A   1      44.187  29.443  28.784  1.00  0.00    -0.014 A 
BRANCH  55  56
ATOM     56  C   UNL A   1      44.075  30.748  29.482  1.00  0.00     0.031 A 
ATOM     57  C   UNL A   1      42.889  31.115  30.322  1.00  0.00     0.074 A 
ATOM     58  C   UNL A   1      45.095  31.619  29.332  1.00  0.00     0.049 A 
ATOM     59  N   UNL A   1      42.726  32.172  31.076  1.00  0.00    -0.248 NA
ATOM     60  C   UNL A   1      41.741  30.196  30.320  1.00  0.00     0.031 C 
ATOM     61  C   UNL A   1      46.271  31.394  28.485  1.00  0.00     0.029 A 
ATOM     62  N   UNL A   1      45.315  32.853  29.885  1.00  0.00    -0.354 N 
ATOM     63  C   UNL A   1      41.464  32.050  31.642  1.00  0.00     0.074 A 
ATOM     64  C   UNL A   1      40.891  30.825  31.127  1.00  0.00     0.031 C 
ATOM     65  C   UNL A   1      47.104  32.439  28.605  1.00  0.00     0.029 A 
ATOM     66  C   UNL A   1      46.519  33.412  29.519  1.00  0.00     0.049 A 
ATOM     67  H   UNL A   1      44.675  33.298  30.486  1.00  0.00     0.167 HD
ATOM     68  C   UNL A   1      40.860  32.873  32.532  1.00  0.00     0.034 A 
ATOM     69  C   UNL A   1      47.098  34.568  29.893  1.00  0.00     0.034 A 
ATOM     70  C   UNL A   1      41.449  34.077  33.058  1.00  0.00     0.049 A 
ATOM     71  C   UNL A   1      46.401  35.453  30.885  1.00  0.00     0.074 A 
ATOM     72  C   UNL A   1      40.930  34.932  34.017  1.00  0.00     0.029 A 
ATOM     73  N   UNL A   1      42.672  34.601  32.675  1.00  0.00    -0.354 N 
ATOM     74  N   UNL A   1      45.276  35.242  31.522  1.00  0.00    -0.248 NA
ATOM     75  C   UNL A   1      47.062  36.721  31.230  1.00  0.00     0.031 C 
ATOM     76  C   UNL A   1      41.833  35.981  34.203  1.00  0.00     0.029 A 
ATOM     77  C   UNL A   1      42.918  35.773  33.369  1.00  0.00     0.049 A 
ATOM     78  H   UNL A   1      43.275  34.200  32.008  1.00  0.00     0.167 HD
ATOM     79  C   UNL A   1      45.107  36.336  32.361  1.00  0.00     0.074 A 
ATOM     80  C   UNL A   1      46.249  37.201  32.164  1.00  0.00     0.031 C 
ATOM     81  C   UNL A   1      44.084  36.601  33.207  1.00  0.00     0.034 A 
BRANCH  68  82
ATOM     82  C   UNL A   1      39.517  32.484  33.086  1.00  0.00     0.023 A 
ATOM     83  C   UNL A   1      39.468  31.827  34.331  1.00  0.00     0.012 A 
ATOM     84  C   UNL A   1      38.324  32.938  32.491  1.00  0.00     0.148 A 
ATOM     85  C   UNL A   1      38.251  31.634  34.982  1.00  0.00     0.002 A 
ATOM     86  C   UNL A   1      37.116  32.763  33.157  1.00  0.00     0.091 A 
ATOM     87  F   UNL A   1      38.401  33.567  31.309  1.00  0.00    -0.205 F 
ATOM     88  C   UNL A   1      37.078  32.112  34.402  1.00  0.00     0.022 A 
BRANCH  86  89
ATOM     89  S   UNL A   1      35.552  33.388  32.528  1.00  0.00     0.127 S 
ATOM     90  O   UNL A   1      35.971  34.632  31.883  1.00  0.00    -0.237 OA
ATOM     91  O   UNL A   1      35.149  32.328  31.605  1.00  0.00    -0.237 OA
ATOM     92  O   UNL A   1      34.689  33.562  33.687  1.00  0.00    -0.744 OA
ENDBRANCH  86  89
ENDBRANCH  68  82
BRANCH  69  93
ATOM     93  C   UNL A   1      48.454  34.912  29.389  1.00  0.00     0.023 A 
ATOM     94  C   UNL A   1      49.581  34.520  30.135  1.00  0.00     0.012 A 
ATOM     95  C   UNL A   1      48.633  35.591  28.168  1.00  0.00     0.148 A 
ATOM     96  C   UNL A   1      50.868  34.819  29.686  1.00  0.00     0.002 A 
ATOM     97  C   UNL A   1      49.918  35.854  27.710  1.00  0.00     0.091 A 
ATOM     98  F   UNL A   1      47.543  35.953  27.479  1.00  0.00    -0.205 F 
ATOM     99  C   UNL A   1      51.035  35.480  28.472  1.00  0.00     0.022 A 
BRANCH  97 100
ATOM    100  S   UNL A   1      50.238  36.625  26.120  1.00  0.00     0.127 S 
ATOM    101  O   UNL A   1      49.830  38.004  26.369  1.00  0.00    -0.237 OA
ATOM    102  O   UNL A   1      51.681  36.424  25.974  1.00  0.00    -0.237 OA
ATOM    103  O   UNL A   1      49.428  35.893  25.155  1.00  0.00    -0.744 OA
ENDBRANCH  97 100
ENDBRANCH  69  93
BRANCH  81 104
ATOM    104  C   UNL A   1      44.131  37.873  34.007  1.00  0.00     0.023 A 
ATOM    105  C   UNL A   1      44.848  37.895  35.219  1.00  0.00     0.012 A 
ATOM    106  C   UNL A   1      43.601  39.069  33.486  1.00  0.00     0.148 A 
ATOM    107  C   UNL A   1      45.037  39.095  35.902  1.00  0.00     0.002 A 
ATOM    108  C   UNL A   1      43.822  40.266  34.157  1.00  0.00     0.091 A 
ATOM    109  F   UNL A   1      42.921  39.016  32.332  1.00  0.00    -0.205 F 
ATOM    110  C   UNL A   1      44.538  40.279  35.366  1.00  0.00     0.022 A 
BRANCH 108 111
ATOM    111  S   UNL A   1      43.283  41.854  33.515  1.00  0.00     0.127 S 
ATOM    112  O   UNL A   1      42.224  41.457  32.588  1.00  0.00    -0.237 OA
ATOM    113  O   UNL A   1      42.815  42.532  34.723  1.00  0.00    -0.237 OA
ATOM    114  O   UNL A   1      44.452  42.457  32.888  1.00  0.00    -0.744 OA
ENDBRANCH 108 111
ENDBRANCH  81 104
ENDBRANCH  55  56
ENDBRANCH  48  50
ENDBRANCH  47  48
ENDBRANCH  46  47
ENDBRANCH  45  46
ENDBRANCH  44  45
ENDBRANCH  43  44
ENDBRANCH  42  43
ENDBRANCH  41  42
ENDBRANCH   1  41
TORSDOF 29
ENDMDL
