MODEL 1
REMARK VINA RESULT:      -8.4      0.000      0.000
REMARK SMILES CC[C@H](NS(=O)(=O)c1cccc(C(F)(F)F)c1)C(=O)OCCOCCOCCOCCOC(=O)c1ccc(-c2c3nc(c(-c4cccc(S(=O)(=O)[O-])c4F)c4ccc([nH]4)c(-c4cccc(S(=O)(=O)[O-])c4F)c4nc(c(-c5cccc(S(=O)(=O)[O-])c5F)c5ccc2[nH]5)C=C4)C=C3)cc1
REMARK SMILES IDX 25 1 24 2 23 3 22 4 21 5 20 6 18 7 19 8 3 9 2 10 1 11 4 12
REMARK SMILES IDX 5 14 6 15 7 16 8 17 9 18 17 19 10 20 12 21 11 22 13 23 14 24
REMARK SMILES IDX 15 25 16 26 26 27 27 28 28 29 29 30 30 31 31 32 32 33 33 34
REMARK SMILES IDX 34 35 35 36 36 37 97 38 37 39 96 40 38 41 39 42 40 43 90 44
REMARK SMILES IDX 41 45 95 46 89 47 91 48 42 49 94 50 88 51 87 52 43 54 75 55
REMARK SMILES IDX 55 56 74 57 56 58 59 59 73 60 92 61 57 62 58 63 72 65 93 66
REMARK SMILES IDX 60 67 44 68 45 69 53 70 46 71 48 72 54 73 47 74 49 75 50 76
REMARK SMILES IDX 51 77 52 78 76 79 77 80 85 81 78 82 80 83 86 84 79 85 81 86
REMARK SMILES IDX 82 87 83 88 84 89 61 90 62 91 70 92 63 93 65 94 71 95 64 96
REMARK SMILES IDX 66 97 67 98 68 99 69 100
REMARK H PARENT 4 13 91 53 59 64
REMARK Flexibility Score: inf
ROOT
ATOM      1  C   UNL A   1      37.714  23.004  26.384  1.00  0.00     0.188 C 
ENDROOT
BRANCH   1   2
ATOM      2  C   UNL A   1      36.638  23.808  25.622  1.00  0.00     0.188 C 
BRANCH   2   3
ATOM      3  O   UNL A   1      36.543  23.671  24.224  1.00  0.00    -0.376 OA
BRANCH   3   4
ATOM      4  C   UNL A   1      35.396  23.263  23.509  1.00  0.00     0.202 C 
BRANCH   4   5
ATOM      5  C   UNL A   1      34.208  24.148  23.113  1.00  0.00     0.261 C 
BRANCH   5   6
ATOM      6  O   UNL A   1      33.191  23.558  22.308  1.00  0.00    -0.462 OA
BRANCH   6   7
ATOM      7  C   UNL A   1      32.175  22.982  22.981  1.00  0.00     0.324 C 
ATOM      8  O   UNL A   1      31.812  21.820  22.805  1.00  0.00    -0.250 OA
BRANCH   7   9
ATOM      9  C   UNL A   1      31.525  23.859  24.030  1.00  0.00     0.179 C 
BRANCH   9  10
ATOM     10  C   UNL A   1      31.582  23.158  25.401  1.00  0.00     0.028 C 
ATOM     11  C   UNL A   1      32.496  21.942  25.449  1.00  0.00     0.006 C 
ENDBRANCH   9  10
BRANCH   9  12
ATOM     12  N   UNL A   1      30.306  24.677  23.932  1.00  0.00    -0.197 NA
ATOM     13  H   UNL A   1      29.551  23.993  23.986  1.00  0.00     0.142 HD
BRANCH  12  14
ATOM     14  S   UNL A   1      29.752  25.952  24.852  1.00  0.00     0.241 S 
ATOM     15  O   UNL A   1      28.548  26.384  24.195  1.00  0.00    -0.207 OA
ATOM     16  O   UNL A   1      29.764  25.603  26.259  1.00  0.00    -0.207 OA
BRANCH  14  17
ATOM     17  C   UNL A   1      30.983  27.183  24.593  1.00  0.00     0.083 A 
ATOM     18  C   UNL A   1      31.487  27.394  23.308  1.00  0.00     0.022 A 
ATOM     19  C   UNL A   1      31.499  27.862  25.696  1.00  0.00     0.034 A 
ATOM     20  C   UNL A   1      32.565  28.258  23.142  1.00  0.00     0.002 A 
ATOM     21  C   UNL A   1      32.633  28.665  25.547  1.00  0.00     0.057 A 
ATOM     22  C   UNL A   1      33.147  28.877  24.256  1.00  0.00     0.013 A 
BRANCH  21  23
ATOM     23  C   UNL A   1      33.366  29.160  26.772  1.00  0.00     0.416 C 
ATOM     24  F   UNL A   1      34.636  29.560  26.465  1.00  0.00    -0.166 F 
ATOM     25  F   UNL A   1      32.775  30.186  27.415  1.00  0.00    -0.166 F 
ATOM     26  F   UNL A   1      33.537  28.174  27.706  1.00  0.00    -0.166 F 
ENDBRANCH  21  23
ENDBRANCH  14  17
ENDBRANCH  12  14
ENDBRANCH   9  12
ENDBRANCH   7   9
ENDBRANCH   6   7
ENDBRANCH   5   6
ENDBRANCH   4   5
ENDBRANCH   3   4
ENDBRANCH   2   3
ENDBRANCH   1   2
BRANCH   1  27
ATOM     27  O   UNL A   1      39.108  23.159  26.216  1.00  0.00    -0.377 OA
BRANCH  27  28
ATOM     28  C   UNL A   1      39.971  22.273  26.911  1.00  0.00     0.188 C 
BRANCH  28  29
ATOM     29  C   UNL A   1      41.298  22.115  26.158  1.00  0.00     0.188 C 
BRANCH  29  30
ATOM     30  O   UNL A   1      42.418  22.358  27.005  1.00  0.00    -0.376 OA
BRANCH  30  31
ATOM     31  C   UNL A   1      43.470  23.163  26.481  1.00  0.00     0.202 C 
BRANCH  31  32
ATOM     32  C   UNL A   1      43.414  23.815  25.078  1.00  0.00     0.261 C 
BRANCH  32  33
ATOM     33  O   UNL A   1      43.431  25.249  24.982  1.00  0.00    -0.460 OA
BRANCH  33  34
ATOM     34  C   UNL A   1      42.325  25.939  25.321  1.00  0.00     0.338 C 
ATOM     35  O   UNL A   1      41.170  25.563  25.231  1.00  0.00    -0.246 OA
BRANCH  34  36
ATOM     36  C   UNL A   1      42.761  27.181  26.005  1.00  0.00     0.060 A 
ATOM     37  C   UNL A   1      43.685  27.092  27.055  1.00  0.00     0.016 A 
ATOM     38  C   UNL A   1      42.258  28.426  25.618  1.00  0.00     0.016 A 
ATOM     39  C   UNL A   1      44.066  28.239  27.755  1.00  0.00     0.010 A 
ATOM     40  C   UNL A   1      42.625  29.572  26.333  1.00  0.00     0.010 A 
ATOM     41  C   UNL A   1      43.498  29.478  27.432  1.00  0.00    -0.014 A 
BRANCH  41  42
ATOM     42  C   UNL A   1      43.647  30.623  28.368  1.00  0.00     0.031 A 
ATOM     43  C   UNL A   1      42.505  30.931  29.302  1.00  0.00     0.074 A 
ATOM     44  C   UNL A   1      44.766  31.370  28.403  1.00  0.00     0.049 A 
ATOM     45  N   UNL A   1      42.390  31.885  30.188  1.00  0.00    -0.248 NA
ATOM     46  C   UNL A   1      41.333  30.042  29.220  1.00  0.00     0.031 C 
ATOM     47  C   UNL A   1      45.946  31.168  27.567  1.00  0.00     0.029 A 
ATOM     48  N   UNL A   1      45.076  32.471  29.166  1.00  0.00    -0.354 N 
ATOM     49  C   UNL A   1      41.125  31.734  30.743  1.00  0.00     0.074 A 
ATOM     50  C   UNL A   1      40.507  30.600  30.092  1.00  0.00     0.031 C 
ATOM     51  C   UNL A   1      46.844  32.132  27.842  1.00  0.00     0.029 A 
ATOM     52  C   UNL A   1      46.292  33.033  28.852  1.00  0.00     0.049 A 
ATOM     53  H   UNL A   1      44.484  32.823  29.869  1.00  0.00     0.167 HD
ATOM     54  C   UNL A   1      40.531  32.464  31.717  1.00  0.00     0.034 A 
ATOM     55  C   UNL A   1      46.878  34.157  29.312  1.00  0.00     0.034 A 
ATOM     56  C   UNL A   1      41.149  33.582  32.376  1.00  0.00     0.049 A 
ATOM     57  C   UNL A   1      46.181  34.973  30.375  1.00  0.00     0.074 A 
ATOM     58  C   UNL A   1      40.648  34.353  33.410  1.00  0.00     0.029 A 
ATOM     59  N   UNL A   1      42.392  34.103  32.053  1.00  0.00    -0.354 N 
ATOM     60  N   UNL A   1      45.038  34.748  30.976  1.00  0.00    -0.248 NA
ATOM     61  C   UNL A   1      46.872  36.184  30.846  1.00  0.00     0.031 C 
ATOM     62  C   UNL A   1      41.571  35.368  33.683  1.00  0.00     0.029 A 
ATOM     63  C   UNL A   1      42.668  35.199  32.852  1.00  0.00     0.049 A 
ATOM     64  H   UNL A   1      42.990  33.746  31.358  1.00  0.00     0.167 HD
ATOM     65  C   UNL A   1      44.893  35.761  31.920  1.00  0.00     0.074 A 
ATOM     66  C   UNL A   1      46.075  36.592  31.823  1.00  0.00     0.031 C 
ATOM     67  C   UNL A   1      43.870  35.988  32.783  1.00  0.00     0.034 A 
BRANCH  54  68
ATOM     68  C   UNL A   1      39.137  32.073  32.133  1.00  0.00     0.023 A 
ATOM     69  C   UNL A   1      38.948  31.132  33.165  1.00  0.00     0.012 A 
ATOM     70  C   UNL A   1      38.014  32.678  31.534  1.00  0.00     0.148 A 
ATOM     71  C   UNL A   1      37.663  30.774  33.572  1.00  0.00     0.002 A 
ATOM     72  C   UNL A   1      36.739  32.352  31.977  1.00  0.00     0.091 A 
ATOM     73  F   UNL A   1      38.214  33.554  30.539  1.00  0.00    -0.205 F 
ATOM     74  C   UNL A   1      36.560  31.391  32.986  1.00  0.00     0.022 A 
BRANCH  72  75
ATOM     75  S   UNL A   1      35.260  33.152  31.347  1.00  0.00     0.127 S 
ATOM     76  O   UNL A   1      34.208  32.450  32.080  1.00  0.00    -0.237 OA
ATOM     77  O   UNL A   1      35.464  34.542  31.756  1.00  0.00    -0.237 OA
ATOM     78  O   UNL A   1      35.267  32.935  29.907  1.00  0.00    -0.744 OA
ENDBRANCH  72  75
ENDBRANCH  54  68
BRANCH  55  79
ATOM     79  C   UNL A   1      48.215  34.572  28.795  1.00  0.00     0.023 A 
ATOM     80  C   UNL A   1      49.383  34.085  29.416  1.00  0.00     0.012 A 
ATOM     81  C   UNL A   1      48.338  35.449  27.699  1.00  0.00     0.148 A 
ATOM     82  C   UNL A   1      50.644  34.488  28.976  1.00  0.00     0.002 A 
ATOM     83  C   UNL A   1      49.599  35.807  27.233  1.00  0.00     0.091 A 
ATOM     84  F   UNL A   1      47.218  35.921  27.135  1.00  0.00    -0.205 F 
ATOM     85  C   UNL A   1      50.753  35.340  27.879  1.00  0.00     0.022 A 
BRANCH  83  86
ATOM     86  S   UNL A   1      49.830  36.823  25.768  1.00  0.00     0.127 S 
ATOM     87  O   UNL A   1      51.144  37.412  26.015  1.00  0.00    -0.237 OA
ATOM     88  O   UNL A   1      49.797  35.832  24.693  1.00  0.00    -0.237 OA
ATOM     89  O   UNL A   1      48.709  37.754  25.754  1.00  0.00    -0.744 OA
ENDBRANCH  83  86
ENDBRANCH  55  79
BRANCH  67  90
ATOM     90  C   UNL A   1      43.992  37.153  33.734  1.00  0.00     0.023 A 
ATOM     91  C   UNL A   1      44.533  36.963  35.021  1.00  0.00     0.012 A 
ATOM     92  C   UNL A   1      43.647  38.455  33.318  1.00  0.00     0.148 A 
ATOM     93  C   UNL A   1      44.694  38.043  35.890  1.00  0.00     0.002 A 
ATOM     94  C   UNL A   1      43.859  39.534  34.169  1.00  0.00     0.091 A 
ATOM     95  F   UNL A   1      43.121  38.617  32.094  1.00  0.00    -0.205 F 
ATOM     96  C   UNL A   1      44.369  39.327  35.460  1.00  0.00     0.022 A 
BRANCH  94  97
ATOM     97  S   UNL A   1      43.565  41.233  33.667  1.00  0.00     0.127 S 
ATOM     98  O   UNL A   1      44.380  41.332  32.457  1.00  0.00    -0.237 OA
ATOM     99  O   UNL A   1      42.121  41.241  33.431  1.00  0.00    -0.237 OA
ATOM    100  O   UNL A   1      44.001  42.064  34.781  1.00  0.00    -0.744 OA
ENDBRANCH  94  97
ENDBRANCH  67  90
ENDBRANCH  41  42
ENDBRANCH  34  36
ENDBRANCH  33  34
ENDBRANCH  32  33
ENDBRANCH  31  32
ENDBRANCH  30  31
ENDBRANCH  29  30
ENDBRANCH  28  29
ENDBRANCH  27  28
ENDBRANCH   1  27
TORSDOF 28
ENDMDL
MODEL 2
REMARK VINA RESULT:      -7.6      6.129     10.153
REMARK SMILES CC[C@H](NS(=O)(=O)c1cccc(C(F)(F)F)c1)C(=O)OCCOCCOCCOCCOC(=O)c1ccc(-c2c3nc(c(-c4cccc(S(=O)(=O)[O-])c4F)c4ccc([nH]4)c(-c4cccc(S(=O)(=O)[O-])c4F)c4nc(c(-c5cccc(S(=O)(=O)[O-])c5F)c5ccc2[nH]5)C=C4)C=C3)cc1
REMARK SMILES IDX 25 1 24 2 23 3 22 4 21 5 20 6 18 7 19 8 3 9 2 10 1 11 4 12
REMARK SMILES IDX 5 14 6 15 7 16 8 17 9 18 17 19 10 20 12 21 11 22 13 23 14 24
REMARK SMILES IDX 15 25 16 26 26 27 27 28 28 29 29 30 30 31 31 32 32 33 33 34
REMARK SMILES IDX 34 35 35 36 36 37 97 38 37 39 96 40 38 41 39 42 40 43 90 44
REMARK SMILES IDX 41 45 95 46 89 47 91 48 42 49 94 50 88 51 87 52 43 54 75 55
REMARK SMILES IDX 55 56 74 57 56 58 59 59 73 60 92 61 57 62 58 63 72 65 93 66
REMARK SMILES IDX 60 67 44 68 45 69 53 70 46 71 48 72 54 73 47 74 49 75 50 76
REMARK SMILES IDX 51 77 52 78 76 79 77 80 85 81 78 82 80 83 86 84 79 85 81 86
REMARK SMILES IDX 82 87 83 88 84 89 61 90 62 91 70 92 63 93 65 94 71 95 64 96
REMARK SMILES IDX 66 97 67 98 68 99 69 100
REMARK H PARENT 4 13 91 53 59 64
REMARK Flexibility Score: inf
ROOT
ATOM      1  C   UNL A   1      45.143  23.975  36.463  1.00  0.00     0.188 C 
ENDROOT
BRANCH   1   2
ATOM      2  C   UNL A   1      44.913  24.971  35.306  1.00  0.00     0.188 C 
BRANCH   2   3
ATOM      3  O   UNL A   1      43.596  25.253  34.895  1.00  0.00    -0.376 OA
BRANCH   3   4
ATOM      4  C   UNL A   1      43.030  26.539  34.761  1.00  0.00     0.202 C 
BRANCH   4   5
ATOM      5  C   UNL A   1      41.547  26.901  34.910  1.00  0.00     0.261 C 
BRANCH   5   6
ATOM      6  O   UNL A   1      41.174  27.684  36.040  1.00  0.00    -0.462 OA
BRANCH   6   7
ATOM      7  C   UNL A   1      41.491  28.992  35.975  1.00  0.00     0.324 C 
ATOM      8  O   UNL A   1      42.284  29.541  36.739  1.00  0.00    -0.250 OA
BRANCH   7   9
ATOM      9  C   UNL A   1      40.836  29.753  34.842  1.00  0.00     0.179 C 
BRANCH   9  10
ATOM     10  C   UNL A   1      41.918  30.406  33.961  1.00  0.00     0.028 C 
ATOM     11  C   UNL A   1      42.164  29.698  32.637  1.00  0.00     0.006 C 
ENDBRANCH   9  10
BRANCH   9  12
ATOM     12  N   UNL A   1      39.627  30.592  34.862  1.00  0.00    -0.197 NA
ATOM     13  H   UNL A   1      39.910  31.409  35.403  1.00  0.00     0.142 HD
BRANCH  12  14
ATOM     14  S   UNL A   1      38.705  31.232  33.630  1.00  0.00     0.241 S 
ATOM     15  O   UNL A   1      37.411  31.455  34.218  1.00  0.00    -0.207 OA
ATOM     16  O   UNL A   1      39.425  32.295  32.958  1.00  0.00    -0.207 OA
BRANCH  14  17
ATOM     17  C   UNL A   1      38.564  29.883  32.508  1.00  0.00     0.083 A 
ATOM     18  C   UNL A   1      38.314  28.601  32.999  1.00  0.00     0.022 A 
ATOM     19  C   UNL A   1      38.798  30.109  31.151  1.00  0.00     0.034 A 
ATOM     20  C   UNL A   1      38.360  27.523  32.120  1.00  0.00     0.002 A 
ATOM     21  C   UNL A   1      38.927  29.023  30.281  1.00  0.00     0.057 A 
ATOM     22  C   UNL A   1      38.681  27.730  30.772  1.00  0.00     0.013 A 
BRANCH  21  23
ATOM     23  C   UNL A   1      39.468  29.242  28.887  1.00  0.00     0.416 C 
ATOM     24  F   UNL A   1      38.461  29.474  27.992  1.00  0.00    -0.166 F 
ATOM     25  F   UNL A   1      40.342  30.260  28.767  1.00  0.00    -0.166 F 
ATOM     26  F   UNL A   1      40.107  28.134  28.400  1.00  0.00    -0.166 F 
ENDBRANCH  21  23
ENDBRANCH  14  17
ENDBRANCH  12  14
ENDBRANCH   9  12
ENDBRANCH   7   9
ENDBRANCH   6   7
ENDBRANCH   5   6
ENDBRANCH   4   5
ENDBRANCH   3   4
ENDBRANCH   2   3
ENDBRANCH   1   2
BRANCH   1  27
ATOM     27  O   UNL A   1      46.233  23.081  36.555  1.00  0.00    -0.377 OA
BRANCH  27  28
ATOM     28  C   UNL A   1      45.963  21.689  36.542  1.00  0.00     0.188 C 
BRANCH  28  29
ATOM     29  C   UNL A   1      45.917  21.164  35.102  1.00  0.00     0.188 C 
BRANCH  29  30
ATOM     30  O   UNL A   1      47.176  21.305  34.449  1.00  0.00    -0.376 OA
BRANCH  30  31
ATOM     31  C   UNL A   1      48.036  20.169  34.436  1.00  0.00     0.202 C 
BRANCH  31  32
ATOM     32  C   UNL A   1      49.556  20.265  34.158  1.00  0.00     0.261 C 
BRANCH  32  33
ATOM     33  O   UNL A   1      50.024  21.234  33.206  1.00  0.00    -0.460 OA
BRANCH  33  34
ATOM     34  C   UNL A   1      50.877  22.192  33.616  1.00  0.00     0.338 C 
ATOM     35  O   UNL A   1      52.044  22.048  33.936  1.00  0.00    -0.246 OA
BRANCH  34  36
ATOM     36  C   UNL A   1      50.204  23.502  33.436  1.00  0.00     0.060 A 
ATOM     37  C   UNL A   1      49.082  23.804  34.219  1.00  0.00     0.016 A 
ATOM     38  C   UNL A   1      50.672  24.425  32.497  1.00  0.00     0.016 A 
ATOM     39  C   UNL A   1      48.394  25.005  34.028  1.00  0.00     0.010 A 
ATOM     40  C   UNL A   1      49.970  25.618  32.292  1.00  0.00     0.010 A 
ATOM     41  C   UNL A   1      48.803  25.895  33.027  1.00  0.00    -0.014 A 
BRANCH  41  42
ATOM     42  C   UNL A   1      47.898  26.996  32.606  1.00  0.00     0.031 A 
ATOM     43  C   UNL A   1      47.153  26.846  31.304  1.00  0.00     0.074 A 
ATOM     44  C   UNL A   1      47.727  28.101  33.354  1.00  0.00     0.049 A 
ATOM     45  N   UNL A   1      46.329  27.673  30.717  1.00  0.00    -0.248 NA
ATOM     46  C   UNL A   1      47.372  25.590  30.565  1.00  0.00     0.031 C 
ATOM     47  C   UNL A   1      48.375  28.362  34.638  1.00  0.00     0.029 A 
ATOM     48  N   UNL A   1      46.969  29.224  33.123  1.00  0.00    -0.354 N 
ATOM     49  C   UNL A   1      45.958  27.057  29.528  1.00  0.00     0.074 A 
ATOM     50  C   UNL A   1      46.651  25.789  29.472  1.00  0.00     0.031 C 
ATOM     51  C   UNL A   1      48.007  29.583  35.069  1.00  0.00     0.029 A 
ATOM     52  C   UNL A   1      47.122  30.199  34.081  1.00  0.00     0.049 A 
ATOM     53  H   UNL A   1      46.373  29.320  32.346  1.00  0.00     0.167 HD
ATOM     54  C   UNL A   1      45.109  27.499  28.570  1.00  0.00     0.034 A 
ATOM     55  C   UNL A   1      46.623  31.450  34.141  1.00  0.00     0.034 A 
ATOM     56  C   UNL A   1      44.409  28.753  28.630  1.00  0.00     0.049 A 
ATOM     57  C   UNL A   1      45.704  31.933  33.043  1.00  0.00     0.074 A 
ATOM     58  C   UNL A   1      43.488  29.266  27.734  1.00  0.00     0.029 A 
ATOM     59  N   UNL A   1      44.566  29.700  29.630  1.00  0.00    -0.354 N 
ATOM     60  N   UNL A   1      45.268  31.292  31.985  1.00  0.00    -0.248 NA
ATOM     61  C   UNL A   1      45.183  33.303  33.165  1.00  0.00     0.031 C 
ATOM     62  C   UNL A   1      43.120  30.543  28.170  1.00  0.00     0.029 A 
ATOM     63  C   UNL A   1      43.776  30.804  29.363  1.00  0.00     0.049 A 
ATOM     64  H   UNL A   1      45.153  29.601  30.414  1.00  0.00     0.167 HD
ATOM     65  C   UNL A   1      44.393  32.162  31.341  1.00  0.00     0.074 A 
ATOM     66  C   UNL A   1      44.348  33.371  32.137  1.00  0.00     0.031 C 
ATOM     67  C   UNL A   1      43.697  31.981  30.190  1.00  0.00     0.034 A 
BRANCH  54  68
ATOM     68  C   UNL A   1      44.887  26.616  27.370  1.00  0.00     0.023 A 
ATOM     69  C   UNL A   1      45.665  26.797  26.208  1.00  0.00     0.012 A 
ATOM     70  C   UNL A   1      43.942  25.571  27.413  1.00  0.00     0.148 A 
ATOM     71  C   UNL A   1      45.482  25.975  25.097  1.00  0.00     0.002 A 
ATOM     72  C   UNL A   1      43.799  24.727  26.320  1.00  0.00     0.091 A 
ATOM     73  F   UNL A   1      43.196  25.430  28.518  1.00  0.00    -0.205 F 
ATOM     74  C   UNL A   1      44.559  24.935  25.156  1.00  0.00     0.022 A 
BRANCH  72  75
ATOM     75  S   UNL A   1      42.698  23.309  26.329  1.00  0.00     0.127 S 
ATOM     76  O   UNL A   1      43.232  22.527  27.443  1.00  0.00    -0.237 OA
ATOM     77  O   UNL A   1      41.399  23.929  26.587  1.00  0.00    -0.237 OA
ATOM     78  O   UNL A   1      42.827  22.690  25.017  1.00  0.00    -0.744 OA
ENDBRANCH  72  75
ENDBRANCH  54  68
BRANCH  55  79
ATOM     79  C   UNL A   1      46.955  32.337  35.294  1.00  0.00     0.023 A 
ATOM     80  C   UNL A   1      46.125  32.336  36.433  1.00  0.00     0.012 A 
ATOM     81  C   UNL A   1      48.080  33.185  35.268  1.00  0.00     0.148 A 
ATOM     82  C   UNL A   1      46.391  33.183  37.509  1.00  0.00     0.002 A 
ATOM     83  C   UNL A   1      48.369  33.991  36.365  1.00  0.00     0.091 A 
ATOM     84  F   UNL A   1      48.845  33.192  34.167  1.00  0.00    -0.205 F 
ATOM     85  C   UNL A   1      47.518  34.002  37.480  1.00  0.00     0.022 A 
BRANCH  83  86
ATOM     86  S   UNL A   1      49.851  35.005  36.449  1.00  0.00     0.127 S 
ATOM     87  O   UNL A   1      49.914  35.326  37.872  1.00  0.00    -0.237 OA
ATOM     88  O   UNL A   1      50.886  34.083  35.985  1.00  0.00    -0.237 OA
ATOM     89  O   UNL A   1      49.609  36.129  35.554  1.00  0.00    -0.744 OA
ENDBRANCH  83  86
ENDBRANCH  55  79
BRANCH  67  90
ATOM     90  C   UNL A   1      42.783  33.091  29.734  1.00  0.00     0.023 A 
ATOM     91  C   UNL A   1      41.470  33.180  30.240  1.00  0.00     0.012 A 
ATOM     92  C   UNL A   1      43.255  34.096  28.865  1.00  0.00     0.148 A 
ATOM     93  C   UNL A   1      40.633  34.229  29.861  1.00  0.00     0.002 A 
ATOM     94  C   UNL A   1      42.434  35.167  28.534  1.00  0.00     0.091 A 
ATOM     95  F   UNL A   1      44.502  33.990  28.383  1.00  0.00    -0.205 F 
ATOM     96  C   UNL A   1      41.117  35.228  29.019  1.00  0.00     0.022 A 
BRANCH  94  97
ATOM     97  S   UNL A   1      43.003  36.550  27.539  1.00  0.00     0.127 S 
ATOM     98  O   UNL A   1      44.294  36.850  28.157  1.00  0.00    -0.237 OA
ATOM     99  O   UNL A   1      43.090  35.956  26.204  1.00  0.00    -0.237 OA
ATOM    100  O   UNL A   1      41.991  37.589  27.675  1.00  0.00    -0.744 OA
ENDBRANCH  94  97
ENDBRANCH  67  90
ENDBRANCH  41  42
ENDBRANCH  34  36
ENDBRANCH  33  34
ENDBRANCH  32  33
ENDBRANCH  31  32
ENDBRANCH  30  31
ENDBRANCH  29  30
ENDBRANCH  28  29
ENDBRANCH  27  28
ENDBRANCH   1  27
TORSDOF 28
ENDMDL
MODEL 3
REMARK VINA RESULT:      -7.4      9.383     14.294
REMARK SMILES CC[C@H](NS(=O)(=O)c1cccc(C(F)(F)F)c1)C(=O)OCCOCCOCCOCCOC(=O)c1ccc(-c2c3nc(c(-c4cccc(S(=O)(=O)[O-])c4F)c4ccc([nH]4)c(-c4cccc(S(=O)(=O)[O-])c4F)c4nc(c(-c5cccc(S(=O)(=O)[O-])c5F)c5ccc2[nH]5)C=C4)C=C3)cc1
REMARK SMILES IDX 25 1 24 2 23 3 22 4 21 5 20 6 18 7 19 8 3 9 2 10 1 11 4 12
REMARK SMILES IDX 5 14 6 15 7 16 8 17 9 18 17 19 10 20 12 21 11 22 13 23 14 24
REMARK SMILES IDX 15 25 16 26 26 27 27 28 28 29 29 30 30 31 31 32 32 33 33 34
REMARK SMILES IDX 34 35 35 36 36 37 97 38 37 39 96 40 38 41 39 42 40 43 90 44
REMARK SMILES IDX 41 45 95 46 89 47 91 48 42 49 94 50 88 51 87 52 43 54 75 55
REMARK SMILES IDX 55 56 74 57 56 58 59 59 73 60 92 61 57 62 58 63 72 65 93 66
REMARK SMILES IDX 60 67 44 68 45 69 53 70 46 71 48 72 54 73 47 74 49 75 50 76
REMARK SMILES IDX 51 77 52 78 76 79 77 80 85 81 78 82 80 83 86 84 79 85 81 86
REMARK SMILES IDX 82 87 83 88 84 89 61 90 62 91 70 92 63 93 65 94 71 95 64 96
REMARK SMILES IDX 66 97 67 98 68 99 69 100
REMARK H PARENT 4 13 91 53 59 64
REMARK Flexibility Score: inf
ROOT
ATOM      1  C   UNL A   1      48.442  22.118  36.777  1.00  0.00     0.188 C 
ENDROOT
BRANCH   1   2
ATOM      2  C   UNL A   1      48.019  20.648  36.991  1.00  0.00     0.188 C 
BRANCH   2   3
ATOM      3  O   UNL A   1      46.745  20.232  36.559  1.00  0.00    -0.376 OA
BRANCH   3   4
ATOM      4  C   UNL A   1      46.034  19.112  37.040  1.00  0.00     0.202 C 
BRANCH   4   5
ATOM      5  C   UNL A   1      46.082  18.545  38.464  1.00  0.00     0.261 C 
BRANCH   5   6
ATOM      6  O   UNL A   1      45.688  19.408  39.527  1.00  0.00    -0.462 OA
BRANCH   6   7
ATOM      7  C   UNL A   1      46.637  19.672  40.447  1.00  0.00     0.324 C 
ATOM      8  O   UNL A   1      47.367  20.661  40.408  1.00  0.00    -0.250 OA
BRANCH   7   9
ATOM      9  C   UNL A   1      46.716  18.679  41.587  1.00  0.00     0.179 C 
BRANCH   9  10
ATOM     10  C   UNL A   1      48.166  18.183  41.742  1.00  0.00     0.028 C 
ATOM     11  C   UNL A   1      48.967  18.164  40.449  1.00  0.00     0.006 C 
ENDBRANCH   9  10
BRANCH   9  12
ATOM     12  N   UNL A   1      45.774  17.611  41.956  1.00  0.00    -0.197 NA
ATOM     13  H   UNL A   1      46.240  17.134  42.727  1.00  0.00     0.142 HD
BRANCH  12  14
ATOM     14  S   UNL A   1      44.176  17.661  42.430  1.00  0.00     0.241 S 
ATOM     15  O   UNL A   1      44.203  17.384  43.841  1.00  0.00    -0.207 OA
ATOM     16  O   UNL A   1      43.528  18.844  41.902  1.00  0.00    -0.207 OA
BRANCH  14  17
ATOM     17  C   UNL A   1      43.486  16.261  41.617  1.00  0.00     0.083 A 
ATOM     18  C   UNL A   1      43.322  16.279  40.230  1.00  0.00     0.022 A 
ATOM     19  C   UNL A   1      43.028  15.192  42.388  1.00  0.00     0.034 A 
ATOM     20  C   UNL A   1      42.635  15.234  39.620  1.00  0.00     0.002 A 
ATOM     21  C   UNL A   1      42.266  14.183  41.791  1.00  0.00     0.057 A 
ATOM     22  C   UNL A   1      42.095  14.201  40.397  1.00  0.00     0.013 A 
BRANCH  21  23
ATOM     23  C   UNL A   1      41.525  13.193  42.659  1.00  0.00     0.416 C 
ATOM     24  F   UNL A   1      42.365  12.231  43.147  1.00  0.00    -0.166 F 
ATOM     25  F   UNL A   1      40.885  13.728  43.716  1.00  0.00    -0.166 F 
ATOM     26  F   UNL A   1      40.581  12.494  41.957  1.00  0.00    -0.166 F 
ENDBRANCH  21  23
ENDBRANCH  14  17
ENDBRANCH  12  14
ENDBRANCH   9  12
ENDBRANCH   7   9
ENDBRANCH   6   7
ENDBRANCH   5   6
ENDBRANCH   4   5
ENDBRANCH   3   4
ENDBRANCH   2   3
ENDBRANCH   1   2
BRANCH   1  27
ATOM     27  O   UNL A   1      48.772  23.022  37.811  1.00  0.00    -0.377 OA
BRANCH  27  28
ATOM     28  C   UNL A   1      47.715  23.635  38.531  1.00  0.00     0.188 C 
BRANCH  28  29
ATOM     29  C   UNL A   1      46.605  24.089  37.575  1.00  0.00     0.188 C 
BRANCH  29  30
ATOM     30  O   UNL A   1      46.974  25.265  36.860  1.00  0.00    -0.376 OA
BRANCH  30  31
ATOM     31  C   UNL A   1      46.767  25.265  35.450  1.00  0.00     0.202 C 
BRANCH  31  32
ATOM     32  C   UNL A   1      46.892  23.990  34.580  1.00  0.00     0.261 C 
BRANCH  32  33
ATOM     33  O   UNL A   1      45.945  23.782  33.519  1.00  0.00    -0.460 OA
BRANCH  33  34
ATOM     34  C   UNL A   1      44.629  23.855  33.796  1.00  0.00     0.338 C 
ATOM     35  O   UNL A   1      43.990  23.114  34.521  1.00  0.00    -0.246 OA
BRANCH  34  36
ATOM     36  C   UNL A   1      44.114  25.116  33.207  1.00  0.00     0.060 A 
ATOM     37  C   UNL A   1      44.184  25.297  31.819  1.00  0.00     0.016 A 
ATOM     38  C   UNL A   1      43.572  26.116  34.018  1.00  0.00     0.016 A 
ATOM     39  C   UNL A   1      43.762  26.499  31.245  1.00  0.00     0.010 A 
ATOM     40  C   UNL A   1      43.168  27.327  33.444  1.00  0.00     0.010 A 
ATOM     41  C   UNL A   1      43.300  27.540  32.060  1.00  0.00    -0.014 A 
BRANCH  41  42
ATOM     42  C   UNL A   1      43.164  28.909  31.498  1.00  0.00     0.031 A 
ATOM     43  C   UNL A   1      44.421  29.662  31.146  1.00  0.00     0.074 A 
ATOM     44  C   UNL A   1      41.961  29.476  31.294  1.00  0.00     0.049 A 
ATOM     45  N   UNL A   1      44.560  30.870  30.666  1.00  0.00    -0.248 NA
ATOM     46  C   UNL A   1      45.693  28.954  31.369  1.00  0.00     0.031 C 
ATOM     47  C   UNL A   1      40.671  28.851  31.577  1.00  0.00     0.029 A 
ATOM     48  N   UNL A   1      41.634  30.724  30.820  1.00  0.00    -0.354 N 
ATOM     49  C   UNL A   1      45.930  31.079  30.562  1.00  0.00     0.074 A 
ATOM     50  C   UNL A   1      46.581  29.877  31.035  1.00  0.00     0.031 C 
ATOM     51  C   UNL A   1      39.691  29.730  31.296  1.00  0.00     0.029 A 
ATOM     52  C   UNL A   1      40.284  30.986  30.841  1.00  0.00     0.049 A 
ATOM     53  H   UNL A   1      42.304  31.369  30.495  1.00  0.00     0.167 HD
ATOM     54  C   UNL A   1      46.591  32.169  30.105  1.00  0.00     0.034 A 
ATOM     55  C   UNL A   1      39.610  32.117  30.548  1.00  0.00     0.034 A 
ATOM     56  C   UNL A   1      45.945  33.359  29.622  1.00  0.00     0.049 A 
ATOM     57  C   UNL A   1      40.373  33.331  30.071  1.00  0.00     0.074 A 
ATOM     58  C   UNL A   1      46.528  34.496  29.090  1.00  0.00     0.029 A 
ATOM     59  N   UNL A   1      44.577  33.576  29.630  1.00  0.00    -0.354 N 
ATOM     60  N   UNL A   1      41.660  33.472  29.864  1.00  0.00    -0.248 NA
ATOM     61  C   UNL A   1      39.584  34.533  29.757  1.00  0.00     0.031 C 
ATOM     62  C   UNL A   1      45.512  35.418  28.816  1.00  0.00     0.029 A 
ATOM     63  C   UNL A   1      44.295  34.837  29.133  1.00  0.00     0.049 A 
ATOM     64  H   UNL A   1      43.905  32.929  29.943  1.00  0.00     0.167 HD
ATOM     65  C   UNL A   1      41.830  34.758  29.359  1.00  0.00     0.074 A 
ATOM     66  C   UNL A   1      40.510  35.349  29.275  1.00  0.00     0.031 C 
ATOM     67  C   UNL A   1      42.974  35.396  29.005  1.00  0.00     0.034 A 
BRANCH  54  68
ATOM     68  C   UNL A   1      48.097  32.124  30.103  1.00  0.00     0.023 A 
ATOM     69  C   UNL A   1      48.814  32.498  31.257  1.00  0.00     0.012 A 
ATOM     70  C   UNL A   1      48.800  31.661  28.973  1.00  0.00     0.148 A 
ATOM     71  C   UNL A   1      50.208  32.445  31.276  1.00  0.00     0.002 A 
ATOM     72  C   UNL A   1      50.184  31.565  29.014  1.00  0.00     0.091 A 
ATOM     73  F   UNL A   1      48.100  31.331  27.877  1.00  0.00    -0.205 F 
ATOM     74  C   UNL A   1      50.891  31.968  30.160  1.00  0.00     0.022 A 
BRANCH  72  75
ATOM     75  S   UNL A   1      51.149  30.885  27.661  1.00  0.00     0.127 S 
ATOM     76  O   UNL A   1      51.315  32.056  26.800  1.00  0.00    -0.237 OA
ATOM     77  O   UNL A   1      52.370  30.452  28.341  1.00  0.00    -0.237 OA
ATOM     78  O   UNL A   1      50.350  29.806  27.098  1.00  0.00    -0.744 OA
ENDBRANCH  72  75
ENDBRANCH  54  68
BRANCH  55  79
ATOM     79  C   UNL A   1      38.123  32.156  30.667  1.00  0.00     0.023 A 
ATOM     80  C   UNL A   1      37.328  31.586  29.652  1.00  0.00     0.012 A 
ATOM     81  C   UNL A   1      37.491  32.760  31.773  1.00  0.00     0.148 A 
ATOM     82  C   UNL A   1      35.936  31.644  29.721  1.00  0.00     0.002 A 
ATOM     83  C   UNL A   1      36.103  32.770  31.861  1.00  0.00     0.091 A 
ATOM     84  F   UNL A   1      38.261  33.319  32.717  1.00  0.00    -0.205 F 
ATOM     85  C   UNL A   1      35.323  32.226  30.829  1.00  0.00     0.022 A 
BRANCH  83  86
ATOM     86  S   UNL A   1      35.235  33.414  33.298  1.00  0.00     0.127 S 
ATOM     87  O   UNL A   1      35.894  32.702  34.390  1.00  0.00    -0.237 OA
ATOM     88  O   UNL A   1      35.539  34.843  33.230  1.00  0.00    -0.237 OA
ATOM     89  O   UNL A   1      33.830  33.093  33.085  1.00  0.00    -0.744 OA
ENDBRANCH  83  86
ENDBRANCH  55  79
BRANCH  67  90
ATOM     90  C   UNL A   1      42.862  36.792  28.445  1.00  0.00     0.023 A 
ATOM     91  C   UNL A   1      42.325  36.999  27.159  1.00  0.00     0.012 A 
ATOM     92  C   UNL A   1      43.214  37.909  29.231  1.00  0.00     0.148 A 
ATOM     93  C   UNL A   1      42.173  38.290  26.652  1.00  0.00     0.002 A 
ATOM     94  C   UNL A   1      43.012  39.194  28.741  1.00  0.00     0.091 A 
ATOM     95  F   UNL A   1      43.737  37.694  30.448  1.00  0.00    -0.205 F 
ATOM     96  C   UNL A   1      42.504  39.385  27.446  1.00  0.00     0.022 A 
BRANCH  94  97
ATOM     97  S   UNL A   1      43.314  40.663  29.728  1.00  0.00     0.127 S 
ATOM     98  O   UNL A   1      42.307  41.585  29.206  1.00  0.00    -0.237 OA
ATOM     99  O   UNL A   1      43.055  40.183  31.086  1.00  0.00    -0.237 OA
ATOM    100  O   UNL A   1      44.697  41.042  29.473  1.00  0.00    -0.744 OA
ENDBRANCH  94  97
ENDBRANCH  67  90
ENDBRANCH  41  42
ENDBRANCH  34  36
ENDBRANCH  33  34
ENDBRANCH  32  33
ENDBRANCH  31  32
ENDBRANCH  30  31
ENDBRANCH  29  30
ENDBRANCH  28  29
ENDBRANCH  27  28
ENDBRANCH   1  27
TORSDOF 28
ENDMDL
