MODEL 1
REMARK VINA RESULT:      -9.2      0.000      0.000
REMARK SMILES O=C(OCCOCCOCCOCCOC(=O)[C@H]1C[NH2+]CCN1c1ncc(C(F)(F)F)cc1Cl)c1ccc(-c2c3nc(c(-c4cccc(S(=O)(=O)[O-])c4F)c4ccc([nH]4)c(-c4cccc(S(=O)(=O)[O-])c4F)c4nc(c(-c5cccc(S(=O)(=O)[O-])c5F)c5ccc2[nH]5)C=C4)C=C3)cc1
REMARK SMILES IDX 8 1 7 2 6 3 5 4 4 5 3 6 2 7 1 8 35 9 36 10 97 11 37 12 96 13
REMARK SMILES IDX 38 14 39 15 40 16 90 17 41 18 95 19 89 20 91 21 42 22 94 23
REMARK SMILES IDX 88 24 87 25 43 27 75 28 55 29 74 30 56 31 59 32 73 33 92 34
REMARK SMILES IDX 57 35 58 36 72 38 93 39 60 40 44 41 45 42 53 43 46 44 48 45
REMARK SMILES IDX 54 46 47 47 49 48 50 49 51 50 52 51 76 52 77 53 85 54 78 55
REMARK SMILES IDX 80 56 86 57 79 58 81 59 82 60 83 61 84 62 61 63 62 64 70 65
REMARK SMILES IDX 63 66 65 67 71 68 64 69 66 70 67 71 68 72 69 73 9 74 10 75
REMARK SMILES IDX 11 76 12 77 13 78 14 79 15 80 16 81 17 82 18 83 19 84 23 85
REMARK SMILES IDX 20 86 22 87 21 88 24 91 25 92 33 93 26 94 32 95 34 96 27 97
REMARK SMILES IDX 28 98 29 99 30 100 31 101
REMARK H PARENT 91 26 59 37 20 89 20 90
REMARK Flexibility Score: inf
ROOT
ATOM      1  C   UNL A   1      34.454  26.132  23.503  1.00  0.00     0.188 C 
ENDROOT
BRANCH   1   2
ATOM      2  C   UNL A   1      33.653  27.399  23.298  1.00  0.00     0.188 C 
BRANCH   2   3
ATOM      3  O   UNL A   1      34.331  28.445  23.954  1.00  0.00    -0.376 OA
BRANCH   3   4
ATOM      4  C   UNL A   1      34.042  28.767  25.297  1.00  0.00     0.202 C 
BRANCH   4   5
ATOM      5  C   UNL A   1      33.195  29.998  25.543  1.00  0.00     0.261 C 
BRANCH   5   6
ATOM      6  O   UNL A   1      33.128  30.507  26.887  1.00  0.00    -0.460 OA
BRANCH   6   7
ATOM      7  C   UNL A   1      33.917  31.278  27.662  1.00  0.00     0.338 C 
ATOM      8  O   UNL A   1      33.524  32.416  27.922  1.00  0.00    -0.246 OA
BRANCH   7   9
ATOM      9  C   UNL A   1      35.214  30.859  28.253  1.00  0.00     0.060 A 
ATOM     10  C   UNL A   1      35.449  29.673  28.943  1.00  0.00     0.016 A 
ATOM     11  C   UNL A   1      36.321  31.663  27.950  1.00  0.00     0.016 A 
ATOM     12  C   UNL A   1      36.693  29.323  29.421  1.00  0.00     0.010 A 
ATOM     13  C   UNL A   1      37.595  31.310  28.390  1.00  0.00     0.010 A 
ATOM     14  C   UNL A   1      37.761  30.155  29.165  1.00  0.00    -0.014 A 
BRANCH  14  15
ATOM     15  C   UNL A   1      38.977  29.913  29.934  1.00  0.00     0.031 A 
ATOM     16  C   UNL A   1      39.954  28.961  29.335  1.00  0.00     0.074 A 
ATOM     17  C   UNL A   1      39.225  30.617  31.048  1.00  0.00     0.049 A 
ATOM     18  N   UNL A   1      40.990  28.394  29.874  1.00  0.00    -0.248 NA
ATOM     19  C   UNL A   1      39.721  28.588  27.924  1.00  0.00     0.031 C 
ATOM     20  C   UNL A   1      38.387  31.700  31.570  1.00  0.00     0.029 A 
ATOM     21  N   UNL A   1      40.247  30.513  31.947  1.00  0.00    -0.354 N 
ATOM     22  C   UNL A   1      41.466  27.517  28.911  1.00  0.00     0.074 A 
ATOM     23  C   UNL A   1      40.641  27.660  27.736  1.00  0.00     0.031 C 
ATOM     24  C   UNL A   1      38.907  32.131  32.729  1.00  0.00     0.029 A 
ATOM     25  C   UNL A   1      40.046  31.286  33.065  1.00  0.00     0.049 A 
ATOM     26  H   UNL A   1      41.041  29.948  31.809  1.00  0.00     0.167 HD
ATOM     27  C   UNL A   1      42.487  26.644  29.037  1.00  0.00     0.034 A 
ATOM     28  C   UNL A   1      40.665  31.231  34.256  1.00  0.00     0.034 A 
ATOM     29  C   UNL A   1      43.262  26.561  30.240  1.00  0.00     0.049 A 
ATOM     30  C   UNL A   1      41.761  30.213  34.407  1.00  0.00     0.074 A 
ATOM     31  C   UNL A   1      44.306  25.715  30.544  1.00  0.00     0.029 A 
ATOM     32  N   UNL A   1      43.051  27.369  31.354  1.00  0.00    -0.354 N 
ATOM     33  N   UNL A   1      42.201  29.346  33.523  1.00  0.00    -0.248 NA
ATOM     34  C   UNL A   1      42.453  30.163  35.698  1.00  0.00     0.031 C 
ATOM     35  C   UNL A   1      44.697  25.983  31.861  1.00  0.00     0.029 A 
ATOM     36  C   UNL A   1      43.936  27.036  32.356  1.00  0.00     0.049 A 
ATOM     37  H   UNL A   1      42.368  28.075  31.416  1.00  0.00     0.167 HD
ATOM     38  C   UNL A   1      43.246  28.669  34.133  1.00  0.00     0.074 A 
ATOM     39  C   UNL A   1      43.370  29.231  35.467  1.00  0.00     0.031 C 
ATOM     40  C   UNL A   1      44.033  27.678  33.646  1.00  0.00     0.034 A 
BRANCH  27  41
ATOM     41  C   UNL A   1      42.710  25.687  27.900  1.00  0.00     0.023 A 
ATOM     42  C   UNL A   1      41.769  24.677  27.608  1.00  0.00     0.012 A 
ATOM     43  C   UNL A   1      43.911  25.740  27.167  1.00  0.00     0.148 A 
ATOM     44  C   UNL A   1      42.049  23.701  26.650  1.00  0.00     0.002 A 
ATOM     45  C   UNL A   1      44.160  24.798  26.178  1.00  0.00     0.091 A 
ATOM     46  F   UNL A   1      44.813  26.681  27.484  1.00  0.00    -0.205 F 
ATOM     47  C   UNL A   1      43.241  23.765  25.933  1.00  0.00     0.022 A 
BRANCH  45  48
ATOM     48  S   UNL A   1      45.634  24.836  25.155  1.00  0.00     0.127 S 
ATOM     49  O   UNL A   1      45.643  26.221  24.696  1.00  0.00    -0.237 OA
ATOM     50  O   UNL A   1      46.680  24.500  26.116  1.00  0.00    -0.237 OA
ATOM     51  O   UNL A   1      45.423  23.831  24.113  1.00  0.00    -0.744 OA
ENDBRANCH  45  48
ENDBRANCH  27  41
BRANCH  28  52
ATOM     52  C   UNL A   1      40.217  32.120  35.363  1.00  0.00     0.023 A 
ATOM     53  C   UNL A   1      40.650  33.457  35.406  1.00  0.00     0.012 A 
ATOM     54  C   UNL A   1      39.286  31.668  36.323  1.00  0.00     0.148 A 
ATOM     55  C   UNL A   1      40.173  34.325  36.391  1.00  0.00     0.002 A 
ATOM     56  C   UNL A   1      38.774  32.550  37.266  1.00  0.00     0.091 A 
ATOM     57  F   UNL A   1      38.889  30.389  36.268  1.00  0.00    -0.205 F 
ATOM     58  C   UNL A   1      39.228  33.877  37.312  1.00  0.00     0.022 A 
BRANCH  56  59
ATOM     59  S   UNL A   1      37.458  32.105  38.406  1.00  0.00     0.127 S 
ATOM     60  O   UNL A   1      36.448  33.111  38.109  1.00  0.00    -0.237 OA
ATOM     61  O   UNL A   1      37.130  30.749  37.970  1.00  0.00    -0.237 OA
ATOM     62  O   UNL A   1      38.049  32.181  39.742  1.00  0.00    -0.744 OA
ENDBRANCH  56  59
ENDBRANCH  28  52
BRANCH  40  63
ATOM     63  C   UNL A   1      45.146  27.191  34.526  1.00  0.00     0.023 A 
ATOM     64  C   UNL A   1      46.365  27.891  34.578  1.00  0.00     0.012 A 
ATOM     65  C   UNL A   1      44.905  26.125  35.413  1.00  0.00     0.148 A 
ATOM     66  C   UNL A   1      47.337  27.528  35.506  1.00  0.00     0.002 A 
ATOM     67  C   UNL A   1      45.851  25.810  36.373  1.00  0.00     0.091 A 
ATOM     68  F   UNL A   1      43.738  25.470  35.320  1.00  0.00    -0.205 F 
ATOM     69  C   UNL A   1      47.073  26.503  36.415  1.00  0.00     0.022 A 
BRANCH  67  70
ATOM     70  S   UNL A   1      45.543  24.598  37.659  1.00  0.00     0.127 S 
ATOM     71  O   UNL A   1      46.852  24.509  38.303  1.00  0.00    -0.237 OA
ATOM     72  O   UNL A   1      44.509  25.254  38.457  1.00  0.00    -0.237 OA
ATOM     73  O   UNL A   1      45.106  23.385  36.977  1.00  0.00    -0.744 OA
ENDBRANCH  67  70
ENDBRANCH  40  63
ENDBRANCH  14  15
ENDBRANCH   7   9
ENDBRANCH   6   7
ENDBRANCH   5   6
ENDBRANCH   4   5
ENDBRANCH   3   4
ENDBRANCH   2   3
ENDBRANCH   1   2
BRANCH   1  74
ATOM     74  O   UNL A   1      34.414  25.619  24.827  1.00  0.00    -0.377 OA
BRANCH  74  75
ATOM     75  C   UNL A   1      35.094  24.426  25.192  1.00  0.00     0.188 C 
BRANCH  75  76
ATOM     76  C   UNL A   1      34.262  23.187  25.524  1.00  0.00     0.188 C 
BRANCH  76  77
ATOM     77  O   UNL A   1      34.261  22.210  24.510  1.00  0.00    -0.376 OA
BRANCH  77  78
ATOM     78  C   UNL A   1      34.062  22.614  23.159  1.00  0.00     0.202 C 
BRANCH  78  79
ATOM     79  C   UNL A   1      32.740  23.212  22.611  1.00  0.00     0.261 C 
BRANCH  79  80
ATOM     80  O   UNL A   1      31.751  23.675  23.564  1.00  0.00    -0.462 OA
BRANCH  80  81
ATOM     81  C   UNL A   1      31.061  24.803  23.222  1.00  0.00     0.334 C 
ATOM     82  O   UNL A   1      31.276  25.427  22.181  1.00  0.00    -0.250 OA
BRANCH  81  83
ATOM     83  C   UNL A   1      29.944  25.270  24.222  1.00  0.00     0.249 C 
ATOM     84  C   UNL A   1      29.631  24.540  25.550  1.00  0.00     0.298 C 
ATOM     85  N   UNL A   1      30.208  26.660  24.638  1.00  0.00    -0.331 N 
ATOM     86  N   UNL A   1      30.778  24.475  26.474  1.00  0.00    -0.343 N 
ATOM     87  C   UNL A   1      31.389  26.801  25.488  1.00  0.00     0.180 C 
ATOM     88  C   UNL A   1      31.244  25.858  26.730  1.00  0.00     0.282 C 
ATOM     89  H   UNL A   1      31.529  23.928  26.055  1.00  0.00     0.346 HD
ATOM     90  H   UNL A   1      30.501  24.028  27.349  1.00  0.00     0.346 HD
BRANCH  85  91
ATOM     91  C   UNL A   1      29.660  27.675  23.896  1.00  0.00     0.148 A 
ATOM     92  N   UNL A   1      30.496  28.633  23.437  1.00  0.00    -0.237 NA
ATOM     93  C   UNL A   1      28.279  27.729  23.600  1.00  0.00     0.084 A 
ATOM     94  C   UNL A   1      29.985  29.606  22.643  1.00  0.00     0.126 A 
ATOM     95  C   UNL A   1      27.777  28.757  22.808  1.00  0.00     0.039 A 
ATOM     96  Cl  UNL A   1      27.108  26.626  24.248  1.00  0.00    -0.080 Cl
ATOM     97  C   UNL A   1      28.644  29.727  22.316  1.00  0.00     0.075 A 
BRANCH  97  98
ATOM     98  C   UNL A   1      28.159  30.873  21.490  1.00  0.00     0.417 C 
ATOM     99  F   UNL A   1      29.146  31.767  21.211  1.00  0.00    -0.166 F 
ATOM    100  F   UNL A   1      27.648  30.486  20.291  1.00  0.00    -0.166 F 
ATOM    101  F   UNL A   1      27.175  31.593  22.100  1.00  0.00    -0.166 F 
ENDBRANCH  97  98
ENDBRANCH  85  91
ENDBRANCH  81  83
ENDBRANCH  80  81
ENDBRANCH  79  80
ENDBRANCH  78  79
ENDBRANCH  77  78
ENDBRANCH  76  77
ENDBRANCH  75  76
ENDBRANCH  74  75
ENDBRANCH   1  74
TORSDOF 25
ENDMDL
MODEL 2
REMARK VINA RESULT:      -9.0      6.574      8.432
REMARK SMILES O=C(OCCOCCOCCOCCOC(=O)[C@H]1C[NH2+]CCN1c1ncc(C(F)(F)F)cc1Cl)c1ccc(-c2c3nc(c(-c4cccc(S(=O)(=O)[O-])c4F)c4ccc([nH]4)c(-c4cccc(S(=O)(=O)[O-])c4F)c4nc(c(-c5cccc(S(=O)(=O)[O-])c5F)c5ccc2[nH]5)C=C4)C=C3)cc1
REMARK SMILES IDX 8 1 7 2 6 3 5 4 4 5 3 6 2 7 1 8 35 9 36 10 97 11 37 12 96 13
REMARK SMILES IDX 38 14 39 15 40 16 90 17 41 18 95 19 89 20 91 21 42 22 94 23
REMARK SMILES IDX 88 24 87 25 43 27 75 28 55 29 74 30 56 31 59 32 73 33 92 34
REMARK SMILES IDX 57 35 58 36 72 38 93 39 60 40 44 41 45 42 53 43 46 44 48 45
REMARK SMILES IDX 54 46 47 47 49 48 50 49 51 50 52 51 76 52 77 53 85 54 78 55
REMARK SMILES IDX 80 56 86 57 79 58 81 59 82 60 83 61 84 62 61 63 62 64 70 65
REMARK SMILES IDX 63 66 65 67 71 68 64 69 66 70 67 71 68 72 69 73 9 74 10 75
REMARK SMILES IDX 11 76 12 77 13 78 14 79 15 80 16 81 17 82 18 83 19 84 23 85
REMARK SMILES IDX 20 86 22 87 21 88 24 91 25 92 33 93 26 94 32 95 34 96 27 97
REMARK SMILES IDX 28 98 29 99 30 100 31 101
REMARK H PARENT 91 26 59 37 20 89 20 90
REMARK Flexibility Score: inf
ROOT
ATOM      1  C   UNL A   1      35.467  34.165  29.085  1.00  0.00     0.188 C 
ENDROOT
BRANCH   1   2
ATOM      2  C   UNL A   1      34.123  33.881  29.718  1.00  0.00     0.188 C 
BRANCH   2   3
ATOM      3  O   UNL A   1      34.247  34.104  31.103  1.00  0.00    -0.376 OA
BRANCH   3   4
ATOM      4  C   UNL A   1      34.469  33.031  31.993  1.00  0.00     0.202 C 
BRANCH   4   5
ATOM      5  C   UNL A   1      35.844  32.932  32.620  1.00  0.00     0.261 C 
BRANCH   5   6
ATOM      6  O   UNL A   1      36.289  31.635  33.057  1.00  0.00    -0.460 OA
BRANCH   6   7
ATOM      7  C   UNL A   1      37.135  30.700  32.581  1.00  0.00     0.338 C 
ATOM      8  O   UNL A   1      36.806  29.519  32.701  1.00  0.00    -0.246 OA
BRANCH   7   9
ATOM      9  C   UNL A   1      38.425  30.976  31.898  1.00  0.00     0.060 A 
ATOM     10  C   UNL A   1      39.621  31.317  32.523  1.00  0.00     0.016 A 
ATOM     11  C   UNL A   1      38.464  30.717  30.522  1.00  0.00     0.016 A 
ATOM     12  C   UNL A   1      40.796  31.509  31.831  1.00  0.00     0.010 A 
ATOM     13  C   UNL A   1      39.651  30.868  29.806  1.00  0.00     0.010 A 
ATOM     14  C   UNL A   1      40.804  31.308  30.468  1.00  0.00    -0.014 A 
BRANCH  14  15
ATOM     15  C   UNL A   1      41.966  31.809  29.740  1.00  0.00     0.031 A 
ATOM     16  C   UNL A   1      42.912  30.779  29.226  1.00  0.00     0.074 A 
ATOM     17  C   UNL A   1      42.077  33.115  29.461  1.00  0.00     0.049 A 
ATOM     18  N   UNL A   1      44.111  30.927  28.751  1.00  0.00    -0.248 NA
ATOM     19  C   UNL A   1      42.439  29.381  29.264  1.00  0.00     0.031 C 
ATOM     20  C   UNL A   1      41.076  34.138  29.777  1.00  0.00     0.029 A 
ATOM     21  N   UNL A   1      43.091  33.805  28.862  1.00  0.00    -0.354 N 
ATOM     22  C   UNL A   1      44.577  29.638  28.537  1.00  0.00     0.074 A 
ATOM     23  C   UNL A   1      43.518  28.722  28.885  1.00  0.00     0.031 C 
ATOM     24  C   UNL A   1      41.550  35.338  29.410  1.00  0.00     0.029 A 
ATOM     25  C   UNL A   1      42.916  35.166  28.931  1.00  0.00     0.049 A 
ATOM     26  H   UNL A   1      43.864  33.375  28.428  1.00  0.00     0.167 HD
ATOM     27  C   UNL A   1      45.808  29.275  28.122  1.00  0.00     0.034 A 
ATOM     28  C   UNL A   1      43.808  36.148  28.719  1.00  0.00     0.034 A 
ATOM     29  C   UNL A   1      46.809  30.247  27.794  1.00  0.00     0.049 A 
ATOM     30  C   UNL A   1      45.195  35.732  28.316  1.00  0.00     0.074 A 
ATOM     31  C   UNL A   1      48.111  30.051  27.389  1.00  0.00     0.029 A 
ATOM     32  N   UNL A   1      46.601  31.622  27.854  1.00  0.00    -0.354 N 
ATOM     33  N   UNL A   1      45.669  34.517  28.146  1.00  0.00    -0.248 NA
ATOM     34  C   UNL A   1      46.166  36.799  28.064  1.00  0.00     0.031 C 
ATOM     35  C   UNL A   1      48.704  31.311  27.247  1.00  0.00     0.029 A 
ATOM     36  C   UNL A   1      47.753  32.292  27.505  1.00  0.00     0.049 A 
ATOM     37  H   UNL A   1      45.753  32.053  28.108  1.00  0.00     0.167 HD
ATOM     38  C   UNL A   1      46.984  34.670  27.733  1.00  0.00     0.074 A 
ATOM     39  C   UNL A   1      47.229  36.101  27.679  1.00  0.00     0.031 C 
ATOM     40  C   UNL A   1      47.907  33.726  27.425  1.00  0.00     0.034 A 
BRANCH  27  41
ATOM     41  C   UNL A   1      46.120  27.804  28.118  1.00  0.00     0.023 A 
ATOM     42  C   UNL A   1      46.650  27.174  29.263  1.00  0.00     0.012 A 
ATOM     43  C   UNL A   1      45.964  27.060  26.933  1.00  0.00     0.148 A 
ATOM     44  C   UNL A   1      47.076  25.846  29.210  1.00  0.00     0.002 A 
ATOM     45  C   UNL A   1      46.340  25.724  26.902  1.00  0.00     0.091 A 
ATOM     46  F   UNL A   1      45.498  27.684  25.842  1.00  0.00    -0.205 F 
ATOM     47  C   UNL A   1      46.917  25.121  28.031  1.00  0.00     0.022 A 
BRANCH  45  48
ATOM     48  S   UNL A   1      46.113  24.689  25.453  1.00  0.00     0.127 S 
ATOM     49  O   UNL A   1      44.672  24.784  25.242  1.00  0.00    -0.237 OA
ATOM     50  O   UNL A   1      46.927  25.378  24.456  1.00  0.00    -0.237 OA
ATOM     51  O   UNL A   1      46.606  23.364  25.827  1.00  0.00    -0.744 OA
ENDBRANCH  45  48
ENDBRANCH  27  41
BRANCH  28  52
ATOM     52  C   UNL A   1      43.412  37.566  28.938  1.00  0.00     0.023 A 
ATOM     53  C   UNL A   1      42.705  38.258  27.939  1.00  0.00     0.012 A 
ATOM     54  C   UNL A   1      43.652  38.202  30.175  1.00  0.00     0.148 A 
ATOM     55  C   UNL A   1      42.255  39.561  28.163  1.00  0.00     0.002 A 
ATOM     56  C   UNL A   1      43.154  39.478  30.411  1.00  0.00     0.091 A 
ATOM     57  F   UNL A   1      44.331  37.528  31.114  1.00  0.00    -0.205 F 
ATOM     58  C   UNL A   1      42.468  40.167  29.399  1.00  0.00     0.022 A 
BRANCH  56  59
ATOM     59  S   UNL A   1      43.260  40.286  32.013  1.00  0.00     0.127 S 
ATOM     60  O   UNL A   1      44.574  40.912  31.948  1.00  0.00    -0.237 OA
ATOM     61  O   UNL A   1      42.129  41.210  31.957  1.00  0.00    -0.237 OA
ATOM     62  O   UNL A   1      43.119  39.220  33.004  1.00  0.00    -0.744 OA
ENDBRANCH  56  59
ENDBRANCH  28  52
BRANCH  40  63
ATOM     63  C   UNL A   1      49.238  34.205  26.928  1.00  0.00     0.023 A 
ATOM     64  C   UNL A   1      49.415  34.519  25.568  1.00  0.00     0.012 A 
ATOM     65  C   UNL A   1      50.258  34.487  27.856  1.00  0.00     0.148 A 
ATOM     66  C   UNL A   1      50.601  35.107  25.138  1.00  0.00     0.002 A 
ATOM     67  C   UNL A   1      51.409  35.128  27.431  1.00  0.00     0.091 A 
ATOM     68  F   UNL A   1      50.060  34.156  29.141  1.00  0.00    -0.205 F 
ATOM     69  C   UNL A   1      51.589  35.429  26.070  1.00  0.00     0.022 A 
BRANCH  67  70
ATOM     70  S   UNL A   1      52.668  35.693  28.576  1.00  0.00     0.127 S 
ATOM     71  O   UNL A   1      52.544  34.718  29.659  1.00  0.00    -0.237 OA
ATOM     72  O   UNL A   1      53.887  35.571  27.778  1.00  0.00    -0.237 OA
ATOM     73  O   UNL A   1      52.309  37.061  28.932  1.00  0.00    -0.744 OA
ENDBRANCH  67  70
ENDBRANCH  40  63
ENDBRANCH  14  15
ENDBRANCH   7   9
ENDBRANCH   6   7
ENDBRANCH   5   6
ENDBRANCH   4   5
ENDBRANCH   3   4
ENDBRANCH   2   3
ENDBRANCH   1   2
BRANCH   1  74
ATOM     74  O   UNL A   1      36.089  33.032  28.494  1.00  0.00    -0.377 OA
BRANCH  74  75
ATOM     75  C   UNL A   1      35.390  31.812  28.290  1.00  0.00     0.188 C 
BRANCH  75  76
ATOM     76  C   UNL A   1      36.126  30.656  27.611  1.00  0.00     0.188 C 
BRANCH  76  77
ATOM     77  O   UNL A   1      35.604  29.386  27.918  1.00  0.00    -0.376 OA
BRANCH  77  78
ATOM     78  C   UNL A   1      34.334  29.013  27.392  1.00  0.00     0.202 C 
BRANCH  78  79
ATOM     79  C   UNL A   1      34.117  27.884  26.351  1.00  0.00     0.261 C 
BRANCH  79  80
ATOM     80  O   UNL A   1      32.966  27.017  26.509  1.00  0.00    -0.462 OA
BRANCH  80  81
ATOM     81  C   UNL A   1      31.835  27.381  25.836  1.00  0.00     0.334 C 
ATOM     82  O   UNL A   1      31.394  28.532  25.845  1.00  0.00    -0.250 OA
BRANCH  81  83
ATOM     83  C   UNL A   1      31.117  26.254  25.011  1.00  0.00     0.249 C 
ATOM     84  C   UNL A   1      29.718  26.428  24.372  1.00  0.00     0.298 C 
ATOM     85  N   UNL A   1      31.973  25.852  23.880  1.00  0.00    -0.331 N 
ATOM     86  N   UNL A   1      29.645  27.532  23.398  1.00  0.00    -0.343 N 
ATOM     87  C   UNL A   1      32.102  26.882  22.850  1.00  0.00     0.180 C 
ATOM     88  C   UNL A   1      30.675  27.299  22.358  1.00  0.00     0.282 C 
ATOM     89  H   UNL A   1      29.823  28.420  23.867  1.00  0.00     0.346 HD
ATOM     90  H   UNL A   1      28.717  27.568  22.974  1.00  0.00     0.346 HD
BRANCH  85  91
ATOM     91  C   UNL A   1      32.869  24.832  24.075  1.00  0.00     0.148 A 
ATOM     92  N   UNL A   1      34.167  25.080  23.789  1.00  0.00    -0.237 NA
ATOM     93  C   UNL A   1      32.473  23.568  24.566  1.00  0.00     0.084 A 
ATOM     94  C   UNL A   1      35.078  24.108  24.041  1.00  0.00     0.126 A 
ATOM     95  C   UNL A   1      33.426  22.578  24.786  1.00  0.00     0.039 A 
ATOM     96  Cl  UNL A   1      30.823  23.109  24.837  1.00  0.00    -0.080 Cl
ATOM     97  C   UNL A   1      34.764  22.844  24.515  1.00  0.00     0.075 A 
BRANCH  97  98
ATOM     98  C   UNL A   1      35.827  21.812  24.699  1.00  0.00     0.417 C 
ATOM     99  F   UNL A   1      35.347  20.544  24.578  1.00  0.00    -0.166 F 
ATOM    100  F   UNL A   1      36.837  21.922  23.797  1.00  0.00    -0.166 F 
ATOM    101  F   UNL A   1      36.417  21.864  25.927  1.00  0.00    -0.166 F 
ENDBRANCH  97  98
ENDBRANCH  85  91
ENDBRANCH  81  83
ENDBRANCH  80  81
ENDBRANCH  79  80
ENDBRANCH  78  79
ENDBRANCH  77  78
ENDBRANCH  76  77
ENDBRANCH  75  76
ENDBRANCH  74  75
ENDBRANCH   1  74
TORSDOF 25
ENDMDL
MODEL 3
REMARK VINA RESULT:      -8.3      9.179     16.851
REMARK SMILES O=C(OCCOCCOCCOCCOC(=O)[C@H]1C[NH2+]CCN1c1ncc(C(F)(F)F)cc1Cl)c1ccc(-c2c3nc(c(-c4cccc(S(=O)(=O)[O-])c4F)c4ccc([nH]4)c(-c4cccc(S(=O)(=O)[O-])c4F)c4nc(c(-c5cccc(S(=O)(=O)[O-])c5F)c5ccc2[nH]5)C=C4)C=C3)cc1
REMARK SMILES IDX 8 1 7 2 6 3 5 4 4 5 3 6 2 7 1 8 35 9 36 10 97 11 37 12 96 13
REMARK SMILES IDX 38 14 39 15 40 16 90 17 41 18 95 19 89 20 91 21 42 22 94 23
REMARK SMILES IDX 88 24 87 25 43 27 75 28 55 29 74 30 56 31 59 32 73 33 92 34
REMARK SMILES IDX 57 35 58 36 72 38 93 39 60 40 44 41 45 42 53 43 46 44 48 45
REMARK SMILES IDX 54 46 47 47 49 48 50 49 51 50 52 51 76 52 77 53 85 54 78 55
REMARK SMILES IDX 80 56 86 57 79 58 81 59 82 60 83 61 84 62 61 63 62 64 70 65
REMARK SMILES IDX 63 66 65 67 71 68 64 69 66 70 67 71 68 72 69 73 9 74 10 75
REMARK SMILES IDX 11 76 12 77 13 78 14 79 15 80 16 81 17 82 18 83 19 84 23 85
REMARK SMILES IDX 20 86 22 87 21 88 24 91 25 92 33 93 26 94 32 95 34 96 27 97
REMARK SMILES IDX 28 98 29 99 30 100 31 101
REMARK H PARENT 91 26 59 37 20 89 20 90
REMARK Flexibility Score: inf
ROOT
ATOM      1  C   UNL A   1      47.617  20.888  39.226  1.00  0.00     0.188 C 
ENDROOT
BRANCH   1   2
ATOM      2  C   UNL A   1      47.752  22.389  39.093  1.00  0.00     0.188 C 
BRANCH   2   3
ATOM      3  O   UNL A   1      47.372  22.739  37.783  1.00  0.00    -0.376 OA
BRANCH   3   4
ATOM      4  C   UNL A   1      46.012  22.791  37.411  1.00  0.00     0.202 C 
BRANCH   4   5
ATOM      5  C   UNL A   1      45.595  23.912  36.482  1.00  0.00     0.261 C 
BRANCH   5   6
ATOM      6  O   UNL A   1      44.198  24.253  36.428  1.00  0.00    -0.460 OA
BRANCH   6   7
ATOM      7  C   UNL A   1      43.327  24.578  35.453  1.00  0.00     0.338 C 
ATOM      8  O   UNL A   1      42.397  23.799  35.236  1.00  0.00    -0.246 OA
BRANCH   7   9
ATOM      9  C   UNL A   1      43.378  25.814  34.631  1.00  0.00     0.060 A 
ATOM     10  C   UNL A   1      43.350  27.117  35.118  1.00  0.00     0.016 A 
ATOM     11  C   UNL A   1      43.631  25.639  33.264  1.00  0.00     0.016 A 
ATOM     12  C   UNL A   1      43.454  28.222  34.301  1.00  0.00     0.010 A 
ATOM     13  C   UNL A   1      43.777  26.741  32.423  1.00  0.00     0.010 A 
ATOM     14  C   UNL A   1      43.643  28.032  32.949  1.00  0.00    -0.014 A 
BRANCH  14  15
ATOM     15  C   UNL A   1      43.444  29.196  32.092  1.00  0.00     0.031 A 
ATOM     16  C   UNL A   1      44.667  29.758  31.454  1.00  0.00     0.074 A 
ATOM     17  C   UNL A   1      42.205  29.629  31.817  1.00  0.00     0.049 A 
ATOM     18  N   UNL A   1      44.829  30.889  30.838  1.00  0.00    -0.248 NA
ATOM     19  C   UNL A   1      45.885  28.925  31.532  1.00  0.00     0.031 C 
ATOM     20  C   UNL A   1      40.965  28.991  32.265  1.00  0.00     0.029 A 
ATOM     21  N   UNL A   1      41.790  30.719  31.108  1.00  0.00    -0.354 N 
ATOM     22  C   UNL A   1      46.186  30.955  30.553  1.00  0.00     0.074 A 
ATOM     23  C   UNL A   1      46.795  29.732  31.016  1.00  0.00     0.031 C 
ATOM     24  C   UNL A   1      39.923  29.731  31.858  1.00  0.00     0.029 A 
ATOM     25  C   UNL A   1      40.438  30.933  31.214  1.00  0.00     0.049 A 
ATOM     26  H   UNL A   1      42.394  31.289  30.578  1.00  0.00     0.167 HD
ATOM     27  C   UNL A   1      46.850  31.984  29.987  1.00  0.00     0.034 A 
ATOM     28  C   UNL A   1      39.727  32.032  30.907  1.00  0.00     0.034 A 
ATOM     29  C   UNL A   1      46.172  33.169  29.551  1.00  0.00     0.049 A 
ATOM     30  C   UNL A   1      40.485  33.196  30.333  1.00  0.00     0.074 A 
ATOM     31  C   UNL A   1      46.696  34.312  28.988  1.00  0.00     0.029 A 
ATOM     32  N   UNL A   1      44.796  33.355  29.653  1.00  0.00    -0.354 N 
ATOM     33  N   UNL A   1      41.773  33.295  30.092  1.00  0.00    -0.248 NA
ATOM     34  C   UNL A   1      39.711  34.387  29.978  1.00  0.00     0.031 C 
ATOM     35  C   UNL A   1      45.639  35.208  28.790  1.00  0.00     0.029 A 
ATOM     36  C   UNL A   1      44.450  34.600  29.175  1.00  0.00     0.049 A 
ATOM     37  H   UNL A   1      44.163  32.693  30.014  1.00  0.00     0.167 HD
ATOM     38  C   UNL A   1      41.964  34.545  29.523  1.00  0.00     0.074 A 
ATOM     39  C   UNL A   1      40.653  35.166  29.458  1.00  0.00     0.031 C 
ATOM     40  C   UNL A   1      43.109  35.132  29.094  1.00  0.00     0.034 A 
BRANCH  27  41
ATOM     41  C   UNL A   1      48.348  31.877  29.927  1.00  0.00     0.023 A 
ATOM     42  C   UNL A   1      49.151  32.361  30.981  1.00  0.00     0.012 A 
ATOM     43  C   UNL A   1      48.967  31.365  28.770  1.00  0.00     0.148 A 
ATOM     44  C   UNL A   1      50.541  32.396  30.857  1.00  0.00     0.002 A 
ATOM     45  C   UNL A   1      50.352  31.353  28.675  1.00  0.00     0.091 A 
ATOM     46  F   UNL A   1      48.189  30.946  27.761  1.00  0.00    -0.205 F 
ATOM     47  C   UNL A   1      51.140  31.887  29.707  1.00  0.00     0.022 A 
BRANCH  45  48
ATOM     48  S   UNL A   1      51.219  30.658  27.265  1.00  0.00     0.127 S 
ATOM     49  O   UNL A   1      50.941  29.233  27.417  1.00  0.00    -0.237 OA
ATOM     50  O   UNL A   1      50.539  31.300  26.143  1.00  0.00    -0.237 OA
ATOM     51  O   UNL A   1      52.619  31.045  27.427  1.00  0.00    -0.744 OA
ENDBRANCH  45  48
ENDBRANCH  27  41
BRANCH  28  52
ATOM     52  C   UNL A   1      38.265  32.068  31.190  1.00  0.00     0.023 A 
ATOM     53  C   UNL A   1      37.396  31.208  30.497  1.00  0.00     0.012 A 
ATOM     54  C   UNL A   1      37.746  32.888  32.215  1.00  0.00     0.148 A 
ATOM     55  C   UNL A   1      36.035  31.172  30.809  1.00  0.00     0.002 A 
ATOM     56  C   UNL A   1      36.403  32.808  32.558  1.00  0.00     0.091 A 
ATOM     57  F   UNL A   1      38.590  33.705  32.863  1.00  0.00    -0.205 F 
ATOM     58  C   UNL A   1      35.540  31.961  31.845  1.00  0.00     0.022 A 
BRANCH  56  59
ATOM     59  S   UNL A   1      35.700  33.683  33.963  1.00  0.00     0.127 S 
ATOM     60  O   UNL A   1      36.138  35.049  33.716  1.00  0.00    -0.237 OA
ATOM     61  O   UNL A   1      34.270  33.446  33.778  1.00  0.00    -0.237 OA
ATOM     62  O   UNL A   1      36.267  33.045  35.150  1.00  0.00    -0.744 OA
ENDBRANCH  56  59
ENDBRANCH  28  52
BRANCH  40  63
ATOM     63  C   UNL A   1      42.988  36.478  28.444  1.00  0.00     0.023 A 
ATOM     64  C   UNL A   1      42.492  36.589  27.132  1.00  0.00     0.012 A 
ATOM     65  C   UNL A   1      43.224  37.635  29.211  1.00  0.00     0.148 A 
ATOM     66  C   UNL A   1      42.236  37.845  26.589  1.00  0.00     0.002 A 
ATOM     67  C   UNL A   1      42.909  38.876  28.685  1.00  0.00     0.091 A 
ATOM     68  F   UNL A   1      43.714  37.489  30.450  1.00  0.00    -0.205 F 
ATOM     69  C   UNL A   1      42.425  38.985  27.370  1.00  0.00     0.022 A 
BRANCH  67  70
ATOM     70  S   UNL A   1      42.998  40.379  29.661  1.00  0.00     0.127 S 
ATOM     71  O   UNL A   1      41.656  40.930  29.481  1.00  0.00    -0.237 OA
ATOM     72  O   UNL A   1      43.272  39.859  31.000  1.00  0.00    -0.237 OA
ATOM     73  O   UNL A   1      44.076  41.173  29.086  1.00  0.00    -0.744 OA
ENDBRANCH  67  70
ENDBRANCH  40  63
ENDBRANCH  14  15
ENDBRANCH   7   9
ENDBRANCH   6   7
ENDBRANCH   5   6
ENDBRANCH   4   5
ENDBRANCH   3   4
ENDBRANCH   2   3
ENDBRANCH   1   2
BRANCH   1  74
ATOM     74  O   UNL A   1      46.920  20.461  40.388  1.00  0.00    -0.377 OA
BRANCH  74  75
ATOM     75  C   UNL A   1      46.588  19.097  40.607  1.00  0.00     0.188 C 
BRANCH  75  76
ATOM     76  C   UNL A   1      46.361  18.199  39.391  1.00  0.00     0.188 C 
BRANCH  76  77
ATOM     77  O   UNL A   1      46.152  16.845  39.710  1.00  0.00    -0.376 OA
BRANCH  77  78
ATOM     78  C   UNL A   1      44.860  16.277  39.511  1.00  0.00     0.202 C 
BRANCH  78  79
ATOM     79  C   UNL A   1      43.588  16.707  40.287  1.00  0.00     0.261 C 
BRANCH  79  80
ATOM     80  O   UNL A   1      43.447  16.277  41.664  1.00  0.00    -0.462 OA
BRANCH  80  81
ATOM     81  C   UNL A   1      44.243  16.903  42.579  1.00  0.00     0.334 C 
ATOM     82  O   UNL A   1      44.076  18.077  42.918  1.00  0.00    -0.250 OA
BRANCH  81  83
ATOM     83  C   UNL A   1      45.393  16.042  43.214  1.00  0.00     0.249 C 
ATOM     84  C   UNL A   1      46.743  16.637  43.681  1.00  0.00     0.298 C 
ATOM     85  N   UNL A   1      44.882  15.348  44.411  1.00  0.00    -0.331 N 
ATOM     86  N   UNL A   1      46.606  17.673  44.721  1.00  0.00    -0.343 N 
ATOM     87  C   UNL A   1      44.587  16.246  45.526  1.00  0.00     0.180 C 
ATOM     88  C   UNL A   1      45.866  17.084  45.863  1.00  0.00     0.282 C 
ATOM     89  H   UNL A   1      46.091  18.470  44.350  1.00  0.00     0.346 HD
ATOM     90  H   UNL A   1      47.526  17.993  45.024  1.00  0.00     0.346 HD
BRANCH  85  91
ATOM     91  C   UNL A   1      44.335  14.100  44.253  1.00  0.00     0.148 A 
ATOM     92  N   UNL A   1      43.056  14.030  43.822  1.00  0.00    -0.237 NA
ATOM     93  C   UNL A   1      45.067  12.920  44.514  1.00  0.00     0.084 A 
ATOM     94  C   UNL A   1      42.520  12.806  43.592  1.00  0.00     0.126 A 
ATOM     95  C   UNL A   1      44.482  11.677  44.299  1.00  0.00     0.039 A 
ATOM     96  Cl  UNL A   1      46.663  12.903  45.192  1.00  0.00    -0.080 Cl
ATOM     97  C   UNL A   1      43.174  11.608  43.831  1.00  0.00     0.075 A 
BRANCH  97  98
ATOM     98  C   UNL A   1      42.481  10.303  43.614  1.00  0.00     0.417 C 
ATOM     99  F   UNL A   1      41.145  10.453  43.400  1.00  0.00    -0.166 F 
ATOM    100  F   UNL A   1      42.961   9.616  42.543  1.00  0.00    -0.166 F 
ATOM    101  F   UNL A   1      42.587   9.457  44.678  1.00  0.00    -0.166 F 
ENDBRANCH  97  98
ENDBRANCH  85  91
ENDBRANCH  81  83
ENDBRANCH  80  81
ENDBRANCH  79  80
ENDBRANCH  78  79
ENDBRANCH  77  78
ENDBRANCH  76  77
ENDBRANCH  75  76
ENDBRANCH  74  75
ENDBRANCH   1  74
TORSDOF 25
ENDMDL
