MODEL 1
REMARK VINA RESULT:      -5.6      0.000      0.000
REMARK SMILES O=C(OCCOCCOCCOCCOC(=O)c1ccc(S(=O)(=O)NCC[NH+]2CCCC2)c(F)c1)c1ccc(-c2c3nc(c(-c4cccc(S(=O)(=O)[O-])c4F)c4ccc([nH]4)c(-c4cccc(S(=O)(=O)[O-])c4F)c4nc(c(-c5cccc(S(=O)(=O)[O-])c5F)c5ccc2[nH]5)C=C4)C=C3)cc1
REMARK SMILES IDX 10 1 9 2 8 3 7 4 6 5 5 6 4 7 3 8 2 9 1 10 36 11 37 12 98 13
REMARK SMILES IDX 38 14 97 15 39 16 40 17 41 18 91 19 42 20 96 21 90 22 92 23
REMARK SMILES IDX 43 24 95 25 89 26 88 27 44 29 76 30 56 31 75 32 57 33 60 34
REMARK SMILES IDX 74 35 93 36 58 37 59 38 73 40 94 41 61 42 45 43 46 44 54 45
REMARK SMILES IDX 47 46 49 47 55 48 48 49 50 50 51 51 52 52 53 53 77 54 78 55
REMARK SMILES IDX 86 56 79 57 81 58 87 59 80 60 82 61 83 62 84 63 85 64 62 65
REMARK SMILES IDX 63 66 71 67 64 68 66 69 72 70 65 71 67 72 68 73 69 74 70 75
REMARK SMILES IDX 11 76 12 77 13 78 14 79 15 80 16 81 17 82 18 83 19 84 35 85
REMARK SMILES IDX 20 86 33 87 21 88 34 89 22 90 23 91 24 92 25 93 26 95 27 96
REMARK SMILES IDX 28 97 29 98 32 99 30 101 31 102
REMARK H PARENT 92 28 60 39 25 94 28 100
REMARK Flexibility Score: inf
ROOT
ATOM      1  C   UNL A   1      50.880  38.062  26.904  1.00  0.00     0.188 C 
ENDROOT
BRANCH   1   2
ATOM      2  O   UNL A   1      49.768  38.934  26.741  1.00  0.00    -0.377 OA
BRANCH   2   3
ATOM      3  C   UNL A   1      49.209  39.483  27.932  1.00  0.00     0.188 C 
BRANCH   3   4
ATOM      4  C   UNL A   1      48.255  40.659  27.729  1.00  0.00     0.188 C 
BRANCH   4   5
ATOM      5  O   UNL A   1      47.233  40.358  26.779  1.00  0.00    -0.376 OA
BRANCH   5   6
ATOM      6  C   UNL A   1      46.944  41.381  25.826  1.00  0.00     0.202 C 
BRANCH   6   7
ATOM      7  C   UNL A   1      45.486  41.441  25.366  1.00  0.00     0.261 C 
BRANCH   7   8
ATOM      8  O   UNL A   1      44.713  40.325  25.830  1.00  0.00    -0.460 OA
BRANCH   8   9
ATOM      9  C   UNL A   1      44.122  40.173  27.042  1.00  0.00     0.338 C 
ATOM     10  O   UNL A   1      43.766  41.190  27.638  1.00  0.00    -0.246 OA
BRANCH   9  11
ATOM     11  C   UNL A   1      43.878  38.851  27.704  1.00  0.00     0.060 A 
ATOM     12  C   UNL A   1      43.597  38.655  29.058  1.00  0.00     0.016 A 
ATOM     13  C   UNL A   1      43.876  37.718  26.871  1.00  0.00     0.016 A 
ATOM     14  C   UNL A   1      43.396  37.394  29.594  1.00  0.00     0.010 A 
ATOM     15  C   UNL A   1      43.660  36.440  27.394  1.00  0.00     0.010 A 
ATOM     16  C   UNL A   1      43.458  36.280  28.770  1.00  0.00    -0.014 A 
BRANCH  16  17
ATOM     17  C   UNL A   1      43.529  34.965  29.422  1.00  0.00     0.031 A 
ATOM     18  C   UNL A   1      42.238  34.243  29.653  1.00  0.00     0.074 A 
ATOM     19  C   UNL A   1      44.722  34.389  29.652  1.00  0.00     0.049 A 
ATOM     20  N   UNL A   1      42.023  33.105  30.247  1.00  0.00    -0.248 NA
ATOM     21  C   UNL A   1      41.019  34.884  29.121  1.00  0.00     0.031 C 
ATOM     22  C   UNL A   1      46.020  34.977  29.316  1.00  0.00     0.029 A 
ATOM     23  N   UNL A   1      45.034  33.177  30.204  1.00  0.00    -0.354 N 
ATOM     24  C   UNL A   1      40.646  32.926  30.218  1.00  0.00     0.074 A 
ATOM     25  C   UNL A   1      40.072  34.054  29.529  1.00  0.00     0.031 C 
ATOM     26  C   UNL A   1      46.992  34.124  29.677  1.00  0.00     0.029 A 
ATOM     27  C   UNL A   1      46.387  32.968  30.328  1.00  0.00     0.049 A 
ATOM     28  H   UNL A   1      44.357  32.519  30.485  1.00  0.00     0.167 HD
ATOM     29  C   UNL A   1      39.933  31.901  30.734  1.00  0.00     0.034 A 
ATOM     30  C   UNL A   1      47.049  31.969  30.945  1.00  0.00     0.034 A 
ATOM     31  C   UNL A   1      40.546  30.786  31.395  1.00  0.00     0.049 A 
ATOM     32  C   UNL A   1      46.228  30.877  31.578  1.00  0.00     0.074 A 
ATOM     33  C   UNL A   1      39.940  29.705  32.001  1.00  0.00     0.029 A 
ATOM     34  N   UNL A   1      41.918  30.617  31.535  1.00  0.00    -0.354 N 
ATOM     35  N   UNL A   1      44.925  30.716  31.566  1.00  0.00    -0.248 NA
ATOM     36  C   UNL A   1      46.956  29.826  32.300  1.00  0.00     0.031 C 
ATOM     37  C   UNL A   1      40.945  28.898  32.538  1.00  0.00     0.029 A 
ATOM     38  C   UNL A   1      42.180  29.454  32.228  1.00  0.00     0.049 A 
ATOM     39  H   UNL A   1      42.601  31.235  31.190  1.00  0.00     0.167 HD
ATOM     40  C   UNL A   1      44.675  29.540  32.260  1.00  0.00     0.074 A 
ATOM     41  C   UNL A   1      45.969  29.016  32.658  1.00  0.00     0.031 C 
ATOM     42  C   UNL A   1      43.491  28.951  32.558  1.00  0.00     0.034 A 
BRANCH  29  43
ATOM     43  C   UNL A   1      38.436  31.974  30.637  1.00  0.00     0.023 A 
ATOM     44  C   UNL A   1      37.765  31.419  29.530  1.00  0.00     0.012 A 
ATOM     45  C   UNL A   1      37.690  32.586  31.664  1.00  0.00     0.148 A 
ATOM     46  C   UNL A   1      36.376  31.493  29.434  1.00  0.00     0.002 A 
ATOM     47  C   UNL A   1      36.304  32.616  31.583  1.00  0.00     0.091 A 
ATOM     48  F   UNL A   1      38.352  33.136  32.691  1.00  0.00    -0.205 F 
ATOM     49  C   UNL A   1      35.646  32.082  30.464  1.00  0.00     0.022 A 
BRANCH  47  50
ATOM     50  S   UNL A   1      35.271  33.291  32.887  1.00  0.00     0.127 S 
ATOM     51  O   UNL A   1      35.456  34.730  32.696  1.00  0.00    -0.237 OA
ATOM     52  O   UNL A   1      33.948  32.791  32.515  1.00  0.00    -0.237 OA
ATOM     53  O   UNL A   1      35.799  32.762  34.137  1.00  0.00    -0.744 OA
ENDBRANCH  47  50
ENDBRANCH  29  43
BRANCH  30  54
ATOM     54  C   UNL A   1      48.540  31.977  30.997  1.00  0.00     0.023 A 
ATOM     55  C   UNL A   1      49.280  31.345  29.980  1.00  0.00     0.012 A 
ATOM     56  C   UNL A   1      49.231  32.653  32.024  1.00  0.00     0.148 A 
ATOM     57  C   UNL A   1      50.677  31.374  29.992  1.00  0.00     0.002 A 
ATOM     58  C   UNL A   1      50.619  32.730  31.998  1.00  0.00     0.091 A 
ATOM     59  F   UNL A   1      48.514  33.231  32.998  1.00  0.00    -0.205 F 
ATOM     60  C   UNL A   1      51.345  32.077  30.991  1.00  0.00     0.022 A 
BRANCH  58  61
ATOM     61  S   UNL A   1      51.554  33.727  33.165  1.00  0.00     0.127 S 
ATOM     62  O   UNL A   1      52.844  33.848  32.490  1.00  0.00    -0.237 OA
ATOM     63  O   UNL A   1      50.764  34.958  33.210  1.00  0.00    -0.237 OA
ATOM     64  O   UNL A   1      51.563  32.973  34.411  1.00  0.00    -0.744 OA
ENDBRANCH  58  61
ENDBRANCH  30  54
BRANCH  42  65
ATOM     65  C   UNL A   1      43.530  27.661  33.328  1.00  0.00     0.023 A 
ATOM     66  C   UNL A   1      43.852  26.462  32.664  1.00  0.00     0.012 A 
ATOM     67  C   UNL A   1      43.398  27.672  34.730  1.00  0.00     0.148 A 
ATOM     68  C   UNL A   1      44.028  25.285  33.387  1.00  0.00     0.002 A 
ATOM     69  C   UNL A   1      43.632  26.508  35.448  1.00  0.00     0.091 A 
ATOM     70  F   UNL A   1      43.076  28.826  35.333  1.00  0.00    -0.205 F 
ATOM     71  C   UNL A   1      43.937  25.312  34.778  1.00  0.00     0.022 A 
BRANCH  69  72
ATOM     72  S   UNL A   1      43.662  26.478  37.243  1.00  0.00     0.127 S 
ATOM     73  O   UNL A   1      42.459  25.705  37.547  1.00  0.00    -0.237 OA
ATOM     74  O   UNL A   1      44.920  25.786  37.519  1.00  0.00    -0.237 OA
ATOM     75  O   UNL A   1      43.630  27.871  37.671  1.00  0.00    -0.744 OA
ENDBRANCH  69  72
ENDBRANCH  42  65
ENDBRANCH  16  17
ENDBRANCH   9  11
ENDBRANCH   8   9
ENDBRANCH   7   8
ENDBRANCH   6   7
ENDBRANCH   5   6
ENDBRANCH   4   5
ENDBRANCH   3   4
ENDBRANCH   2   3
ENDBRANCH   1   2
BRANCH   1  76
ATOM     76  C   UNL A   1      50.647  36.551  27.137  1.00  0.00     0.188 C 
BRANCH  76  77
ATOM     77  O   UNL A   1      50.709  35.743  25.973  1.00  0.00    -0.376 OA
BRANCH  77  78
ATOM     78  C   UNL A   1      49.553  35.777  25.139  1.00  0.00     0.202 C 
BRANCH  78  79
ATOM     79  C   UNL A   1      48.223  35.831  25.906  1.00  0.00     0.261 C 
BRANCH  79  80
ATOM     80  O   UNL A   1      47.450  34.615  25.861  1.00  0.00    -0.460 OA
BRANCH  80  81
ATOM     81  C   UNL A   1      47.957  33.510  26.451  1.00  0.00     0.338 C 
ATOM     82  O   UNL A   1      49.043  33.386  26.988  1.00  0.00    -0.246 OA
BRANCH  81  83
ATOM     83  C   UNL A   1      46.849  32.531  26.568  1.00  0.00     0.063 A 
ATOM     84  C   UNL A   1      45.536  32.887  26.243  1.00  0.00     0.017 A 
ATOM     85  C   UNL A   1      47.113  31.295  27.182  1.00  0.00     0.056 A 
ATOM     86  C   UNL A   1      44.490  32.008  26.535  1.00  0.00     0.026 A 
ATOM     87  C   UNL A   1      46.060  30.436  27.493  1.00  0.00     0.144 A 
ATOM     88  C   UNL A   1      44.758  30.782  27.166  1.00  0.00     0.118 A 
ATOM     89  F   UNL A   1      46.343  29.291  28.129  1.00  0.00    -0.205 F 
BRANCH  88  90
ATOM     90  S   UNL A   1      43.416  29.678  27.447  1.00  0.00     0.243 S 
ATOM     91  O   UNL A   1      42.923  29.955  28.765  1.00  0.00    -0.207 OA
ATOM     92  O   UNL A   1      42.553  29.798  26.279  1.00  0.00    -0.207 OA
BRANCH  90  93
ATOM     93  N   UNL A   1      44.029  28.124  27.396  1.00  0.00    -0.205 NA
ATOM     94  H   UNL A   1      44.641  28.040  28.208  1.00  0.00     0.141 HD
BRANCH  93  95
ATOM     95  C   UNL A   1      43.192  26.915  27.400  1.00  0.00     0.160 C 
BRANCH  95  96
ATOM     96  C   UNL A   1      43.769  25.665  28.109  1.00  0.00     0.278 C 
BRANCH  96  97
ATOM     97  N   UNL A   1      44.460  24.614  27.327  1.00  0.00    -0.334 N 
ATOM     98  C   UNL A   1      45.927  24.624  27.386  1.00  0.00     0.262 C 
ATOM     99  C   UNL A   1      44.127  24.789  25.886  1.00  0.00     0.262 C 
ATOM    100  H   UNL A   1      44.137  23.741  27.745  1.00  0.00     0.348 HD
ATOM    101  C   UNL A   1      46.383  25.502  26.242  1.00  0.00     0.067 C 
ATOM    102  C   UNL A   1      45.425  25.096  25.145  1.00  0.00     0.067 C 
ENDBRANCH  96  97
ENDBRANCH  95  96
ENDBRANCH  93  95
ENDBRANCH  90  93
ENDBRANCH  88  90
ENDBRANCH  81  83
ENDBRANCH  80  81
ENDBRANCH  79  80
ENDBRANCH  78  79
ENDBRANCH  77  78
ENDBRANCH  76  77
ENDBRANCH   1  76
TORSDOF 28
ENDMDL
MODEL 2
REMARK VINA RESULT:      -5.5      5.470     11.191
REMARK SMILES O=C(OCCOCCOCCOCCOC(=O)c1ccc(S(=O)(=O)NCC[NH+]2CCCC2)c(F)c1)c1ccc(-c2c3nc(c(-c4cccc(S(=O)(=O)[O-])c4F)c4ccc([nH]4)c(-c4cccc(S(=O)(=O)[O-])c4F)c4nc(c(-c5cccc(S(=O)(=O)[O-])c5F)c5ccc2[nH]5)C=C4)C=C3)cc1
REMARK SMILES IDX 10 1 9 2 8 3 7 4 6 5 5 6 4 7 3 8 2 9 1 10 36 11 37 12 98 13
REMARK SMILES IDX 38 14 97 15 39 16 40 17 41 18 91 19 42 20 96 21 90 22 92 23
REMARK SMILES IDX 43 24 95 25 89 26 88 27 44 29 76 30 56 31 75 32 57 33 60 34
REMARK SMILES IDX 74 35 93 36 58 37 59 38 73 40 94 41 61 42 45 43 46 44 54 45
REMARK SMILES IDX 47 46 49 47 55 48 48 49 50 50 51 51 52 52 53 53 77 54 78 55
REMARK SMILES IDX 86 56 79 57 81 58 87 59 80 60 82 61 83 62 84 63 85 64 62 65
REMARK SMILES IDX 63 66 71 67 64 68 66 69 72 70 65 71 67 72 68 73 69 74 70 75
REMARK SMILES IDX 11 76 12 77 13 78 14 79 15 80 16 81 17 82 18 83 19 84 35 85
REMARK SMILES IDX 20 86 33 87 21 88 34 89 22 90 23 91 24 92 25 93 26 95 27 96
REMARK SMILES IDX 28 97 29 98 32 99 30 101 31 102
REMARK H PARENT 92 28 60 39 25 94 28 100
REMARK Flexibility Score: inf
ROOT
ATOM      1  C   UNL A   1      45.859  32.348  26.208  1.00  0.00     0.188 C 
ENDROOT
BRANCH   1   2
ATOM      2  O   UNL A   1      44.578  32.862  25.865  1.00  0.00    -0.377 OA
BRANCH   2   3
ATOM      3  C   UNL A   1      44.386  34.263  26.036  1.00  0.00     0.188 C 
BRANCH   3   4
ATOM      4  C   UNL A   1      42.938  34.744  25.954  1.00  0.00     0.188 C 
BRANCH   4   5
ATOM      5  O   UNL A   1      42.819  36.132  26.263  1.00  0.00    -0.376 OA
BRANCH   5   6
ATOM      6  C   UNL A   1      43.582  36.592  27.378  1.00  0.00     0.202 C 
BRANCH   6   7
ATOM      7  C   UNL A   1      43.714  38.113  27.487  1.00  0.00     0.261 C 
BRANCH   7   8
ATOM      8  O   UNL A   1      44.880  38.615  26.820  1.00  0.00    -0.460 OA
BRANCH   8   9
ATOM      9  C   UNL A   1      46.172  38.526  27.228  1.00  0.00     0.338 C 
ATOM     10  O   UNL A   1      46.656  39.493  27.816  1.00  0.00    -0.246 OA
BRANCH   9  11
ATOM     11  C   UNL A   1      47.048  37.330  27.006  1.00  0.00     0.060 A 
ATOM     12  C   UNL A   1      46.933  36.420  25.952  1.00  0.00     0.016 A 
ATOM     13  C   UNL A   1      48.111  37.148  27.907  1.00  0.00     0.016 A 
ATOM     14  C   UNL A   1      47.779  35.330  25.825  1.00  0.00     0.010 A 
ATOM     15  C   UNL A   1      48.982  36.062  27.783  1.00  0.00     0.010 A 
ATOM     16  C   UNL A   1      48.786  35.130  26.758  1.00  0.00    -0.014 A 
BRANCH  16  17
ATOM     17  C   UNL A   1      49.459  33.824  26.749  1.00  0.00     0.031 A 
ATOM     18  C   UNL A   1      50.514  33.603  25.710  1.00  0.00     0.074 A 
ATOM     19  C   UNL A   1      49.232  32.941  27.737  1.00  0.00     0.049 A 
ATOM     20  N   UNL A   1      51.213  32.535  25.458  1.00  0.00    -0.248 NA
ATOM     21  C   UNL A   1      50.839  34.754  24.844  1.00  0.00     0.031 C 
ATOM     22  C   UNL A   1      48.324  33.154  28.866  1.00  0.00     0.029 A 
ATOM     23  N   UNL A   1      49.759  31.697  27.959  1.00  0.00    -0.354 N 
ATOM     24  C   UNL A   1      52.011  32.862  24.370  1.00  0.00     0.074 A 
ATOM     25  C   UNL A   1      51.733  34.232  24.019  1.00  0.00     0.031 C 
ATOM     26  C   UNL A   1      48.352  32.071  29.659  1.00  0.00     0.029 A 
ATOM     27  C   UNL A   1      49.224  31.069  29.058  1.00  0.00     0.049 A 
ATOM     28  H   UNL A   1      50.452  31.294  27.388  1.00  0.00     0.167 HD
ATOM     29  C   UNL A   1      52.895  32.072  23.723  1.00  0.00     0.034 A 
ATOM     30  C   UNL A   1      49.394  29.804  29.492  1.00  0.00     0.034 A 
ATOM     31  C   UNL A   1      53.158  30.718  24.117  1.00  0.00     0.049 A 
ATOM     32  C   UNL A   1      50.328  28.920  28.710  1.00  0.00     0.074 A 
ATOM     33  C   UNL A   1      53.994  29.795  23.523  1.00  0.00     0.029 A 
ATOM     34  N   UNL A   1      52.577  30.097  25.215  1.00  0.00    -0.354 N 
ATOM     35  N   UNL A   1      51.069  29.224  27.669  1.00  0.00    -0.248 NA
ATOM     36  C   UNL A   1      50.460  27.527  29.154  1.00  0.00     0.031 C 
ATOM     37  C   UNL A   1      53.892  28.603  24.244  1.00  0.00     0.029 A 
ATOM     38  C   UNL A   1      53.026  28.797  25.312  1.00  0.00     0.049 A 
ATOM     39  H   UNL A   1      51.939  30.522  25.833  1.00  0.00     0.167 HD
ATOM     40  C   UNL A   1      51.771  28.070  27.345  1.00  0.00     0.074 A 
ATOM     41  C   UNL A   1      51.381  27.067  28.318  1.00  0.00     0.031 C 
ATOM     42  C   UNL A   1      52.643  27.849  26.331  1.00  0.00     0.034 A 
BRANCH  29  43
ATOM     43  C   UNL A   1      53.589  32.640  22.518  1.00  0.00     0.023 A 
ATOM     44  C   UNL A   1      52.996  32.547  21.243  1.00  0.00     0.012 A 
ATOM     45  C   UNL A   1      54.835  33.284  22.657  1.00  0.00     0.148 A 
ATOM     46  C   UNL A   1      53.643  33.066  20.122  1.00  0.00     0.002 A 
ATOM     47  C   UNL A   1      55.452  33.837  21.543  1.00  0.00     0.091 A 
ATOM     48  F   UNL A   1      55.395  33.330  23.873  1.00  0.00    -0.205 F 
ATOM     49  C   UNL A   1      54.864  33.718  20.273  1.00  0.00     0.022 A 
BRANCH  47  50
ATOM     50  S   UNL A   1      56.991  34.755  21.643  1.00  0.00     0.127 S 
ATOM     51  O   UNL A   1      56.532  36.046  22.157  1.00  0.00    -0.237 OA
ATOM     52  O   UNL A   1      57.759  33.957  22.597  1.00  0.00    -0.237 OA
ATOM     53  O   UNL A   1      57.533  34.786  20.292  1.00  0.00    -0.744 OA
ENDBRANCH  47  50
ENDBRANCH  29  43
BRANCH  30  54
ATOM     54  C   UNL A   1      48.663  29.321  30.699  1.00  0.00     0.023 A 
ATOM     55  C   UNL A   1      49.284  29.364  31.961  1.00  0.00     0.012 A 
ATOM     56  C   UNL A   1      47.331  28.863  30.610  1.00  0.00     0.148 A 
ATOM     57  C   UNL A   1      48.601  28.949  33.107  1.00  0.00     0.002 A 
ATOM     58  C   UNL A   1      46.636  28.509  31.761  1.00  0.00     0.091 A 
ATOM     59  F   UNL A   1      46.759  28.806  29.398  1.00  0.00    -0.205 F 
ATOM     60  C   UNL A   1      47.275  28.536  33.009  1.00  0.00     0.022 A 
BRANCH  58  61
ATOM     61  S   UNL A   1      44.887  28.096  31.746  1.00  0.00     0.127 S 
ATOM     62  O   UNL A   1      44.889  26.810  31.054  1.00  0.00    -0.237 OA
ATOM     63  O   UNL A   1      44.582  28.026  33.175  1.00  0.00    -0.237 OA
ATOM     64  O   UNL A   1      44.229  29.189  31.044  1.00  0.00    -0.744 OA
ENDBRANCH  58  61
ENDBRANCH  30  54
BRANCH  42  65
ATOM     65  C   UNL A   1      53.260  26.483  26.229  1.00  0.00     0.023 A 
ATOM     66  C   UNL A   1      52.697  25.527  25.363  1.00  0.00     0.012 A 
ATOM     67  C   UNL A   1      54.481  26.209  26.876  1.00  0.00     0.148 A 
ATOM     68  C   UNL A   1      53.337  24.307  25.152  1.00  0.00     0.002 A 
ATOM     69  C   UNL A   1      55.140  25.017  26.616  1.00  0.00     0.091 A 
ATOM     70  F   UNL A   1      54.985  27.134  27.706  1.00  0.00    -0.205 F 
ATOM     71  C   UNL A   1      54.565  24.061  25.763  1.00  0.00     0.022 A 
BRANCH  69  72
ATOM     72  S   UNL A   1      56.781  24.670  27.256  1.00  0.00     0.127 S 
ATOM     73  O   UNL A   1      56.974  23.281  26.842  1.00  0.00    -0.237 OA
ATOM     74  O   UNL A   1      57.604  25.642  26.538  1.00  0.00    -0.237 OA
ATOM     75  O   UNL A   1      56.707  24.885  28.695  1.00  0.00    -0.744 OA
ENDBRANCH  69  72
ENDBRANCH  42  65
ENDBRANCH  16  17
ENDBRANCH   9  11
ENDBRANCH   8   9
ENDBRANCH   7   8
ENDBRANCH   6   7
ENDBRANCH   5   6
ENDBRANCH   4   5
ENDBRANCH   3   4
ENDBRANCH   2   3
ENDBRANCH   1   2
BRANCH   1  76
ATOM     76  C   UNL A   1      45.984  30.931  26.816  1.00  0.00     0.188 C 
BRANCH  76  77
ATOM     77  O   UNL A   1      46.667  29.985  26.010  1.00  0.00    -0.376 OA
BRANCH  77  78
ATOM     78  C   UNL A   1      46.012  28.729  25.848  1.00  0.00     0.202 C 
BRANCH  78  79
ATOM     79  C   UNL A   1      46.743  27.548  26.505  1.00  0.00     0.261 C 
BRANCH  79  80
ATOM     80  O   UNL A   1      47.782  26.956  25.700  1.00  0.00    -0.460 OA
BRANCH  80  81
ATOM     81  C   UNL A   1      48.200  25.709  26.010  1.00  0.00     0.338 C 
ATOM     82  O   UNL A   1      49.284  25.376  26.453  1.00  0.00    -0.246 OA
BRANCH  81  83
ATOM     83  C   UNL A   1      47.008  24.827  25.968  1.00  0.00     0.063 A 
ATOM     84  C   UNL A   1      46.458  24.302  27.142  1.00  0.00     0.017 A 
ATOM     85  C   UNL A   1      46.549  24.384  24.716  1.00  0.00     0.056 A 
ATOM     86  C   UNL A   1      45.454  23.335  27.062  1.00  0.00     0.026 A 
ATOM     87  C   UNL A   1      45.565  23.399  24.646  1.00  0.00     0.144 A 
ATOM     88  C   UNL A   1      45.013  22.882  25.808  1.00  0.00     0.118 A 
ATOM     89  F   UNL A   1      45.192  22.961  23.437  1.00  0.00    -0.205 F 
BRANCH  88  90
ATOM     90  S   UNL A   1      43.696  21.715  25.758  1.00  0.00     0.243 S 
ATOM     91  O   UNL A   1      42.621  22.334  25.039  1.00  0.00    -0.207 OA
ATOM     92  O   UNL A   1      44.291  20.467  25.298  1.00  0.00    -0.207 OA
BRANCH  90  93
ATOM     93  N   UNL A   1      43.221  21.432  27.336  1.00  0.00    -0.205 NA
ATOM     94  H   UNL A   1      43.943  21.851  27.923  1.00  0.00     0.141 HD
BRANCH  93  95
ATOM     95  C   UNL A   1      41.939  21.883  27.897  1.00  0.00     0.160 C 
BRANCH  95  96
ATOM     96  C   UNL A   1      41.852  23.362  28.348  1.00  0.00     0.278 C 
BRANCH  96  97
ATOM     97  N   UNL A   1      41.704  24.442  27.347  1.00  0.00    -0.334 N 
ATOM     98  C   UNL A   1      41.996  25.802  27.815  1.00  0.00     0.262 C 
ATOM     99  C   UNL A   1      40.287  24.484  26.891  1.00  0.00     0.262 C 
ATOM    100  H   UNL A   1      42.386  24.207  26.625  1.00  0.00     0.348 HD
ATOM    101  C   UNL A   1      40.685  26.359  28.323  1.00  0.00     0.067 C 
ATOM    102  C   UNL A   1      39.713  25.841  27.289  1.00  0.00     0.067 C 
ENDBRANCH  96  97
ENDBRANCH  95  96
ENDBRANCH  93  95
ENDBRANCH  90  93
ENDBRANCH  88  90
ENDBRANCH  81  83
ENDBRANCH  80  81
ENDBRANCH  79  80
ENDBRANCH  78  79
ENDBRANCH  77  78
ENDBRANCH  76  77
ENDBRANCH   1  76
TORSDOF 28
ENDMDL
MODEL 3
REMARK VINA RESULT:      -5.5      3.954      7.941
REMARK SMILES O=C(OCCOCCOCCOCCOC(=O)c1ccc(S(=O)(=O)NCC[NH+]2CCCC2)c(F)c1)c1ccc(-c2c3nc(c(-c4cccc(S(=O)(=O)[O-])c4F)c4ccc([nH]4)c(-c4cccc(S(=O)(=O)[O-])c4F)c4nc(c(-c5cccc(S(=O)(=O)[O-])c5F)c5ccc2[nH]5)C=C4)C=C3)cc1
REMARK SMILES IDX 10 1 9 2 8 3 7 4 6 5 5 6 4 7 3 8 2 9 1 10 36 11 37 12 98 13
REMARK SMILES IDX 38 14 97 15 39 16 40 17 41 18 91 19 42 20 96 21 90 22 92 23
REMARK SMILES IDX 43 24 95 25 89 26 88 27 44 29 76 30 56 31 75 32 57 33 60 34
REMARK SMILES IDX 74 35 93 36 58 37 59 38 73 40 94 41 61 42 45 43 46 44 54 45
REMARK SMILES IDX 47 46 49 47 55 48 48 49 50 50 51 51 52 52 53 53 77 54 78 55
REMARK SMILES IDX 86 56 79 57 81 58 87 59 80 60 82 61 83 62 84 63 85 64 62 65
REMARK SMILES IDX 63 66 71 67 64 68 66 69 72 70 65 71 67 72 68 73 69 74 70 75
REMARK SMILES IDX 11 76 12 77 13 78 14 79 15 80 16 81 17 82 18 83 19 84 35 85
REMARK SMILES IDX 20 86 33 87 21 88 34 89 22 90 23 91 24 92 25 93 26 95 27 96
REMARK SMILES IDX 28 97 29 98 32 99 30 101 31 102
REMARK H PARENT 92 28 60 39 25 94 28 100
REMARK Flexibility Score: inf
ROOT
ATOM      1  C   UNL A   1      43.716  41.324  31.408  1.00  0.00     0.188 C 
ENDROOT
BRANCH   1   2
ATOM      2  O   UNL A   1      44.902  41.483  30.641  1.00  0.00    -0.377 OA
BRANCH   2   3
ATOM      3  C   UNL A   1      44.748  41.503  29.224  1.00  0.00     0.188 C 
BRANCH   3   4
ATOM      4  C   UNL A   1      45.700  40.597  28.446  1.00  0.00     0.188 C 
BRANCH   4   5
ATOM      5  O   UNL A   1      45.563  40.768  27.035  1.00  0.00    -0.376 OA
BRANCH   5   6
ATOM      6  C   UNL A   1      45.515  39.570  26.262  1.00  0.00     0.202 C 
BRANCH   6   7
ATOM      7  C   UNL A   1      45.251  38.293  27.064  1.00  0.00     0.261 C 
BRANCH   7   8
ATOM      8  O   UNL A   1      43.865  37.923  27.073  1.00  0.00    -0.460 OA
BRANCH   8   9
ATOM      9  C   UNL A   1      43.151  37.411  28.107  1.00  0.00     0.338 C 
ATOM     10  O   UNL A   1      42.318  38.141  28.645  1.00  0.00    -0.246 OA
BRANCH   9  11
ATOM     11  C   UNL A   1      43.313  36.020  28.641  1.00  0.00     0.060 A 
ATOM     12  C   UNL A   1      42.275  35.128  28.922  1.00  0.00     0.016 A 
ATOM     13  C   UNL A   1      44.629  35.560  28.815  1.00  0.00     0.016 A 
ATOM     14  C   UNL A   1      42.511  33.859  29.425  1.00  0.00     0.010 A 
ATOM     15  C   UNL A   1      44.884  34.277  29.308  1.00  0.00     0.010 A 
ATOM     16  C   UNL A   1      43.815  33.441  29.650  1.00  0.00    -0.014 A 
BRANCH  16  17
ATOM     17  C   UNL A   1      44.000  32.221  30.447  1.00  0.00     0.031 A 
ATOM     18  C   UNL A   1      44.116  30.927  29.703  1.00  0.00     0.074 A 
ATOM     19  C   UNL A   1      44.209  32.305  31.773  1.00  0.00     0.049 A 
ATOM     20  N   UNL A   1      44.233  29.716  30.165  1.00  0.00    -0.248 NA
ATOM     21  C   UNL A   1      44.121  31.011  28.229  1.00  0.00     0.031 C 
ATOM     22  C   UNL A   1      44.255  33.551  32.541  1.00  0.00     0.029 A 
ATOM     23  N   UNL A   1      44.438  31.327  32.702  1.00  0.00    -0.354 N 
ATOM     24  C   UNL A   1      44.260  28.893  29.048  1.00  0.00     0.074 A 
ATOM     25  C   UNL A   1      44.173  29.736  27.881  1.00  0.00     0.031 C 
ATOM     26  C   UNL A   1      44.491  33.259  33.831  1.00  0.00     0.029 A 
ATOM     27  C   UNL A   1      44.543  31.810  33.985  1.00  0.00     0.049 A 
ATOM     28  H   UNL A   1      44.519  30.373  32.475  1.00  0.00     0.167 HD
ATOM     29  C   UNL A   1      44.346  27.545  29.013  1.00  0.00     0.034 A 
ATOM     30  C   UNL A   1      44.625  31.140  35.151  1.00  0.00     0.034 A 
ATOM     31  C   UNL A   1      44.452  26.745  30.198  1.00  0.00     0.049 A 
ATOM     32  C   UNL A   1      44.643  29.636  35.090  1.00  0.00     0.074 A 
ATOM     33  C   UNL A   1      44.501  25.370  30.306  1.00  0.00     0.029 A 
ATOM     34  N   UNL A   1      44.523  27.260  31.486  1.00  0.00    -0.354 N 
ATOM     35  N   UNL A   1      44.651  28.857  34.033  1.00  0.00    -0.248 NA
ATOM     36  C   UNL A   1      44.671  28.914  36.368  1.00  0.00     0.031 C 
ATOM     37  C   UNL A   1      44.568  25.052  31.665  1.00  0.00     0.029 A 
ATOM     38  C   UNL A   1      44.605  26.230  32.400  1.00  0.00     0.049 A 
ATOM     39  H   UNL A   1      44.518  28.217  31.712  1.00  0.00     0.167 HD
ATOM     40  C   UNL A   1      44.704  27.555  34.514  1.00  0.00     0.074 A 
ATOM     41  C   UNL A   1      44.751  27.654  35.961  1.00  0.00     0.031 C 
ATOM     42  C   UNL A   1      44.698  26.384  33.831  1.00  0.00     0.034 A 
BRANCH  29  43
ATOM     43  C   UNL A   1      44.283  26.876  27.669  1.00  0.00     0.023 A 
ATOM     44  C   UNL A   1      43.048  26.714  27.011  1.00  0.00     0.012 A 
ATOM     45  C   UNL A   1      45.463  26.417  27.051  1.00  0.00     0.148 A 
ATOM     46  C   UNL A   1      42.986  26.084  25.768  1.00  0.00     0.002 A 
ATOM     47  C   UNL A   1      45.399  25.831  25.794  1.00  0.00     0.091 A 
ATOM     48  F   UNL A   1      46.621  26.552  27.712  1.00  0.00    -0.205 F 
ATOM     49  C   UNL A   1      44.160  25.652  25.156  1.00  0.00     0.022 A 
BRANCH  47  50
ATOM     50  S   UNL A   1      46.859  25.304  24.894  1.00  0.00     0.127 S 
ATOM     51  O   UNL A   1      46.326  24.212  24.079  1.00  0.00    -0.237 OA
ATOM     52  O   UNL A   1      47.206  26.511  24.145  1.00  0.00    -0.237 OA
ATOM     53  O   UNL A   1      47.833  24.905  25.900  1.00  0.00    -0.744 OA
ENDBRANCH  47  50
ENDBRANCH  29  43
BRANCH  30  54
ATOM     54  C   UNL A   1      44.681  31.885  36.442  1.00  0.00     0.023 A 
ATOM     55  C   UNL A   1      45.883  32.495  36.849  1.00  0.00     0.012 A 
ATOM     56  C   UNL A   1      43.533  32.038  37.247  1.00  0.00     0.148 A 
ATOM     57  C   UNL A   1      45.945  33.227  38.037  1.00  0.00     0.002 A 
ATOM     58  C   UNL A   1      43.585  32.819  38.397  1.00  0.00     0.091 A 
ATOM     59  F   UNL A   1      42.401  31.433  36.860  1.00  0.00    -0.205 F 
ATOM     60  C   UNL A   1      44.794  33.401  38.802  1.00  0.00     0.022 A 
BRANCH  58  61
ATOM     61  S   UNL A   1      42.124  33.208  39.368  1.00  0.00     0.127 S 
ATOM     62  O   UNL A   1      42.676  33.302  40.717  1.00  0.00    -0.237 OA
ATOM     63  O   UNL A   1      41.705  34.482  38.784  1.00  0.00    -0.237 OA
ATOM     64  O   UNL A   1      41.195  32.109  39.142  1.00  0.00    -0.744 OA
ENDBRANCH  58  61
ENDBRANCH  30  54
BRANCH  42  65
ATOM     65  C   UNL A   1      44.769  25.112  34.630  1.00  0.00     0.023 A 
ATOM     66  C   UNL A   1      43.589  24.402  34.916  1.00  0.00     0.012 A 
ATOM     67  C   UNL A   1      46.020  24.553  34.956  1.00  0.00     0.148 A 
ATOM     68  C   UNL A   1      43.652  23.154  35.532  1.00  0.00     0.002 A 
ATOM     69  C   UNL A   1      46.077  23.286  35.516  1.00  0.00     0.091 A 
ATOM     70  F   UNL A   1      47.127  25.260  34.683  1.00  0.00    -0.205 F 
ATOM     71  C   UNL A   1      44.894  22.589  35.814  1.00  0.00     0.022 A 
BRANCH  69  72
ATOM     72  S   UNL A   1      47.631  22.429  35.794  1.00  0.00     0.127 S 
ATOM     73  O   UNL A   1      48.259  23.277  36.805  1.00  0.00    -0.237 OA
ATOM     74  O   UNL A   1      47.181  21.126  36.282  1.00  0.00    -0.237 OA
ATOM     75  O   UNL A   1      48.308  22.392  34.505  1.00  0.00    -0.744 OA
ENDBRANCH  69  72
ENDBRANCH  42  65
ENDBRANCH  16  17
ENDBRANCH   9  11
ENDBRANCH   8   9
ENDBRANCH   7   8
ENDBRANCH   6   7
ENDBRANCH   5   6
ENDBRANCH   4   5
ENDBRANCH   3   4
ENDBRANCH   2   3
ENDBRANCH   1   2
BRANCH   1  76
ATOM     76  C   UNL A   1      43.193  39.905  31.735  1.00  0.00     0.188 C 
BRANCH  76  77
ATOM     77  O   UNL A   1      43.709  39.329  32.924  1.00  0.00    -0.376 OA
BRANCH  77  78
ATOM     78  C   UNL A   1      43.822  37.908  32.921  1.00  0.00     0.202 C 
BRANCH  78  79
ATOM     79  C   UNL A   1      43.416  37.240  34.243  1.00  0.00     0.261 C 
BRANCH  79  80
ATOM     80  O   UNL A   1      42.060  36.750  34.282  1.00  0.00    -0.460 OA
BRANCH  80  81
ATOM     81  C   UNL A   1      41.835  35.531  34.818  1.00  0.00     0.338 C 
ATOM     82  O   UNL A   1      42.270  35.086  35.865  1.00  0.00    -0.246 OA
BRANCH  81  83
ATOM     83  C   UNL A   1      40.739  34.907  34.037  1.00  0.00     0.063 A 
ATOM     84  C   UNL A   1      40.876  34.672  32.664  1.00  0.00     0.017 A 
ATOM     85  C   UNL A   1      39.495  34.721  34.662  1.00  0.00     0.056 A 
ATOM     86  C   UNL A   1      39.769  34.255  31.921  1.00  0.00     0.026 A 
ATOM     87  C   UNL A   1      38.390  34.329  33.908  1.00  0.00     0.144 A 
ATOM     88  C   UNL A   1      38.524  34.089  32.549  1.00  0.00     0.118 A 
ATOM     89  F   UNL A   1      37.207  34.216  34.527  1.00  0.00    -0.205 F 
BRANCH  88  90
ATOM     90  S   UNL A   1      37.177  33.493  31.585  1.00  0.00     0.243 S 
ATOM     91  O   UNL A   1      36.026  34.260  31.962  1.00  0.00    -0.207 OA
ATOM     92  O   UNL A   1      37.653  33.476  30.208  1.00  0.00    -0.207 OA
BRANCH  90  93
ATOM     93  N   UNL A   1      36.938  31.891  31.998  1.00  0.00    -0.205 NA
ATOM     94  H   UNL A   1      36.281  31.900  32.778  1.00  0.00     0.141 HD
BRANCH  93  95
ATOM     95  C   UNL A   1      36.436  30.872  31.064  1.00  0.00     0.160 C 
BRANCH  95  96
ATOM     96  C   UNL A   1      37.491  29.980  30.365  1.00  0.00     0.278 C 
BRANCH  96  97
ATOM     97  N   UNL A   1      38.368  30.544  29.313  1.00  0.00    -0.334 N 
ATOM     98  C   UNL A   1      38.446  29.782  28.060  1.00  0.00     0.262 C 
ATOM     99  C   UNL A   1      39.765  30.593  29.826  1.00  0.00     0.262 C 
ATOM    100  H   UNL A   1      37.951  31.450  29.101  1.00  0.00     0.348 HD
ATOM    101  C   UNL A   1      39.598  28.817  28.230  1.00  0.00     0.067 C 
ATOM    102  C   UNL A   1      40.613  29.678  28.946  1.00  0.00     0.067 C 
ENDBRANCH  96  97
ENDBRANCH  95  96
ENDBRANCH  93  95
ENDBRANCH  90  93
ENDBRANCH  88  90
ENDBRANCH  81  83
ENDBRANCH  80  81
ENDBRANCH  79  80
ENDBRANCH  78  79
ENDBRANCH  77  78
ENDBRANCH  76  77
ENDBRANCH   1  76
TORSDOF 28
ENDMDL
