MODEL 1
REMARK VINA RESULT:      -7.2      0.000      0.000
REMARK SMILES Cc1cc(NC(=O)c2sccc2/C=C/C(=O)OCCOCCOCCOCCOC(=O)c2ccc(-c3c4nc(c(-c5cccc(S(=O)(=O)[O-])c5F)c5ccc([nH]5)c(-c5cccc(S(=O)(=O)[O-])c5F)c5nc(c(-c6cccc(S(=O)(=O)[O-])c6F)c6ccc3[nH]6)C=C5)C=C4)cc2)ccn1
REMARK SMILES IDX 23 1 22 2 21 3 20 4 19 5 18 6 17 7 15 8 16 9 14 10 13 11
REMARK SMILES IDX 12 12 8 13 9 14 10 15 11 16 6 17 5 18 7 20 4 21 1 22 2 23
REMARK SMILES IDX 3 24 97 25 96 26 95 27 24 28 25 29 26 30 27 31 28 32 29 33
REMARK SMILES IDX 30 34 31 35 32 36 33 37 94 38 34 39 93 40 35 41 36 42 37 43
REMARK SMILES IDX 87 44 38 45 92 46 86 47 88 48 39 49 91 50 85 51 84 52 40 54
REMARK SMILES IDX 72 55 52 56 71 57 53 58 56 59 70 60 89 61 54 62 55 63 69 65
REMARK SMILES IDX 90 66 57 67 41 68 42 69 50 70 43 71 45 72 51 73 44 74 46 75
REMARK SMILES IDX 47 76 48 77 49 78 73 79 74 80 82 81 75 82 77 83 83 84 76 85
REMARK SMILES IDX 78 86 79 87 80 88 81 89 58 90 59 91 67 92 60 93 62 94 68 95
REMARK SMILES IDX 61 96 63 97 64 98 65 99 66 100
REMARK H PARENT 5 19 88 53 56 64
REMARK Flexibility Score: inf
ROOT
ATOM      1  O   UNL A   1      43.898  39.836  34.196  1.00  0.00    -0.377 OA
ENDROOT
BRANCH   1   2
ATOM      2  C   UNL A   1      44.713  38.806  34.717  1.00  0.00     0.188 C 
BRANCH   2   3
ATOM      3  C   UNL A   1      44.325  38.369  36.139  1.00  0.00     0.188 C 
BRANCH   3   4
ATOM      4  O   UNL A   1      43.938  37.030  36.378  1.00  0.00    -0.376 OA
BRANCH   4   5
ATOM      5  C   UNL A   1      42.602  36.555  36.294  1.00  0.00     0.202 C 
BRANCH   5   6
ATOM      6  C   UNL A   1      41.613  36.730  35.125  1.00  0.00     0.261 C 
BRANCH   6   7
ATOM      7  O   UNL A   1      40.232  36.846  35.428  1.00  0.00    -0.460 OA
BRANCH   7   8
ATOM      8  C   UNL A   1      39.587  35.687  35.663  1.00  0.00     0.330 C 
ATOM      9  O   UNL A   1      39.022  35.365  36.697  1.00  0.00    -0.247 OA
BRANCH   8  10
ATOM     10  C   UNL A   1      39.498  34.874  34.434  1.00  0.00     0.094 C 
ATOM     11  C   UNL A   1      38.407  34.753  33.655  1.00  0.00     0.017 C 
BRANCH  11  12
ATOM     12  C   UNL A   1      38.423  34.075  32.392  1.00  0.00    -0.002 A 
ATOM     13  C   UNL A   1      37.526  33.071  32.044  1.00  0.00     0.099 A 
ATOM     14  S   UNL A   1      37.825  32.508  30.444  1.00  0.00    -0.138 S 
ATOM     15  C   UNL A   1      39.068  33.649  30.193  1.00  0.00     0.066 A 
ATOM     16  C   UNL A   1      39.311  34.401  31.318  1.00  0.00     0.020 A 
BRANCH  13  17
ATOM     17  C   UNL A   1      36.433  32.442  32.779  1.00  0.00     0.266 C 
ATOM     18  N   UNL A   1      35.283  33.148  33.088  1.00  0.00    -0.321 N 
ATOM     19  H   UNL A   1      34.728  32.729  33.786  1.00  0.00     0.170 HD
ATOM     20  O   UNL A   1      36.515  31.287  33.204  1.00  0.00    -0.268 OA
BRANCH  18  21
ATOM     21  C   UNL A   1      34.763  34.355  32.584  1.00  0.00     0.044 A 
ATOM     22  C   UNL A   1      32.976  35.485  29.446  1.00  0.00     0.067 C 
ATOM     23  C   UNL A   1      33.611  35.480  30.803  1.00  0.00     0.039 A 
ATOM     24  C   UNL A   1      34.267  34.348  31.280  1.00  0.00     0.049 A 
ATOM     25  N   UNL A   1      33.444  36.596  31.553  1.00  0.00    -0.261 NA
ATOM     26  C   UNL A   1      33.995  36.602  32.781  1.00  0.00     0.113 A 
ATOM     27  C   UNL A   1      34.682  35.531  33.324  1.00  0.00     0.046 A 
ENDBRANCH  18  21
ENDBRANCH  13  17
ENDBRANCH  11  12
ENDBRANCH   8  10
ENDBRANCH   7   8
ENDBRANCH   6   7
ENDBRANCH   5   6
ENDBRANCH   4   5
ENDBRANCH   3   4
ENDBRANCH   2   3
ENDBRANCH   1   2
BRANCH   1  28
ATOM     28  C   UNL A   1      43.333  39.634  32.905  1.00  0.00     0.188 C 
BRANCH  28  29
ATOM     29  C   UNL A   1      43.576  40.665  31.778  1.00  0.00     0.188 C 
BRANCH  29  30
ATOM     30  O   UNL A   1      42.406  41.309  31.292  1.00  0.00    -0.376 OA
BRANCH  30  31
ATOM     31  C   UNL A   1      41.949  41.002  29.984  1.00  0.00     0.202 C 
BRANCH  31  32
ATOM     32  C   UNL A   1      42.842  40.095  29.124  1.00  0.00     0.261 C 
BRANCH  32  33
ATOM     33  O   UNL A   1      42.323  38.788  28.844  1.00  0.00    -0.460 OA
BRANCH  33  34
ATOM     34  C   UNL A   1      42.906  38.087  27.849  1.00  0.00     0.338 C 
ATOM     35  O   UNL A   1      43.312  38.524  26.784  1.00  0.00    -0.246 OA
BRANCH  34  36
ATOM     36  C   UNL A   1      43.156  36.721  28.349  1.00  0.00     0.060 A 
ATOM     37  C   UNL A   1      42.115  35.783  28.310  1.00  0.00     0.016 A 
ATOM     38  C   UNL A   1      44.412  36.367  28.847  1.00  0.00     0.016 A 
ATOM     39  C   UNL A   1      42.318  34.498  28.810  1.00  0.00     0.010 A 
ATOM     40  C   UNL A   1      44.606  35.085  29.366  1.00  0.00     0.010 A 
ATOM     41  C   UNL A   1      43.549  34.158  29.384  1.00  0.00    -0.014 A 
BRANCH  41  42
ATOM     42  C   UNL A   1      43.674  32.911  30.178  1.00  0.00     0.031 A 
ATOM     43  C   UNL A   1      44.267  31.699  29.510  1.00  0.00     0.074 A 
ATOM     44  C   UNL A   1      43.267  32.850  31.458  1.00  0.00     0.049 A 
ATOM     45  N   UNL A   1      44.425  30.490  29.978  1.00  0.00    -0.248 NA
ATOM     46  C   UNL A   1      44.741  31.875  28.126  1.00  0.00     0.031 C 
ATOM     47  C   UNL A   1      42.690  33.957  32.216  1.00  0.00     0.029 A 
ATOM     48  N   UNL A   1      43.252  31.794  32.336  1.00  0.00    -0.354 N 
ATOM     49  C   UNL A   1      44.981  29.753  28.939  1.00  0.00     0.074 A 
ATOM     50  C   UNL A   1      45.130  30.649  27.814  1.00  0.00     0.031 C 
ATOM     51  C   UNL A   1      42.343  33.514  33.437  1.00  0.00     0.029 A 
ATOM     52  C   UNL A   1      42.644  32.087  33.535  1.00  0.00     0.049 A 
ATOM     53  H   UNL A   1      43.638  30.914  32.128  1.00  0.00     0.167 HD
ATOM     54  C   UNL A   1      45.344  28.450  28.925  1.00  0.00     0.034 A 
ATOM     55  C   UNL A   1      42.338  31.284  34.575  1.00  0.00     0.034 A 
ATOM     56  C   UNL A   1      45.209  27.565  30.049  1.00  0.00     0.049 A 
ATOM     57  C   UNL A   1      42.725  29.827  34.521  1.00  0.00     0.074 A 
ATOM     58  C   UNL A   1      45.593  26.240  30.149  1.00  0.00     0.029 A 
ATOM     59  N   UNL A   1      44.628  27.906  31.259  1.00  0.00    -0.354 N 
ATOM     60  N   UNL A   1      43.354  29.172  33.574  1.00  0.00    -0.248 NA
ATOM     61  C   UNL A   1      42.389  29.003  35.692  1.00  0.00     0.031 C 
ATOM     62  C   UNL A   1      45.207  25.768  31.407  1.00  0.00     0.029 A 
ATOM     63  C   UNL A   1      44.628  26.813  32.108  1.00  0.00     0.049 A 
ATOM     64  H   UNL A   1      44.269  28.795  31.483  1.00  0.00     0.167 HD
ATOM     65  C   UNL A   1      43.529  27.877  34.055  1.00  0.00     0.074 A 
ATOM     66  C   UNL A   1      42.953  27.844  35.382  1.00  0.00     0.031 C 
ATOM     67  C   UNL A   1      44.105  26.810  33.448  1.00  0.00     0.034 A 
BRANCH  54  68
ATOM     68  C   UNL A   1      45.932  27.897  27.654  1.00  0.00     0.023 A 
ATOM     69  C   UNL A   1      45.091  27.324  26.679  1.00  0.00     0.012 A 
ATOM     70  C   UNL A   1      47.312  28.013  27.396  1.00  0.00     0.148 A 
ATOM     71  C   UNL A   1      45.618  26.851  25.478  1.00  0.00     0.002 A 
ATOM     72  C   UNL A   1      47.822  27.584  26.178  1.00  0.00     0.091 A 
ATOM     73  F   UNL A   1      48.097  28.541  28.346  1.00  0.00    -0.205 F 
ATOM     74  C   UNL A   1      46.979  26.992  25.223  1.00  0.00     0.022 A 
BRANCH  72  75
ATOM     75  S   UNL A   1      49.545  27.796  25.719  1.00  0.00     0.127 S 
ATOM     76  O   UNL A   1      49.701  29.247  25.820  1.00  0.00    -0.237 OA
ATOM     77  O   UNL A   1      50.234  27.035  26.761  1.00  0.00    -0.237 OA
ATOM     78  O   UNL A   1      49.676  27.249  24.375  1.00  0.00    -0.744 OA
ENDBRANCH  72  75
ENDBRANCH  54  68
BRANCH  55  79
ATOM     79  C   UNL A   1      41.632  31.835  35.768  1.00  0.00     0.023 A 
ATOM     80  C   UNL A   1      42.348  32.585  36.721  1.00  0.00     0.012 A 
ATOM     81  C   UNL A   1      40.256  31.607  35.970  1.00  0.00     0.148 A 
ATOM     82  C   UNL A   1      41.718  33.060  37.873  1.00  0.00     0.002 A 
ATOM     83  C   UNL A   1      39.621  32.138  37.086  1.00  0.00     0.091 A 
ATOM     84  F   UNL A   1      39.594  30.877  35.061  1.00  0.00    -0.205 F 
ATOM     85  C   UNL A   1      40.355  32.844  38.050  1.00  0.00     0.022 A 
BRANCH  83  86
ATOM     86  S   UNL A   1      37.845  32.032  37.324  1.00  0.00     0.127 S 
ATOM     87  O   UNL A   1      37.340  32.667  36.109  1.00  0.00    -0.237 OA
ATOM     88  O   UNL A   1      37.637  30.585  37.397  1.00  0.00    -0.237 OA
ATOM     89  O   UNL A   1      37.570  32.736  38.568  1.00  0.00    -0.744 OA
ENDBRANCH  83  86
ENDBRANCH  55  79
BRANCH  67  90
ATOM     90  C   UNL A   1      44.207  25.524  34.230  1.00  0.00     0.023 A 
ATOM     91  C   UNL A   1      43.160  24.583  34.191  1.00  0.00     0.012 A 
ATOM     92  C   UNL A   1      45.386  25.215  34.938  1.00  0.00     0.148 A 
ATOM     93  C   UNL A   1      43.269  23.372  34.875  1.00  0.00     0.002 A 
ATOM     94  C   UNL A   1      45.511  23.986  35.570  1.00  0.00     0.091 A 
ATOM     95  F   UNL A   1      46.368  26.129  34.974  1.00  0.00    -0.205 F 
ATOM     96  C   UNL A   1      44.447  23.068  35.553  1.00  0.00     0.022 A 
BRANCH  94  97
ATOM     97  S   UNL A   1      47.028  23.466  36.380  1.00  0.00     0.127 S 
ATOM     98  O   UNL A   1      47.221  24.532  37.361  1.00  0.00    -0.237 OA
ATOM     99  O   UNL A   1      46.647  22.174  36.951  1.00  0.00    -0.237 OA
ATOM    100  O   UNL A   1      48.039  23.392  35.334  1.00  0.00    -0.744 OA
ENDBRANCH  94  97
ENDBRANCH  67  90
ENDBRANCH  41  42
ENDBRANCH  34  36
ENDBRANCH  33  34
ENDBRANCH  32  33
ENDBRANCH  31  32
ENDBRANCH  30  31
ENDBRANCH  29  30
ENDBRANCH  28  29
ENDBRANCH   1  28
TORSDOF 26
ENDMDL
MODEL 2
REMARK VINA RESULT:      -7.0      7.217     12.163
REMARK SMILES Cc1cc(NC(=O)c2sccc2/C=C/C(=O)OCCOCCOCCOCCOC(=O)c2ccc(-c3c4nc(c(-c5cccc(S(=O)(=O)[O-])c5F)c5ccc([nH]5)c(-c5cccc(S(=O)(=O)[O-])c5F)c5nc(c(-c6cccc(S(=O)(=O)[O-])c6F)c6ccc3[nH]6)C=C5)C=C4)cc2)ccn1
REMARK SMILES IDX 23 1 22 2 21 3 20 4 19 5 18 6 17 7 15 8 16 9 14 10 13 11
REMARK SMILES IDX 12 12 8 13 9 14 10 15 11 16 6 17 5 18 7 20 4 21 1 22 2 23
REMARK SMILES IDX 3 24 97 25 96 26 95 27 24 28 25 29 26 30 27 31 28 32 29 33
REMARK SMILES IDX 30 34 31 35 32 36 33 37 94 38 34 39 93 40 35 41 36 42 37 43
REMARK SMILES IDX 87 44 38 45 92 46 86 47 88 48 39 49 91 50 85 51 84 52 40 54
REMARK SMILES IDX 72 55 52 56 71 57 53 58 56 59 70 60 89 61 54 62 55 63 69 65
REMARK SMILES IDX 90 66 57 67 41 68 42 69 50 70 43 71 45 72 51 73 44 74 46 75
REMARK SMILES IDX 47 76 48 77 49 78 73 79 74 80 82 81 75 82 77 83 83 84 76 85
REMARK SMILES IDX 78 86 79 87 80 88 81 89 58 90 59 91 67 92 60 93 62 94 68 95
REMARK SMILES IDX 61 96 63 97 64 98 65 99 66 100
REMARK H PARENT 5 19 88 53 56 64
REMARK Flexibility Score: inf
ROOT
ATOM      1  O   UNL A   1      46.805  40.597  23.239  1.00  0.00    -0.377 OA
ENDROOT
BRANCH   1   2
ATOM      2  C   UNL A   1      47.508  41.614  22.556  1.00  0.00     0.188 C 
BRANCH   2   3
ATOM      3  C   UNL A   1      46.944  41.925  21.159  1.00  0.00     0.188 C 
BRANCH   3   4
ATOM      4  O   UNL A   1      45.572  41.706  20.895  1.00  0.00    -0.376 OA
BRANCH   4   5
ATOM      5  C   UNL A   1      44.546  42.655  21.149  1.00  0.00     0.202 C 
BRANCH   5   6
ATOM      6  C   UNL A   1      44.244  43.383  22.473  1.00  0.00     0.261 C 
BRANCH   6   7
ATOM      7  O   UNL A   1      44.243  44.802  22.471  1.00  0.00    -0.460 OA
BRANCH   7   8
ATOM      8  C   UNL A   1      45.411  45.386  22.143  1.00  0.00     0.330 C 
ATOM      9  O   UNL A   1      46.521  45.061  22.534  1.00  0.00    -0.247 OA
BRANCH   8  10
ATOM     10  C   UNL A   1      45.214  46.407  21.095  1.00  0.00     0.094 C 
ATOM     11  C   UNL A   1      46.103  47.360  20.757  1.00  0.00     0.017 C 
BRANCH  11  12
ATOM     12  C   UNL A   1      45.924  48.227  19.630  1.00  0.00    -0.002 A 
ATOM     13  C   UNL A   1      46.068  47.816  18.310  1.00  0.00     0.099 A 
ATOM     14  S   UNL A   1      45.749  49.114  17.224  1.00  0.00    -0.138 S 
ATOM     15  C   UNL A   1      45.339  50.176  18.493  1.00  0.00     0.066 A 
ATOM     16  C   UNL A   1      45.505  49.592  19.727  1.00  0.00     0.020 A 
BRANCH  13  17
ATOM     17  C   UNL A   1      46.435  46.530  17.723  1.00  0.00     0.266 C 
ATOM     18  N   UNL A   1      45.498  45.521  17.575  1.00  0.00    -0.321 N 
ATOM     19  H   UNL A   1      45.886  44.631  17.411  1.00  0.00     0.170 HD
ATOM     20  O   UNL A   1      47.594  46.271  17.396  1.00  0.00    -0.268 OA
BRANCH  18  21
ATOM     21  C   UNL A   1      44.090  45.538  17.615  1.00  0.00     0.044 A 
ATOM     22  C   UNL A   1      41.368  43.690  19.481  1.00  0.00     0.067 C 
ATOM     23  C   UNL A   1      42.078  44.649  18.576  1.00  0.00     0.039 A 
ATOM     24  C   UNL A   1      43.456  44.569  18.393  1.00  0.00     0.049 A 
ATOM     25  N   UNL A   1      41.324  45.626  18.018  1.00  0.00    -0.261 NA
ATOM     26  C   UNL A   1      41.950  46.506  17.214  1.00  0.00     0.113 A 
ATOM     27  C   UNL A   1      43.309  46.485  16.959  1.00  0.00     0.046 A 
ENDBRANCH  18  21
ENDBRANCH  13  17
ENDBRANCH  11  12
ENDBRANCH   8  10
ENDBRANCH   7   8
ENDBRANCH   6   7
ENDBRANCH   5   6
ENDBRANCH   4   5
ENDBRANCH   3   4
ENDBRANCH   2   3
ENDBRANCH   1   2
BRANCH   1  28
ATOM     28  C   UNL A   1      46.595  40.771  24.637  1.00  0.00     0.188 C 
BRANCH  28  29
ATOM     29  C   UNL A   1      47.065  42.065  25.341  1.00  0.00     0.188 C 
BRANCH  29  30
ATOM     30  O   UNL A   1      46.042  42.791  26.009  1.00  0.00    -0.376 OA
BRANCH  30  31
ATOM     31  C   UNL A   1      44.693  42.586  25.621  1.00  0.00     0.202 C 
BRANCH  31  32
ATOM     32  C   UNL A   1      43.799  41.789  26.583  1.00  0.00     0.261 C 
BRANCH  32  33
ATOM     33  O   UNL A   1      42.864  40.891  25.971  1.00  0.00    -0.460 OA
BRANCH  33  34
ATOM     34  C   UNL A   1      41.848  40.437  26.734  1.00  0.00     0.338 C 
ATOM     35  O   UNL A   1      40.719  40.896  26.801  1.00  0.00    -0.246 OA
BRANCH  34  36
ATOM     36  C   UNL A   1      42.273  39.156  27.332  1.00  0.00     0.060 A 
ATOM     37  C   UNL A   1      42.289  38.005  26.533  1.00  0.00     0.016 A 
ATOM     38  C   UNL A   1      42.660  39.094  28.672  1.00  0.00     0.016 A 
ATOM     39  C   UNL A   1      42.651  36.778  27.086  1.00  0.00     0.010 A 
ATOM     40  C   UNL A   1      43.003  37.860  29.229  1.00  0.00     0.010 A 
ATOM     41  C   UNL A   1      42.964  36.692  28.448  1.00  0.00    -0.014 A 
BRANCH  41  42
ATOM     42  C   UNL A   1      43.056  35.363  29.101  1.00  0.00     0.031 A 
ATOM     43  C   UNL A   1      41.778  34.672  29.492  1.00  0.00     0.074 A 
ATOM     44  C   UNL A   1      44.245  34.785  29.350  1.00  0.00     0.049 A 
ATOM     45  N   UNL A   1      41.608  33.540  30.122  1.00  0.00    -0.248 NA
ATOM     46  C   UNL A   1      40.523  35.351  29.127  1.00  0.00     0.031 C 
ATOM     47  C   UNL A   1      45.548  35.349  29.008  1.00  0.00     0.029 A 
ATOM     48  N   UNL A   1      44.543  33.601  29.979  1.00  0.00    -0.354 N 
ATOM     49  C   UNL A   1      40.233  33.389  30.261  1.00  0.00     0.074 A 
ATOM     50  C   UNL A   1      39.614  34.546  29.653  1.00  0.00     0.031 C 
ATOM     51  C   UNL A   1      46.511  34.527  29.464  1.00  0.00     0.029 A 
ATOM     52  C   UNL A   1      45.891  33.397  30.156  1.00  0.00     0.049 A 
ATOM     53  H   UNL A   1      43.857  32.960  30.275  1.00  0.00     0.167 HD
ATOM     54  C   UNL A   1      39.546  32.374  30.834  1.00  0.00     0.034 A 
ATOM     55  C   UNL A   1      46.545  32.429  30.829  1.00  0.00     0.034 A 
ATOM     56  C   UNL A   1      40.163  31.218  31.424  1.00  0.00     0.049 A 
ATOM     57  C   UNL A   1      45.755  31.325  31.486  1.00  0.00     0.074 A 
ATOM     58  C   UNL A   1      39.551  30.112  31.987  1.00  0.00     0.029 A 
ATOM     59  N   UNL A   1      41.529  31.027  31.548  1.00  0.00    -0.354 N 
ATOM     60  N   UNL A   1      44.456  31.137  31.509  1.00  0.00    -0.248 NA
ATOM     61  C   UNL A   1      46.520  30.281  32.185  1.00  0.00     0.031 C 
ATOM     62  C   UNL A   1      40.548  29.271  32.488  1.00  0.00     0.029 A 
ATOM     63  C   UNL A   1      41.782  29.828  32.192  1.00  0.00     0.049 A 
ATOM     64  H   UNL A   1      42.219  31.650  31.225  1.00  0.00     0.167 HD
ATOM     65  C   UNL A   1      44.255  29.935  32.181  1.00  0.00     0.074 A 
ATOM     66  C   UNL A   1      45.565  29.430  32.536  1.00  0.00     0.031 C 
ATOM     67  C   UNL A   1      43.091  29.310  32.486  1.00  0.00     0.034 A 
BRANCH  54  68
ATOM     68  C   UNL A   1      38.043  32.460  30.847  1.00  0.00     0.023 A 
ATOM     69  C   UNL A   1      37.289  31.763  29.883  1.00  0.00     0.012 A 
ATOM     70  C   UNL A   1      37.378  33.174  31.864  1.00  0.00     0.148 A 
ATOM     71  C   UNL A   1      35.895  31.798  29.913  1.00  0.00     0.002 A 
ATOM     72  C   UNL A   1      35.990  33.164  31.915  1.00  0.00     0.091 A 
ATOM     73  F   UNL A   1      38.115  33.848  32.758  1.00  0.00    -0.205 F 
ATOM     74  C   UNL A   1      35.247  32.486  30.935  1.00  0.00     0.022 A 
BRANCH  72  75
ATOM     75  S   UNL A   1      35.063  33.951  33.237  1.00  0.00     0.127 S 
ATOM     76  O   UNL A   1      33.689  33.808  32.759  1.00  0.00    -0.237 OA
ATOM     77  O   UNL A   1      35.400  33.111  34.386  1.00  0.00    -0.237 OA
ATOM     78  O   UNL A   1      35.555  35.320  33.316  1.00  0.00    -0.744 OA
ENDBRANCH  72  75
ENDBRANCH  54  68
BRANCH  55  79
ATOM     79  C   UNL A   1      48.035  32.444  30.912  1.00  0.00     0.023 A 
ATOM     80  C   UNL A   1      48.799  31.785  29.929  1.00  0.00     0.012 A 
ATOM     81  C   UNL A   1      48.698  33.099  31.968  1.00  0.00     0.148 A 
ATOM     82  C   UNL A   1      50.191  31.740  30.021  1.00  0.00     0.002 A 
ATOM     83  C   UNL A   1      50.087  33.106  32.019  1.00  0.00     0.091 A 
ATOM     84  F   UNL A   1      47.955  33.708  32.904  1.00  0.00    -0.205 F 
ATOM     85  C   UNL A   1      50.834  32.407  31.059  1.00  0.00     0.022 A 
BRANCH  83  86
ATOM     86  S   UNL A   1      51.002  34.056  33.236  1.00  0.00     0.127 S 
ATOM     87  O   UNL A   1      50.712  33.325  34.467  1.00  0.00    -0.237 OA
ATOM     88  O   UNL A   1      52.376  33.926  32.748  1.00  0.00    -0.237 OA
ATOM     89  O   UNL A   1      50.470  35.410  33.162  1.00  0.00    -0.744 OA
ENDBRANCH  83  86
ENDBRANCH  55  79
BRANCH  67  90
ATOM     90  C   UNL A   1      43.168  27.974  33.184  1.00  0.00     0.023 A 
ATOM     91  C   UNL A   1      43.703  26.854  32.518  1.00  0.00     0.012 A 
ATOM     92  C   UNL A   1      42.782  27.856  34.534  1.00  0.00     0.148 A 
ATOM     93  C   UNL A   1      43.818  25.628  33.174  1.00  0.00     0.002 A 
ATOM     94  C   UNL A   1      42.950  26.648  35.197  1.00  0.00     0.091 A 
ATOM     95  F   UNL A   1      42.262  28.930  35.147  1.00  0.00    -0.205 F 
ATOM     96  C   UNL A   1      43.454  25.528  34.515  1.00  0.00     0.022 A 
BRANCH  94  97
ATOM     97  S   UNL A   1      42.606  26.452  36.950  1.00  0.00     0.127 S 
ATOM     98  O   UNL A   1      43.263  27.630  37.514  1.00  0.00    -0.237 OA
ATOM     99  O   UNL A   1      41.144  26.495  36.984  1.00  0.00    -0.237 OA
ATOM    100  O   UNL A   1      43.184  25.172  37.334  1.00  0.00    -0.744 OA
ENDBRANCH  94  97
ENDBRANCH  67  90
ENDBRANCH  41  42
ENDBRANCH  34  36
ENDBRANCH  33  34
ENDBRANCH  32  33
ENDBRANCH  31  32
ENDBRANCH  30  31
ENDBRANCH  29  30
ENDBRANCH  28  29
ENDBRANCH   1  28
TORSDOF 26
ENDMDL
MODEL 3
REMARK VINA RESULT:      -6.7      4.924     12.388
REMARK SMILES Cc1cc(NC(=O)c2sccc2/C=C/C(=O)OCCOCCOCCOCCOC(=O)c2ccc(-c3c4nc(c(-c5cccc(S(=O)(=O)[O-])c5F)c5ccc([nH]5)c(-c5cccc(S(=O)(=O)[O-])c5F)c5nc(c(-c6cccc(S(=O)(=O)[O-])c6F)c6ccc3[nH]6)C=C5)C=C4)cc2)ccn1
REMARK SMILES IDX 23 1 22 2 21 3 20 4 19 5 18 6 17 7 15 8 16 9 14 10 13 11
REMARK SMILES IDX 12 12 8 13 9 14 10 15 11 16 6 17 5 18 7 20 4 21 1 22 2 23
REMARK SMILES IDX 3 24 97 25 96 26 95 27 24 28 25 29 26 30 27 31 28 32 29 33
REMARK SMILES IDX 30 34 31 35 32 36 33 37 94 38 34 39 93 40 35 41 36 42 37 43
REMARK SMILES IDX 87 44 38 45 92 46 86 47 88 48 39 49 91 50 85 51 84 52 40 54
REMARK SMILES IDX 72 55 52 56 71 57 53 58 56 59 70 60 89 61 54 62 55 63 69 65
REMARK SMILES IDX 90 66 57 67 41 68 42 69 50 70 43 71 45 72 51 73 44 74 46 75
REMARK SMILES IDX 47 76 48 77 49 78 73 79 74 80 82 81 75 82 77 83 83 84 76 85
REMARK SMILES IDX 78 86 79 87 80 88 81 89 58 90 59 91 67 92 60 93 62 94 68 95
REMARK SMILES IDX 61 96 63 97 64 98 65 99 66 100
REMARK H PARENT 5 19 88 53 56 64
REMARK Flexibility Score: inf
ROOT
ATOM      1  O   UNL A   1      45.142  24.218  30.630  1.00  0.00    -0.377 OA
ENDROOT
BRANCH   1   2
ATOM      2  C   UNL A   1      44.165  24.860  31.422  1.00  0.00     0.188 C 
BRANCH   2   3
ATOM      3  C   UNL A   1      44.491  24.863  32.925  1.00  0.00     0.188 C 
BRANCH   3   4
ATOM      4  O   UNL A   1      45.034  23.703  33.525  1.00  0.00    -0.376 OA
BRANCH   4   5
ATOM      5  C   UNL A   1      44.301  22.811  34.351  1.00  0.00     0.202 C 
BRANCH   5   6
ATOM      6  C   UNL A   1      44.859  21.747  35.316  1.00  0.00     0.261 C 
BRANCH   6   7
ATOM      7  O   UNL A   1      45.944  20.947  34.875  1.00  0.00    -0.460 OA
BRANCH   7   8
ATOM      8  C   UNL A   1      46.496  20.147  35.807  1.00  0.00     0.330 C 
ATOM      9  O   UNL A   1      45.959  19.205  36.368  1.00  0.00    -0.247 OA
BRANCH   8  10
ATOM     10  C   UNL A   1      47.932  20.446  35.975  1.00  0.00     0.094 C 
ATOM     11  C   UNL A   1      48.488  21.670  35.910  1.00  0.00     0.017 C 
BRANCH  11  12
ATOM     12  C   UNL A   1      49.862  21.920  36.234  1.00  0.00    -0.002 A 
ATOM     13  C   UNL A   1      50.896  21.862  35.306  1.00  0.00     0.099 A 
ATOM     14  S   UNL A   1      52.404  22.247  36.043  1.00  0.00    -0.138 S 
ATOM     15  C   UNL A   1      51.673  22.573  37.548  1.00  0.00     0.066 A 
ATOM     16  C   UNL A   1      50.320  22.329  37.526  1.00  0.00     0.020 A 
BRANCH  13  17
ATOM     17  C   UNL A   1      50.912  21.536  33.883  1.00  0.00     0.266 C 
ATOM     18  N   UNL A   1      50.736  22.520  32.924  1.00  0.00    -0.321 N 
ATOM     19  H   UNL A   1      50.514  22.176  32.029  1.00  0.00     0.170 HD
ATOM     20  O   UNL A   1      51.021  20.376  33.482  1.00  0.00    -0.268 OA
BRANCH  18  21
ATOM     21  C   UNL A   1      50.818  23.924  32.999  1.00  0.00     0.044 A 
ATOM     22  C   UNL A   1      48.404  26.833  32.864  1.00  0.00     0.067 C 
ATOM     23  C   UNL A   1      49.659  26.026  32.993  1.00  0.00     0.039 A 
ATOM     24  C   UNL A   1      49.648  24.650  32.779  1.00  0.00     0.049 A 
ATOM     25  N   UNL A   1      50.768  26.692  33.396  1.00  0.00    -0.261 NA
ATOM     26  C   UNL A   1      51.901  25.979  33.531  1.00  0.00     0.113 A 
ATOM     27  C   UNL A   1      51.984  24.615  33.317  1.00  0.00     0.046 A 
ENDBRANCH  18  21
ENDBRANCH  13  17
ENDBRANCH  11  12
ENDBRANCH   8  10
ENDBRANCH   7   8
ENDBRANCH   6   7
ENDBRANCH   5   6
ENDBRANCH   4   5
ENDBRANCH   3   4
ENDBRANCH   2   3
ENDBRANCH   1   2
BRANCH   1  28
ATOM     28  C   UNL A   1      45.497  24.836  29.398  1.00  0.00     0.188 C 
BRANCH  28  29
ATOM     29  C   UNL A   1      46.870  25.529  29.239  1.00  0.00     0.188 C 
BRANCH  29  30
ATOM     30  O   UNL A   1      47.784  24.860  28.380  1.00  0.00    -0.376 OA
BRANCH  30  31
ATOM     31  C   UNL A   1      47.726  25.119  26.986  1.00  0.00     0.202 C 
BRANCH  31  32
ATOM     32  C   UNL A   1      46.863  24.177  26.133  1.00  0.00     0.261 C 
BRANCH  32  33
ATOM     33  O   UNL A   1      45.669  24.748  25.583  1.00  0.00    -0.460 OA
BRANCH  33  34
ATOM     34  C   UNL A   1      45.699  26.057  25.256  1.00  0.00     0.338 C 
ATOM     35  O   UNL A   1      46.257  26.560  24.294  1.00  0.00    -0.246 OA
BRANCH  34  36
ATOM     36  C   UNL A   1      44.769  26.766  26.156  1.00  0.00     0.060 A 
ATOM     37  C   UNL A   1      44.922  28.147  26.339  1.00  0.00     0.016 A 
ATOM     38  C   UNL A   1      43.747  26.073  26.808  1.00  0.00     0.016 A 
ATOM     39  C   UNL A   1      44.078  28.831  27.213  1.00  0.00     0.010 A 
ATOM     40  C   UNL A   1      42.916  26.756  27.698  1.00  0.00     0.010 A 
ATOM     41  C   UNL A   1      43.102  28.130  27.932  1.00  0.00    -0.014 A 
BRANCH  41  42
ATOM     42  C   UNL A   1      42.410  28.786  29.069  1.00  0.00     0.031 A 
ATOM     43  C   UNL A   1      43.137  28.884  30.383  1.00  0.00     0.074 A 
ATOM     44  C   UNL A   1      41.164  29.276  28.944  1.00  0.00     0.049 A 
ATOM     45  N   UNL A   1      42.720  29.358  31.527  1.00  0.00    -0.248 NA
ATOM     46  C   UNL A   1      44.519  28.375  30.411  1.00  0.00     0.031 C 
ATOM     47  C   UNL A   1      40.364  29.251  27.722  1.00  0.00     0.029 A 
ATOM     48  N   UNL A   1      40.343  29.866  29.874  1.00  0.00    -0.354 N 
ATOM     49  C   UNL A   1      43.770  29.173  32.418  1.00  0.00     0.074 A 
ATOM     50  C   UNL A   1      44.844  28.540  31.684  1.00  0.00     0.031 C 
ATOM     51  C   UNL A   1      39.151  29.769  27.985  1.00  0.00     0.029 A 
ATOM     52  C   UNL A   1      39.080  30.132  29.400  1.00  0.00     0.049 A 
ATOM     53  H   UNL A   1      40.631  30.077  30.791  1.00  0.00     0.167 HD
ATOM     54  C   UNL A   1      43.840  29.508  33.727  1.00  0.00     0.034 A 
ATOM     55  C   UNL A   1      37.985  30.585  30.045  1.00  0.00     0.034 A 
ATOM     56  C   UNL A   1      42.778  30.151  34.450  1.00  0.00     0.049 A 
ATOM     57  C   UNL A   1      38.081  30.922  31.513  1.00  0.00     0.074 A 
ATOM     58  C   UNL A   1      42.770  30.575  35.767  1.00  0.00     0.029 A 
ATOM     59  N   UNL A   1      41.529  30.443  33.927  1.00  0.00    -0.354 N 
ATOM     60  N   UNL A   1      39.117  30.847  32.314  1.00  0.00    -0.248 NA
ATOM     61  C   UNL A   1      36.864  31.435  32.160  1.00  0.00     0.031 C 
ATOM     62  C   UNL A   1      41.501  31.087  36.052  1.00  0.00     0.029 A 
ATOM     63  C   UNL A   1      40.735  31.028  34.899  1.00  0.00     0.049 A 
ATOM     64  H   UNL A   1      41.247  30.263  33.002  1.00  0.00     0.167 HD
ATOM     65  C   UNL A   1      38.690  31.346  33.541  1.00  0.00     0.074 A 
ATOM     66  C   UNL A   1      37.305  31.734  33.374  1.00  0.00     0.031 C 
ATOM     67  C   UNL A   1      39.378  31.463  34.703  1.00  0.00     0.034 A 
BRANCH  54  68
ATOM     68  C   UNL A   1      45.113  29.193  34.468  1.00  0.00     0.023 A 
ATOM     69  C   UNL A   1      46.191  30.099  34.432  1.00  0.00     0.012 A 
ATOM     70  C   UNL A   1      45.209  28.031  35.259  1.00  0.00     0.148 A 
ATOM     71  C   UNL A   1      47.357  29.841  35.151  1.00  0.00     0.002 A 
ATOM     72  C   UNL A   1      46.355  27.805  36.010  1.00  0.00     0.091 A 
ATOM     73  F   UNL A   1      44.180  27.172  35.260  1.00  0.00    -0.205 F 
ATOM     74  C   UNL A   1      47.434  28.702  35.949  1.00  0.00     0.022 A 
BRANCH  72  75
ATOM     75  S   UNL A   1      46.519  26.412  37.131  1.00  0.00     0.127 S 
ATOM     76  O   UNL A   1      46.560  25.286  36.199  1.00  0.00    -0.237 OA
ATOM     77  O   UNL A   1      47.791  26.702  37.793  1.00  0.00    -0.237 OA
ATOM     78  O   UNL A   1      45.353  26.455  38.003  1.00  0.00    -0.744 OA
ENDBRANCH  72  75
ENDBRANCH  54  68
BRANCH  55  79
ATOM     79  C   UNL A   1      36.698  30.760  29.312  1.00  0.00     0.023 A 
ATOM     80  C   UNL A   1      36.011  29.633  28.822  1.00  0.00     0.012 A 
ATOM     81  C   UNL A   1      36.158  32.042  29.087  1.00  0.00     0.148 A 
ATOM     82  C   UNL A   1      34.835  29.781  28.084  1.00  0.00     0.002 A 
ATOM     83  C   UNL A   1      34.953  32.179  28.408  1.00  0.00     0.091 A 
ATOM     84  F   UNL A   1      36.833  33.105  29.546  1.00  0.00    -0.205 F 
ATOM     85  C   UNL A   1      34.302  31.051  27.885  1.00  0.00     0.022 A 
BRANCH  83  86
ATOM     86  S   UNL A   1      34.122  33.760  28.229  1.00  0.00     0.127 S 
ATOM     87  O   UNL A   1      35.011  34.464  27.310  1.00  0.00    -0.237 OA
ATOM     88  O   UNL A   1      32.834  33.359  27.659  1.00  0.00    -0.237 OA
ATOM     89  O   UNL A   1      34.031  34.313  29.573  1.00  0.00    -0.744 OA
ENDBRANCH  83  86
ENDBRANCH  55  79
BRANCH  67  90
ATOM     90  C   UNL A   1      38.676  32.095  35.880  1.00  0.00     0.023 A 
ATOM     91  C   UNL A   1      38.516  33.493  35.946  1.00  0.00     0.012 A 
ATOM     92  C   UNL A   1      38.102  31.286  36.881  1.00  0.00     0.148 A 
ATOM     93  C   UNL A   1      37.828  34.078  37.009  1.00  0.00     0.002 A 
ATOM     94  C   UNL A   1      37.370  31.871  37.906  1.00  0.00     0.091 A 
ATOM     95  F   UNL A   1      38.276  29.958  36.808  1.00  0.00    -0.205 F 
ATOM     96  C   UNL A   1      37.245  33.268  37.981  1.00  0.00     0.022 A 
BRANCH  94  97
ATOM     97  S   UNL A   1      36.499  30.903  39.144  1.00  0.00     0.127 S 
ATOM     98  O   UNL A   1      36.388  29.605  38.481  1.00  0.00    -0.237 OA
ATOM     99  O   UNL A   1      37.431  30.934  40.272  1.00  0.00    -0.237 OA
ATOM    100  O   UNL A   1      35.238  31.592  39.381  1.00  0.00    -0.744 OA
ENDBRANCH  94  97
ENDBRANCH  67  90
ENDBRANCH  41  42
ENDBRANCH  34  36
ENDBRANCH  33  34
ENDBRANCH  32  33
ENDBRANCH  31  32
ENDBRANCH  30  31
ENDBRANCH  29  30
ENDBRANCH  28  29
ENDBRANCH   1  28
TORSDOF 26
ENDMDL
