MODEL 1
REMARK VINA RESULT:      -9.1      0.000      0.000
REMARK SMILES COc1ccc(N2C(=O)/C(=C/c3c(C(=O)OCCOCCOCCOCCOC(=O)c4ccc(-c5c6nc(c(-c7cccc(S(=O)(=O)[O-])c7F)c7ccc([nH]7)c(-c7cccc(S(=O)(=O)[O-])c7F)c7nc(c(-c8cccc(S(=O)(=O)[O-])c8F)c8ccc5[nH]8)C=C7)C=C6)cc4)[nH]c4cc(OC)ccc34)SC2=S)cc1
REMARK SMILES IDX 22 1 21 2 20 3 19 4 18 5 17 6 16 7 14 8 15 9 13 10 12 11
REMARK SMILES IDX 102 12 94 13 95 14 101 15 96 17 100 18 97 19 11 20 7 21 8 22
REMARK SMILES IDX 104 23 9 24 10 25 103 26 105 27 6 28 3 29 4 30 107 31 5 32
REMARK SMILES IDX 106 33 2 34 1 35 98 36 99 37 23 38 24 39 25 40 26 41 27 42
REMARK SMILES IDX 28 43 29 44 30 45 31 46 32 47 93 48 33 49 92 50 34 51 35 52
REMARK SMILES IDX 36 53 86 54 37 55 91 56 85 57 87 58 38 59 90 60 84 61 83 62
REMARK SMILES IDX 39 64 71 65 51 66 70 67 52 68 55 69 69 70 88 71 53 72 54 73
REMARK SMILES IDX 68 75 89 76 56 77 40 78 41 79 49 80 42 81 44 82 50 83 43 84
REMARK SMILES IDX 45 85 46 86 47 87 48 88 72 89 73 90 81 91 74 92 76 93 82 94
REMARK SMILES IDX 75 95 77 96 78 97 79 98 80 99 57 100 58 101 66 102 59 103
REMARK SMILES IDX 61 104 67 105 60 106 62 107 63 108 64 109 65 110
REMARK H PARENT 94 16 87 63 55 74
REMARK Flexibility Score: inf
ROOT
ATOM      1  O   UNL A   1      34.519  30.846  28.262  1.00  0.00    -0.377 OA
ENDROOT
BRANCH   1   2
ATOM      2  C   UNL A   1      34.785  29.655  27.517  1.00  0.00     0.188 C 
BRANCH   2   3
ATOM      3  C   UNL A   1      33.561  28.976  26.926  1.00  0.00     0.188 C 
BRANCH   3   4
ATOM      4  O   UNL A   1      33.751  28.232  25.725  1.00  0.00    -0.376 OA
BRANCH   4   5
ATOM      5  C   UNL A   1      33.896  26.813  25.781  1.00  0.00     0.202 C 
BRANCH   5   6
ATOM      6  C   UNL A   1      33.562  25.938  24.553  1.00  0.00     0.261 C 
BRANCH   6   7
ATOM      7  O   UNL A   1      32.392  25.137  24.703  1.00  0.00    -0.459 OA
BRANCH   7   8
ATOM      8  C   UNL A   1      32.278  24.488  25.884  1.00  0.00     0.355 C 
ATOM      9  O   UNL A   1      31.599  24.877  26.828  1.00  0.00    -0.244 OA
BRANCH   8  10
ATOM     10  C   UNL A   1      32.863  23.164  25.802  1.00  0.00     0.133 A 
ATOM     11  C   UNL A   1      34.152  22.617  25.858  1.00  0.00     0.016 A 
ATOM     12  C   UNL A   1      34.057  21.244  25.428  1.00  0.00     0.008 A 
ATOM     13  N   UNL A   1      32.032  22.149  25.377  1.00  0.00    -0.348 N 
ATOM     14  C   UNL A   1      32.746  21.045  25.004  1.00  0.00     0.050 A 
ATOM     15  C   UNL A   1      34.974  20.183  25.241  1.00  0.00     0.015 A 
ATOM     16  H   UNL A   1      31.050  22.212  25.346  1.00  0.00     0.167 HD
ATOM     17  C   UNL A   1      32.329  19.919  24.290  1.00  0.00     0.073 A 
ATOM     18  C   UNL A   1      34.558  19.011  24.583  1.00  0.00     0.047 A 
ATOM     19  C   UNL A   1      33.260  18.904  24.088  1.00  0.00     0.120 A 
BRANCH  11  20
ATOM     20  C   UNL A   1      35.393  23.343  25.986  1.00  0.00     0.032 C 
ATOM     21  N   UNL A   1      38.912  22.707  26.363  1.00  0.00    -0.261 N 
ATOM     22  C   UNL A   1      37.837  23.610  26.305  1.00  0.00     0.270 C 
ATOM     23  C   UNL A   1      38.658  21.475  25.748  1.00  0.00     0.152 C 
ATOM     24  O   UNL A   1      37.750  24.741  26.768  1.00  0.00    -0.268 OA
ATOM     25  C   UNL A   1      36.641  22.943  25.701  1.00  0.00     0.081 C 
ATOM     26  S   UNL A   1      37.115  21.528  24.885  1.00  0.00    -0.054 SA
ATOM     27  S   UNL A   1      39.512  20.037  25.640  1.00  0.00    -0.051 S 
BRANCH  21  28
ATOM     28  C   UNL A   1      40.164  23.081  27.005  1.00  0.00     0.051 A 
ATOM     29  C   UNL A   1      42.468  23.873  28.485  1.00  0.00     0.119 A 
ATOM     30  C   UNL A   1      42.057  22.547  28.482  1.00  0.00     0.048 A 
ATOM     31  C   UNL A   1      41.804  24.785  27.686  1.00  0.00     0.048 A 
ATOM     32  C   UNL A   1      40.921  22.156  27.749  1.00  0.00     0.030 A 
ATOM     33  C   UNL A   1      40.680  24.387  26.952  1.00  0.00     0.030 A 
BRANCH  29  34
ATOM     34  O   UNL A   1      43.586  24.222  29.183  1.00  0.00    -0.497 OA
ATOM     35  C   UNL A   1      44.787  23.747  28.578  1.00  0.00     0.278 C 
ENDBRANCH  29  34
ENDBRANCH  21  28
ENDBRANCH  11  20
BRANCH  19  36
ATOM     36  O   UNL A   1      32.859  17.863  23.296  1.00  0.00    -0.497 OA
ATOM     37  C   UNL A   1      33.816  16.811  23.269  1.00  0.00     0.278 C 
ENDBRANCH  19  36
ENDBRANCH   8  10
ENDBRANCH   7   8
ENDBRANCH   6   7
ENDBRANCH   5   6
ENDBRANCH   4   5
ENDBRANCH   3   4
ENDBRANCH   2   3
ENDBRANCH   1   2
BRANCH   1  38
ATOM     38  C   UNL A   1      33.525  31.721  27.747  1.00  0.00     0.188 C 
BRANCH  38  39
ATOM     39  C   UNL A   1      33.883  33.212  27.728  1.00  0.00     0.188 C 
BRANCH  39  40
ATOM     40  O   UNL A   1      32.877  34.052  28.278  1.00  0.00    -0.376 OA
BRANCH  40  41
ATOM     41  C   UNL A   1      33.293  34.830  29.407  1.00  0.00     0.202 C 
BRANCH  41  42
ATOM     42  C   UNL A   1      34.550  34.343  30.162  1.00  0.00     0.261 C 
BRANCH  42  43
ATOM     43  O   UNL A   1      34.329  33.247  31.066  1.00  0.00    -0.460 OA
BRANCH  43  44
ATOM     44  C   UNL A   1      34.310  33.568  32.376  1.00  0.00     0.338 C 
ATOM     45  O   UNL A   1      33.328  33.848  33.042  1.00  0.00    -0.246 OA
BRANCH  44  46
ATOM     46  C   UNL A   1      35.650  33.346  32.954  1.00  0.00     0.060 A 
ATOM     47  C   UNL A   1      36.058  32.023  33.171  1.00  0.00     0.016 A 
ATOM     48  C   UNL A   1      36.450  34.414  33.366  1.00  0.00     0.016 A 
ATOM     49  C   UNL A   1      37.227  31.765  33.885  1.00  0.00     0.010 A 
ATOM     50  C   UNL A   1      37.615  34.152  34.094  1.00  0.00     0.010 A 
ATOM     51  C   UNL A   1      37.972  32.830  34.408  1.00  0.00    -0.014 A 
BRANCH  51  52
ATOM     52  C   UNL A   1      38.970  32.550  35.469  1.00  0.00     0.031 A 
ATOM     53  C   UNL A   1      40.317  32.019  35.062  1.00  0.00     0.074 A 
ATOM     54  C   UNL A   1      38.700  32.752  36.770  1.00  0.00     0.049 A 
ATOM     55  N   UNL A   1      41.370  31.788  35.801  1.00  0.00    -0.248 NA
ATOM     56  C   UNL A   1      40.498  31.698  33.636  1.00  0.00     0.031 C 
ATOM     57  C   UNL A   1      37.420  33.206  37.299  1.00  0.00     0.029 A 
ATOM     58  N   UNL A   1      39.489  32.578  37.883  1.00  0.00    -0.354 N 
ATOM     59  C   UNL A   1      42.324  31.261  34.941  1.00  0.00     0.074 A 
ATOM     60  C   UNL A   1      41.728  31.207  33.624  1.00  0.00     0.031 C 
ATOM     61  C   UNL A   1      37.506  33.248  38.639  1.00  0.00     0.029 A 
ATOM     62  C   UNL A   1      38.842  32.850  39.064  1.00  0.00     0.049 A 
ATOM     63  H   UNL A   1      40.427  32.284  37.837  1.00  0.00     0.167 HD
ATOM     64  C   UNL A   1      43.588  30.869  35.219  1.00  0.00     0.034 A 
ATOM     65  C   UNL A   1      39.274  32.802  40.341  1.00  0.00     0.034 A 
ATOM     66  C   UNL A   1      44.197  30.946  36.517  1.00  0.00     0.049 A 
ATOM     67  C   UNL A   1      40.714  32.438  40.606  1.00  0.00     0.074 A 
ATOM     68  C   UNL A   1      45.496  30.635  36.879  1.00  0.00     0.029 A 
ATOM     69  N   UNL A   1      43.546  31.348  37.671  1.00  0.00    -0.354 N 
ATOM     70  N   UNL A   1      41.663  32.150  39.749  1.00  0.00    -0.248 NA
ATOM     71  C   UNL A   1      41.157  32.442  42.009  1.00  0.00     0.031 C 
ATOM     72  C   UNL A   1      45.628  30.842  38.256  1.00  0.00     0.029 A 
ATOM     73  C   UNL A   1      44.414  31.293  38.747  1.00  0.00     0.049 A 
ATOM     74  H   UNL A   1      42.605  31.633  37.719  1.00  0.00     0.167 HD
ATOM     75  C   UNL A   1      42.820  31.990  40.505  1.00  0.00     0.074 A 
ATOM     76  C   UNL A   1      42.461  32.247  41.882  1.00  0.00     0.031 C 
ATOM     77  C   UNL A   1      44.063  31.632  40.100  1.00  0.00     0.034 A 
BRANCH  64  78
ATOM     78  C   UNL A   1      44.412  30.346  34.079  1.00  0.00     0.023 A 
ATOM     79  C   UNL A   1      45.131  31.248  33.270  1.00  0.00     0.012 A 
ATOM     80  C   UNL A   1      44.513  28.963  33.840  1.00  0.00     0.148 A 
ATOM     81  C   UNL A   1      45.925  30.782  32.223  1.00  0.00     0.002 A 
ATOM     82  C   UNL A   1      45.336  28.503  32.820  1.00  0.00     0.091 A 
ATOM     83  F   UNL A   1      43.797  28.128  34.606  1.00  0.00    -0.205 F 
ATOM     84  C   UNL A   1      46.035  29.411  32.006  1.00  0.00     0.022 A 
BRANCH  82  85
ATOM     85  S   UNL A   1      45.596  26.756  32.500  1.00  0.00     0.127 S 
ATOM     86  O   UNL A   1      46.204  26.313  33.753  1.00  0.00    -0.237 OA
ATOM     87  O   UNL A   1      44.231  26.278  32.280  1.00  0.00    -0.237 OA
ATOM     88  O   UNL A   1      46.460  26.685  31.330  1.00  0.00    -0.744 OA
ENDBRANCH  82  85
ENDBRANCH  64  78
BRANCH  65  89
ATOM     89  C   UNL A   1      38.377  33.194  41.472  1.00  0.00     0.023 A 
ATOM     90  C   UNL A   1      38.359  34.536  41.907  1.00  0.00     0.012 A 
ATOM     91  C   UNL A   1      37.555  32.260  42.130  1.00  0.00     0.148 A 
ATOM     92  C   UNL A   1      37.602  34.923  43.014  1.00  0.00     0.002 A 
ATOM     93  C   UNL A   1      36.732  32.671  43.174  1.00  0.00     0.091 A 
ATOM     94  F   UNL A   1      37.592  30.979  41.733  1.00  0.00    -0.205 F 
ATOM     95  C   UNL A   1      36.777  33.994  43.640  1.00  0.00     0.022 A 
BRANCH  93  96
ATOM     96  S   UNL A   1      35.491  31.586  43.888  1.00  0.00     0.127 S 
ATOM     97  O   UNL A   1      35.054  32.351  45.052  1.00  0.00    -0.237 OA
ATOM     98  O   UNL A   1      34.507  31.493  42.807  1.00  0.00    -0.237 OA
ATOM     99  O   UNL A   1      36.189  30.336  44.164  1.00  0.00    -0.744 OA
ENDBRANCH  93  96
ENDBRANCH  65  89
BRANCH  77 100
ATOM    100  C   UNL A   1      45.135  31.552  41.153  1.00  0.00     0.023 A 
ATOM    101  C   UNL A   1      45.364  30.335  41.826  1.00  0.00     0.012 A 
ATOM    102  C   UNL A   1      45.928  32.673  41.460  1.00  0.00     0.148 A 
ATOM    103  C   UNL A   1      46.335  30.249  42.823  1.00  0.00     0.002 A 
ATOM    104  C   UNL A   1      46.926  32.567  42.423  1.00  0.00     0.091 A 
ATOM    105  F   UNL A   1      45.683  33.829  40.826  1.00  0.00    -0.205 F 
ATOM    106  C   UNL A   1      47.121  31.360  43.115  1.00  0.00     0.022 A 
BRANCH 104 107
ATOM    107  S   UNL A   1      48.031  33.933  42.795  1.00  0.00     0.127 S 
ATOM    108  O   UNL A   1      47.090  34.994  43.146  1.00  0.00    -0.237 OA
ATOM    109  O   UNL A   1      48.810  33.412  43.921  1.00  0.00    -0.237 OA
ATOM    110  O   UNL A   1      48.808  34.149  41.582  1.00  0.00    -0.744 OA
ENDBRANCH 104 107
ENDBRANCH  77 100
ENDBRANCH  51  52
ENDBRANCH  44  46
ENDBRANCH  43  44
ENDBRANCH  42  43
ENDBRANCH  41  42
ENDBRANCH  40  41
ENDBRANCH  39  40
ENDBRANCH  38  39
ENDBRANCH   1  38
TORSDOF 27
ENDMDL
MODEL 2
REMARK VINA RESULT:      -9.0     11.901     17.113
REMARK SMILES COc1ccc(N2C(=O)/C(=C/c3c(C(=O)OCCOCCOCCOCCOC(=O)c4ccc(-c5c6nc(c(-c7cccc(S(=O)(=O)[O-])c7F)c7ccc([nH]7)c(-c7cccc(S(=O)(=O)[O-])c7F)c7nc(c(-c8cccc(S(=O)(=O)[O-])c8F)c8ccc5[nH]8)C=C7)C=C6)cc4)[nH]c4cc(OC)ccc34)SC2=S)cc1
REMARK SMILES IDX 22 1 21 2 20 3 19 4 18 5 17 6 16 7 14 8 15 9 13 10 12 11
REMARK SMILES IDX 102 12 94 13 95 14 101 15 96 17 100 18 97 19 11 20 7 21 8 22
REMARK SMILES IDX 104 23 9 24 10 25 103 26 105 27 6 28 3 29 4 30 107 31 5 32
REMARK SMILES IDX 106 33 2 34 1 35 98 36 99 37 23 38 24 39 25 40 26 41 27 42
REMARK SMILES IDX 28 43 29 44 30 45 31 46 32 47 93 48 33 49 92 50 34 51 35 52
REMARK SMILES IDX 36 53 86 54 37 55 91 56 85 57 87 58 38 59 90 60 84 61 83 62
REMARK SMILES IDX 39 64 71 65 51 66 70 67 52 68 55 69 69 70 88 71 53 72 54 73
REMARK SMILES IDX 68 75 89 76 56 77 40 78 41 79 49 80 42 81 44 82 50 83 43 84
REMARK SMILES IDX 45 85 46 86 47 87 48 88 72 89 73 90 81 91 74 92 76 93 82 94
REMARK SMILES IDX 75 95 77 96 78 97 79 98 80 99 57 100 58 101 66 102 59 103
REMARK SMILES IDX 61 104 67 105 60 106 62 107 63 108 64 109 65 110
REMARK H PARENT 94 16 87 63 55 74
REMARK Flexibility Score: inf
ROOT
ATOM      1  O   UNL A   1      46.881  42.494  27.575  1.00  0.00    -0.377 OA
ENDROOT
BRANCH   1   2
ATOM      2  C   UNL A   1      46.076  42.053  26.479  1.00  0.00     0.188 C 
BRANCH   2   3
ATOM      3  C   UNL A   1      45.961  40.546  26.327  1.00  0.00     0.188 C 
BRANCH   3   4
ATOM      4  O   UNL A   1      44.742  40.041  25.788  1.00  0.00    -0.376 OA
BRANCH   4   5
ATOM      5  C   UNL A   1      43.495  40.414  26.375  1.00  0.00     0.202 C 
BRANCH   5   6
ATOM      6  C   UNL A   1      42.505  41.321  25.611  1.00  0.00     0.261 C 
BRANCH   6   7
ATOM      7  O   UNL A   1      42.807  41.484  24.227  1.00  0.00    -0.459 OA
BRANCH   7   8
ATOM      8  C   UNL A   1      43.077  42.750  23.835  1.00  0.00     0.355 C 
ATOM      9  O   UNL A   1      43.403  43.658  24.594  1.00  0.00    -0.244 OA
BRANCH   8  10
ATOM     10  C   UNL A   1      43.166  42.834  22.391  1.00  0.00     0.133 A 
ATOM     11  C   UNL A   1      44.188  42.975  21.442  1.00  0.00     0.016 A 
ATOM     12  C   UNL A   1      43.564  43.269  20.176  1.00  0.00     0.008 A 
ATOM     13  N   UNL A   1      41.981  43.015  21.710  1.00  0.00    -0.348 N 
ATOM     14  C   UNL A   1      42.202  43.425  20.426  1.00  0.00     0.050 A 
ATOM     15  C   UNL A   1      44.024  43.538  18.866  1.00  0.00     0.015 A 
ATOM     16  H   UNL A   1      41.089  42.868  22.100  1.00  0.00     0.167 HD
ATOM     17  C   UNL A   1      41.305  43.957  19.498  1.00  0.00     0.073 A 
ATOM     18  C   UNL A   1      43.123  44.011  17.895  1.00  0.00     0.047 A 
ATOM     19  C   UNL A   1      41.791  44.247  18.226  1.00  0.00     0.120 A 
BRANCH  11  20
ATOM     20  C   UNL A   1      45.598  43.138  21.709  1.00  0.00     0.032 C 
ATOM     21  N   UNL A   1      48.234  45.518  21.148  1.00  0.00    -0.261 N 
ATOM     22  C   UNL A   1      47.804  44.263  21.612  1.00  0.00     0.270 C 
ATOM     23  C   UNL A   1      47.221  46.482  21.084  1.00  0.00     0.152 C 
ATOM     24  O   UNL A   1      48.446  43.228  21.752  1.00  0.00    -0.268 OA
ATOM     25  C   UNL A   1      46.318  44.265  21.792  1.00  0.00     0.081 C 
ATOM     26  S   UNL A   1      45.741  45.865  21.831  1.00  0.00    -0.054 SA
ATOM     27  S   UNL A   1      47.150  48.051  20.502  1.00  0.00    -0.051 S 
BRANCH  21  28
ATOM     28  C   UNL A   1      49.628  45.742  20.794  1.00  0.00     0.051 A 
ATOM     29  C   UNL A   1      52.415  45.949  20.231  1.00  0.00     0.119 A 
ATOM     30  C   UNL A   1      51.561  45.325  19.331  1.00  0.00     0.048 A 
ATOM     31  C   UNL A   1      51.884  46.551  21.356  1.00  0.00     0.048 A 
ATOM     32  C   UNL A   1      50.185  45.225  19.609  1.00  0.00     0.030 A 
ATOM     33  C   UNL A   1      50.512  46.457  21.621  1.00  0.00     0.030 A 
BRANCH  29  34
ATOM     34  O   UNL A   1      53.740  46.054  19.928  1.00  0.00    -0.497 OA
ATOM     35  C   UNL A   1      54.261  44.877  19.312  1.00  0.00     0.278 C 
ENDBRANCH  29  34
ENDBRANCH  21  28
ENDBRANCH  11  20
BRANCH  19  36
ATOM     36  O   UNL A   1      40.919  44.865  17.370  1.00  0.00    -0.497 OA
ATOM     37  C   UNL A   1      41.594  45.606  16.360  1.00  0.00     0.278 C 
ENDBRANCH  19  36
ENDBRANCH   8  10
ENDBRANCH   7   8
ENDBRANCH   6   7
ENDBRANCH   5   6
ENDBRANCH   4   5
ENDBRANCH   3   4
ENDBRANCH   2   3
ENDBRANCH   1   2
BRANCH   1  38
ATOM     38  C   UNL A   1      46.492  42.071  28.874  1.00  0.00     0.188 C 
BRANCH  38  39
ATOM     39  C   UNL A   1      46.096  43.180  29.856  1.00  0.00     0.188 C 
BRANCH  39  40
ATOM     40  O   UNL A   1      44.728  43.147  30.239  1.00  0.00    -0.376 OA
BRANCH  40  41
ATOM     41  C   UNL A   1      44.439  43.778  31.492  1.00  0.00     0.202 C 
BRANCH  41  42
ATOM     42  C   UNL A   1      42.977  43.703  31.989  1.00  0.00     0.261 C 
BRANCH  42  43
ATOM     43  O   UNL A   1      42.292  42.479  31.677  1.00  0.00    -0.460 OA
BRANCH  43  44
ATOM     44  C   UNL A   1      42.416  41.493  32.589  1.00  0.00     0.338 C 
ATOM     45  O   UNL A   1      41.902  41.456  33.694  1.00  0.00    -0.246 OA
BRANCH  44  46
ATOM     46  C   UNL A   1      43.125  40.351  31.981  1.00  0.00     0.060 A 
ATOM     47  C   UNL A   1      43.017  40.176  30.595  1.00  0.00     0.016 A 
ATOM     48  C   UNL A   1      43.800  39.413  32.766  1.00  0.00     0.016 A 
ATOM     49  C   UNL A   1      43.506  39.014  30.001  1.00  0.00     0.010 A 
ATOM     50  C   UNL A   1      44.276  38.241  32.170  1.00  0.00     0.010 A 
ATOM     51  C   UNL A   1      44.075  38.012  30.798  1.00  0.00    -0.014 A 
BRANCH  51  52
ATOM     52  C   UNL A   1      44.232  36.651  30.231  1.00  0.00     0.031 A 
ATOM     53  C   UNL A   1      45.413  36.380  29.339  1.00  0.00     0.074 A 
ATOM     54  C   UNL A   1      43.352  35.668  30.486  1.00  0.00     0.049 A 
ATOM     55  N   UNL A   1      45.801  35.251  28.805  1.00  0.00    -0.248 NA
ATOM     56  C   UNL A   1      46.262  37.533  28.996  1.00  0.00     0.031 C 
ATOM     57  C   UNL A   1      42.141  35.815  31.283  1.00  0.00     0.029 A 
ATOM     58  N   UNL A   1      43.338  34.354  30.079  1.00  0.00    -0.354 N 
ATOM     59  C   UNL A   1      46.915  35.563  28.037  1.00  0.00     0.074 A 
ATOM     60  C   UNL A   1      47.142  36.985  28.172  1.00  0.00     0.031 C 
ATOM     61  C   UNL A   1      41.488  34.640  31.282  1.00  0.00     0.029 A 
ATOM     62  C   UNL A   1      42.236  33.656  30.512  1.00  0.00     0.049 A 
ATOM     63  H   UNL A   1      44.048  33.953  29.528  1.00  0.00     0.167 HD
ATOM     64  C   UNL A   1      47.687  34.738  27.294  1.00  0.00     0.034 A 
ATOM     65  C   UNL A   1      41.875  32.370  30.326  1.00  0.00     0.034 A 
ATOM     66  C   UNL A   1      47.485  33.321  27.177  1.00  0.00     0.049 A 
ATOM     67  C   UNL A   1      42.803  31.460  29.560  1.00  0.00     0.074 A 
ATOM     68  C   UNL A   1      48.260  32.394  26.501  1.00  0.00     0.029 A 
ATOM     69  N   UNL A   1      46.427  32.626  27.736  1.00  0.00    -0.354 N 
ATOM     70  N   UNL A   1      43.966  31.731  29.021  1.00  0.00    -0.248 NA
ATOM     71  C   UNL A   1      42.393  30.054  29.420  1.00  0.00     0.031 C 
ATOM     72  C   UNL A   1      47.662  31.137  26.645  1.00  0.00     0.029 A 
ATOM     73  C   UNL A   1      46.524  31.283  27.420  1.00  0.00     0.049 A 
ATOM     74  H   UNL A   1      45.711  33.028  28.279  1.00  0.00     0.167 HD
ATOM     75  C   UNL A   1      44.446  30.524  28.525  1.00  0.00     0.074 A 
ATOM     76  C   UNL A   1      43.465  29.514  28.858  1.00  0.00     0.031 C 
ATOM     77  C   UNL A   1      45.582  30.276  27.830  1.00  0.00     0.034 A 
BRANCH  64  78
ATOM     78  C   UNL A   1      48.850  35.352  26.570  1.00  0.00     0.023 A 
ATOM     79  C   UNL A   1      48.681  35.817  25.251  1.00  0.00     0.012 A 
ATOM     80  C   UNL A   1      50.093  35.510  27.211  1.00  0.00     0.148 A 
ATOM     81  C   UNL A   1      49.740  36.415  24.571  1.00  0.00     0.002 A 
ATOM     82  C   UNL A   1      51.133  36.141  26.541  1.00  0.00     0.091 A 
ATOM     83  F   UNL A   1      50.236  35.033  28.456  1.00  0.00    -0.205 F 
ATOM     84  C   UNL A   1      50.961  36.586  25.219  1.00  0.00     0.022 A 
BRANCH  82  85
ATOM     85  S   UNL A   1      52.722  36.468  27.308  1.00  0.00     0.127 S 
ATOM     86  O   UNL A   1      53.354  35.150  27.253  1.00  0.00    -0.237 OA
ATOM     87  O   UNL A   1      53.301  37.461  26.403  1.00  0.00    -0.237 OA
ATOM     88  O   UNL A   1      52.430  36.962  28.646  1.00  0.00    -0.744 OA
ENDBRANCH  82  85
ENDBRANCH  64  78
BRANCH  65  89
ATOM     89  C   UNL A   1      40.627  31.824  30.946  1.00  0.00     0.023 A 
ATOM     90  C   UNL A   1      40.710  31.139  32.176  1.00  0.00     0.012 A 
ATOM     91  C   UNL A   1      39.368  31.959  30.332  1.00  0.00     0.148 A 
ATOM     92  C   UNL A   1      39.584  30.540  32.743  1.00  0.00     0.002 A 
ATOM     93  C   UNL A   1      38.234  31.441  30.949  1.00  0.00     0.091 A 
ATOM     94  F   UNL A   1      39.295  32.588  29.148  1.00  0.00    -0.205 F 
ATOM     95  C   UNL A   1      38.343  30.702  32.137  1.00  0.00     0.022 A 
BRANCH  93  96
ATOM     96  S   UNL A   1      36.580  31.789  30.341  1.00  0.00     0.127 S 
ATOM     97  O   UNL A   1      36.594  31.137  29.035  1.00  0.00    -0.237 OA
ATOM     98  O   UNL A   1      35.740  31.136  31.347  1.00  0.00    -0.237 OA
ATOM     99  O   UNL A   1      36.473  33.243  30.334  1.00  0.00    -0.744 OA
ENDBRANCH  93  96
ENDBRANCH  65  89
BRANCH  77 100
ATOM    100  C   UNL A   1      45.849  28.849  27.432  1.00  0.00     0.023 A 
ATOM    101  C   UNL A   1      45.203  28.304  26.304  1.00  0.00     0.012 A 
ATOM    102  C   UNL A   1      46.757  28.057  28.159  1.00  0.00     0.148 A 
ATOM    103  C   UNL A   1      45.419  26.978  25.936  1.00  0.00     0.002 A 
ATOM    104  C   UNL A   1      47.001  26.748  27.759  1.00  0.00     0.091 A 
ATOM    105  F   UNL A   1      47.347  28.582  29.243  1.00  0.00    -0.205 F 
ATOM    106  C   UNL A   1      46.323  26.203  26.656  1.00  0.00     0.022 A 
BRANCH 104 107
ATOM    107  S   UNL A   1      48.214  25.715  28.589  1.00  0.00     0.127 S 
ATOM    108  O   UNL A   1      49.367  26.610  28.668  1.00  0.00    -0.237 OA
ATOM    109  O   UNL A   1      47.569  25.439  29.874  1.00  0.00    -0.237 OA
ATOM    110  O   UNL A   1      48.377  24.543  27.739  1.00  0.00    -0.744 OA
ENDBRANCH 104 107
ENDBRANCH  77 100
ENDBRANCH  51  52
ENDBRANCH  44  46
ENDBRANCH  43  44
ENDBRANCH  42  43
ENDBRANCH  41  42
ENDBRANCH  40  41
ENDBRANCH  39  40
ENDBRANCH  38  39
ENDBRANCH   1  38
TORSDOF 27
ENDMDL
MODEL 3
REMARK VINA RESULT:      -8.9      5.149     10.806
REMARK SMILES COc1ccc(N2C(=O)/C(=C/c3c(C(=O)OCCOCCOCCOCCOC(=O)c4ccc(-c5c6nc(c(-c7cccc(S(=O)(=O)[O-])c7F)c7ccc([nH]7)c(-c7cccc(S(=O)(=O)[O-])c7F)c7nc(c(-c8cccc(S(=O)(=O)[O-])c8F)c8ccc5[nH]8)C=C7)C=C6)cc4)[nH]c4cc(OC)ccc34)SC2=S)cc1
REMARK SMILES IDX 22 1 21 2 20 3 19 4 18 5 17 6 16 7 14 8 15 9 13 10 12 11
REMARK SMILES IDX 102 12 94 13 95 14 101 15 96 17 100 18 97 19 11 20 7 21 8 22
REMARK SMILES IDX 104 23 9 24 10 25 103 26 105 27 6 28 3 29 4 30 107 31 5 32
REMARK SMILES IDX 106 33 2 34 1 35 98 36 99 37 23 38 24 39 25 40 26 41 27 42
REMARK SMILES IDX 28 43 29 44 30 45 31 46 32 47 93 48 33 49 92 50 34 51 35 52
REMARK SMILES IDX 36 53 86 54 37 55 91 56 85 57 87 58 38 59 90 60 84 61 83 62
REMARK SMILES IDX 39 64 71 65 51 66 70 67 52 68 55 69 69 70 88 71 53 72 54 73
REMARK SMILES IDX 68 75 89 76 56 77 40 78 41 79 49 80 42 81 44 82 50 83 43 84
REMARK SMILES IDX 45 85 46 86 47 87 48 88 72 89 73 90 81 91 74 92 76 93 82 94
REMARK SMILES IDX 75 95 77 96 78 97 79 98 80 99 57 100 58 101 66 102 59 103
REMARK SMILES IDX 61 104 67 105 60 106 62 107 63 108 64 109 65 110
REMARK H PARENT 94 16 87 63 55 74
REMARK Flexibility Score: inf
ROOT
ATOM      1  O   UNL A   1      38.058  29.572  28.079  1.00  0.00    -0.377 OA
ENDROOT
BRANCH   1   2
ATOM      2  C   UNL A   1      39.424  29.236  27.824  1.00  0.00     0.188 C 
BRANCH   2   3
ATOM      3  C   UNL A   1      40.345  29.321  29.029  1.00  0.00     0.188 C 
BRANCH   3   4
ATOM      4  O   UNL A   1      40.663  28.097  29.688  1.00  0.00    -0.376 OA
BRANCH   4   5
ATOM      5  C   UNL A   1      41.716  28.060  30.652  1.00  0.00     0.202 C 
BRANCH   5   6
ATOM      6  C   UNL A   1      41.543  28.731  32.032  1.00  0.00     0.261 C 
BRANCH   6   7
ATOM      7  O   UNL A   1      42.686  29.456  32.480  1.00  0.00    -0.459 OA
BRANCH   7   8
ATOM      8  C   UNL A   1      43.883  28.913  32.161  1.00  0.00     0.355 C 
ATOM      9  O   UNL A   1      44.474  29.106  31.104  1.00  0.00    -0.244 OA
BRANCH   8  10
ATOM     10  C   UNL A   1      44.481  28.273  33.316  1.00  0.00     0.133 A 
ATOM     11  C   UNL A   1      44.926  26.987  33.648  1.00  0.00     0.016 A 
ATOM     12  C   UNL A   1      45.164  26.967  35.070  1.00  0.00     0.008 A 
ATOM     13  N   UNL A   1      44.477  28.995  34.490  1.00  0.00    -0.348 N 
ATOM     14  C   UNL A   1      44.733  28.195  35.567  1.00  0.00     0.050 A 
ATOM     15  C   UNL A   1      45.587  25.994  36.006  1.00  0.00     0.015 A 
ATOM     16  H   UNL A   1      44.310  29.964  34.546  1.00  0.00     0.167 HD
ATOM     17  C   UNL A   1      44.571  28.461  36.929  1.00  0.00     0.073 A 
ATOM     18  C   UNL A   1      45.496  26.266  37.383  1.00  0.00     0.047 A 
ATOM     19  C   UNL A   1      44.962  27.473  37.828  1.00  0.00     0.120 A 
BRANCH  11  20
ATOM     20  C   UNL A   1      44.846  25.805  32.823  1.00  0.00     0.032 C 
ATOM     21  N   UNL A   1      45.116  24.855  29.365  1.00  0.00    -0.261 N 
ATOM     22  C   UNL A   1      44.843  24.521  30.703  1.00  0.00     0.270 C 
ATOM     23  C   UNL A   1      45.909  25.999  29.212  1.00  0.00     0.152 C 
ATOM     24  O   UNL A   1      44.167  23.602  31.148  1.00  0.00    -0.268 OA
ATOM     25  C   UNL A   1      45.381  25.579  31.614  1.00  0.00     0.081 C 
ATOM     26  S   UNL A   1      46.511  26.542  30.784  1.00  0.00    -0.054 SA
ATOM     27  S   UNL A   1      46.412  26.891  27.885  1.00  0.00    -0.051 S 
BRANCH  21  28
ATOM     28  C   UNL A   1      44.605  24.038  28.275  1.00  0.00     0.051 A 
ATOM     29  C   UNL A   1      43.577  22.234  26.321  1.00  0.00     0.119 A 
ATOM     30  C   UNL A   1      42.721  23.075  27.020  1.00  0.00     0.048 A 
ATOM     31  C   UNL A   1      44.941  22.349  26.516  1.00  0.00     0.048 A 
ATOM     32  C   UNL A   1      43.230  23.967  27.983  1.00  0.00     0.030 A 
ATOM     33  C   UNL A   1      45.440  23.246  27.468  1.00  0.00     0.030 A 
BRANCH  29  34
ATOM     34  O   UNL A   1      43.062  21.396  25.377  1.00  0.00    -0.497 OA
ATOM     35  C   UNL A   1      42.257  20.361  25.937  1.00  0.00     0.278 C 
ENDBRANCH  29  34
ENDBRANCH  21  28
ENDBRANCH  11  20
BRANCH  19  36
ATOM     36  O   UNL A   1      44.694  27.716  39.149  1.00  0.00    -0.497 OA
ATOM     37  C   UNL A   1      45.089  26.633  39.983  1.00  0.00     0.278 C 
ENDBRANCH  19  36
ENDBRANCH   8  10
ENDBRANCH   7   8
ENDBRANCH   6   7
ENDBRANCH   5   6
ENDBRANCH   4   5
ENDBRANCH   3   4
ENDBRANCH   2   3
ENDBRANCH   1   2
BRANCH   1  38
ATOM     38  C   UNL A   1      37.768  30.204  29.317  1.00  0.00     0.188 C 
BRANCH  38  39
ATOM     39  C   UNL A   1      37.291  31.659  29.237  1.00  0.00     0.188 C 
BRANCH  39  40
ATOM     40  O   UNL A   1      36.335  31.896  28.213  1.00  0.00    -0.376 OA
BRANCH  40  41
ATOM     41  C   UNL A   1      35.082  32.418  28.668  1.00  0.00     0.202 C 
BRANCH  41  42
ATOM     42  C   UNL A   1      34.806  32.340  30.187  1.00  0.00     0.261 C 
BRANCH  42  43
ATOM     43  O   UNL A   1      34.624  33.608  30.838  1.00  0.00    -0.460 OA
BRANCH  43  44
ATOM     44  C   UNL A   1      34.485  33.560  32.179  1.00  0.00     0.338 C 
ATOM     45  O   UNL A   1      33.439  33.467  32.798  1.00  0.00    -0.246 OA
BRANCH  44  46
ATOM     46  C   UNL A   1      35.816  33.444  32.805  1.00  0.00     0.060 A 
ATOM     47  C   UNL A   1      36.622  34.589  32.847  1.00  0.00     0.016 A 
ATOM     48  C   UNL A   1      36.304  32.214  33.253  1.00  0.00     0.016 A 
ATOM     49  C   UNL A   1      37.951  34.489  33.253  1.00  0.00     0.010 A 
ATOM     50  C   UNL A   1      37.642  32.113  33.645  1.00  0.00     0.010 A 
ATOM     51  C   UNL A   1      38.484  33.237  33.587  1.00  0.00    -0.014 A 
BRANCH  51  52
ATOM     52  C   UNL A   1      39.958  33.078  33.638  1.00  0.00     0.031 A 
ATOM     53  C   UNL A   1      40.635  33.112  34.980  1.00  0.00     0.074 A 
ATOM     54  C   UNL A   1      40.694  32.913  32.526  1.00  0.00     0.049 A 
ATOM     55  N   UNL A   1      41.892  32.906  35.276  1.00  0.00    -0.248 NA
ATOM     56  C   UNL A   1      39.786  33.427  36.142  1.00  0.00     0.031 C 
ATOM     57  C   UNL A   1      40.169  32.921  31.166  1.00  0.00     0.029 A 
ATOM     58  N   UNL A   1      42.047  32.728  32.370  1.00  0.00    -0.354 N 
ATOM     59  C   UNL A   1      41.992  33.102  36.646  1.00  0.00     0.074 A 
ATOM     60  C   UNL A   1      40.671  33.442  37.127  1.00  0.00     0.031 C 
ATOM     61  C   UNL A   1      41.198  32.775  30.314  1.00  0.00     0.029 A 
ATOM     62  C   UNL A   1      42.444  32.641  31.057  1.00  0.00     0.049 A 
ATOM     63  H   UNL A   1      42.673  32.667  33.128  1.00  0.00     0.167 HD
ATOM     64  C   UNL A   1      43.084  32.997  37.437  1.00  0.00     0.034 A 
ATOM     65  C   UNL A   1      43.664  32.457  30.512  1.00  0.00     0.034 A 
ATOM     66  C   UNL A   1      44.393  32.633  36.973  1.00  0.00     0.049 A 
ATOM     67  C   UNL A   1      44.846  32.263  31.429  1.00  0.00     0.074 A 
ATOM     68  C   UNL A   1      45.546  32.434  37.714  1.00  0.00     0.029 A 
ATOM     69  N   UNL A   1      44.730  32.426  35.646  1.00  0.00    -0.354 N 
ATOM     70  N   UNL A   1      44.879  32.238  32.739  1.00  0.00    -0.248 NA
ATOM     71  C   UNL A   1      46.151  32.020  30.794  1.00  0.00     0.031 C 
ATOM     72  C   UNL A   1      46.583  32.115  36.831  1.00  0.00     0.029 A 
ATOM     73  C   UNL A   1      46.072  32.104  35.544  1.00  0.00     0.049 A 
ATOM     74  H   UNL A   1      44.107  32.497  34.887  1.00  0.00     0.167 HD
ATOM     75  C   UNL A   1      46.192  31.929  33.080  1.00  0.00     0.074 A 
ATOM     76  C   UNL A   1      46.914  31.740  31.840  1.00  0.00     0.031 C 
ATOM     77  C   UNL A   1      46.757  31.838  34.308  1.00  0.00     0.034 A 
BRANCH  64  78
ATOM     78  C   UNL A   1      42.898  33.252  38.905  1.00  0.00     0.023 A 
ATOM     79  C   UNL A   1      42.756  32.163  39.787  1.00  0.00     0.012 A 
ATOM     80  C   UNL A   1      42.912  34.564  39.413  1.00  0.00     0.148 A 
ATOM     81  C   UNL A   1      42.610  32.377  41.156  1.00  0.00     0.002 A 
ATOM     82  C   UNL A   1      42.804  34.768  40.783  1.00  0.00     0.091 A 
ATOM     83  F   UNL A   1      43.020  35.584  38.549  1.00  0.00    -0.205 F 
ATOM     84  C   UNL A   1      42.644  33.677  41.654  1.00  0.00     0.022 A 
BRANCH  82  85
ATOM     85  S   UNL A   1      42.903  36.398  41.530  1.00  0.00     0.127 S 
ATOM     86  O   UNL A   1      42.350  36.147  42.860  1.00  0.00    -0.237 OA
ATOM     87  O   UNL A   1      44.342  36.659  41.505  1.00  0.00    -0.237 OA
ATOM     88  O   UNL A   1      42.111  37.278  40.682  1.00  0.00    -0.744 OA
ENDBRANCH  82  85
ENDBRANCH  64  78
BRANCH  65  89
ATOM     89  C   UNL A   1      43.836  32.351  29.030  1.00  0.00     0.023 A 
ATOM     90  C   UNL A   1      43.744  31.086  28.413  1.00  0.00     0.012 A 
ATOM     91  C   UNL A   1      44.102  33.476  28.227  1.00  0.00     0.148 A 
ATOM     92  C   UNL A   1      43.984  30.933  27.046  1.00  0.00     0.002 A 
ATOM     93  C   UNL A   1      44.249  33.330  26.851  1.00  0.00     0.091 A 
ATOM     94  F   UNL A   1      44.216  34.675  28.819  1.00  0.00    -0.205 F 
ATOM     95  C   UNL A   1      44.223  32.056  26.262  1.00  0.00     0.022 A 
BRANCH  93  96
ATOM     96  S   UNL A   1      44.348  34.747  25.752  1.00  0.00     0.127 S 
ATOM     97  O   UNL A   1      44.533  34.109  24.452  1.00  0.00    -0.237 OA
ATOM     98  O   UNL A   1      43.041  35.379  25.948  1.00  0.00    -0.237 OA
ATOM     99  O   UNL A   1      45.468  35.537  26.246  1.00  0.00    -0.744 OA
ENDBRANCH  93  96
ENDBRANCH  65  89
BRANCH  77 100
ATOM    100  C   UNL A   1      48.215  31.467  34.369  1.00  0.00     0.023 A 
ATOM    101  C   UNL A   1      49.195  32.479  34.366  1.00  0.00     0.012 A 
ATOM    102  C   UNL A   1      48.612  30.120  34.454  1.00  0.00     0.148 A 
ATOM    103  C   UNL A   1      50.550  32.154  34.397  1.00  0.00     0.002 A 
ATOM    104  C   UNL A   1      49.964  29.804  34.530  1.00  0.00     0.091 A 
ATOM    105  F   UNL A   1      47.668  29.167  34.434  1.00  0.00    -0.205 F 
ATOM    106  C   UNL A   1      50.935  30.819  34.488  1.00  0.00     0.022 A 
BRANCH 104 107
ATOM    107  S   UNL A   1      50.532  28.112  34.731  1.00  0.00     0.127 S 
ATOM    108  O   UNL A   1      49.470  27.535  35.553  1.00  0.00    -0.237 OA
ATOM    109  O   UNL A   1      50.568  27.624  33.351  1.00  0.00    -0.237 OA
ATOM    110  O   UNL A   1      51.841  28.211  35.363  1.00  0.00    -0.744 OA
ENDBRANCH 104 107
ENDBRANCH  77 100
ENDBRANCH  51  52
ENDBRANCH  44  46
ENDBRANCH  43  44
ENDBRANCH  42  43
ENDBRANCH  41  42
ENDBRANCH  40  41
ENDBRANCH  39  40
ENDBRANCH  38  39
ENDBRANCH   1  38
TORSDOF 27
ENDMDL
