MODEL 1
REMARK VINA RESULT:      -8.8      0.000      0.000
REMARK SMILES C[C@@H]1[C@H](C(=O)OCCOCCOCCOCCOC(=O)c2ccc(-c3c4nc(c(-c5cccc(S(=O)(=O)[O-])c5F)c5ccc([nH]5)c(-c5cccc(S(=O)(=O)[O-])c5F)c5nc(c(-c6cccc(S(=O)(=O)[O-])c6F)c6ccc3[nH]6)C=C5)C=C4)cc2)CCN1S(=O)(=O)c1cc(F)cc(F)c1
REMARK SMILES IDX 13 1 12 2 11 3 10 4 9 5 8 6 7 7 6 8 4 9 5 10 3 11 1 12 2 13
REMARK SMILES IDX 86 14 84 15 85 16 87 17 88 18 89 19 90 20 91 21 97 22 92 23
REMARK SMILES IDX 95 24 93 25 94 26 96 27 14 28 15 29 16 30 17 31 18 32 19 33
REMARK SMILES IDX 20 34 21 35 22 36 83 37 23 38 82 39 24 40 25 41 26 42 76 43
REMARK SMILES IDX 27 44 81 45 75 46 77 47 28 48 80 49 74 50 73 51 29 53 61 54
REMARK SMILES IDX 41 55 60 56 42 57 45 58 59 59 78 60 43 61 44 62 58 64 79 65
REMARK SMILES IDX 46 66 30 67 31 68 39 69 32 70 34 71 40 72 33 73 35 74 36 75
REMARK SMILES IDX 37 76 38 77 62 78 63 79 71 80 64 81 66 82 72 83 65 84 67 85
REMARK SMILES IDX 68 86 69 87 70 88 47 89 48 90 56 91 49 92 51 93 57 94 50 95
REMARK SMILES IDX 52 96 53 97 54 98 55 99
REMARK H PARENT 77 52 45 63
REMARK Flexibility Score: inf
ROOT
ATOM      1  C   UNL A   1      41.902  20.698  27.061  1.00  0.00     0.188 C 
ENDROOT
BRANCH   1   2
ATOM      2  O   UNL A   1      40.494  20.900  27.225  1.00  0.00    -0.377 OA
BRANCH   2   3
ATOM      3  C   UNL A   1      39.953  22.207  27.076  1.00  0.00     0.188 C 
BRANCH   3   4
ATOM      4  C   UNL A   1      38.758  22.409  26.129  1.00  0.00     0.188 C 
BRANCH   4   5
ATOM      5  O   UNL A   1      38.167  21.186  25.736  1.00  0.00    -0.376 OA
BRANCH   5   6
ATOM      6  C   UNL A   1      37.319  21.196  24.601  1.00  0.00     0.202 C 
BRANCH   6   7
ATOM      7  C   UNL A   1      35.791  21.201  24.788  1.00  0.00     0.261 C 
BRANCH   7   8
ATOM      8  O   UNL A   1      35.087  22.248  24.107  1.00  0.00    -0.463 OA
BRANCH   8   9
ATOM      9  C   UNL A   1      33.756  22.338  24.314  1.00  0.00     0.310 C 
ATOM     10  O   UNL A   1      32.925  21.606  23.785  1.00  0.00    -0.252 OA
BRANCH   9  11
ATOM     11  C   UNL A   1      33.384  23.348  25.376  1.00  0.00     0.118 C 
ATOM     12  C   UNL A   1      33.416  25.390  23.776  1.00  0.00     0.027 C 
ATOM     13  C   UNL A   1      33.666  24.852  25.180  1.00  0.00     0.084 C 
ATOM     14  N   UNL A   1      32.795  25.483  26.238  1.00  0.00    -0.194 NA
ATOM     15  C   UNL A   1      31.885  23.333  25.621  1.00  0.00     0.034 C 
ATOM     16  C   UNL A   1      31.663  24.537  26.514  1.00  0.00     0.104 C 
BRANCH  14  17
ATOM     17  S   UNL A   1      32.299  27.106  26.267  1.00  0.00     0.243 S 
ATOM     18  O   UNL A   1      31.719  27.396  27.556  1.00  0.00    -0.207 OA
ATOM     19  O   UNL A   1      33.458  27.856  25.811  1.00  0.00    -0.207 OA
BRANCH  17  20
ATOM     20  C   UNL A   1      31.049  27.394  25.037  1.00  0.00     0.088 A 
ATOM     21  C   UNL A   1      31.147  28.595  24.316  1.00  0.00     0.061 A 
ATOM     22  C   UNL A   1      29.987  26.529  24.786  1.00  0.00     0.061 A 
ATOM     23  C   UNL A   1      30.181  28.919  23.371  1.00  0.00     0.127 A 
ATOM     24  C   UNL A   1      29.036  26.877  23.827  1.00  0.00     0.127 A 
ATOM     25  F   UNL A   1      30.277  30.072  22.698  1.00  0.00    -0.207 F 
ATOM     26  C   UNL A   1      29.118  28.068  23.118  1.00  0.00     0.078 A 
ATOM     27  F   UNL A   1      28.014  26.046  23.586  1.00  0.00    -0.207 F 
ENDBRANCH  17  20
ENDBRANCH  14  17
ENDBRANCH   9  11
ENDBRANCH   8   9
ENDBRANCH   7   8
ENDBRANCH   6   7
ENDBRANCH   5   6
ENDBRANCH   4   5
ENDBRANCH   3   4
ENDBRANCH   2   3
ENDBRANCH   1   2
BRANCH   1  28
ATOM     28  C   UNL A   1      42.867  21.904  27.011  1.00  0.00     0.188 C 
BRANCH  28  29
ATOM     29  O   UNL A   1      43.984  21.742  26.146  1.00  0.00    -0.376 OA
BRANCH  29  30
ATOM     30  C   UNL A   1      44.463  22.918  25.507  1.00  0.00     0.202 C 
BRANCH  30  31
ATOM     31  C   UNL A   1      43.443  23.641  24.619  1.00  0.00     0.261 C 
BRANCH  31  32
ATOM     32  O   UNL A   1      43.337  25.055  24.845  1.00  0.00    -0.460 OA
BRANCH  32  33
ATOM     33  C   UNL A   1      42.268  25.500  25.538  1.00  0.00     0.338 C 
ATOM     34  O   UNL A   1      41.204  24.930  25.709  1.00  0.00    -0.246 OA
BRANCH  33  35
ATOM     35  C   UNL A   1      42.662  26.746  26.215  1.00  0.00     0.060 A 
ATOM     36  C   UNL A   1      43.344  26.671  27.436  1.00  0.00     0.016 A 
ATOM     37  C   UNL A   1      42.325  27.980  25.657  1.00  0.00     0.016 A 
ATOM     38  C   UNL A   1      43.652  27.842  28.128  1.00  0.00     0.010 A 
ATOM     39  C   UNL A   1      42.619  29.149  26.359  1.00  0.00     0.010 A 
ATOM     40  C   UNL A   1      43.249  29.083  27.615  1.00  0.00    -0.014 A 
BRANCH  40  41
ATOM     41  C   UNL A   1      43.307  30.289  28.471  1.00  0.00     0.031 A 
ATOM     42  C   UNL A   1      44.580  31.089  28.494  1.00  0.00     0.074 A 
ATOM     43  C   UNL A   1      42.257  30.660  29.225  1.00  0.00     0.049 A 
ATOM     44  N   UNL A   1      44.871  32.164  29.176  1.00  0.00    -0.248 NA
ATOM     45  C   UNL A   1      45.674  30.608  27.631  1.00  0.00     0.031 C 
ATOM     46  C   UNL A   1      40.974  29.966  29.292  1.00  0.00     0.029 A 
ATOM     47  N   UNL A   1      42.123  31.708  30.103  1.00  0.00    -0.354 N 
ATOM     48  C   UNL A   1      46.183  32.477  28.845  1.00  0.00     0.074 A 
ATOM     49  C   UNL A   1      46.639  31.471  27.910  1.00  0.00     0.031 C 
ATOM     50  C   UNL A   1      40.189  30.589  30.190  1.00  0.00     0.029 A 
ATOM     51  C   UNL A   1      40.920  31.715  30.770  1.00  0.00     0.049 A 
ATOM     52  H   UNL A   1      42.820  32.389  30.242  1.00  0.00     0.167 HD
ATOM     53  C   UNL A   1      46.939  33.518  29.265  1.00  0.00     0.034 A 
ATOM     54  C   UNL A   1      40.474  32.527  31.749  1.00  0.00     0.034 A 
ATOM     55  C   UNL A   1      46.485  34.524  30.185  1.00  0.00     0.049 A 
ATOM     56  C   UNL A   1      41.346  33.664  32.220  1.00  0.00     0.074 A 
ATOM     57  C   UNL A   1      47.161  35.643  30.638  1.00  0.00     0.029 A 
ATOM     58  N   UNL A   1      45.246  34.524  30.805  1.00  0.00    -0.354 N 
ATOM     59  N   UNL A   1      42.533  34.027  31.797  1.00  0.00    -0.248 NA
ATOM     60  C   UNL A   1      40.802  34.523  33.283  1.00  0.00     0.031 C 
ATOM     61  C   UNL A   1      46.337  36.309  31.552  1.00  0.00     0.029 A 
ATOM     62  C   UNL A   1      45.140  35.617  31.647  1.00  0.00     0.049 A 
ATOM     63  H   UNL A   1      44.545  33.847  30.668  1.00  0.00     0.167 HD
ATOM     64  C   UNL A   1      42.860  35.176  32.511  1.00  0.00     0.074 A 
ATOM     65  C   UNL A   1      41.738  35.459  33.381  1.00  0.00     0.031 C 
ATOM     66  C   UNL A   1      43.992  35.921  32.463  1.00  0.00     0.034 A 
BRANCH  53  67
ATOM     67  C   UNL A   1      48.331  33.636  28.706  1.00  0.00     0.023 A 
ATOM     68  C   UNL A   1      49.416  33.100  29.429  1.00  0.00     0.012 A 
ATOM     69  C   UNL A   1      48.561  34.233  27.452  1.00  0.00     0.148 A 
ATOM     70  C   UNL A   1      50.713  33.180  28.924  1.00  0.00     0.002 A 
ATOM     71  C   UNL A   1      49.852  34.273  26.938  1.00  0.00     0.091 A 
ATOM     72  F   UNL A   1      47.519  34.761  26.795  1.00  0.00    -0.205 F 
ATOM     73  C   UNL A   1      50.929  33.757  27.676  1.00  0.00     0.022 A 
BRANCH  71  74
ATOM     74  S   UNL A   1      50.221  34.931  25.308  1.00  0.00     0.127 S 
ATOM     75  O   UNL A   1      50.947  36.155  25.642  1.00  0.00    -0.237 OA
ATOM     76  O   UNL A   1      51.048  33.871  24.728  1.00  0.00    -0.237 OA
ATOM     77  O   UNL A   1      48.936  35.123  24.652  1.00  0.00    -0.744 OA
ENDBRANCH  71  74
ENDBRANCH  53  67
BRANCH  54  78
ATOM     78  C   UNL A   1      39.115  32.324  32.327  1.00  0.00     0.023 A 
ATOM     79  C   UNL A   1      38.948  31.444  33.414  1.00  0.00     0.012 A 
ATOM     80  C   UNL A   1      37.991  32.998  31.811  1.00  0.00     0.148 A 
ATOM     81  C   UNL A   1      37.683  31.213  33.956  1.00  0.00     0.002 A 
ATOM     82  C   UNL A   1      36.743  32.805  32.391  1.00  0.00     0.091 A 
ATOM     83  F   UNL A   1      38.168  33.816  30.764  1.00  0.00    -0.205 F 
ATOM     84  C   UNL A   1      36.583  31.901  33.451  1.00  0.00     0.022 A 
BRANCH  82  85
ATOM     85  S   UNL A   1      35.294  33.742  31.890  1.00  0.00     0.127 S 
ATOM     86  O   UNL A   1      34.216  32.982  32.518  1.00  0.00    -0.237 OA
ATOM     87  O   UNL A   1      35.560  35.050  32.491  1.00  0.00    -0.237 OA
ATOM     88  O   UNL A   1      35.309  33.737  30.434  1.00  0.00    -0.744 OA
ENDBRANCH  82  85
ENDBRANCH  54  78
BRANCH  66  89
ATOM     89  C   UNL A   1      44.070  37.142  33.343  1.00  0.00     0.023 A 
ATOM     90  C   UNL A   1      43.678  38.397  32.837  1.00  0.00     0.012 A 
ATOM     91  C   UNL A   1      44.451  37.030  34.696  1.00  0.00     0.148 A 
ATOM     92  C   UNL A   1      43.690  39.525  33.656  1.00  0.00     0.002 A 
ATOM     93  C   UNL A   1      44.413  38.150  35.518  1.00  0.00     0.091 A 
ATOM     94  F   UNL A   1      44.838  35.831  35.155  1.00  0.00    -0.205 F 
ATOM     95  C   UNL A   1      44.045  39.401  34.996  1.00  0.00     0.022 A 
BRANCH  93  96
ATOM     96  S   UNL A   1      44.761  38.063  37.278  1.00  0.00     0.127 S 
ATOM     97  O   UNL A   1      43.776  37.081  37.729  1.00  0.00    -0.237 OA
ATOM     98  O   UNL A   1      46.146  37.591  37.301  1.00  0.00    -0.237 OA
ATOM     99  O   UNL A   1      44.577  39.415  37.789  1.00  0.00    -0.744 OA
ENDBRANCH  93  96
ENDBRANCH  66  89
ENDBRANCH  40  41
ENDBRANCH  33  35
ENDBRANCH  32  33
ENDBRANCH  31  32
ENDBRANCH  30  31
ENDBRANCH  29  30
ENDBRANCH  28  29
ENDBRANCH   1  28
TORSDOF 25
ENDMDL
MODEL 2
REMARK VINA RESULT:      -8.4      5.488     11.363
REMARK SMILES C[C@@H]1[C@H](C(=O)OCCOCCOCCOCCOC(=O)c2ccc(-c3c4nc(c(-c5cccc(S(=O)(=O)[O-])c5F)c5ccc([nH]5)c(-c5cccc(S(=O)(=O)[O-])c5F)c5nc(c(-c6cccc(S(=O)(=O)[O-])c6F)c6ccc3[nH]6)C=C5)C=C4)cc2)CCN1S(=O)(=O)c1cc(F)cc(F)c1
REMARK SMILES IDX 13 1 12 2 11 3 10 4 9 5 8 6 7 7 6 8 4 9 5 10 3 11 1 12 2 13
REMARK SMILES IDX 86 14 84 15 85 16 87 17 88 18 89 19 90 20 91 21 97 22 92 23
REMARK SMILES IDX 95 24 93 25 94 26 96 27 14 28 15 29 16 30 17 31 18 32 19 33
REMARK SMILES IDX 20 34 21 35 22 36 83 37 23 38 82 39 24 40 25 41 26 42 76 43
REMARK SMILES IDX 27 44 81 45 75 46 77 47 28 48 80 49 74 50 73 51 29 53 61 54
REMARK SMILES IDX 41 55 60 56 42 57 45 58 59 59 78 60 43 61 44 62 58 64 79 65
REMARK SMILES IDX 46 66 30 67 31 68 39 69 32 70 34 71 40 72 33 73 35 74 36 75
REMARK SMILES IDX 37 76 38 77 62 78 63 79 71 80 64 81 66 82 72 83 65 84 67 85
REMARK SMILES IDX 68 86 69 87 70 88 47 89 48 90 56 91 49 92 51 93 57 94 50 95
REMARK SMILES IDX 52 96 53 97 54 98 55 99
REMARK H PARENT 77 52 45 63
REMARK Flexibility Score: inf
ROOT
ATOM      1  C   UNL A   1      37.923  33.703  38.714  1.00  0.00     0.188 C 
ENDROOT
BRANCH   1   2
ATOM      2  O   UNL A   1      37.461  33.933  37.379  1.00  0.00    -0.377 OA
BRANCH   2   3
ATOM      3  C   UNL A   1      37.449  32.858  36.447  1.00  0.00     0.188 C 
BRANCH   3   4
ATOM      4  C   UNL A   1      37.214  33.172  34.960  1.00  0.00     0.188 C 
BRANCH   4   5
ATOM      5  O   UNL A   1      35.958  32.710  34.501  1.00  0.00    -0.376 OA
BRANCH   5   6
ATOM      6  C   UNL A   1      35.216  33.557  33.641  1.00  0.00     0.202 C 
BRANCH   6   7
ATOM      7  C   UNL A   1      34.965  33.135  32.183  1.00  0.00     0.261 C 
BRANCH   7   8
ATOM      8  O   UNL A   1      36.026  32.398  31.560  1.00  0.00    -0.463 OA
BRANCH   8   9
ATOM      9  C   UNL A   1      36.235  32.605  30.242  1.00  0.00     0.310 C 
ATOM     10  O   UNL A   1      35.992  33.659  29.663  1.00  0.00    -0.252 OA
BRANCH   9  11
ATOM     11  C   UNL A   1      36.929  31.448  29.560  1.00  0.00     0.118 C 
ATOM     12  C   UNL A   1      39.135  31.672  30.907  1.00  0.00     0.027 C 
ATOM     13  C   UNL A   1      38.466  31.312  29.586  1.00  0.00     0.084 C 
ATOM     14  N   UNL A   1      38.669  29.875  29.173  1.00  0.00    -0.194 NA
ATOM     15  C   UNL A   1      36.481  30.129  30.163  1.00  0.00     0.034 C 
ATOM     16  C   UNL A   1      37.427  29.119  29.543  1.00  0.00     0.104 C 
BRANCH  14  17
ATOM     17  S   UNL A   1      40.077  28.965  29.432  1.00  0.00     0.243 S 
ATOM     18  O   UNL A   1      41.226  29.769  29.091  1.00  0.00    -0.207 OA
ATOM     19  O   UNL A   1      39.936  28.442  30.781  1.00  0.00    -0.207 OA
BRANCH  17  20
ATOM     20  C   UNL A   1      40.092  27.533  28.381  1.00  0.00     0.088 A 
ATOM     21  C   UNL A   1      40.752  27.669  27.149  1.00  0.00     0.061 A 
ATOM     22  C   UNL A   1      39.466  26.328  28.693  1.00  0.00     0.061 A 
ATOM     23  C   UNL A   1      40.767  26.611  26.247  1.00  0.00     0.127 A 
ATOM     24  C   UNL A   1      39.503  25.281  27.772  1.00  0.00     0.127 A 
ATOM     25  F   UNL A   1      41.389  26.756  25.071  1.00  0.00    -0.207 F 
ATOM     26  C   UNL A   1      40.143  25.411  26.547  1.00  0.00     0.078 A 
ATOM     27  F   UNL A   1      38.901  24.123  28.072  1.00  0.00    -0.207 F 
ENDBRANCH  17  20
ENDBRANCH  14  17
ENDBRANCH   9  11
ENDBRANCH   8   9
ENDBRANCH   7   8
ENDBRANCH   6   7
ENDBRANCH   5   6
ENDBRANCH   4   5
ENDBRANCH   3   4
ENDBRANCH   2   3
ENDBRANCH   1   2
BRANCH   1  28
ATOM     28  C   UNL A   1      37.830  32.295  39.345  1.00  0.00     0.188 C 
BRANCH  28  29
ATOM     29  O   UNL A   1      38.844  31.997  40.296  1.00  0.00    -0.376 OA
BRANCH  29  30
ATOM     30  C   UNL A   1      39.771  33.038  40.578  1.00  0.00     0.202 C 
BRANCH  30  31
ATOM     31  C   UNL A   1      41.171  32.842  39.984  1.00  0.00     0.261 C 
BRANCH  31  32
ATOM     32  O   UNL A   1      41.922  34.051  39.792  1.00  0.00    -0.460 OA
BRANCH  32  33
ATOM     33  C   UNL A   1      41.506  34.899  38.828  1.00  0.00     0.338 C 
ATOM     34  O   UNL A   1      41.008  36.002  38.974  1.00  0.00    -0.246 OA
BRANCH  33  35
ATOM     35  C   UNL A   1      41.914  34.335  37.531  1.00  0.00     0.060 A 
ATOM     36  C   UNL A   1      40.926  33.911  36.633  1.00  0.00     0.016 A 
ATOM     37  C   UNL A   1      43.268  34.198  37.224  1.00  0.00     0.016 A 
ATOM     38  C   UNL A   1      41.297  33.302  35.435  1.00  0.00     0.010 A 
ATOM     39  C   UNL A   1      43.637  33.573  36.032  1.00  0.00     0.010 A 
ATOM     40  C   UNL A   1      42.653  33.088  35.152  1.00  0.00    -0.014 A 
BRANCH  40  41
ATOM     41  C   UNL A   1      43.042  32.191  34.040  1.00  0.00     0.031 A 
ATOM     42  C   UNL A   1      43.163  32.775  32.659  1.00  0.00     0.074 A 
ATOM     43  C   UNL A   1      43.269  30.881  34.247  1.00  0.00     0.049 A 
ATOM     44  N   UNL A   1      43.469  32.185  31.535  1.00  0.00    -0.248 NA
ATOM     45  C   UNL A   1      42.901  34.219  32.531  1.00  0.00     0.031 C 
ATOM     46  C   UNL A   1      43.178  30.199  35.535  1.00  0.00     0.029 A 
ATOM     47  N   UNL A   1      43.597  29.887  33.358  1.00  0.00    -0.354 N 
ATOM     48  C   UNL A   1      43.416  33.176  30.563  1.00  0.00     0.074 A 
ATOM     49  C   UNL A   1      43.035  34.404  31.226  1.00  0.00     0.031 C 
ATOM     50  C   UNL A   1      43.415  28.888  35.350  1.00  0.00     0.029 A 
ATOM     51  C   UNL A   1      43.657  28.638  33.930  1.00  0.00     0.049 A 
ATOM     52  H   UNL A   1      43.772  30.053  32.404  1.00  0.00     0.167 HD
ATOM     53  C   UNL A   1      43.678  33.080  29.239  1.00  0.00     0.034 A 
ATOM     54  C   UNL A   1      43.867  27.432  33.363  1.00  0.00     0.034 A 
ATOM     55  C   UNL A   1      44.066  31.865  28.580  1.00  0.00     0.049 A 
ATOM     56  C   UNL A   1      44.128  27.349  31.880  1.00  0.00     0.074 A 
ATOM     57  C   UNL A   1      44.396  31.675  27.250  1.00  0.00     0.029 A 
ATOM     58  N   UNL A   1      44.162  30.627  29.198  1.00  0.00    -0.354 N 
ATOM     59  N   UNL A   1      44.209  28.315  30.998  1.00  0.00    -0.248 NA
ATOM     60  C   UNL A   1      44.360  26.008  31.320  1.00  0.00     0.031 C 
ATOM     61  C   UNL A   1      44.669  30.316  27.058  1.00  0.00     0.029 A 
ATOM     62  C   UNL A   1      44.533  29.666  28.275  1.00  0.00     0.049 A 
ATOM     63  H   UNL A   1      43.990  30.458  30.152  1.00  0.00     0.167 HD
ATOM     64  C   UNL A   1      44.539  27.707  29.791  1.00  0.00     0.074 A 
ATOM     65  C   UNL A   1      44.660  26.289  30.059  1.00  0.00     0.031 C 
ATOM     66  C   UNL A   1      44.710  28.267  28.568  1.00  0.00     0.034 A 
BRANCH  53  67
ATOM     67  C   UNL A   1      43.580  34.338  28.419  1.00  0.00     0.023 A 
ATOM     68  C   UNL A   1      42.330  34.730  27.896  1.00  0.00     0.012 A 
ATOM     69  C   UNL A   1      44.707  35.154  28.204  1.00  0.00     0.148 A 
ATOM     70  C   UNL A   1      42.210  35.900  27.149  1.00  0.00     0.002 A 
ATOM     71  C   UNL A   1      44.570  36.339  27.492  1.00  0.00     0.091 A 
ATOM     72  F   UNL A   1      45.890  34.749  28.687  1.00  0.00    -0.205 F 
ATOM     73  C   UNL A   1      43.326  36.709  26.956  1.00  0.00     0.022 A 
BRANCH  71  74
ATOM     74  S   UNL A   1      45.933  37.484  27.252  1.00  0.00     0.127 S 
ATOM     75  O   UNL A   1      46.286  37.815  28.632  1.00  0.00    -0.237 OA
ATOM     76  O   UNL A   1      46.915  36.653  26.555  1.00  0.00    -0.237 OA
ATOM     77  O   UNL A   1      45.400  38.583  26.461  1.00  0.00    -0.744 OA
ENDBRANCH  71  74
ENDBRANCH  53  67
BRANCH  54  78
ATOM     78  C   UNL A   1      43.878  26.203  34.206  1.00  0.00     0.023 A 
ATOM     79  C   UNL A   1      42.661  25.571  34.528  1.00  0.00     0.012 A 
ATOM     80  C   UNL A   1      45.084  25.655  34.686  1.00  0.00     0.148 A 
ATOM     81  C   UNL A   1      42.642  24.436  35.340  1.00  0.00     0.002 A 
ATOM     82  C   UNL A   1      45.061  24.493  35.447  1.00  0.00     0.091 A 
ATOM     83  F   UNL A   1      46.230  26.282  34.384  1.00  0.00    -0.205 F 
ATOM     84  C   UNL A   1      43.841  23.891  35.790  1.00  0.00     0.022 A 
BRANCH  82  85
ATOM     85  S   UNL A   1      46.561  23.650  35.964  1.00  0.00     0.127 S 
ATOM     86  O   UNL A   1      47.446  24.773  36.262  1.00  0.00    -0.237 OA
ATOM     87  O   UNL A   1      46.097  22.902  37.133  1.00  0.00    -0.237 OA
ATOM     88  O   UNL A   1      46.951  22.817  34.835  1.00  0.00    -0.744 OA
ENDBRANCH  82  85
ENDBRANCH  54  78
BRANCH  66  89
ATOM     89  C   UNL A   1      45.089  27.361  27.425  1.00  0.00     0.023 A 
ATOM     90  C   UNL A   1      44.124  26.503  26.862  1.00  0.00     0.012 A 
ATOM     91  C   UNL A   1      46.376  27.424  26.853  1.00  0.00     0.148 A 
ATOM     92  C   UNL A   1      44.443  25.700  25.766  1.00  0.00     0.002 A 
ATOM     93  C   UNL A   1      46.671  26.658  25.732  1.00  0.00     0.091 A 
ATOM     94  F   UNL A   1      47.286  28.234  27.413  1.00  0.00    -0.205 F 
ATOM     95  C   UNL A   1      45.709  25.786  25.195  1.00  0.00     0.022 A 
BRANCH  93  96
ATOM     96  S   UNL A   1      48.244  26.777  24.873  1.00  0.00     0.127 S 
ATOM     97  O   UNL A   1      48.287  28.197  24.524  1.00  0.00    -0.237 OA
ATOM     98  O   UNL A   1      49.197  26.375  25.908  1.00  0.00    -0.237 OA
ATOM     99  O   UNL A   1      48.155  25.858  23.746  1.00  0.00    -0.744 OA
ENDBRANCH  93  96
ENDBRANCH  66  89
ENDBRANCH  40  41
ENDBRANCH  33  35
ENDBRANCH  32  33
ENDBRANCH  31  32
ENDBRANCH  30  31
ENDBRANCH  29  30
ENDBRANCH  28  29
ENDBRANCH   1  28
TORSDOF 25
ENDMDL
MODEL 3
REMARK VINA RESULT:      -8.2      2.260      7.735
REMARK SMILES C[C@@H]1[C@H](C(=O)OCCOCCOCCOCCOC(=O)c2ccc(-c3c4nc(c(-c5cccc(S(=O)(=O)[O-])c5F)c5ccc([nH]5)c(-c5cccc(S(=O)(=O)[O-])c5F)c5nc(c(-c6cccc(S(=O)(=O)[O-])c6F)c6ccc3[nH]6)C=C5)C=C4)cc2)CCN1S(=O)(=O)c1cc(F)cc(F)c1
REMARK SMILES IDX 13 1 12 2 11 3 10 4 9 5 8 6 7 7 6 8 4 9 5 10 3 11 1 12 2 13
REMARK SMILES IDX 86 14 84 15 85 16 87 17 88 18 89 19 90 20 91 21 97 22 92 23
REMARK SMILES IDX 95 24 93 25 94 26 96 27 14 28 15 29 16 30 17 31 18 32 19 33
REMARK SMILES IDX 20 34 21 35 22 36 83 37 23 38 82 39 24 40 25 41 26 42 76 43
REMARK SMILES IDX 27 44 81 45 75 46 77 47 28 48 80 49 74 50 73 51 29 53 61 54
REMARK SMILES IDX 41 55 60 56 42 57 45 58 59 59 78 60 43 61 44 62 58 64 79 65
REMARK SMILES IDX 46 66 30 67 31 68 39 69 32 70 34 71 40 72 33 73 35 74 36 75
REMARK SMILES IDX 37 76 38 77 62 78 63 79 71 80 64 81 66 82 72 83 65 84 67 85
REMARK SMILES IDX 68 86 69 87 70 88 47 89 48 90 56 91 49 92 51 93 57 94 50 95
REMARK SMILES IDX 52 96 53 97 54 98 55 99
REMARK H PARENT 77 52 45 63
REMARK Flexibility Score: inf
ROOT
ATOM      1  C   UNL A   1      42.008  21.869  26.492  1.00  0.00     0.188 C 
ENDROOT
BRANCH   1   2
ATOM      2  O   UNL A   1      40.586  21.760  26.373  1.00  0.00    -0.377 OA
BRANCH   2   3
ATOM      3  C   UNL A   1      39.763  22.850  26.772  1.00  0.00     0.188 C 
BRANCH   3   4
ATOM      4  C   UNL A   1      38.376  23.006  26.125  1.00  0.00     0.188 C 
BRANCH   4   5
ATOM      5  O   UNL A   1      37.875  21.784  25.618  1.00  0.00    -0.376 OA
BRANCH   5   6
ATOM      6  C   UNL A   1      37.037  21.836  24.477  1.00  0.00     0.202 C 
BRANCH   6   7
ATOM      7  C   UNL A   1      35.579  21.353  24.578  1.00  0.00     0.261 C 
BRANCH   7   8
ATOM      8  O   UNL A   1      34.585  22.288  24.139  1.00  0.00    -0.463 OA
BRANCH   8   9
ATOM      9  C   UNL A   1      33.310  22.066  24.525  1.00  0.00     0.310 C 
ATOM     10  O   UNL A   1      32.650  21.087  24.190  1.00  0.00    -0.252 OA
BRANCH   9  11
ATOM     11  C   UNL A   1      32.806  23.077  25.529  1.00  0.00     0.118 C 
ATOM     12  C   UNL A   1      33.682  25.148  24.236  1.00  0.00     0.027 C 
ATOM     13  C   UNL A   1      33.388  24.505  25.586  1.00  0.00     0.084 C 
ATOM     14  N   UNL A   1      32.353  25.242  26.398  1.00  0.00    -0.194 NA
ATOM     15  C   UNL A   1      31.326  23.343  25.316  1.00  0.00     0.034 C 
ATOM     16  C   UNL A   1      31.046  24.523  26.225  1.00  0.00     0.104 C 
BRANCH  14  17
ATOM     17  S   UNL A   1      32.157  26.927  26.450  1.00  0.00     0.243 S 
ATOM     18  O   UNL A   1      31.279  27.264  27.544  1.00  0.00    -0.207 OA
ATOM     19  O   UNL A   1      33.510  27.458  26.420  1.00  0.00    -0.207 OA
BRANCH  17  20
ATOM     20  C   UNL A   1      31.399  27.509  24.953  1.00  0.00     0.088 A 
ATOM     21  C   UNL A   1      30.093  27.062  24.699  1.00  0.00     0.061 A 
ATOM     22  C   UNL A   1      32.033  28.335  24.027  1.00  0.00     0.061 A 
ATOM     23  C   UNL A   1      29.447  27.432  23.525  1.00  0.00     0.127 A 
ATOM     24  C   UNL A   1      31.358  28.695  22.860  1.00  0.00     0.127 A 
ATOM     25  F   UNL A   1      28.206  26.990  23.288  1.00  0.00    -0.207 F 
ATOM     26  C   UNL A   1      30.070  28.248  22.596  1.00  0.00     0.078 A 
ATOM     27  F   UNL A   1      31.967  29.488  21.970  1.00  0.00    -0.207 F 
ENDBRANCH  17  20
ENDBRANCH  14  17
ENDBRANCH   9  11
ENDBRANCH   8   9
ENDBRANCH   7   8
ENDBRANCH   6   7
ENDBRANCH   5   6
ENDBRANCH   4   5
ENDBRANCH   3   4
ENDBRANCH   2   3
ENDBRANCH   1   2
BRANCH   1  28
ATOM     28  C   UNL A   1      42.679  23.254  26.636  1.00  0.00     0.188 C 
BRANCH  28  29
ATOM     29  O   UNL A   1      44.100  23.234  26.632  1.00  0.00    -0.376 OA
BRANCH  29  30
ATOM     30  C   UNL A   1      44.750  24.497  26.706  1.00  0.00     0.202 C 
BRANCH  30  31
ATOM     31  C   UNL A   1      44.438  25.459  25.553  1.00  0.00     0.261 C 
BRANCH  31  32
ATOM     32  O   UNL A   1      44.433  26.851  25.910  1.00  0.00    -0.460 OA
BRANCH  32  33
ATOM     33  C   UNL A   1      43.321  27.342  26.494  1.00  0.00     0.338 C 
ATOM     34  O   UNL A   1      42.236  26.796  26.604  1.00  0.00    -0.246 OA
BRANCH  33  35
ATOM     35  C   UNL A   1      43.683  28.611  27.146  1.00  0.00     0.060 A 
ATOM     36  C   UNL A   1      44.519  28.585  28.269  1.00  0.00     0.016 A 
ATOM     37  C   UNL A   1      43.167  29.815  26.664  1.00  0.00     0.016 A 
ATOM     38  C   UNL A   1      44.806  29.771  28.944  1.00  0.00     0.010 A 
ATOM     39  C   UNL A   1      43.441  30.998  27.351  1.00  0.00     0.010 A 
ATOM     40  C   UNL A   1      44.229  30.975  28.515  1.00  0.00    -0.014 A 
BRANCH  40  41
ATOM     41  C   UNL A   1      44.286  32.171  29.386  1.00  0.00     0.031 A 
ATOM     42  C   UNL A   1      43.183  32.379  30.387  1.00  0.00     0.074 A 
ATOM     43  C   UNL A   1      45.286  33.065  29.281  1.00  0.00     0.049 A 
ATOM     44  N   UNL A   1      43.010  33.355  31.238  1.00  0.00    -0.248 NA
ATOM     45  C   UNL A   1      42.133  31.346  30.433  1.00  0.00     0.031 C 
ATOM     46  C   UNL A   1      46.406  32.976  28.347  1.00  0.00     0.029 A 
ATOM     47  N   UNL A   1      45.499  34.240  29.957  1.00  0.00    -0.354 N 
ATOM     48  C   UNL A   1      41.825  33.069  31.904  1.00  0.00     0.074 A 
ATOM     49  C   UNL A   1      41.312  31.835  31.351  1.00  0.00     0.031 C 
ATOM     50  C   UNL A   1      47.176  34.070  28.488  1.00  0.00     0.029 A 
ATOM     51  C   UNL A   1      46.594  34.942  29.508  1.00  0.00     0.049 A 
ATOM     52  H   UNL A   1      44.924  34.552  30.692  1.00  0.00     0.167 HD
ATOM     53  C   UNL A   1      41.223  33.760  32.900  1.00  0.00     0.034 A 
ATOM     54  C   UNL A   1      47.057  36.155  29.870  1.00  0.00     0.034 A 
ATOM     55  C   UNL A   1      41.736  34.981  33.458  1.00  0.00     0.049 A 
ATOM     56  C   UNL A   1      46.353  36.918  30.963  1.00  0.00     0.074 A 
ATOM     57  C   UNL A   1      41.222  35.732  34.499  1.00  0.00     0.029 A 
ATOM     58  N   UNL A   1      42.871  35.638  33.009  1.00  0.00    -0.354 N 
ATOM     59  N   UNL A   1      45.310  36.569  31.677  1.00  0.00    -0.248 NA
ATOM     60  C   UNL A   1      46.909  38.232  31.323  1.00  0.00     0.031 C 
ATOM     61  C   UNL A   1      42.036  36.859  34.666  1.00  0.00     0.029 A 
ATOM     62  C   UNL A   1      43.069  36.793  33.745  1.00  0.00     0.049 A 
ATOM     63  H   UNL A   1      43.450  35.328  32.276  1.00  0.00     0.167 HD
ATOM     64  C   UNL A   1      45.111  37.596  32.594  1.00  0.00     0.074 A 
ATOM     65  C   UNL A   1      46.152  38.574  32.357  1.00  0.00     0.031 C 
ATOM     66  C   UNL A   1      44.145  37.728  33.537  1.00  0.00     0.034 A 
BRANCH  53  67
ATOM     67  C   UNL A   1      39.953  33.191  33.471  1.00  0.00     0.023 A 
ATOM     68  C   UNL A   1      40.025  32.168  34.439  1.00  0.00     0.012 A 
ATOM     69  C   UNL A   1      38.696  33.697  33.089  1.00  0.00     0.148 A 
ATOM     70  C   UNL A   1      38.863  31.638  34.997  1.00  0.00     0.002 A 
ATOM     71  C   UNL A   1      37.544  33.190  33.680  1.00  0.00     0.091 A 
ATOM     72  F   UNL A   1      38.650  34.650  32.148  1.00  0.00    -0.205 F 
ATOM     73  C   UNL A   1      37.625  32.155  34.625  1.00  0.00     0.022 A 
BRANCH  71  74
ATOM     74  S   UNL A   1      35.909  33.840  33.321  1.00  0.00     0.127 S 
ATOM     75  O   UNL A   1      35.659  33.290  31.990  1.00  0.00    -0.237 OA
ATOM     76  O   UNL A   1      35.101  33.246  34.387  1.00  0.00    -0.237 OA
ATOM     77  O   UNL A   1      36.030  35.289  33.388  1.00  0.00    -0.744 OA
ENDBRANCH  71  74
ENDBRANCH  53  67
BRANCH  54  78
ATOM     78  C   UNL A   1      48.277  36.712  29.221  1.00  0.00     0.023 A 
ATOM     79  C   UNL A   1      48.146  37.514  28.070  1.00  0.00     0.012 A 
ATOM     80  C   UNL A   1      49.563  36.458  29.737  1.00  0.00     0.148 A 
ATOM     81  C   UNL A   1      49.274  38.024  27.425  1.00  0.00     0.002 A 
ATOM     82  C   UNL A   1      50.678  37.016  29.122  1.00  0.00     0.091 A 
ATOM     83  F   UNL A   1      49.668  35.678  30.822  1.00  0.00    -0.205 F 
ATOM     84  C   UNL A   1      50.538  37.784  27.957  1.00  0.00     0.022 A 
BRANCH  82  85
ATOM     85  S   UNL A   1      52.332  36.865  29.808  1.00  0.00     0.127 S 
ATOM     86  O   UNL A   1      52.349  35.470  30.240  1.00  0.00    -0.237 OA
ATOM     87  O   UNL A   1      53.167  37.161  28.643  1.00  0.00    -0.237 OA
ATOM     88  O   UNL A   1      52.408  37.860  30.868  1.00  0.00    -0.744 OA
ENDBRANCH  82  85
ENDBRANCH  54  78
BRANCH  66  89
ATOM     89  C   UNL A   1      44.181  38.950  34.418  1.00  0.00     0.023 A 
ATOM     90  C   UNL A   1      44.936  38.934  35.607  1.00  0.00     0.012 A 
ATOM     91  C   UNL A   1      43.538  40.141  34.023  1.00  0.00     0.148 A 
ATOM     92  C   UNL A   1      45.027  40.075  36.404  1.00  0.00     0.002 A 
ATOM     93  C   UNL A   1      43.673  41.287  34.797  1.00  0.00     0.091 A 
ATOM     94  F   UNL A   1      42.810  40.131  32.897  1.00  0.00    -0.205 F 
ATOM     95  C   UNL A   1      44.407  41.253  35.994  1.00  0.00     0.022 A 
BRANCH  93  96
ATOM     96  S   UNL A   1      42.990  42.871  34.295  1.00  0.00     0.127 S 
ATOM     97  O   UNL A   1      42.069  43.161  35.393  1.00  0.00    -0.237 OA
ATOM     98  O   UNL A   1      44.178  43.725  34.254  1.00  0.00    -0.237 OA
ATOM     99  O   UNL A   1      42.367  42.645  32.998  1.00  0.00    -0.744 OA
ENDBRANCH  93  96
ENDBRANCH  66  89
ENDBRANCH  40  41
ENDBRANCH  33  35
ENDBRANCH  32  33
ENDBRANCH  31  32
ENDBRANCH  30  31
ENDBRANCH  29  30
ENDBRANCH  28  29
ENDBRANCH   1  28
TORSDOF 25
ENDMDL
