MODEL 1
REMARK VINA RESULT:      -8.1      0.000      0.000
REMARK SMILES C[C@@H](CCO)Sc1cc(C(=O)OCCOCCOCCOCCOC(=O)c2ccc(-c3c4nc(c(-c5cccc(S(=O)(=O)[O-])c5F)c5ccc([nH]5)c(-c5cccc(S(=O)(=O)[O-])c5F)c5nc(c(-c6cccc(S(=O)(=O)[O-])c6F)c6ccc3[nH]6)C=C5)C=C4)cc2)c2ccccc2n1
REMARK SMILES IDX 17 1 16 2 15 3 14 4 13 5 12 6 10 7 11 8 9 9 7 10 8 11 96 12
REMARK SMILES IDX 95 13 90 14 94 15 91 16 93 17 92 18 6 19 2 20 1 21 3 22 4 23
REMARK SMILES IDX 5 24 18 26 19 27 20 28 21 29 22 30 23 31 24 32 25 33 26 34
REMARK SMILES IDX 27 35 28 36 89 37 29 38 88 39 30 40 31 41 32 42 82 43 33 44
REMARK SMILES IDX 87 45 81 46 83 47 34 48 86 49 80 50 79 51 35 53 67 54 47 55
REMARK SMILES IDX 66 56 48 57 51 58 65 59 84 60 49 61 50 62 64 64 85 65 52 66
REMARK SMILES IDX 36 67 37 68 45 69 38 70 40 71 46 72 39 73 41 74 42 75 43 76
REMARK SMILES IDX 44 77 68 78 69 79 77 80 70 81 72 82 78 83 71 84 73 85 74 86
REMARK SMILES IDX 75 87 76 88 53 89 54 90 62 91 55 92 57 93 63 94 56 95 58 96
REMARK SMILES IDX 59 97 60 98 61 99
REMARK H PARENT 5 25 83 52 51 63
REMARK Flexibility Score: inf
ROOT
ATOM      1  C   UNL A   1      33.995  34.627  28.976  1.00  0.00     0.188 C 
ENDROOT
BRANCH   1   2
ATOM      2  C   UNL A   1      33.482  33.388  28.212  1.00  0.00     0.188 C 
BRANCH   2   3
ATOM      3  O   UNL A   1      34.146  32.183  28.533  1.00  0.00    -0.376 OA
BRANCH   3   4
ATOM      4  C   UNL A   1      34.516  31.256  27.527  1.00  0.00     0.202 C 
BRANCH   4   5
ATOM      5  C   UNL A   1      34.272  29.740  27.613  1.00  0.00     0.261 C 
BRANCH   5   6
ATOM      6  O   UNL A   1      33.148  29.234  26.894  1.00  0.00    -0.460 OA
BRANCH   6   7
ATOM      7  C   UNL A   1      33.348  28.703  25.673  1.00  0.00     0.338 C 
ATOM      8  O   UNL A   1      34.316  28.879  24.954  1.00  0.00    -0.246 OA
BRANCH   7   9
ATOM      9  C   UNL A   1      32.334  27.640  25.454  1.00  0.00     0.072 A 
ATOM     10  C   UNL A   1      31.675  25.417  26.023  1.00  0.00     0.098 A 
ATOM     11  C   UNL A   1      32.614  26.421  26.087  1.00  0.00     0.052 A 
ATOM     12  N   UNL A   1      30.543  25.547  25.300  1.00  0.00    -0.241 NA
ATOM     13  C   UNL A   1      30.301  26.693  24.632  1.00  0.00     0.072 A 
ATOM     14  C   UNL A   1      31.139  27.820  24.713  1.00  0.00     0.015 A 
ATOM     15  C   UNL A   1      29.169  26.755  23.826  1.00  0.00     0.029 A 
ATOM     16  C   UNL A   1      30.731  29.014  24.055  1.00  0.00     0.011 A 
ATOM     17  C   UNL A   1      28.797  27.921  23.151  1.00  0.00     0.002 A 
ATOM     18  C   UNL A   1      29.564  29.064  23.295  1.00  0.00     0.001 A 
BRANCH  10  19
ATOM     19  S   UNL A   1      31.890  23.822  26.770  1.00  0.00    -0.103 SA
BRANCH  19  20
ATOM     20  C   UNL A   1      32.250  22.630  25.405  1.00  0.00     0.052 C 
ATOM     21  C   UNL A   1      32.892  23.271  24.177  1.00  0.00     0.020 C 
BRANCH  20  22
ATOM     22  C   UNL A   1      32.880  21.279  25.796  1.00  0.00     0.043 C 
BRANCH  22  23
ATOM     23  C   UNL A   1      32.442  20.060  25.000  1.00  0.00     0.157 C 
BRANCH  23  24
ATOM     24  O   UNL A   1      32.415  20.339  23.611  1.00  0.00    -0.396 OA
ATOM     25  H   UNL A   1      33.219  20.820  23.362  1.00  0.00     0.210 HD
ENDBRANCH  23  24
ENDBRANCH  22  23
ENDBRANCH  20  22
ENDBRANCH  19  20
ENDBRANCH  10  19
ENDBRANCH   7   9
ENDBRANCH   6   7
ENDBRANCH   5   6
ENDBRANCH   4   5
ENDBRANCH   3   4
ENDBRANCH   2   3
ENDBRANCH   1   2
BRANCH   1  26
ATOM     26  O   UNL A   1      33.444  34.821  30.263  1.00  0.00    -0.377 OA
BRANCH  26  27
ATOM     27  C   UNL A   1      34.232  34.532  31.413  1.00  0.00     0.188 C 
BRANCH  27  28
ATOM     28  C   UNL A   1      33.840  33.456  32.458  1.00  0.00     0.188 C 
BRANCH  28  29
ATOM     29  O   UNL A   1      34.570  32.240  32.386  1.00  0.00    -0.376 OA
BRANCH  29  30
ATOM     30  C   UNL A   1      35.972  32.317  32.192  1.00  0.00     0.202 C 
BRANCH  30  31
ATOM     31  C   UNL A   1      36.824  31.314  32.980  1.00  0.00     0.261 C 
BRANCH  31  32
ATOM     32  O   UNL A   1      36.678  29.940  32.598  1.00  0.00    -0.460 OA
BRANCH  32  33
ATOM     33  C   UNL A   1      36.968  29.624  31.314  1.00  0.00     0.338 C 
ATOM     34  O   UNL A   1      36.220  29.140  30.491  1.00  0.00    -0.246 OA
BRANCH  33  35
ATOM     35  C   UNL A   1      38.317  30.156  31.024  1.00  0.00     0.060 A 
ATOM     36  C   UNL A   1      38.583  30.670  29.749  1.00  0.00     0.016 A 
ATOM     37  C   UNL A   1      39.303  30.167  32.014  1.00  0.00     0.016 A 
ATOM     38  C   UNL A   1      39.849  31.172  29.452  1.00  0.00     0.010 A 
ATOM     39  C   UNL A   1      40.576  30.653  31.709  1.00  0.00     0.010 A 
ATOM     40  C   UNL A   1      40.864  31.129  30.418  1.00  0.00    -0.014 A 
BRANCH  40  41
ATOM     41  C   UNL A   1      42.263  31.429  30.027  1.00  0.00     0.031 A 
ATOM     42  C   UNL A   1      42.698  32.868  29.963  1.00  0.00     0.074 A 
ATOM     43  C   UNL A   1      43.133  30.446  29.739  1.00  0.00     0.049 A 
ATOM     44  N   UNL A   1      43.862  33.367  29.642  1.00  0.00    -0.248 NA
ATOM     45  C   UNL A   1      41.682  33.878  30.305  1.00  0.00     0.031 C 
ATOM     46  C   UNL A   1      42.832  29.016  29.767  1.00  0.00     0.029 A 
ATOM     47  N   UNL A   1      44.447  30.508  29.345  1.00  0.00    -0.354 N 
ATOM     48  C   UNL A   1      43.714  34.747  29.716  1.00  0.00     0.074 A 
ATOM     49  C   UNL A   1      42.344  35.007  30.099  1.00  0.00     0.031 C 
ATOM     50  C   UNL A   1      43.924  28.334  29.380  1.00  0.00     0.029 A 
ATOM     51  C   UNL A   1      44.991  29.280  29.052  1.00  0.00     0.049 A 
ATOM     52  H   UNL A   1      44.951  31.351  29.279  1.00  0.00     0.167 HD
ATOM     53  C   UNL A   1      44.638  35.713  29.498  1.00  0.00     0.034 A 
ATOM     54  C   UNL A   1      46.203  28.959  28.555  1.00  0.00     0.034 A 
ATOM     55  C   UNL A   1      46.002  35.453  29.123  1.00  0.00     0.049 A 
ATOM     56  C   UNL A   1      47.204  30.055  28.289  1.00  0.00     0.074 A 
ATOM     57  C   UNL A   1      47.027  36.360  28.927  1.00  0.00     0.029 A 
ATOM     58  N   UNL A   1      46.526  34.196  28.864  1.00  0.00    -0.354 N 
ATOM     59  N   UNL A   1      47.089  31.347  28.483  1.00  0.00    -0.248 NA
ATOM     60  C   UNL A   1      48.517  29.644  27.767  1.00  0.00     0.031 C 
ATOM     61  C   UNL A   1      48.160  35.656  28.508  1.00  0.00     0.029 A 
ATOM     62  C   UNL A   1      47.854  34.305  28.489  1.00  0.00     0.049 A 
ATOM     63  H   UNL A   1      46.027  33.350  28.935  1.00  0.00     0.167 HD
ATOM     64  C   UNL A   1      48.322  31.896  28.142  1.00  0.00     0.074 A 
ATOM     65  C   UNL A   1      49.175  30.794  27.751  1.00  0.00     0.031 C 
ATOM     66  C   UNL A   1      48.708  33.196  28.143  1.00  0.00     0.034 A 
BRANCH  53  67
ATOM     67  C   UNL A   1      44.204  37.145  29.668  1.00  0.00     0.023 A 
ATOM     68  C   UNL A   1      43.684  37.857  28.569  1.00  0.00     0.012 A 
ATOM     69  C   UNL A   1      44.267  37.769  30.929  1.00  0.00     0.148 A 
ATOM     70  C   UNL A   1      43.267  39.181  28.713  1.00  0.00     0.002 A 
ATOM     71  C   UNL A   1      43.804  39.071  31.076  1.00  0.00     0.091 A 
ATOM     72  F   UNL A   1      44.785  37.083  31.957  1.00  0.00    -0.205 F 
ATOM     73  C   UNL A   1      43.316  39.782  29.968  1.00  0.00     0.022 A 
BRANCH  71  74
ATOM     74  S   UNL A   1      43.749  39.906  32.665  1.00  0.00     0.127 S 
ATOM     75  O   UNL A   1      43.057  41.148  32.322  1.00  0.00    -0.237 OA
ATOM     76  O   UNL A   1      42.963  38.973  33.474  1.00  0.00    -0.237 OA
ATOM     77  O   UNL A   1      45.134  40.060  33.087  1.00  0.00    -0.744 OA
ENDBRANCH  71  74
ENDBRANCH  53  67
BRANCH  54  78
ATOM     78  C   UNL A   1      46.549  27.532  28.295  1.00  0.00     0.023 A 
ATOM     79  C   UNL A   1      47.107  26.749  29.323  1.00  0.00     0.012 A 
ATOM     80  C   UNL A   1      46.319  26.949  27.034  1.00  0.00     0.148 A 
ATOM     81  C   UNL A   1      47.460  25.418  29.091  1.00  0.00     0.002 A 
ATOM     82  C   UNL A   1      46.617  25.607  26.827  1.00  0.00     0.091 A 
ATOM     83  F   UNL A   1      45.802  27.716  26.063  1.00  0.00    -0.205 F 
ATOM     84  C   UNL A   1      47.206  24.845  27.848  1.00  0.00     0.022 A 
BRANCH  82  85
ATOM     85  S   UNL A   1      46.202  24.751  25.304  1.00  0.00     0.127 S 
ATOM     86  O   UNL A   1      44.765  24.990  25.208  1.00  0.00    -0.237 OA
ATOM     87  O   UNL A   1      47.016  25.474  24.325  1.00  0.00    -0.237 OA
ATOM     88  O   UNL A   1      46.600  23.364  25.507  1.00  0.00    -0.744 OA
ENDBRANCH  82  85
ENDBRANCH  54  78
BRANCH  66  89
ATOM     89  C   UNL A   1      50.132  33.506  27.749  1.00  0.00     0.023 A 
ATOM     90  C   UNL A   1      51.139  33.573  28.733  1.00  0.00     0.012 A 
ATOM     91  C   UNL A   1      50.481  33.665  26.393  1.00  0.00     0.148 A 
ATOM     92  C   UNL A   1      52.462  33.832  28.376  1.00  0.00     0.002 A 
ATOM     93  C   UNL A   1      51.810  33.870  26.041  1.00  0.00     0.091 A 
ATOM     94  F   UNL A   1      49.508  33.614  25.472  1.00  0.00    -0.205 F 
ATOM     95  C   UNL A   1      52.798  33.969  27.032  1.00  0.00     0.022 A 
BRANCH  93  96
ATOM     96  S   UNL A   1      52.351  33.959  24.330  1.00  0.00     0.127 S 
ATOM     97  O   UNL A   1      53.802  33.839  24.471  1.00  0.00    -0.237 OA
ATOM     98  O   UNL A   1      51.698  32.790  23.739  1.00  0.00    -0.237 OA
ATOM     99  O   UNL A   1      51.878  35.239  23.823  1.00  0.00    -0.744 OA
ENDBRANCH  93  96
ENDBRANCH  66  89
ENDBRANCH  40  41
ENDBRANCH  33  35
ENDBRANCH  32  33
ENDBRANCH  31  32
ENDBRANCH  30  31
ENDBRANCH  29  30
ENDBRANCH  28  29
ENDBRANCH  27  28
ENDBRANCH  26  27
ENDBRANCH   1  26
TORSDOF 28
ENDMDL
MODEL 2
REMARK VINA RESULT:      -7.6      5.451     12.366
REMARK SMILES C[C@@H](CCO)Sc1cc(C(=O)OCCOCCOCCOCCOC(=O)c2ccc(-c3c4nc(c(-c5cccc(S(=O)(=O)[O-])c5F)c5ccc([nH]5)c(-c5cccc(S(=O)(=O)[O-])c5F)c5nc(c(-c6cccc(S(=O)(=O)[O-])c6F)c6ccc3[nH]6)C=C5)C=C4)cc2)c2ccccc2n1
REMARK SMILES IDX 17 1 16 2 15 3 14 4 13 5 12 6 10 7 11 8 9 9 7 10 8 11 96 12
REMARK SMILES IDX 95 13 90 14 94 15 91 16 93 17 92 18 6 19 2 20 1 21 3 22 4 23
REMARK SMILES IDX 5 24 18 26 19 27 20 28 21 29 22 30 23 31 24 32 25 33 26 34
REMARK SMILES IDX 27 35 28 36 89 37 29 38 88 39 30 40 31 41 32 42 82 43 33 44
REMARK SMILES IDX 87 45 81 46 83 47 34 48 86 49 80 50 79 51 35 53 67 54 47 55
REMARK SMILES IDX 66 56 48 57 51 58 65 59 84 60 49 61 50 62 64 64 85 65 52 66
REMARK SMILES IDX 36 67 37 68 45 69 38 70 40 71 46 72 39 73 41 74 42 75 43 76
REMARK SMILES IDX 44 77 68 78 69 79 77 80 70 81 72 82 78 83 71 84 73 85 74 86
REMARK SMILES IDX 75 87 76 88 53 89 54 90 62 91 55 92 57 93 63 94 56 95 58 96
REMARK SMILES IDX 59 97 60 98 61 99
REMARK H PARENT 5 25 83 52 51 63
REMARK Flexibility Score: inf
ROOT
ATOM      1  C   UNL A   1      46.631  23.893  25.879  1.00  0.00     0.188 C 
ENDROOT
BRANCH   1   2
ATOM      2  C   UNL A   1      45.559  22.939  26.448  1.00  0.00     0.188 C 
BRANCH   2   3
ATOM      3  O   UNL A   1      45.294  21.807  25.645  1.00  0.00    -0.376 OA
BRANCH   3   4
ATOM      4  C   UNL A   1      44.118  21.037  25.825  1.00  0.00     0.202 C 
BRANCH   4   5
ATOM      5  C   UNL A   1      42.694  21.555  25.560  1.00  0.00     0.261 C 
BRANCH   5   6
ATOM      6  O   UNL A   1      41.635  20.609  25.699  1.00  0.00    -0.460 OA
BRANCH   6   7
ATOM      7  C   UNL A   1      40.829  20.696  26.773  1.00  0.00     0.338 C 
ATOM      8  O   UNL A   1      40.971  20.121  27.838  1.00  0.00    -0.246 OA
BRANCH   7   9
ATOM      9  C   UNL A   1      39.886  21.825  26.559  1.00  0.00     0.072 A 
ATOM     10  C   UNL A   1      37.789  22.471  25.622  1.00  0.00     0.098 A 
ATOM     11  C   UNL A   1      38.763  21.514  25.780  1.00  0.00     0.052 A 
ATOM     12  N   UNL A   1      37.928  23.718  26.120  1.00  0.00    -0.241 NA
ATOM     13  C   UNL A   1      39.039  24.044  26.812  1.00  0.00     0.072 A 
ATOM     14  C   UNL A   1      40.049  23.115  27.124  1.00  0.00     0.015 A 
ATOM     15  C   UNL A   1      39.187  25.362  27.231  1.00  0.00     0.029 A 
ATOM     16  C   UNL A   1      41.124  23.540  27.953  1.00  0.00     0.011 A 
ATOM     17  C   UNL A   1      40.267  25.779  28.012  1.00  0.00     0.002 A 
ATOM     18  C   UNL A   1      41.222  24.855  28.403  1.00  0.00     0.001 A 
BRANCH  10  19
ATOM     19  S   UNL A   1      36.316  22.225  24.663  1.00  0.00    -0.103 SA
BRANCH  19  20
ATOM     20  C   UNL A   1      35.223  21.095  25.634  1.00  0.00     0.052 C 
ATOM     21  C   UNL A   1      34.364  21.809  26.676  1.00  0.00     0.020 C 
BRANCH  20  22
ATOM     22  C   UNL A   1      34.466  20.003  24.854  1.00  0.00     0.043 C 
BRANCH  22  23
ATOM     23  C   UNL A   1      32.956  19.959  25.023  1.00  0.00     0.157 C 
BRANCH  23  24
ATOM     24  O   UNL A   1      32.298  20.486  23.885  1.00  0.00    -0.396 OA
ATOM     25  H   UNL A   1      31.394  20.745  24.124  1.00  0.00     0.210 HD
ENDBRANCH  23  24
ENDBRANCH  22  23
ENDBRANCH  20  22
ENDBRANCH  19  20
ENDBRANCH  10  19
ENDBRANCH   7   9
ENDBRANCH   6   7
ENDBRANCH   5   6
ENDBRANCH   4   5
ENDBRANCH   3   4
ENDBRANCH   2   3
ENDBRANCH   1   2
BRANCH   1  26
ATOM     26  O   UNL A   1      46.203  25.218  25.637  1.00  0.00    -0.377 OA
BRANCH  26  27
ATOM     27  C   UNL A   1      46.902  26.302  26.240  1.00  0.00     0.188 C 
BRANCH  27  28
ATOM     28  C   UNL A   1      46.889  26.572  27.766  1.00  0.00     0.188 C 
BRANCH  28  29
ATOM     29  O   UNL A   1      47.527  27.772  28.180  1.00  0.00    -0.376 OA
BRANCH  29  30
ATOM     30  C   UNL A   1      48.352  28.442  27.243  1.00  0.00     0.202 C 
BRANCH  30  31
ATOM     31  C   UNL A   1      47.762  29.699  26.592  1.00  0.00     0.261 C 
BRANCH  31  32
ATOM     32  O   UNL A   1      46.354  29.895  26.783  1.00  0.00    -0.460 OA
BRANCH  32  33
ATOM     33  C   UNL A   1      45.862  31.128  26.519  1.00  0.00     0.338 C 
ATOM     34  O   UNL A   1      45.653  31.615  25.428  1.00  0.00    -0.246 OA
BRANCH  33  35
ATOM     35  C   UNL A   1      45.436  31.716  27.806  1.00  0.00     0.060 A 
ATOM     36  C   UNL A   1      45.529  30.942  28.969  1.00  0.00     0.016 A 
ATOM     37  C   UNL A   1      44.969  33.032  27.866  1.00  0.00     0.016 A 
ATOM     38  C   UNL A   1      45.126  31.474  30.194  1.00  0.00     0.010 A 
ATOM     39  C   UNL A   1      44.548  33.557  29.090  1.00  0.00     0.010 A 
ATOM     40  C   UNL A   1      44.596  32.770  30.254  1.00  0.00    -0.014 A 
BRANCH  40  41
ATOM     41  C   UNL A   1      43.944  33.239  31.500  1.00  0.00     0.031 A 
ATOM     42  C   UNL A   1      42.476  32.972  31.689  1.00  0.00     0.074 A 
ATOM     43  C   UNL A   1      44.642  33.885  32.452  1.00  0.00     0.049 A 
ATOM     44  N   UNL A   1      41.698  33.292  32.689  1.00  0.00    -0.248 NA
ATOM     45  C   UNL A   1      41.794  32.249  30.601  1.00  0.00     0.031 C 
ATOM     46  C   UNL A   1      46.067  34.201  32.386  1.00  0.00     0.029 A 
ATOM     47  N   UNL A   1      44.233  34.409  33.653  1.00  0.00    -0.354 N 
ATOM     48  C   UNL A   1      40.431  32.835  32.342  1.00  0.00     0.074 A 
ATOM     49  C   UNL A   1      40.543  32.228  31.034  1.00  0.00     0.031 C 
ATOM     50  C   UNL A   1      46.411  34.889  33.489  1.00  0.00     0.029 A 
ATOM     51  C   UNL A   1      45.225  35.084  34.324  1.00  0.00     0.049 A 
ATOM     52  H   UNL A   1      43.317  34.311  34.000  1.00  0.00     0.167 HD
ATOM     53  C   UNL A   1      39.281  32.902  33.054  1.00  0.00     0.034 A 
ATOM     54  C   UNL A   1      45.176  35.797  35.467  1.00  0.00     0.034 A 
ATOM     55  C   UNL A   1      39.174  33.501  34.357  1.00  0.00     0.049 A 
ATOM     56  C   UNL A   1      43.875  35.885  36.225  1.00  0.00     0.074 A 
ATOM     57  C   UNL A   1      38.064  33.575  35.179  1.00  0.00     0.029 A 
ATOM     58  N   UNL A   1      40.205  34.148  35.018  1.00  0.00    -0.354 N 
ATOM     59  N   UNL A   1      42.715  35.341  35.945  1.00  0.00    -0.248 NA
ATOM     60  C   UNL A   1      43.886  36.657  37.477  1.00  0.00     0.031 C 
ATOM     61  C   UNL A   1      38.413  34.304  36.320  1.00  0.00     0.029 A 
ATOM     62  C   UNL A   1      39.754  34.644  36.229  1.00  0.00     0.049 A 
ATOM     63  H   UNL A   1      41.124  34.243  34.677  1.00  0.00     0.167 HD
ATOM     64  C   UNL A   1      41.871  35.675  37.000  1.00  0.00     0.074 A 
ATOM     65  C   UNL A   1      42.660  36.449  37.936  1.00  0.00     0.031 C 
ATOM     66  C   UNL A   1      40.559  35.377  37.174  1.00  0.00     0.034 A 
BRANCH  53  67
ATOM     67  C   UNL A   1      38.044  32.304  32.437  1.00  0.00     0.023 A 
ATOM     68  C   UNL A   1      37.686  30.972  32.729  1.00  0.00     0.012 A 
ATOM     69  C   UNL A   1      37.210  33.078  31.607  1.00  0.00     0.148 A 
ATOM     70  C   UNL A   1      36.537  30.409  32.175  1.00  0.00     0.002 A 
ATOM     71  C   UNL A   1      36.042  32.525  31.098  1.00  0.00     0.091 A 
ATOM     72  F   UNL A   1      37.579  34.335  31.323  1.00  0.00    -0.205 F 
ATOM     73  C   UNL A   1      35.710  31.188  31.370  1.00  0.00     0.022 A 
BRANCH  71  74
ATOM     74  S   UNL A   1      34.869  33.470  30.119  1.00  0.00     0.127 S 
ATOM     75  O   UNL A   1      34.092  34.143  31.159  1.00  0.00    -0.237 OA
ATOM     76  O   UNL A   1      35.751  34.350  29.352  1.00  0.00    -0.237 OA
ATOM     77  O   UNL A   1      34.135  32.498  29.321  1.00  0.00    -0.744 OA
ENDBRANCH  71  74
ENDBRANCH  53  67
BRANCH  54  78
ATOM     78  C   UNL A   1      46.403  36.468  35.982  1.00  0.00     0.023 A 
ATOM     79  C   UNL A   1      47.317  35.746  36.773  1.00  0.00     0.012 A 
ATOM     80  C   UNL A   1      46.672  37.818  35.682  1.00  0.00     0.148 A 
ATOM     81  C   UNL A   1      48.459  36.365  37.285  1.00  0.00     0.002 A 
ATOM     82  C   UNL A   1      47.840  38.411  36.144  1.00  0.00     0.091 A 
ATOM     83  F   UNL A   1      45.782  38.493  34.941  1.00  0.00    -0.205 F 
ATOM     84  C   UNL A   1      48.726  37.693  36.962  1.00  0.00     0.022 A 
BRANCH  82  85
ATOM     85  S   UNL A   1      48.331  40.072  35.670  1.00  0.00     0.127 S 
ATOM     86  O   UNL A   1      47.126  40.839  35.973  1.00  0.00    -0.237 OA
ATOM     87  O   UNL A   1      49.461  40.316  36.567  1.00  0.00    -0.237 OA
ATOM     88  O   UNL A   1      48.691  39.993  34.260  1.00  0.00    -0.744 OA
ENDBRANCH  82  85
ENDBRANCH  54  78
BRANCH  66  89
ATOM     89  C   UNL A   1      39.893  35.849  38.443  1.00  0.00     0.023 A 
ATOM     90  C   UNL A   1      39.550  37.207  38.599  1.00  0.00     0.012 A 
ATOM     91  C   UNL A   1      39.547  34.930  39.454  1.00  0.00     0.148 A 
ATOM     92  C   UNL A   1      38.910  37.648  39.757  1.00  0.00     0.002 A 
ATOM     93  C   UNL A   1      38.862  35.368  40.581  1.00  0.00     0.091 A 
ATOM     94  F   UNL A   1      39.894  33.644  39.296  1.00  0.00    -0.205 F 
ATOM     95  C   UNL A   1      38.557  36.728  40.741  1.00  0.00     0.022 A 
BRANCH  93  96
ATOM     96  S   UNL A   1      38.278  34.242  41.853  1.00  0.00     0.127 S 
ATOM     97  O   UNL A   1      37.614  33.211  41.056  1.00  0.00    -0.237 OA
ATOM     98  O   UNL A   1      39.527  33.814  42.484  1.00  0.00    -0.237 OA
ATOM     99  O   UNL A   1      37.401  35.024  42.714  1.00  0.00    -0.744 OA
ENDBRANCH  93  96
ENDBRANCH  66  89
ENDBRANCH  40  41
ENDBRANCH  33  35
ENDBRANCH  32  33
ENDBRANCH  31  32
ENDBRANCH  30  31
ENDBRANCH  29  30
ENDBRANCH  28  29
ENDBRANCH  27  28
ENDBRANCH  26  27
ENDBRANCH   1  26
TORSDOF 28
ENDMDL
MODEL 3
REMARK VINA RESULT:      -7.5      5.326     11.669
REMARK SMILES C[C@@H](CCO)Sc1cc(C(=O)OCCOCCOCCOCCOC(=O)c2ccc(-c3c4nc(c(-c5cccc(S(=O)(=O)[O-])c5F)c5ccc([nH]5)c(-c5cccc(S(=O)(=O)[O-])c5F)c5nc(c(-c6cccc(S(=O)(=O)[O-])c6F)c6ccc3[nH]6)C=C5)C=C4)cc2)c2ccccc2n1
REMARK SMILES IDX 17 1 16 2 15 3 14 4 13 5 12 6 10 7 11 8 9 9 7 10 8 11 96 12
REMARK SMILES IDX 95 13 90 14 94 15 91 16 93 17 92 18 6 19 2 20 1 21 3 22 4 23
REMARK SMILES IDX 5 24 18 26 19 27 20 28 21 29 22 30 23 31 24 32 25 33 26 34
REMARK SMILES IDX 27 35 28 36 89 37 29 38 88 39 30 40 31 41 32 42 82 43 33 44
REMARK SMILES IDX 87 45 81 46 83 47 34 48 86 49 80 50 79 51 35 53 67 54 47 55
REMARK SMILES IDX 66 56 48 57 51 58 65 59 84 60 49 61 50 62 64 64 85 65 52 66
REMARK SMILES IDX 36 67 37 68 45 69 38 70 40 71 46 72 39 73 41 74 42 75 43 76
REMARK SMILES IDX 44 77 68 78 69 79 77 80 70 81 72 82 78 83 71 84 73 85 74 86
REMARK SMILES IDX 75 87 76 88 53 89 54 90 62 91 55 92 57 93 63 94 56 95 58 96
REMARK SMILES IDX 59 97 60 98 61 99
REMARK H PARENT 5 25 83 52 51 63
REMARK Flexibility Score: inf
ROOT
ATOM      1  C   UNL A   1      45.377  27.730  25.810  1.00  0.00     0.188 C 
ENDROOT
BRANCH   1   2
ATOM      2  C   UNL A   1      46.436  28.667  26.426  1.00  0.00     0.188 C 
BRANCH   2   3
ATOM      3  O   UNL A   1      46.030  29.309  27.619  1.00  0.00    -0.376 OA
BRANCH   3   4
ATOM      4  C   UNL A   1      45.527  30.634  27.606  1.00  0.00     0.202 C 
BRANCH   4   5
ATOM      5  C   UNL A   1      45.010  31.352  26.348  1.00  0.00     0.261 C 
BRANCH   5   6
ATOM      6  O   UNL A   1      45.586  32.624  26.058  1.00  0.00    -0.460 OA
BRANCH   6   7
ATOM      7  C   UNL A   1      44.907  33.474  25.264  1.00  0.00     0.338 C 
ATOM      8  O   UNL A   1      44.227  33.179  24.297  1.00  0.00    -0.246 OA
BRANCH   7   9
ATOM      9  C   UNL A   1      44.887  34.808  25.917  1.00  0.00     0.072 A 
ATOM     10  C   UNL A   1      43.567  36.353  27.169  1.00  0.00     0.098 A 
ATOM     11  C   UNL A   1      43.647  35.180  26.455  1.00  0.00     0.052 A 
ATOM     12  N   UNL A   1      44.621  37.187  27.289  1.00  0.00    -0.241 NA
ATOM     13  C   UNL A   1      45.799  36.867  26.714  1.00  0.00     0.072 A 
ATOM     14  C   UNL A   1      46.022  35.646  26.051  1.00  0.00     0.015 A 
ATOM     15  C   UNL A   1      46.835  37.793  26.782  1.00  0.00     0.029 A 
ATOM     16  C   UNL A   1      47.334  35.365  25.578  1.00  0.00     0.011 A 
ATOM     17  C   UNL A   1      48.109  37.524  26.279  1.00  0.00     0.002 A 
ATOM     18  C   UNL A   1      48.368  36.291  25.705  1.00  0.00     0.001 A 
BRANCH  10  19
ATOM     19  S   UNL A   1      42.068  36.955  27.905  1.00  0.00    -0.103 SA
BRANCH  19  20
ATOM     20  C   UNL A   1      42.286  38.771  28.164  1.00  0.00     0.052 C 
ATOM     21  C   UNL A   1      43.233  39.124  29.308  1.00  0.00     0.020 C 
BRANCH  20  22
ATOM     22  C   UNL A   1      42.481  39.644  26.910  1.00  0.00     0.043 C 
BRANCH  22  23
ATOM     23  C   UNL A   1      41.231  40.256  26.297  1.00  0.00     0.157 C 
BRANCH  23  24
ATOM     24  O   UNL A   1      41.494  41.547  25.778  1.00  0.00    -0.396 OA
ATOM     25  H   UNL A   1      41.056  41.645  24.918  1.00  0.00     0.210 HD
ENDBRANCH  23  24
ENDBRANCH  22  23
ENDBRANCH  20  22
ENDBRANCH  19  20
ENDBRANCH  10  19
ENDBRANCH   7   9
ENDBRANCH   6   7
ENDBRANCH   5   6
ENDBRANCH   4   5
ENDBRANCH   3   4
ENDBRANCH   2   3
ENDBRANCH   1   2
BRANCH   1  26
ATOM     26  O   UNL A   1      45.872  26.753  24.917  1.00  0.00    -0.377 OA
BRANCH  26  27
ATOM     27  C   UNL A   1      45.835  25.379  25.290  1.00  0.00     0.188 C 
BRANCH  27  28
ATOM     28  C   UNL A   1      46.842  24.329  24.755  1.00  0.00     0.188 C 
BRANCH  28  29
ATOM     29  O   UNL A   1      46.285  23.066  24.418  1.00  0.00    -0.376 OA
BRANCH  29  30
ATOM     30  C   UNL A   1      45.500  22.405  25.394  1.00  0.00     0.202 C 
BRANCH  30  31
ATOM     31  C   UNL A   1      44.355  21.529  24.869  1.00  0.00     0.261 C 
BRANCH  31  32
ATOM     32  O   UNL A   1      43.068  22.159  24.810  1.00  0.00    -0.460 OA
BRANCH  32  33
ATOM     33  C   UNL A   1      42.240  21.966  25.862  1.00  0.00     0.338 C 
ATOM     34  O   UNL A   1      41.619  20.959  26.131  1.00  0.00    -0.246 OA
BRANCH  33  35
ATOM     35  C   UNL A   1      42.373  23.142  26.748  1.00  0.00     0.060 A 
ATOM     36  C   UNL A   1      42.400  24.420  26.178  1.00  0.00     0.016 A 
ATOM     37  C   UNL A   1      42.446  22.981  28.134  1.00  0.00     0.016 A 
ATOM     38  C   UNL A   1      42.531  25.543  26.993  1.00  0.00     0.010 A 
ATOM     39  C   UNL A   1      42.596  24.106  28.949  1.00  0.00     0.010 A 
ATOM     40  C   UNL A   1      42.671  25.390  28.380  1.00  0.00    -0.014 A 
BRANCH  40  41
ATOM     41  C   UNL A   1      43.056  26.555  29.212  1.00  0.00     0.031 A 
ATOM     42  C   UNL A   1      41.973  27.472  29.710  1.00  0.00     0.074 A 
ATOM     43  C   UNL A   1      44.341  26.794  29.526  1.00  0.00     0.049 A 
ATOM     44  N   UNL A   1      42.072  28.550  30.444  1.00  0.00    -0.248 NA
ATOM     45  C   UNL A   1      40.592  27.129  29.328  1.00  0.00     0.031 C 
ATOM     46  C   UNL A   1      45.479  25.978  29.106  1.00  0.00     0.029 A 
ATOM     47  N   UNL A   1      44.905  27.810  30.258  1.00  0.00    -0.354 N 
ATOM     48  C   UNL A   1      40.775  29.028  30.589  1.00  0.00     0.074 A 
ATOM     49  C   UNL A   1      39.908  28.132  29.856  1.00  0.00     0.031 C 
ATOM     50  C   UNL A   1      46.610  26.541  29.565  1.00  0.00     0.029 A 
ATOM     51  C   UNL A   1      46.279  27.768  30.288  1.00  0.00     0.049 A 
ATOM     52  H   UNL A   1      44.375  28.502  30.716  1.00  0.00     0.167 HD
ATOM     53  C   UNL A   1      40.342  30.109  31.280  1.00  0.00     0.034 A 
ATOM     54  C   UNL A   1      47.166  28.634  30.819  1.00  0.00     0.034 A 
ATOM     55  C   UNL A   1      41.205  30.996  32.013  1.00  0.00     0.049 A 
ATOM     56  C   UNL A   1      46.660  29.848  31.556  1.00  0.00     0.074 A 
ATOM     57  C   UNL A   1      40.857  32.089  32.785  1.00  0.00     0.029 A 
ATOM     58  N   UNL A   1      42.588  30.906  32.046  1.00  0.00    -0.354 N 
ATOM     59  N   UNL A   1      45.424  30.220  31.790  1.00  0.00    -0.248 NA
ATOM     60  C   UNL A   1      47.673  30.746  32.132  1.00  0.00     0.031 C 
ATOM     61  C   UNL A   1      42.032  32.686  33.251  1.00  0.00     0.029 A 
ATOM     62  C   UNL A   1      43.111  31.937  32.808  1.00  0.00     0.049 A 
ATOM     63  H   UNL A   1      43.121  30.212  31.594  1.00  0.00     0.167 HD
ATOM     64  C   UNL A   1      45.511  31.370  32.569  1.00  0.00     0.074 A 
ATOM     65  C   UNL A   1      46.921  31.621  32.785  1.00  0.00     0.031 C 
ATOM     66  C   UNL A   1      44.515  32.153  33.052  1.00  0.00     0.034 A 
BRANCH  53  67
ATOM     67  C   UNL A   1      38.862  30.388  31.282  1.00  0.00     0.023 A 
ATOM     68  C   UNL A   1      38.046  29.850  32.298  1.00  0.00     0.012 A 
ATOM     69  C   UNL A   1      38.288  31.223  30.304  1.00  0.00     0.148 A 
ATOM     70  C   UNL A   1      36.676  30.109  32.319  1.00  0.00     0.002 A 
ATOM     71  C   UNL A   1      36.931  31.517  30.361  1.00  0.00     0.091 A 
ATOM     72  F   UNL A   1      39.076  31.708  29.334  1.00  0.00    -0.205 F 
ATOM     73  C   UNL A   1      36.121  30.952  31.359  1.00  0.00     0.022 A 
BRANCH  71  74
ATOM     74  S   UNL A   1      36.138  32.655  29.219  1.00  0.00     0.127 S 
ATOM     75  O   UNL A   1      36.267  31.936  27.952  1.00  0.00    -0.237 OA
ATOM     76  O   UNL A   1      34.775  32.718  29.748  1.00  0.00    -0.237 OA
ATOM     77  O   UNL A   1      36.885  33.901  29.308  1.00  0.00    -0.744 OA
ENDBRANCH  71  74
ENDBRANCH  53  67
BRANCH  54  78
ATOM     78  C   UNL A   1      48.628  28.375  30.694  1.00  0.00     0.023 A 
ATOM     79  C   UNL A   1      49.332  28.861  29.575  1.00  0.00     0.012 A 
ATOM     80  C   UNL A   1      49.325  27.654  31.684  1.00  0.00     0.148 A 
ATOM     81  C   UNL A   1      50.697  28.607  29.429  1.00  0.00     0.002 A 
ATOM     82  C   UNL A   1      50.695  27.457  31.561  1.00  0.00     0.091 A 
ATOM     83  F   UNL A   1      48.634  27.185  32.732  1.00  0.00    -0.205 F 
ATOM     84  C   UNL A   1      51.380  27.915  30.425  1.00  0.00     0.022 A 
BRANCH  82  85
ATOM     85  S   UNL A   1      51.678  26.693  32.856  1.00  0.00     0.127 S 
ATOM     86  O   UNL A   1      51.392  27.557  33.998  1.00  0.00    -0.237 OA
ATOM     87  O   UNL A   1      51.088  25.356  32.929  1.00  0.00    -0.237 OA
ATOM     88  O   UNL A   1      53.053  26.717  32.376  1.00  0.00    -0.744 OA
ENDBRANCH  82  85
ENDBRANCH  54  78
BRANCH  66  89
ATOM     89  C   UNL A   1      44.902  33.338  33.903  1.00  0.00     0.023 A 
ATOM     90  C   UNL A   1      45.053  33.189  35.297  1.00  0.00     0.012 A 
ATOM     91  C   UNL A   1      45.182  34.585  33.309  1.00  0.00     0.148 A 
ATOM     92  C   UNL A   1      45.437  34.271  36.088  1.00  0.00     0.002 A 
ATOM     93  C   UNL A   1      45.616  35.644  34.097  1.00  0.00     0.091 A 
ATOM     94  F   UNL A   1      45.020  34.713  31.984  1.00  0.00    -0.205 F 
ATOM     95  C   UNL A   1      45.729  35.494  35.488  1.00  0.00     0.022 A 
BRANCH  93  96
ATOM     96  S   UNL A   1      46.111  37.225  33.401  1.00  0.00     0.127 S 
ATOM     97  O   UNL A   1      46.482  37.975  34.600  1.00  0.00    -0.237 OA
ATOM     98  O   UNL A   1      47.236  36.847  32.545  1.00  0.00    -0.237 OA
ATOM     99  O   UNL A   1      44.949  37.732  32.684  1.00  0.00    -0.744 OA
ENDBRANCH  93  96
ENDBRANCH  66  89
ENDBRANCH  40  41
ENDBRANCH  33  35
ENDBRANCH  32  33
ENDBRANCH  31  32
ENDBRANCH  30  31
ENDBRANCH  29  30
ENDBRANCH  28  29
ENDBRANCH  27  28
ENDBRANCH  26  27
ENDBRANCH   1  26
TORSDOF 28
ENDMDL
