MODEL 1
REMARK VINA RESULT:      -9.3      0.000      0.000
REMARK SMILES CCNC(=O)c1cccc(-c2ccc(Cl)c(C(=O)OCCOCCOCCOCCOC(=O)c3ccc(-c4c5nc(c(-c6cccc(S(=O)(=O)[O-])c6F)c6ccc([nH]6)c(-c6cccc(S(=O)(=O)[O-])c6F)c6nc(c(-c7cccc(S(=O)(=O)[O-])c7F)c7ccc4[nH]7)C=C6)C=C5)cc3)c2)c1
REMARK SMILES IDX 25 1 24 2 23 3 22 4 21 5 20 6 19 7 17 8 18 9 16 10 11 11
REMARK SMILES IDX 12 12 97 13 13 14 14 15 15 16 10 17 6 18 7 19 98 20 8 21
REMARK SMILES IDX 9 22 4 23 3 24 5 26 2 27 1 28 26 29 27 30 28 31 29 32 30 33
REMARK SMILES IDX 31 34 32 35 33 36 34 37 35 38 96 39 36 40 95 41 37 42 38 43
REMARK SMILES IDX 39 44 89 45 40 46 94 47 88 48 90 49 41 50 93 51 87 52 86 53
REMARK SMILES IDX 42 55 74 56 54 57 73 58 55 59 58 60 72 61 91 62 56 63 57 64
REMARK SMILES IDX 71 66 92 67 59 68 43 69 44 70 52 71 45 72 47 73 53 74 46 75
REMARK SMILES IDX 48 76 49 77 50 78 51 79 75 80 76 81 84 82 77 83 79 84 85 85
REMARK SMILES IDX 78 86 80 87 81 88 82 89 83 90 60 91 61 92 69 93 62 94 64 95
REMARK SMILES IDX 70 96 63 97 65 98 66 99 67 100 68 101
REMARK H PARENT 3 25 90 54 58 65
REMARK Flexibility Score: inf
ROOT
ATOM      1  O   UNL A   1      37.948  22.598  25.131  1.00  0.00    -0.377 OA
ENDROOT
BRANCH   1   2
ATOM      2  C   UNL A   1      37.054  23.541  25.690  1.00  0.00     0.188 C 
BRANCH   2   3
ATOM      3  C   UNL A   1      35.564  23.216  25.488  1.00  0.00     0.188 C 
BRANCH   3   4
ATOM      4  O   UNL A   1      34.752  23.505  26.625  1.00  0.00    -0.376 OA
BRANCH   4   5
ATOM      5  C   UNL A   1      34.502  22.419  27.512  1.00  0.00     0.202 C 
BRANCH   5   6
ATOM      6  C   UNL A   1      33.030  22.172  27.855  1.00  0.00     0.261 C 
BRANCH   6   7
ATOM      7  O   UNL A   1      32.147  23.183  27.350  1.00  0.00    -0.460 OA
BRANCH   7   8
ATOM      8  C   UNL A   1      31.219  22.839  26.432  1.00  0.00     0.339 C 
ATOM      9  O   UNL A   1      30.081  22.467  26.648  1.00  0.00    -0.246 OA
BRANCH   8  10
ATOM     10  C   UNL A   1      31.821  23.132  25.106  1.00  0.00     0.079 A 
ATOM     11  C   UNL A   1      32.382  24.841  23.427  1.00  0.00    -0.017 A 
ATOM     12  C   UNL A   1      32.748  23.807  22.554  1.00  0.00     0.010 A 
ATOM     13  C   UNL A   1      31.904  24.475  24.697  1.00  0.00     0.026 A 
ATOM     14  C   UNL A   1      32.661  22.465  22.944  1.00  0.00     0.022 A 
ATOM     15  C   UNL A   1      32.208  22.122  24.223  1.00  0.00     0.055 A 
ATOM     16  Cl  UNL A   1      32.090  20.439  24.587  1.00  0.00    -0.083 Cl
BRANCH  11  17
ATOM     17  C   UNL A   1      32.561  26.263  23.067  1.00  0.00    -0.018 A 
ATOM     18  C   UNL A   1      31.811  28.579  23.310  1.00  0.00     0.040 A 
ATOM     19  C   UNL A   1      32.926  29.027  22.603  1.00  0.00     0.014 A 
ATOM     20  C   UNL A   1      31.606  27.208  23.477  1.00  0.00     0.022 A 
ATOM     21  C   UNL A   1      33.858  28.106  22.127  1.00  0.00     0.001 A 
ATOM     22  C   UNL A   1      33.686  26.739  22.373  1.00  0.00     0.009 A 
BRANCH  18  23
ATOM     23  C   UNL A   1      30.841  29.567  23.838  1.00  0.00     0.251 C 
ATOM     24  N   UNL A   1      30.996  30.110  25.091  1.00  0.00    -0.352 N 
ATOM     25  H   UNL A   1      30.197  30.563  25.445  1.00  0.00     0.163 HD
ATOM     26  O   UNL A   1      29.901  29.922  23.134  1.00  0.00    -0.269 OA
BRANCH  24  27
ATOM     27  C   UNL A   1      32.147  30.122  25.978  1.00  0.00     0.112 C 
ATOM     28  C   UNL A   1      32.136  28.919  26.899  1.00  0.00     0.027 C 
ENDBRANCH  24  27
ENDBRANCH  18  23
ENDBRANCH  11  17
ENDBRANCH   8  10
ENDBRANCH   7   8
ENDBRANCH   6   7
ENDBRANCH   5   6
ENDBRANCH   4   5
ENDBRANCH   3   4
ENDBRANCH   2   3
ENDBRANCH   1   2
BRANCH   1  29
ATOM     29  C   UNL A   1      37.713  21.210  25.357  1.00  0.00     0.188 C 
BRANCH  29  30
ATOM     30  C   UNL A   1      38.844  20.157  25.291  1.00  0.00     0.188 C 
BRANCH  30  31
ATOM     31  O   UNL A   1      40.091  20.573  25.842  1.00  0.00    -0.376 OA
BRANCH  31  32
ATOM     32  C   UNL A   1      40.743  19.657  26.710  1.00  0.00     0.202 C 
BRANCH  32  33
ATOM     33  C   UNL A   1      41.932  18.935  26.066  1.00  0.00     0.261 C 
BRANCH  33  34
ATOM     34  O   UNL A   1      42.619  19.694  25.061  1.00  0.00    -0.460 OA
BRANCH  34  35
ATOM     35  C   UNL A   1      43.781  20.275  25.430  1.00  0.00     0.338 C 
ATOM     36  O   UNL A   1      44.908  19.856  25.237  1.00  0.00    -0.246 OA
BRANCH  35  37
ATOM     37  C   UNL A   1      43.472  21.614  25.959  1.00  0.00     0.060 A 
ATOM     38  C   UNL A   1      43.191  22.647  25.056  1.00  0.00     0.016 A 
ATOM     39  C   UNL A   1      43.485  21.850  27.337  1.00  0.00     0.016 A 
ATOM     40  C   UNL A   1      42.989  23.941  25.529  1.00  0.00     0.010 A 
ATOM     41  C   UNL A   1      43.295  23.148  27.808  1.00  0.00     0.010 A 
ATOM     42  C   UNL A   1      43.099  24.204  26.901  1.00  0.00    -0.014 A 
BRANCH  42  43
ATOM     43  C   UNL A   1      43.266  25.600  27.363  1.00  0.00     0.031 A 
ATOM     44  C   UNL A   1      44.652  26.186  27.336  1.00  0.00     0.074 A 
ATOM     45  C   UNL A   1      42.224  26.327  27.801  1.00  0.00     0.049 A 
ATOM     46  N   UNL A   1      45.058  27.374  27.694  1.00  0.00    -0.248 NA
ATOM     47  C   UNL A   1      45.727  25.307  26.840  1.00  0.00     0.031 C 
ATOM     48  C   UNL A   1      40.840  25.864  27.878  1.00  0.00     0.029 A 
ATOM     49  N   UNL A   1      42.182  27.609  28.286  1.00  0.00    -0.354 N 
ATOM     50  C   UNL A   1      46.433  27.380  27.487  1.00  0.00     0.074 A 
ATOM     51  C   UNL A   1      46.796  26.071  26.992  1.00  0.00     0.031 C 
ATOM     52  C   UNL A   1      40.084  26.846  28.403  1.00  0.00     0.029 A 
ATOM     53  C   UNL A   1      40.933  27.995  28.711  1.00  0.00     0.049 A 
ATOM     54  H   UNL A   1      42.970  28.197  28.326  1.00  0.00     0.167 HD
ATOM     55  C   UNL A   1      47.314  28.390  27.673  1.00  0.00     0.034 A 
ATOM     56  C   UNL A   1      40.532  29.144  29.290  1.00  0.00     0.034 A 
ATOM     57  C   UNL A   1      46.950  29.692  28.156  1.00  0.00     0.049 A 
ATOM     58  C   UNL A   1      41.536  30.251  29.500  1.00  0.00     0.074 A 
ATOM     59  C   UNL A   1      47.761  30.795  28.357  1.00  0.00     0.029 A 
ATOM     60  N   UNL A   1      45.666  30.064  28.523  1.00  0.00    -0.354 N 
ATOM     61  N   UNL A   1      42.810  30.284  29.188  1.00  0.00    -0.248 NA
ATOM     62  C   UNL A   1      41.038  31.494  30.107  1.00  0.00     0.031 C 
ATOM     63  C   UNL A   1      46.967  31.830  28.860  1.00  0.00     0.029 A 
ATOM     64  C   UNL A   1      45.660  31.380  28.948  1.00  0.00     0.049 A 
ATOM     65  H   UNL A   1      44.876  29.479  28.487  1.00  0.00     0.167 HD
ATOM     66  C   UNL A   1      43.251  31.563  29.513  1.00  0.00     0.074 A 
ATOM     67  C   UNL A   1      42.105  32.277  30.036  1.00  0.00     0.031 C 
ATOM     68  C   UNL A   1      44.494  32.096  29.399  1.00  0.00     0.034 A 
BRANCH  55  69
ATOM     69  C   UNL A   1      48.753  28.124  27.320  1.00  0.00     0.023 A 
ATOM     70  C   UNL A   1      49.203  28.378  26.008  1.00  0.00     0.012 A 
ATOM     71  C   UNL A   1      49.661  27.649  28.284  1.00  0.00     0.148 A 
ATOM     72  C   UNL A   1      50.527  28.131  25.652  1.00  0.00     0.002 A 
ATOM     73  C   UNL A   1      50.990  27.446  27.933  1.00  0.00     0.091 A 
ATOM     74  F   UNL A   1      49.207  27.385  29.518  1.00  0.00    -0.205 F 
ATOM     75  C   UNL A   1      51.423  27.675  26.616  1.00  0.00     0.022 A 
BRANCH  73  76
ATOM     76  S   UNL A   1      52.233  26.929  29.122  1.00  0.00     0.127 S 
ATOM     77  O   UNL A   1      51.446  26.089  30.025  1.00  0.00    -0.237 OA
ATOM     78  O   UNL A   1      53.181  26.198  28.281  1.00  0.00    -0.237 OA
ATOM     79  O   UNL A   1      52.762  28.153  29.705  1.00  0.00    -0.744 OA
ENDBRANCH  73  76
ENDBRANCH  55  69
BRANCH  56  80
ATOM     80  C   UNL A   1      39.100  29.339  29.655  1.00  0.00     0.023 A 
ATOM     81  C   UNL A   1      38.672  29.026  30.960  1.00  0.00     0.012 A 
ATOM     82  C   UNL A   1      38.165  29.835  28.726  1.00  0.00     0.148 A 
ATOM     83  C   UNL A   1      37.333  29.172  31.324  1.00  0.00     0.002 A 
ATOM     84  C   UNL A   1      36.843  30.024  29.110  1.00  0.00     0.091 A 
ATOM     85  F   UNL A   1      38.590  30.110  27.485  1.00  0.00    -0.205 F 
ATOM     86  C   UNL A   1      36.421  29.679  30.403  1.00  0.00     0.022 A 
BRANCH  84  87
ATOM     87  S   UNL A   1      35.621  30.779  28.032  1.00  0.00     0.127 S 
ATOM     88  O   UNL A   1      35.585  29.837  26.916  1.00  0.00    -0.237 OA
ATOM     89  O   UNL A   1      34.428  30.775  28.880  1.00  0.00    -0.237 OA
ATOM     90  O   UNL A   1      36.137  32.106  27.724  1.00  0.00    -0.744 OA
ENDBRANCH  84  87
ENDBRANCH  56  80
BRANCH  68  91
ATOM     91  C   UNL A   1      44.677  33.540  29.788  1.00  0.00     0.023 A 
ATOM     92  C   UNL A   1      45.030  33.875  31.110  1.00  0.00     0.012 A 
ATOM     93  C   UNL A   1      44.578  34.559  28.819  1.00  0.00     0.148 A 
ATOM     94  C   UNL A   1      45.250  35.204  31.468  1.00  0.00     0.002 A 
ATOM     95  C   UNL A   1      44.847  35.876  29.173  1.00  0.00     0.091 A 
ATOM     96  F   UNL A   1      44.222  34.224  27.571  1.00  0.00    -0.205 F 
ATOM     97  C   UNL A   1      45.171  36.202  30.499  1.00  0.00     0.022 A 
BRANCH  95  98
ATOM     98  S   UNL A   1      44.864  37.204  27.963  1.00  0.00     0.127 S 
ATOM     99  O   UNL A   1      43.484  37.188  27.481  1.00  0.00    -0.237 OA
ATOM    100  O   UNL A   1      45.210  38.368  28.779  1.00  0.00    -0.237 OA
ATOM    101  O   UNL A   1      45.878  36.836  26.985  1.00  0.00    -0.744 OA
ENDBRANCH  95  98
ENDBRANCH  68  91
ENDBRANCH  42  43
ENDBRANCH  35  37
ENDBRANCH  34  35
ENDBRANCH  33  34
ENDBRANCH  32  33
ENDBRANCH  31  32
ENDBRANCH  30  31
ENDBRANCH  29  30
ENDBRANCH   1  29
TORSDOF 26
ENDMDL
MODEL 2
REMARK VINA RESULT:      -8.7      5.178      6.432
REMARK SMILES CCNC(=O)c1cccc(-c2ccc(Cl)c(C(=O)OCCOCCOCCOCCOC(=O)c3ccc(-c4c5nc(c(-c6cccc(S(=O)(=O)[O-])c6F)c6ccc([nH]6)c(-c6cccc(S(=O)(=O)[O-])c6F)c6nc(c(-c7cccc(S(=O)(=O)[O-])c7F)c7ccc4[nH]7)C=C6)C=C5)cc3)c2)c1
REMARK SMILES IDX 25 1 24 2 23 3 22 4 21 5 20 6 19 7 17 8 18 9 16 10 11 11
REMARK SMILES IDX 12 12 97 13 13 14 14 15 15 16 10 17 6 18 7 19 98 20 8 21
REMARK SMILES IDX 9 22 4 23 3 24 5 26 2 27 1 28 26 29 27 30 28 31 29 32 30 33
REMARK SMILES IDX 31 34 32 35 33 36 34 37 35 38 96 39 36 40 95 41 37 42 38 43
REMARK SMILES IDX 39 44 89 45 40 46 94 47 88 48 90 49 41 50 93 51 87 52 86 53
REMARK SMILES IDX 42 55 74 56 54 57 73 58 55 59 58 60 72 61 91 62 56 63 57 64
REMARK SMILES IDX 71 66 92 67 59 68 43 69 44 70 52 71 45 72 47 73 53 74 46 75
REMARK SMILES IDX 48 76 49 77 50 78 51 79 75 80 76 81 84 82 77 83 79 84 85 85
REMARK SMILES IDX 78 86 80 87 81 88 82 89 83 90 60 91 61 92 69 93 62 94 64 95
REMARK SMILES IDX 70 96 63 97 65 98 66 99 67 100 68 101
REMARK H PARENT 3 25 90 54 58 65
REMARK Flexibility Score: inf
ROOT
ATOM      1  O   UNL A   1      37.281  23.680  25.649  1.00  0.00    -0.377 OA
ENDROOT
BRANCH   1   2
ATOM      2  C   UNL A   1      36.121  24.359  26.089  1.00  0.00     0.188 C 
BRANCH   2   3
ATOM      3  C   UNL A   1      34.953  24.354  25.088  1.00  0.00     0.188 C 
BRANCH   3   4
ATOM      4  O   UNL A   1      34.318  25.624  24.936  1.00  0.00    -0.376 OA
BRANCH   4   5
ATOM      5  C   UNL A   1      33.664  26.142  26.090  1.00  0.00     0.202 C 
BRANCH   5   6
ATOM      6  C   UNL A   1      32.149  25.919  26.145  1.00  0.00     0.261 C 
BRANCH   6   7
ATOM      7  O   UNL A   1      31.413  26.757  25.245  1.00  0.00    -0.460 OA
BRANCH   7   8
ATOM      8  C   UNL A   1      30.539  26.186  24.390  1.00  0.00     0.339 C 
ATOM      9  O   UNL A   1      29.333  26.347  24.362  1.00  0.00    -0.246 OA
BRANCH   8  10
ATOM     10  C   UNL A   1      31.355  25.428  23.409  1.00  0.00     0.079 A 
ATOM     11  C   UNL A   1      32.314  23.254  22.763  1.00  0.00    -0.017 A 
ATOM     12  C   UNL A   1      33.025  23.914  21.750  1.00  0.00     0.010 A 
ATOM     13  C   UNL A   1      31.495  24.039  23.592  1.00  0.00     0.026 A 
ATOM     14  C   UNL A   1      32.903  25.296  21.562  1.00  0.00     0.022 A 
ATOM     15  C   UNL A   1      32.062  26.056  22.382  1.00  0.00     0.055 A 
ATOM     16  Cl  UNL A   1      32.022  27.759  22.099  1.00  0.00    -0.083 Cl
BRANCH  11  17
ATOM     17  C   UNL A   1      32.355  21.785  22.912  1.00  0.00    -0.018 A 
ATOM     18  C   UNL A   1      32.587  19.852  24.393  1.00  0.00     0.040 A 
ATOM     19  C   UNL A   1      32.258  18.994  23.345  1.00  0.00     0.014 A 
ATOM     20  C   UNL A   1      32.696  21.223  24.154  1.00  0.00     0.022 A 
ATOM     21  C   UNL A   1      31.977  19.519  22.084  1.00  0.00     0.001 A 
ATOM     22  C   UNL A   1      32.008  20.903  21.875  1.00  0.00     0.009 A 
BRANCH  18  23
ATOM     23  C   UNL A   1      32.853  19.287  25.737  1.00  0.00     0.251 C 
ATOM     24  N   UNL A   1      33.488  20.030  26.703  1.00  0.00    -0.352 N 
ATOM     25  H   UNL A   1      33.829  19.509  27.466  1.00  0.00     0.163 HD
ATOM     26  O   UNL A   1      32.478  18.148  25.996  1.00  0.00    -0.269 OA
BRANCH  24  27
ATOM     27  C   UNL A   1      33.739  21.460  26.781  1.00  0.00     0.112 C 
ATOM     28  C   UNL A   1      32.812  22.120  27.782  1.00  0.00     0.027 C 
ENDBRANCH  24  27
ENDBRANCH  18  23
ENDBRANCH  11  17
ENDBRANCH   8  10
ENDBRANCH   7   8
ENDBRANCH   6   7
ENDBRANCH   5   6
ENDBRANCH   4   5
ENDBRANCH   3   4
ENDBRANCH   2   3
ENDBRANCH   1   2
BRANCH   1  29
ATOM     29  C   UNL A   1      37.355  22.266  25.814  1.00  0.00     0.188 C 
BRANCH  29  30
ATOM     30  C   UNL A   1      38.653  21.468  25.552  1.00  0.00     0.188 C 
BRANCH  30  31
ATOM     31  O   UNL A   1      39.571  21.431  26.641  1.00  0.00    -0.376 OA
BRANCH  31  32
ATOM     32  C   UNL A   1      40.562  20.413  26.607  1.00  0.00     0.202 C 
BRANCH  32  33
ATOM     33  C   UNL A   1      41.905  20.877  26.030  1.00  0.00     0.261 C 
BRANCH  33  34
ATOM     34  O   UNL A   1      41.873  22.168  25.407  1.00  0.00    -0.460 OA
BRANCH  34  35
ATOM     35  C   UNL A   1      43.007  22.899  25.470  1.00  0.00     0.338 C 
ATOM     36  O   UNL A   1      44.014  22.757  24.799  1.00  0.00    -0.246 OA
BRANCH  35  37
ATOM     37  C   UNL A   1      42.767  24.034  26.377  1.00  0.00     0.060 A 
ATOM     38  C   UNL A   1      43.614  25.147  26.302  1.00  0.00     0.016 A 
ATOM     39  C   UNL A   1      41.728  23.986  27.311  1.00  0.00     0.016 A 
ATOM     40  C   UNL A   1      43.464  26.191  27.211  1.00  0.00     0.010 A 
ATOM     41  C   UNL A   1      41.588  25.025  28.229  1.00  0.00     0.010 A 
ATOM     42  C   UNL A   1      42.489  26.104  28.214  1.00  0.00    -0.014 A 
BRANCH  42  43
ATOM     43  C   UNL A   1      42.572  26.999  29.390  1.00  0.00     0.031 A 
ATOM     44  C   UNL A   1      43.480  26.590  30.518  1.00  0.00     0.074 A 
ATOM     45  C   UNL A   1      41.860  28.136  29.461  1.00  0.00     0.049 A 
ATOM     46  N   UNL A   1      43.718  27.193  31.652  1.00  0.00    -0.248 NA
ATOM     47  C   UNL A   1      44.215  25.324  30.344  1.00  0.00     0.031 C 
ATOM     48  C   UNL A   1      40.946  28.631  28.434  1.00  0.00     0.029 A 
ATOM     49  N   UNL A   1      41.784  29.070  30.462  1.00  0.00    -0.354 N 
ATOM     50  C   UNL A   1      44.611  26.374  32.333  1.00  0.00     0.074 A 
ATOM     51  C   UNL A   1      44.858  25.221  31.496  1.00  0.00     0.031 C 
ATOM     52  C   UNL A   1      40.382  29.772  28.869  1.00  0.00     0.029 A 
ATOM     53  C   UNL A   1      40.884  30.077  30.207  1.00  0.00     0.049 A 
ATOM     54  H   UNL A   1      42.323  29.025  31.285  1.00  0.00     0.167 HD
ATOM     55  C   UNL A   1      45.192  26.572  33.539  1.00  0.00     0.034 A 
ATOM     56  C   UNL A   1      40.508  31.118  30.977  1.00  0.00     0.034 A 
ATOM     57  C   UNL A   1      44.953  27.721  34.364  1.00  0.00     0.049 A 
ATOM     58  C   UNL A   1      41.160  31.309  32.324  1.00  0.00     0.074 A 
ATOM     59  C   UNL A   1      45.510  28.032  35.592  1.00  0.00     0.029 A 
ATOM     60  N   UNL A   1      44.078  28.749  34.048  1.00  0.00    -0.354 N 
ATOM     61  N   UNL A   1      42.092  30.590  32.903  1.00  0.00    -0.248 NA
ATOM     62  C   UNL A   1      40.735  32.479  33.108  1.00  0.00     0.031 C 
ATOM     63  C   UNL A   1      44.958  29.242  36.025  1.00  0.00     0.029 A 
ATOM     64  C   UNL A   1      44.078  29.696  35.056  1.00  0.00     0.049 A 
ATOM     65  H   UNL A   1      43.536  28.797  33.228  1.00  0.00     0.167 HD
ATOM     66  C   UNL A   1      42.400  31.247  34.091  1.00  0.00     0.074 A 
ATOM     67  C   UNL A   1      41.561  32.426  34.143  1.00  0.00     0.031 C 
ATOM     68  C   UNL A   1      43.288  30.900  35.057  1.00  0.00     0.034 A 
BRANCH  55  69
ATOM     69  C   UNL A   1      46.167  25.528  34.015  1.00  0.00     0.023 A 
ATOM     70  C   UNL A   1      47.505  25.576  33.575  1.00  0.00     0.012 A 
ATOM     71  C   UNL A   1      45.768  24.517  34.910  1.00  0.00     0.148 A 
ATOM     72  C   UNL A   1      48.425  24.616  33.992  1.00  0.00     0.002 A 
ATOM     73  C   UNL A   1      46.701  23.588  35.356  1.00  0.00     0.091 A 
ATOM     74  F   UNL A   1      44.484  24.469  35.292  1.00  0.00    -0.205 F 
ATOM     75  C   UNL A   1      48.026  23.629  34.890  1.00  0.00     0.022 A 
BRANCH  73  76
ATOM     76  S   UNL A   1      46.300  22.324  36.566  1.00  0.00     0.127 S 
ATOM     77  O   UNL A   1      47.630  21.893  36.995  1.00  0.00    -0.237 OA
ATOM     78  O   UNL A   1      45.553  23.083  37.570  1.00  0.00    -0.237 OA
ATOM     79  O   UNL A   1      45.515  21.325  35.856  1.00  0.00    -0.744 OA
ENDBRANCH  73  76
ENDBRANCH  55  69
BRANCH  56  80
ATOM     80  C   UNL A   1      39.509  32.101  30.470  1.00  0.00     0.023 A 
ATOM     81  C   UNL A   1      39.955  33.324  29.932  1.00  0.00     0.012 A 
ATOM     82  C   UNL A   1      38.127  31.832  30.510  1.00  0.00     0.148 A 
ATOM     83  C   UNL A   1      39.042  34.276  29.475  1.00  0.00     0.002 A 
ATOM     84  C   UNL A   1      37.226  32.764  30.007  1.00  0.00     0.091 A 
ATOM     85  F   UNL A   1      37.723  30.669  31.041  1.00  0.00    -0.205 F 
ATOM     86  C   UNL A   1      37.680  33.992  29.503  1.00  0.00     0.022 A 
BRANCH  84  87
ATOM     87  S   UNL A   1      35.463  32.441  29.894  1.00  0.00     0.127 S 
ATOM     88  O   UNL A   1      35.093  32.315  31.302  1.00  0.00    -0.237 OA
ATOM     89  O   UNL A   1      34.977  33.655  29.236  1.00  0.00    -0.237 OA
ATOM     90  O   UNL A   1      35.336  31.230  29.096  1.00  0.00    -0.744 OA
ENDBRANCH  84  87
ENDBRANCH  56  80
BRANCH  68  91
ATOM     91  C   UNL A   1      43.451  31.833  36.228  1.00  0.00     0.023 A 
ATOM     92  C   UNL A   1      44.480  32.795  36.226  1.00  0.00     0.012 A 
ATOM     93  C   UNL A   1      42.530  31.809  37.295  1.00  0.00     0.148 A 
ATOM     94  C   UNL A   1      44.610  33.696  37.282  1.00  0.00     0.002 A 
ATOM     95  C   UNL A   1      42.636  32.741  38.320  1.00  0.00     0.091 A 
ATOM     96  F   UNL A   1      41.569  30.874  37.290  1.00  0.00    -0.205 F 
ATOM     97  C   UNL A   1      43.682  33.678  38.321  1.00  0.00     0.022 A 
BRANCH  95  98
ATOM     98  S   UNL A   1      41.424  32.849  39.641  1.00  0.00     0.127 S 
ATOM     99  O   UNL A   1      41.635  34.210  40.131  1.00  0.00    -0.237 OA
ATOM    100  O   UNL A   1      40.162  32.647  38.928  1.00  0.00    -0.237 OA
ATOM    101  O   UNL A   1      41.761  31.784  40.576  1.00  0.00    -0.744 OA
ENDBRANCH  95  98
ENDBRANCH  68  91
ENDBRANCH  42  43
ENDBRANCH  35  37
ENDBRANCH  34  35
ENDBRANCH  33  34
ENDBRANCH  32  33
ENDBRANCH  31  32
ENDBRANCH  30  31
ENDBRANCH  29  30
ENDBRANCH   1  29
TORSDOF 26
ENDMDL
MODEL 3
REMARK VINA RESULT:      -8.4      4.665      7.134
REMARK SMILES CCNC(=O)c1cccc(-c2ccc(Cl)c(C(=O)OCCOCCOCCOCCOC(=O)c3ccc(-c4c5nc(c(-c6cccc(S(=O)(=O)[O-])c6F)c6ccc([nH]6)c(-c6cccc(S(=O)(=O)[O-])c6F)c6nc(c(-c7cccc(S(=O)(=O)[O-])c7F)c7ccc4[nH]7)C=C6)C=C5)cc3)c2)c1
REMARK SMILES IDX 25 1 24 2 23 3 22 4 21 5 20 6 19 7 17 8 18 9 16 10 11 11
REMARK SMILES IDX 12 12 97 13 13 14 14 15 15 16 10 17 6 18 7 19 98 20 8 21
REMARK SMILES IDX 9 22 4 23 3 24 5 26 2 27 1 28 26 29 27 30 28 31 29 32 30 33
REMARK SMILES IDX 31 34 32 35 33 36 34 37 35 38 96 39 36 40 95 41 37 42 38 43
REMARK SMILES IDX 39 44 89 45 40 46 94 47 88 48 90 49 41 50 93 51 87 52 86 53
REMARK SMILES IDX 42 55 74 56 54 57 73 58 55 59 58 60 72 61 91 62 56 63 57 64
REMARK SMILES IDX 71 66 92 67 59 68 43 69 44 70 52 71 45 72 47 73 53 74 46 75
REMARK SMILES IDX 48 76 49 77 50 78 51 79 75 80 76 81 84 82 77 83 79 84 85 85
REMARK SMILES IDX 78 86 80 87 81 88 82 89 83 90 60 91 61 92 69 93 62 94 64 95
REMARK SMILES IDX 70 96 63 97 65 98 66 99 67 100 68 101
REMARK H PARENT 3 25 90 54 58 65
REMARK Flexibility Score: inf
ROOT
ATOM      1  O   UNL A   1      35.478  24.302  25.018  1.00  0.00    -0.377 OA
ENDROOT
BRANCH   1   2
ATOM      2  C   UNL A   1      34.211  24.793  25.410  1.00  0.00     0.188 C 
BRANCH   2   3
ATOM      3  C   UNL A   1      34.215  26.236  25.942  1.00  0.00     0.188 C 
BRANCH   3   4
ATOM      4  O   UNL A   1      33.208  27.066  25.365  1.00  0.00    -0.376 OA
BRANCH   4   5
ATOM      5  C   UNL A   1      32.194  27.533  26.250  1.00  0.00     0.202 C 
BRANCH   5   6
ATOM      6  C   UNL A   1      30.797  26.948  26.020  1.00  0.00     0.261 C 
BRANCH   6   7
ATOM      7  O   UNL A   1      30.246  27.266  24.736  1.00  0.00    -0.460 OA
BRANCH   7   8
ATOM      8  C   UNL A   1      29.658  26.287  24.017  1.00  0.00     0.339 C 
ATOM      9  O   UNL A   1      28.466  26.056  23.935  1.00  0.00    -0.246 OA
BRANCH   8  10
ATOM     10  C   UNL A   1      30.744  25.633  23.243  1.00  0.00     0.079 A 
ATOM     11  C   UNL A   1      32.076  23.596  22.872  1.00  0.00    -0.017 A 
ATOM     12  C   UNL A   1      32.889  24.335  22.001  1.00  0.00     0.010 A 
ATOM     13  C   UNL A   1      31.015  24.275  23.495  1.00  0.00     0.026 A 
ATOM     14  C   UNL A   1      32.637  25.689  21.748  1.00  0.00     0.022 A 
ATOM     15  C   UNL A   1      31.560  26.340  22.358  1.00  0.00     0.055 A 
ATOM     16  Cl  UNL A   1      31.367  28.022  22.019  1.00  0.00    -0.083 Cl
BRANCH  11  17
ATOM     17  C   UNL A   1      32.267  22.146  23.073  1.00  0.00    -0.018 A 
ATOM     18  C   UNL A   1      32.742  20.305  24.614  1.00  0.00     0.040 A 
ATOM     19  C   UNL A   1      32.463  19.378  23.612  1.00  0.00     0.014 A 
ATOM     20  C   UNL A   1      32.706  21.670  24.320  1.00  0.00     0.022 A 
ATOM     21  C   UNL A   1      32.087  19.821  22.344  1.00  0.00     0.001 A 
ATOM     22  C   UNL A   1      31.973  21.193  22.084  1.00  0.00     0.009 A 
BRANCH  18  23
ATOM     23  C   UNL A   1      33.110  19.825  25.966  1.00  0.00     0.251 C 
ATOM     24  N   UNL A   1      32.864  18.528  26.348  1.00  0.00    -0.352 N 
ATOM     25  H   UNL A   1      32.920  18.365  27.317  1.00  0.00     0.163 HD
ATOM     26  O   UNL A   1      33.667  20.591  26.746  1.00  0.00    -0.269 OA
BRANCH  24  27
ATOM     27  C   UNL A   1      32.531  17.357  25.552  1.00  0.00     0.112 C 
ATOM     28  C   UNL A   1      33.775  16.557  25.219  1.00  0.00     0.027 C 
ENDBRANCH  24  27
ENDBRANCH  18  23
ENDBRANCH  11  17
ENDBRANCH   8  10
ENDBRANCH   7   8
ENDBRANCH   6   7
ENDBRANCH   5   6
ENDBRANCH   4   5
ENDBRANCH   3   4
ENDBRANCH   2   3
ENDBRANCH   1   2
BRANCH   1  29
ATOM     29  C   UNL A   1      35.998  23.143  25.665  1.00  0.00     0.188 C 
BRANCH  29  30
ATOM     30  C   UNL A   1      37.508  22.808  25.677  1.00  0.00     0.188 C 
BRANCH  30  31
ATOM     31  O   UNL A   1      38.351  23.830  26.200  1.00  0.00    -0.376 OA
BRANCH  31  32
ATOM     32  C   UNL A   1      39.317  23.431  27.163  1.00  0.00     0.202 C 
BRANCH  32  33
ATOM     33  C   UNL A   1      40.749  23.850  26.811  1.00  0.00     0.261 C 
BRANCH  33  34
ATOM     34  O   UNL A   1      41.206  25.034  27.479  1.00  0.00    -0.460 OA
BRANCH  34  35
ATOM     35  C   UNL A   1      41.113  26.192  26.789  1.00  0.00     0.338 C 
ATOM     36  O   UNL A   1      40.939  26.325  25.591  1.00  0.00    -0.246 OA
BRANCH  35  37
ATOM     37  C   UNL A   1      41.079  27.298  27.761  1.00  0.00     0.060 A 
ATOM     38  C   UNL A   1      40.471  28.504  27.388  1.00  0.00     0.016 A 
ATOM     39  C   UNL A   1      41.666  27.151  29.021  1.00  0.00     0.016 A 
ATOM     40  C   UNL A   1      40.510  29.593  28.254  1.00  0.00     0.010 A 
ATOM     41  C   UNL A   1      41.715  28.246  29.882  1.00  0.00     0.010 A 
ATOM     42  C   UNL A   1      41.184  29.483  29.478  1.00  0.00    -0.014 A 
BRANCH  42  43
ATOM     43  C   UNL A   1      41.556  30.710  30.217  1.00  0.00     0.031 A 
ATOM     44  C   UNL A   1      42.866  31.366  29.871  1.00  0.00     0.074 A 
ATOM     45  C   UNL A   1      40.764  31.226  31.171  1.00  0.00     0.049 A 
ATOM     46  N   UNL A   1      43.418  32.436  30.376  1.00  0.00    -0.248 NA
ATOM     47  C   UNL A   1      43.664  30.721  28.812  1.00  0.00     0.031 C 
ATOM     48  C   UNL A   1      39.478  30.676  31.595  1.00  0.00     0.029 A 
ATOM     49  N   UNL A   1      40.944  32.325  31.972  1.00  0.00    -0.354 N 
ATOM     50  C   UNL A   1      44.632  32.581  29.715  1.00  0.00     0.074 A 
ATOM     51  C   UNL A   1      44.747  31.480  28.786  1.00  0.00     0.031 C 
ATOM     52  C   UNL A   1      38.993  31.432  32.597  1.00  0.00     0.029 A 
ATOM     53  C   UNL A   1      39.940  32.505  32.893  1.00  0.00     0.049 A 
ATOM     54  H   UNL A   1      41.718  32.928  31.894  1.00  0.00     0.167 HD
ATOM     55  C   UNL A   1      45.560  33.556  29.851  1.00  0.00     0.034 A 
ATOM     56  C   UNL A   1      39.813  33.429  33.866  1.00  0.00     0.034 A 
ATOM     57  C   UNL A   1      45.440  34.654  30.768  1.00  0.00     0.049 A 
ATOM     58  C   UNL A   1      40.868  34.497  34.009  1.00  0.00     0.074 A 
ATOM     59  C   UNL A   1      46.311  35.710  30.967  1.00  0.00     0.029 A 
ATOM     60  N   UNL A   1      44.382  34.835  31.645  1.00  0.00    -0.354 N 
ATOM     61  N   UNL A   1      41.952  34.691  33.295  1.00  0.00    -0.248 NA
ATOM     62  C   UNL A   1      40.663  35.498  35.066  1.00  0.00     0.031 C 
ATOM     63  C   UNL A   1      45.786  36.521  31.979  1.00  0.00     0.029 A 
ATOM     64  C   UNL A   1      44.576  35.985  32.389  1.00  0.00     0.049 A 
ATOM     65  H   UNL A   1      43.607  34.233  31.727  1.00  0.00     0.167 HD
ATOM     66  C   UNL A   1      42.528  35.860  33.783  1.00  0.00     0.074 A 
ATOM     67  C   UNL A   1      41.667  36.335  34.846  1.00  0.00     0.031 C 
ATOM     68  C   UNL A   1      43.671  36.479  33.395  1.00  0.00     0.034 A 
BRANCH  55  69
ATOM     69  C   UNL A   1      46.772  33.485  28.961  1.00  0.00     0.023 A 
ATOM     70  C   UNL A   1      47.803  32.572  29.265  1.00  0.00     0.012 A 
ATOM     71  C   UNL A   1      46.882  34.298  27.817  1.00  0.00     0.148 A 
ATOM     72  C   UNL A   1      48.940  32.493  28.464  1.00  0.00     0.002 A 
ATOM     73  C   UNL A   1      47.999  34.183  26.999  1.00  0.00     0.091 A 
ATOM     74  F   UNL A   1      45.906  35.181  27.562  1.00  0.00    -0.205 F 
ATOM     75  C   UNL A   1      49.034  33.290  27.326  1.00  0.00     0.022 A 
BRANCH  73  76
ATOM     76  S   UNL A   1      48.177  35.115  25.474  1.00  0.00     0.127 S 
ATOM     77  O   UNL A   1      49.508  34.702  25.029  1.00  0.00    -0.237 OA
ATOM     78  O   UNL A   1      47.075  34.595  24.664  1.00  0.00    -0.237 OA
ATOM     79  O   UNL A   1      48.046  36.516  25.845  1.00  0.00    -0.744 OA
ENDBRANCH  73  76
ENDBRANCH  55  69
BRANCH  56  80
ATOM     80  C   UNL A   1      38.608  33.429  34.745  1.00  0.00     0.023 A 
ATOM     81  C   UNL A   1      37.427  34.051  34.297  1.00  0.00     0.012 A 
ATOM     82  C   UNL A   1      38.623  32.815  36.012  1.00  0.00     0.148 A 
ATOM     83  C   UNL A   1      36.292  34.091  35.108  1.00  0.00     0.002 A 
ATOM     84  C   UNL A   1      37.474  32.815  36.794  1.00  0.00     0.091 A 
ATOM     85  F   UNL A   1      39.763  32.243  36.426  1.00  0.00    -0.205 F 
ATOM     86  C   UNL A   1      36.312  33.466  36.352  1.00  0.00     0.022 A 
BRANCH  84  87
ATOM     87  S   UNL A   1      37.368  31.937  38.358  1.00  0.00     0.127 S 
ATOM     88  O   UNL A   1      36.074  32.389  38.866  1.00  0.00    -0.237 OA
ATOM     89  O   UNL A   1      37.404  30.541  37.921  1.00  0.00    -0.237 OA
ATOM     90  O   UNL A   1      38.531  32.360  39.124  1.00  0.00    -0.744 OA
ENDBRANCH  84  87
ENDBRANCH  56  80
BRANCH  68  91
ATOM     91  C   UNL A   1      44.035  37.773  34.075  1.00  0.00     0.023 A 
ATOM     92  C   UNL A   1      43.531  38.994  33.585  1.00  0.00     0.012 A 
ATOM     93  C   UNL A   1      44.811  37.768  35.251  1.00  0.00     0.148 A 
ATOM     94  C   UNL A   1      43.821  40.192  34.236  1.00  0.00     0.002 A 
ATOM     95  C   UNL A   1      45.056  38.961  35.923  1.00  0.00     0.091 A 
ATOM     96  F   UNL A   1      45.299  36.600  35.693  1.00  0.00    -0.205 F 
ATOM     97  C   UNL A   1      44.572  40.175  35.410  1.00  0.00     0.022 A 
BRANCH  95  98
ATOM     98  S   UNL A   1      45.927  39.011  37.492  1.00  0.00     0.127 S 
ATOM     99  O   UNL A   1      45.971  40.447  37.765  1.00  0.00    -0.237 OA
ATOM    100  O   UNL A   1      45.037  38.252  38.371  1.00  0.00    -0.237 OA
ATOM    101  O   UNL A   1      47.215  38.376  37.251  1.00  0.00    -0.744 OA
ENDBRANCH  95  98
ENDBRANCH  68  91
ENDBRANCH  42  43
ENDBRANCH  35  37
ENDBRANCH  34  35
ENDBRANCH  33  34
ENDBRANCH  32  33
ENDBRANCH  31  32
ENDBRANCH  30  31
ENDBRANCH  29  30
ENDBRANCH   1  29
TORSDOF 26
ENDMDL
