MODEL 1
REMARK VINA RESULT:      -9.6      0.000      0.000
REMARK SMILES Cc1ccc(Nc2c(F)cccc2I)c(CC(=O)OCCOCCOCCOCCOC(=O)c2ccc(-c3c4nc(c(-c5cccc(S(=O)(=O)[O-])c5F)c5ccc([nH]5)c(-c5cccc(S(=O)(=O)[O-])c5F)c5nc(c(-c6cccc(S(=O)(=O)[O-])c6F)c6ccc3[nH]6)C=C5)C=C4)cc2)c1
REMARK SMILES IDX 25 1 24 2 23 3 22 4 21 5 20 6 19 7 17 8 18 9 16 10 15 11
REMARK SMILES IDX 1 12 2 13 3 14 97 15 4 16 5 17 6 18 7 20 8 21 13 22 9 23
REMARK SMILES IDX 10 24 12 25 14 26 11 27 26 28 27 29 28 30 29 31 30 32 31 33
REMARK SMILES IDX 32 34 33 35 34 36 35 37 96 38 36 39 95 40 37 41 38 42 39 43
REMARK SMILES IDX 89 44 40 45 94 46 88 47 90 48 41 49 93 50 87 51 86 52 42 54
REMARK SMILES IDX 74 55 54 56 73 57 55 58 58 59 72 60 91 61 56 62 57 63 71 65
REMARK SMILES IDX 92 66 59 67 43 68 44 69 52 70 45 71 47 72 53 73 46 74 48 75
REMARK SMILES IDX 49 76 50 77 51 78 75 79 76 80 84 81 77 82 79 83 85 84 78 85
REMARK SMILES IDX 80 86 81 87 82 88 83 89 60 90 61 91 69 92 62 93 64 94 70 95
REMARK SMILES IDX 63 96 65 97 66 98 67 99 68 100
REMARK H PARENT 6 19 90 53 58 64
REMARK Flexibility Score: inf
ROOT
ATOM      1  O   UNL A   1      35.232  33.435  29.411  1.00  0.00    -0.377 OA
ENDROOT
BRANCH   1   2
ATOM      2  C   UNL A   1      34.422  32.290  29.206  1.00  0.00     0.188 C 
BRANCH   2   3
ATOM      3  C   UNL A   1      35.131  31.446  28.237  1.00  0.00     0.188 C 
BRANCH   3   4
ATOM      4  O   UNL A   1      34.260  30.983  27.239  1.00  0.00    -0.376 OA
BRANCH   4   5
ATOM      5  C   UNL A   1      34.536  29.634  27.028  1.00  0.00     0.202 C 
BRANCH   5   6
ATOM      6  C   UNL A   1      33.285  28.748  27.179  1.00  0.00     0.261 C 
BRANCH   6   7
ATOM      7  O   UNL A   1      33.271  27.471  26.489  1.00  0.00    -0.463 OA
BRANCH   7   8
ATOM      8  C   UNL A   1      32.140  26.745  26.660  1.00  0.00     0.310 C 
ATOM      9  O   UNL A   1      31.116  27.171  27.182  1.00  0.00    -0.252 OA
BRANCH   8  10
ATOM     10  C   UNL A   1      32.235  25.309  26.198  1.00  0.00     0.160 C 
BRANCH  10  11
ATOM     11  C   UNL A   1      33.251  24.816  25.156  1.00  0.00    -0.013 A 
ATOM     12  C   UNL A   1      36.605  22.939  25.676  1.00  0.00     0.044 C 
ATOM     13  C   UNL A   1      35.444  23.631  25.024  1.00  0.00    -0.051 A 
ATOM     14  C   UNL A   1      35.314  23.600  23.649  1.00  0.00     0.005 A 
ATOM     15  C   UNL A   1      34.444  24.280  25.756  1.00  0.00     0.009 A 
ATOM     16  C   UNL A   1      34.193  24.166  23.032  1.00  0.00     0.026 A 
ATOM     17  C   UNL A   1      33.101  24.744  23.725  1.00  0.00     0.042 A 
BRANCH  17  18
ATOM     18  N   UNL A   1      31.990  25.298  22.956  1.00  0.00    -0.352 N 
ATOM     19  H   UNL A   1      31.705  24.762  22.182  1.00  0.00     0.167 HD
BRANCH  18  20
ATOM     20  C   UNL A   1      31.238  26.535  23.170  1.00  0.00     0.088 A 
ATOM     21  C   UNL A   1      29.897  26.516  23.584  1.00  0.00     0.147 A 
ATOM     22  C   UNL A   1      31.691  27.823  22.765  1.00  0.00     0.040 A 
ATOM     23  F   UNL A   1      29.419  25.447  24.239  1.00  0.00    -0.205 F 
ATOM     24  C   UNL A   1      29.012  27.588  23.392  1.00  0.00     0.041 A 
ATOM     25  C   UNL A   1      30.789  28.883  22.478  1.00  0.00     0.017 A 
ATOM     26  I   UNL A   1      33.719  28.430  22.816  1.00  0.00    -0.042 I 
ATOM     27  C   UNL A   1      29.438  28.750  22.766  1.00  0.00     0.004 A 
ENDBRANCH  18  20
ENDBRANCH  17  18
ENDBRANCH  10  11
ENDBRANCH   8  10
ENDBRANCH   7   8
ENDBRANCH   6   7
ENDBRANCH   5   6
ENDBRANCH   4   5
ENDBRANCH   3   4
ENDBRANCH   2   3
ENDBRANCH   1   2
BRANCH   1  28
ATOM     28  C   UNL A   1      34.777  34.248  30.465  1.00  0.00     0.188 C 
BRANCH  28  29
ATOM     29  C   UNL A   1      35.775  34.254  31.659  1.00  0.00     0.188 C 
BRANCH  29  30
ATOM     30  O   UNL A   1      36.437  33.011  31.816  1.00  0.00    -0.376 OA
BRANCH  30  31
ATOM     31  C   UNL A   1      35.927  32.381  32.975  1.00  0.00     0.202 C 
BRANCH  31  32
ATOM     32  C   UNL A   1      37.002  32.088  34.059  1.00  0.00     0.261 C 
BRANCH  32  33
ATOM     33  O   UNL A   1      38.547  31.983  33.852  1.00  0.00    -0.460 OA
BRANCH  33  34
ATOM     34  C   UNL A   1      39.880  31.807  33.688  1.00  0.00     0.338 C 
ATOM     35  O   UNL A   1      40.423  31.050  34.496  1.00  0.00    -0.246 OA
BRANCH  34  36
ATOM     36  C   UNL A   1      40.822  32.448  32.644  1.00  0.00     0.060 A 
ATOM     37  C   UNL A   1      40.337  32.629  31.352  1.00  0.00     0.016 A 
ATOM     38  C   UNL A   1      42.152  32.822  32.768  1.00  0.00     0.016 A 
ATOM     39  C   UNL A   1      41.194  32.526  30.230  1.00  0.00     0.010 A 
ATOM     40  C   UNL A   1      43.025  32.578  31.683  1.00  0.00     0.010 A 
ATOM     41  C   UNL A   1      42.519  32.210  30.429  1.00  0.00    -0.014 A 
BRANCH  41  42
ATOM     42  C   UNL A   1      43.367  31.388  29.508  1.00  0.00     0.031 A 
ATOM     43  C   UNL A   1      43.161  29.878  29.512  1.00  0.00     0.074 A 
ATOM     44  C   UNL A   1      43.987  32.019  28.455  1.00  0.00     0.049 A 
ATOM     45  N   UNL A   1      43.658  29.013  28.680  1.00  0.00    -0.248 NA
ATOM     46  C   UNL A   1      42.315  29.218  30.515  1.00  0.00     0.031 C 
ATOM     47  C   UNL A   1      44.045  31.500  27.091  1.00  0.00     0.029 A 
ATOM     48  N   UNL A   1      44.549  33.276  28.242  1.00  0.00    -0.354 N 
ATOM     49  C   UNL A   1      42.974  27.795  28.831  1.00  0.00     0.074 A 
ATOM     50  C   UNL A   1      42.211  27.966  30.044  1.00  0.00     0.031 C 
ATOM     51  C   UNL A   1      44.581  32.357  26.220  1.00  0.00     0.029 A 
ATOM     52  C   UNL A   1      45.253  33.332  27.013  1.00  0.00     0.049 A 
ATOM     53  H   UNL A   1      44.466  34.032  28.868  1.00  0.00     0.167 HD
ATOM     54  C   UNL A   1      42.989  26.846  27.832  1.00  0.00     0.034 A 
ATOM     55  C   UNL A   1      46.617  33.390  26.886  1.00  0.00     0.034 A 
ATOM     56  C   UNL A   1      44.029  27.131  26.798  1.00  0.00     0.049 A 
ATOM     57  C   UNL A   1      47.330  32.013  26.739  1.00  0.00     0.074 A 
ATOM     58  C   UNL A   1      44.141  27.048  25.409  1.00  0.00     0.029 A 
ATOM     59  N   UNL A   1      45.207  27.750  27.197  1.00  0.00    -0.354 N 
ATOM     60  N   UNL A   1      46.799  30.878  26.321  1.00  0.00    -0.248 NA
ATOM     61  C   UNL A   1      48.733  31.833  27.111  1.00  0.00     0.031 C 
ATOM     62  C   UNL A   1      45.332  27.734  25.000  1.00  0.00     0.029 A 
ATOM     63  C   UNL A   1      46.015  28.101  26.140  1.00  0.00     0.049 A 
ATOM     64  H   UNL A   1      45.439  27.920  28.139  1.00  0.00     0.167 HD
ATOM     65  C   UNL A   1      47.676  29.826  26.566  1.00  0.00     0.074 A 
ATOM     66  C   UNL A   1      48.882  30.501  27.023  1.00  0.00     0.031 C 
ATOM     67  C   UNL A   1      47.375  28.481  26.466  1.00  0.00     0.034 A 
BRANCH  54  68
ATOM     68  C   UNL A   1      41.966  25.684  27.626  1.00  0.00     0.023 A 
ATOM     69  C   UNL A   1      40.599  26.016  27.811  1.00  0.00     0.012 A 
ATOM     70  C   UNL A   1      42.210  24.297  27.389  1.00  0.00     0.148 A 
ATOM     71  C   UNL A   1      39.559  25.074  27.840  1.00  0.00     0.002 A 
ATOM     72  C   UNL A   1      41.150  23.358  27.334  1.00  0.00     0.091 A 
ATOM     73  F   UNL A   1      43.466  23.855  27.262  1.00  0.00    -0.205 F 
ATOM     74  C   UNL A   1      39.831  23.745  27.593  1.00  0.00     0.022 A 
BRANCH  72  75
ATOM     75  S   UNL A   1      41.343  21.609  26.898  1.00  0.00     0.127 S 
ATOM     76  O   UNL A   1      39.977  21.096  27.018  1.00  0.00    -0.237 OA
ATOM     77  O   UNL A   1      41.830  21.684  25.518  1.00  0.00    -0.237 OA
ATOM     78  O   UNL A   1      42.297  21.052  27.847  1.00  0.00    -0.744 OA
ENDBRANCH  72  75
ENDBRANCH  54  68
BRANCH  55  79
ATOM     79  C   UNL A   1      47.118  34.678  27.460  1.00  0.00     0.023 A 
ATOM     80  C   UNL A   1      47.713  34.537  28.750  1.00  0.00     0.012 A 
ATOM     81  C   UNL A   1      47.651  35.599  26.560  1.00  0.00     0.148 A 
ATOM     82  C   UNL A   1      48.969  35.081  29.021  1.00  0.00     0.002 A 
ATOM     83  C   UNL A   1      48.947  36.038  26.794  1.00  0.00     0.091 A 
ATOM     84  F   UNL A   1      47.028  35.791  25.390  1.00  0.00    -0.205 F 
ATOM     85  C   UNL A   1      49.608  35.791  28.019  1.00  0.00     0.022 A 
BRANCH  83  86
ATOM     86  S   UNL A   1      50.073  36.104  25.398  1.00  0.00     0.127 S 
ATOM     87  O   UNL A   1      49.527  37.166  24.564  1.00  0.00    -0.237 OA
ATOM     88  O   UNL A   1      51.271  36.454  26.158  1.00  0.00    -0.237 OA
ATOM     89  O   UNL A   1      50.082  34.775  24.809  1.00  0.00    -0.744 OA
ENDBRANCH  83  86
ENDBRANCH  55  79
BRANCH  67  90
ATOM     90  C   UNL A   1      48.311  27.297  26.802  1.00  0.00     0.023 A 
ATOM     91  C   UNL A   1      47.964  26.341  27.764  1.00  0.00     0.012 A 
ATOM     92  C   UNL A   1      49.613  27.140  26.218  1.00  0.00     0.148 A 
ATOM     93  C   UNL A   1      48.757  25.208  28.000  1.00  0.00     0.002 A 
ATOM     94  C   UNL A   1      50.420  26.038  26.483  1.00  0.00     0.091 A 
ATOM     95  F   UNL A   1      50.127  28.082  25.425  1.00  0.00    -0.205 F 
ATOM     96  C   UNL A   1      49.969  25.042  27.343  1.00  0.00     0.022 A 
BRANCH  94  97
ATOM     97  S   UNL A   1      52.078  25.849  25.799  1.00  0.00     0.127 S 
ATOM     98  O   UNL A   1      52.847  26.766  26.642  1.00  0.00    -0.237 OA
ATOM     99  O   UNL A   1      52.343  24.431  26.044  1.00  0.00    -0.237 OA
ATOM    100  O   UNL A   1      52.003  26.224  24.395  1.00  0.00    -0.744 OA
ENDBRANCH  94  97
ENDBRANCH  67  90
ENDBRANCH  41  42
ENDBRANCH  34  36
ENDBRANCH  33  34
ENDBRANCH  32  33
ENDBRANCH  31  32
ENDBRANCH  30  31
ENDBRANCH  29  30
ENDBRANCH  28  29
ENDBRANCH   1  28
TORSDOF 26
ENDMDL
MODEL 2
REMARK VINA RESULT:      -9.5      4.488     10.702
REMARK SMILES Cc1ccc(Nc2c(F)cccc2I)c(CC(=O)OCCOCCOCCOCCOC(=O)c2ccc(-c3c4nc(c(-c5cccc(S(=O)(=O)[O-])c5F)c5ccc([nH]5)c(-c5cccc(S(=O)(=O)[O-])c5F)c5nc(c(-c6cccc(S(=O)(=O)[O-])c6F)c6ccc3[nH]6)C=C5)C=C4)cc2)c1
REMARK SMILES IDX 25 1 24 2 23 3 22 4 21 5 20 6 19 7 17 8 18 9 16 10 15 11
REMARK SMILES IDX 1 12 2 13 3 14 97 15 4 16 5 17 6 18 7 20 8 21 13 22 9 23
REMARK SMILES IDX 10 24 12 25 14 26 11 27 26 28 27 29 28 30 29 31 30 32 31 33
REMARK SMILES IDX 32 34 33 35 34 36 35 37 96 38 36 39 95 40 37 41 38 42 39 43
REMARK SMILES IDX 89 44 40 45 94 46 88 47 90 48 41 49 93 50 87 51 86 52 42 54
REMARK SMILES IDX 74 55 54 56 73 57 55 58 58 59 72 60 91 61 56 62 57 63 71 65
REMARK SMILES IDX 92 66 59 67 43 68 44 69 52 70 45 71 47 72 53 73 46 74 48 75
REMARK SMILES IDX 49 76 50 77 51 78 75 79 76 80 84 81 77 82 79 83 85 84 78 85
REMARK SMILES IDX 80 86 81 87 82 88 83 89 60 90 61 91 69 92 62 93 64 94 70 95
REMARK SMILES IDX 63 96 65 97 66 98 67 99 68 100
REMARK H PARENT 6 19 90 53 58 64
REMARK Flexibility Score: inf
ROOT
ATOM      1  O   UNL A   1      37.369  20.896  25.690  1.00  0.00    -0.377 OA
ENDROOT
BRANCH   1   2
ATOM      2  C   UNL A   1      36.157  21.244  25.044  1.00  0.00     0.188 C 
BRANCH   2   3
ATOM      3  C   UNL A   1      36.424  22.476  24.293  1.00  0.00     0.188 C 
BRANCH   3   4
ATOM      4  O   UNL A   1      35.252  23.229  24.124  1.00  0.00    -0.376 OA
BRANCH   4   5
ATOM      5  C   UNL A   1      35.281  24.272  25.047  1.00  0.00     0.202 C 
BRANCH   5   6
ATOM      6  C   UNL A   1      34.158  24.160  26.095  1.00  0.00     0.261 C 
BRANCH   6   7
ATOM      7  O   UNL A   1      34.155  22.998  26.965  1.00  0.00    -0.463 OA
BRANCH   7   8
ATOM      8  C   UNL A   1      32.950  22.694  27.504  1.00  0.00     0.310 C 
ATOM      9  O   UNL A   1      32.783  22.313  28.658  1.00  0.00    -0.252 OA
BRANCH   8  10
ATOM     10  C   UNL A   1      31.784  22.806  26.548  1.00  0.00     0.160 C 
BRANCH  10  11
ATOM     11  C   UNL A   1      31.872  22.460  25.054  1.00  0.00    -0.013 A 
ATOM     12  C   UNL A   1      32.619  19.059  23.348  1.00  0.00     0.044 C 
ATOM     13  C   UNL A   1      32.316  20.513  23.557  1.00  0.00    -0.051 A 
ATOM     14  C   UNL A   1      31.987  21.304  22.474  1.00  0.00     0.005 A 
ATOM     15  C   UNL A   1      32.306  21.108  24.822  1.00  0.00     0.009 A 
ATOM     16  C   UNL A   1      31.619  22.642  22.661  1.00  0.00     0.026 A 
ATOM     17  C   UNL A   1      31.490  23.270  23.924  1.00  0.00     0.042 A 
BRANCH  17  18
ATOM     18  N   UNL A   1      31.095  24.674  23.978  1.00  0.00    -0.352 N 
ATOM     19  H   UNL A   1      30.186  24.843  24.316  1.00  0.00     0.167 HD
BRANCH  18  20
ATOM     20  C   UNL A   1      31.854  25.868  23.605  1.00  0.00     0.088 A 
ATOM     21  C   UNL A   1      32.307  26.069  22.292  1.00  0.00     0.147 A 
ATOM     22  C   UNL A   1      32.398  26.792  24.543  1.00  0.00     0.040 A 
ATOM     23  F   UNL A   1      31.683  25.459  21.272  1.00  0.00    -0.205 F 
ATOM     24  C   UNL A   1      33.371  26.923  21.962  1.00  0.00     0.041 A 
ATOM     25  C   UNL A   1      33.535  27.589  24.242  1.00  0.00     0.017 A 
ATOM     26  I   UNL A   1      31.451  27.322  26.361  1.00  0.00    -0.042 I 
ATOM     27  C   UNL A   1      34.040  27.629  22.950  1.00  0.00     0.004 A 
ENDBRANCH  18  20
ENDBRANCH  17  18
ENDBRANCH  10  11
ENDBRANCH   8  10
ENDBRANCH   7   8
ENDBRANCH   6   7
ENDBRANCH   5   6
ENDBRANCH   4   5
ENDBRANCH   3   4
ENDBRANCH   2   3
ENDBRANCH   1   2
BRANCH   1  28
ATOM     28  C   UNL A   1      38.437  21.746  25.351  1.00  0.00     0.188 C 
BRANCH  28  29
ATOM     29  C   UNL A   1      39.231  22.204  26.608  1.00  0.00     0.188 C 
BRANCH  29  30
ATOM     30  O   UNL A   1      40.631  22.207  26.392  1.00  0.00    -0.376 OA
BRANCH  30  31
ATOM     31  C   UNL A   1      41.273  22.306  27.648  1.00  0.00     0.202 C 
BRANCH  31  32
ATOM     32  C   UNL A   1      41.773  23.737  27.990  1.00  0.00     0.261 C 
BRANCH  32  33
ATOM     33  O   UNL A   1      41.248  25.086  27.403  1.00  0.00    -0.460 OA
BRANCH  33  34
ATOM     34  C   UNL A   1      40.718  26.243  26.939  1.00  0.00     0.338 C 
ATOM     35  O   UNL A   1      41.039  26.556  25.790  1.00  0.00    -0.246 OA
BRANCH  34  36
ATOM     36  C   UNL A   1      39.787  27.243  27.661  1.00  0.00     0.060 A 
ATOM     37  C   UNL A   1      39.479  28.435  27.011  1.00  0.00     0.016 A 
ATOM     38  C   UNL A   1      39.242  27.179  28.936  1.00  0.00     0.016 A 
ATOM     39  C   UNL A   1      39.274  29.632  27.739  1.00  0.00     0.010 A 
ATOM     40  C   UNL A   1      39.179  28.365  29.702  1.00  0.00     0.010 A 
ATOM     41  C   UNL A   1      39.416  29.612  29.109  1.00  0.00    -0.014 A 
BRANCH  41  42
ATOM     42  C   UNL A   1      39.946  30.735  29.946  1.00  0.00     0.031 A 
ATOM     43  C   UNL A   1      41.425  30.709  30.314  1.00  0.00     0.074 A 
ATOM     44  C   UNL A   1      39.217  31.898  30.015  1.00  0.00     0.049 A 
ATOM     45  N   UNL A   1      42.114  31.657  30.874  1.00  0.00    -0.248 NA
ATOM     46  C   UNL A   1      42.267  29.537  30.041  1.00  0.00     0.031 C 
ATOM     47  C   UNL A   1      39.781  33.242  29.924  1.00  0.00     0.029 A 
ATOM     48  N   UNL A   1      37.861  32.222  30.008  1.00  0.00    -0.354 N 
ATOM     49  C   UNL A   1      43.482  31.360  30.742  1.00  0.00     0.074 A 
ATOM     50  C   UNL A   1      43.504  29.991  30.290  1.00  0.00     0.031 C 
ATOM     51  C   UNL A   1      38.857  34.204  29.879  1.00  0.00     0.029 A 
ATOM     52  C   UNL A   1      37.649  33.589  30.319  1.00  0.00     0.049 A 
ATOM     53  H   UNL A   1      37.141  31.581  29.809  1.00  0.00     0.167 HD
ATOM     54  C   UNL A   1      44.434  32.349  30.859  1.00  0.00     0.034 A 
ATOM     55  C   UNL A   1      37.116  34.058  31.493  1.00  0.00     0.034 A 
ATOM     56  C   UNL A   1      43.874  33.608  31.436  1.00  0.00     0.049 A 
ATOM     57  C   UNL A   1      38.153  34.409  32.601  1.00  0.00     0.074 A 
ATOM     58  C   UNL A   1      44.016  34.982  31.228  1.00  0.00     0.029 A 
ATOM     59  N   UNL A   1      42.847  33.509  32.365  1.00  0.00    -0.354 N 
ATOM     60  N   UNL A   1      39.431  34.700  32.437  1.00  0.00    -0.248 NA
ATOM     61  C   UNL A   1      37.790  34.410  34.017  1.00  0.00     0.031 C 
ATOM     62  C   UNL A   1      42.981  35.666  31.947  1.00  0.00     0.029 A 
ATOM     63  C   UNL A   1      42.309  34.730  32.705  1.00  0.00     0.049 A 
ATOM     64  H   UNL A   1      42.534  32.655  32.741  1.00  0.00     0.167 HD
ATOM     65  C   UNL A   1      40.077  34.707  33.669  1.00  0.00     0.074 A 
ATOM     66  C   UNL A   1      38.982  34.559  34.617  1.00  0.00     0.031 C 
ATOM     67  C   UNL A   1      41.443  34.754  33.867  1.00  0.00     0.034 A 
BRANCH  54  68
ATOM     68  C   UNL A   1      45.898  32.311  30.315  1.00  0.00     0.023 A 
ATOM     69  C   UNL A   1      46.920  32.615  31.253  1.00  0.00     0.012 A 
ATOM     70  C   UNL A   1      46.361  32.126  28.977  1.00  0.00     0.148 A 
ATOM     71  C   UNL A   1      48.268  32.800  30.912  1.00  0.00     0.002 A 
ATOM     72  C   UNL A   1      47.735  32.230  28.648  1.00  0.00     0.091 A 
ATOM     73  F   UNL A   1      45.482  31.898  27.995  1.00  0.00    -0.205 F 
ATOM     74  C   UNL A   1      48.680  32.599  29.611  1.00  0.00     0.022 A 
BRANCH  72  75
ATOM     75  S   UNL A   1      48.434  31.873  27.014  1.00  0.00     0.127 S 
ATOM     76  O   UNL A   1      48.045  30.478  26.796  1.00  0.00    -0.237 OA
ATOM     77  O   UNL A   1      47.727  32.828  26.158  1.00  0.00    -0.237 OA
ATOM     78  O   UNL A   1      49.869  32.102  27.122  1.00  0.00    -0.744 OA
ENDBRANCH  72  75
ENDBRANCH  54  68
BRANCH  55  79
ATOM     79  C   UNL A   1      35.695  33.605  31.612  1.00  0.00     0.023 A 
ATOM     80  C   UNL A   1      35.414  32.914  32.828  1.00  0.00     0.012 A 
ATOM     81  C   UNL A   1      34.724  34.440  31.061  1.00  0.00     0.148 A 
ATOM     82  C   UNL A   1      34.320  33.273  33.618  1.00  0.00     0.002 A 
ATOM     83  C   UNL A   1      33.707  34.872  31.901  1.00  0.00     0.091 A 
ATOM     84  F   UNL A   1      34.962  35.007  29.871  1.00  0.00    -0.205 F 
ATOM     85  C   UNL A   1      33.495  34.291  33.173  1.00  0.00     0.022 A 
BRANCH  83  86
ATOM     86  S   UNL A   1      33.256  36.608  31.846  1.00  0.00     0.127 S 
ATOM     87  O   UNL A   1      31.992  36.659  32.567  1.00  0.00    -0.237 OA
ATOM     88  O   UNL A   1      34.418  37.112  32.575  1.00  0.00    -0.237 OA
ATOM     89  O   UNL A   1      33.200  36.977  30.441  1.00  0.00    -0.744 OA
ENDBRANCH  83  86
ENDBRANCH  55  79
BRANCH  67  90
ATOM     90  C   UNL A   1      42.185  34.691  35.222  1.00  0.00     0.023 A 
ATOM     91  C   UNL A   1      42.863  33.537  35.633  1.00  0.00     0.012 A 
ATOM     92  C   UNL A   1      42.164  35.766  36.175  1.00  0.00     0.148 A 
ATOM     93  C   UNL A   1      43.624  33.505  36.810  1.00  0.00     0.002 A 
ATOM     94  C   UNL A   1      42.886  35.720  37.363  1.00  0.00     0.091 A 
ATOM     95  F   UNL A   1      41.406  36.844  35.975  1.00  0.00    -0.205 F 
ATOM     96  C   UNL A   1      43.659  34.602  37.661  1.00  0.00     0.022 A 
BRANCH  94  97
ATOM     97  S   UNL A   1      42.832  37.038  38.594  1.00  0.00     0.127 S 
ATOM     98  O   UNL A   1      43.551  38.110  37.903  1.00  0.00    -0.237 OA
ATOM     99  O   UNL A   1      41.393  37.261  38.731  1.00  0.00    -0.237 OA
ATOM    100  O   UNL A   1      43.490  36.529  39.788  1.00  0.00    -0.744 OA
ENDBRANCH  94  97
ENDBRANCH  67  90
ENDBRANCH  41  42
ENDBRANCH  34  36
ENDBRANCH  33  34
ENDBRANCH  32  33
ENDBRANCH  31  32
ENDBRANCH  30  31
ENDBRANCH  29  30
ENDBRANCH  28  29
ENDBRANCH   1  28
TORSDOF 26
ENDMDL
MODEL 3
REMARK VINA RESULT:      -9.3      3.210      8.976
REMARK SMILES Cc1ccc(Nc2c(F)cccc2I)c(CC(=O)OCCOCCOCCOCCOC(=O)c2ccc(-c3c4nc(c(-c5cccc(S(=O)(=O)[O-])c5F)c5ccc([nH]5)c(-c5cccc(S(=O)(=O)[O-])c5F)c5nc(c(-c6cccc(S(=O)(=O)[O-])c6F)c6ccc3[nH]6)C=C5)C=C4)cc2)c1
REMARK SMILES IDX 25 1 24 2 23 3 22 4 21 5 20 6 19 7 17 8 18 9 16 10 15 11
REMARK SMILES IDX 1 12 2 13 3 14 97 15 4 16 5 17 6 18 7 20 8 21 13 22 9 23
REMARK SMILES IDX 10 24 12 25 14 26 11 27 26 28 27 29 28 30 29 31 30 32 31 33
REMARK SMILES IDX 32 34 33 35 34 36 35 37 96 38 36 39 95 40 37 41 38 42 39 43
REMARK SMILES IDX 89 44 40 45 94 46 88 47 90 48 41 49 93 50 87 51 86 52 42 54
REMARK SMILES IDX 74 55 54 56 73 57 55 58 58 59 72 60 91 61 56 62 57 63 71 65
REMARK SMILES IDX 92 66 59 67 43 68 44 69 52 70 45 71 47 72 53 73 46 74 48 75
REMARK SMILES IDX 49 76 50 77 51 78 75 79 76 80 84 81 77 82 79 83 85 84 78 85
REMARK SMILES IDX 80 86 81 87 82 88 83 89 60 90 61 91 69 92 62 93 64 94 70 95
REMARK SMILES IDX 63 96 65 97 66 98 67 99 68 100
REMARK H PARENT 6 19 90 53 58 64
REMARK Flexibility Score: inf
ROOT
ATOM      1  O   UNL A   1      41.465  19.523  25.858  1.00  0.00    -0.377 OA
ENDROOT
BRANCH   1   2
ATOM      2  C   UNL A   1      40.163  20.006  26.144  1.00  0.00     0.188 C 
BRANCH   2   3
ATOM      3  C   UNL A   1      40.335  21.318  26.778  1.00  0.00     0.188 C 
BRANCH   3   4
ATOM      4  O   UNL A   1      39.106  21.983  26.903  1.00  0.00    -0.376 OA
BRANCH   4   5
ATOM      5  C   UNL A   1      38.833  22.602  25.685  1.00  0.00     0.202 C 
BRANCH   5   6
ATOM      6  C   UNL A   1      37.528  23.419  25.720  1.00  0.00     0.261 C 
BRANCH   6   7
ATOM      7  O   UNL A   1      36.436  22.919  26.536  1.00  0.00    -0.463 OA
BRANCH   7   8
ATOM      8  C   UNL A   1      35.200  23.130  26.023  1.00  0.00     0.310 C 
ATOM      9  O   UNL A   1      34.784  24.220  25.645  1.00  0.00    -0.252 OA
BRANCH   8  10
ATOM     10  C   UNL A   1      34.313  21.907  25.991  1.00  0.00     0.160 C 
BRANCH  10  11
ATOM     11  C   UNL A   1      33.574  21.424  24.733  1.00  0.00    -0.013 A 
ATOM     12  C   UNL A   1      32.640  17.818  23.653  1.00  0.00     0.044 C 
ATOM     13  C   UNL A   1      32.795  19.310  23.658  1.00  0.00    -0.051 A 
ATOM     14  C   UNL A   1      32.149  20.067  22.700  1.00  0.00     0.005 A 
ATOM     15  C   UNL A   1      33.539  19.989  24.628  1.00  0.00     0.009 A 
ATOM     16  C   UNL A   1      32.215  21.465  22.741  1.00  0.00     0.026 A 
ATOM     17  C   UNL A   1      32.864  22.210  23.756  1.00  0.00     0.042 A 
BRANCH  17  18
ATOM     18  N   UNL A   1      32.855  23.667  23.679  1.00  0.00    -0.352 N 
ATOM     19  H   UNL A   1      33.728  24.085  23.500  1.00  0.00     0.167 HD
BRANCH  18  20
ATOM     20  C   UNL A   1      31.736  24.598  23.828  1.00  0.00     0.088 A 
ATOM     21  C   UNL A   1      31.404  25.514  22.818  1.00  0.00     0.147 A 
ATOM     22  C   UNL A   1      31.050  24.830  25.055  1.00  0.00     0.040 A 
ATOM     23  F   UNL A   1      31.759  25.261  21.548  1.00  0.00    -0.205 F 
ATOM     24  C   UNL A   1      30.666  26.686  23.047  1.00  0.00     0.041 A 
ATOM     25  C   UNL A   1      30.382  26.055  25.324  1.00  0.00     0.017 A 
ATOM     26  I   UNL A   1      30.675  23.326  26.498  1.00  0.00    -0.042 I 
ATOM     27  C   UNL A   1      30.218  26.999  24.321  1.00  0.00     0.004 A 
ENDBRANCH  18  20
ENDBRANCH  17  18
ENDBRANCH  10  11
ENDBRANCH   8  10
ENDBRANCH   7   8
ENDBRANCH   6   7
ENDBRANCH   5   6
ENDBRANCH   4   5
ENDBRANCH   3   4
ENDBRANCH   2   3
ENDBRANCH   1   2
BRANCH   1  28
ATOM     28  C   UNL A   1      42.196  19.197  27.015  1.00  0.00     0.188 C 
BRANCH  28  29
ATOM     29  C   UNL A   1      43.093  17.945  26.794  1.00  0.00     0.188 C 
BRANCH  29  30
ATOM     30  O   UNL A   1      43.585  17.859  25.469  1.00  0.00    -0.376 OA
BRANCH  30  31
ATOM     31  C   UNL A   1      44.866  18.458  25.432  1.00  0.00     0.202 C 
BRANCH  31  32
ATOM     32  C   UNL A   1      45.098  19.377  24.201  1.00  0.00     0.261 C 
BRANCH  32  33
ATOM     33  O   UNL A   1      44.786  20.904  24.091  1.00  0.00    -0.460 OA
BRANCH  33  34
ATOM     34  C   UNL A   1      44.487  22.226  24.079  1.00  0.00     0.338 C 
ATOM     35  O   UNL A   1      44.936  22.867  23.126  1.00  0.00    -0.246 OA
BRANCH  34  36
ATOM     36  C   UNL A   1      43.682  23.048  25.110  1.00  0.00     0.060 A 
ATOM     37  C   UNL A   1      43.046  24.205  24.669  1.00  0.00     0.016 A 
ATOM     38  C   UNL A   1      43.541  22.855  26.477  1.00  0.00     0.016 A 
ATOM     39  C   UNL A   1      42.906  25.330  25.517  1.00  0.00     0.010 A 
ATOM     40  C   UNL A   1      43.547  23.989  27.321  1.00  0.00     0.010 A 
ATOM     41  C   UNL A   1      43.439  25.278  26.786  1.00  0.00    -0.014 A 
BRANCH  41  42
ATOM     42  C   UNL A   1      44.036  26.434  27.527  1.00  0.00     0.031 A 
ATOM     43  C   UNL A   1      43.135  27.625  27.831  1.00  0.00     0.074 A 
ATOM     44  C   UNL A   1      45.202  26.229  28.227  1.00  0.00     0.049 A 
ATOM     45  N   UNL A   1      43.398  28.636  28.602  1.00  0.00    -0.248 NA
ATOM     46  C   UNL A   1      41.790  27.741  27.252  1.00  0.00     0.031 C 
ATOM     47  C   UNL A   1      45.464  26.727  29.574  1.00  0.00     0.029 A 
ATOM     48  N   UNL A   1      46.338  25.440  28.053  1.00  0.00    -0.354 N 
ATOM     49  C   UNL A   1      42.204  29.329  28.865  1.00  0.00     0.074 A 
ATOM     50  C   UNL A   1      41.259  28.770  27.929  1.00  0.00     0.031 C 
ATOM     51  C   UNL A   1      46.610  26.280  30.091  1.00  0.00     0.029 A 
ATOM     52  C   UNL A   1      47.353  25.774  28.986  1.00  0.00     0.049 A 
ATOM     53  H   UNL A   1      46.424  24.738  27.368  1.00  0.00     0.167 HD
ATOM     54  C   UNL A   1      42.097  30.168  29.952  1.00  0.00     0.034 A 
ATOM     55  C   UNL A   1      48.521  26.426  28.683  1.00  0.00     0.034 A 
ATOM     56  C   UNL A   1      43.426  30.474  30.563  1.00  0.00     0.049 A 
ATOM     57  C   UNL A   1      48.474  27.976  28.828  1.00  0.00     0.074 A 
ATOM     58  C   UNL A   1      43.952  30.626  31.847  1.00  0.00     0.029 A 
ATOM     59  N   UNL A   1      44.536  30.540  29.731  1.00  0.00    -0.354 N 
ATOM     60  N   UNL A   1      47.639  28.685  29.565  1.00  0.00    -0.248 NA
ATOM     61  C   UNL A   1      49.386  28.843  28.083  1.00  0.00     0.031 C 
ATOM     62  C   UNL A   1      45.383  30.655  31.760  1.00  0.00     0.029 A 
ATOM     63  C   UNL A   1      45.720  30.671  30.422  1.00  0.00     0.049 A 
ATOM     64  H   UNL A   1      44.483  30.497  28.749  1.00  0.00     0.167 HD
ATOM     65  C   UNL A   1      47.747  30.033  29.240  1.00  0.00     0.074 A 
ATOM     66  C   UNL A   1      48.888  30.065  28.336  1.00  0.00     0.031 C 
ATOM     67  C   UNL A   1      46.886  31.036  29.643  1.00  0.00     0.034 A 
BRANCH  54  68
ATOM     68  C   UNL A   1      40.780  30.645  30.644  1.00  0.00     0.023 A 
ATOM     69  C   UNL A   1      40.734  32.014  31.019  1.00  0.00     0.012 A 
ATOM     70  C   UNL A   1      39.651  29.880  31.062  1.00  0.00     0.148 A 
ATOM     71  C   UNL A   1      39.714  32.579  31.800  1.00  0.00     0.002 A 
ATOM     72  C   UNL A   1      38.580  30.470  31.778  1.00  0.00     0.091 A 
ATOM     73  F   UNL A   1      39.612  28.564  30.821  1.00  0.00    -0.205 F 
ATOM     74  C   UNL A   1      38.631  31.811  32.174  1.00  0.00     0.022 A 
BRANCH  72  75
ATOM     75  S   UNL A   1      37.043  29.618  32.226  1.00  0.00     0.127 S 
ATOM     76  O   UNL A   1      36.207  30.708  32.731  1.00  0.00    -0.237 OA
ATOM     77  O   UNL A   1      36.601  29.078  30.938  1.00  0.00    -0.237 OA
ATOM     78  O   UNL A   1      37.405  28.610  33.213  1.00  0.00    -0.744 OA
ENDBRANCH  72  75
ENDBRANCH  54  68
BRANCH  55  79
ATOM     79  C   UNL A   1      49.353  25.567  27.783  1.00  0.00     0.023 A 
ATOM     80  C   UNL A   1      49.050  25.727  26.398  1.00  0.00     0.012 A 
ATOM     81  C   UNL A   1      50.674  25.349  28.171  1.00  0.00     0.148 A 
ATOM     82  C   UNL A   1      50.063  25.956  25.465  1.00  0.00     0.002 A 
ATOM     83  C   UNL A   1      51.667  25.692  27.265  1.00  0.00     0.091 A 
ATOM     84  F   UNL A   1      50.933  25.106  29.463  1.00  0.00    -0.205 F 
ATOM     85  C   UNL A   1      51.373  25.988  25.914  1.00  0.00     0.022 A 
BRANCH  83  86
ATOM     86  S   UNL A   1      53.087  26.599  27.881  1.00  0.00     0.127 S 
ATOM     87  O   UNL A   1      54.213  25.996  27.182  1.00  0.00    -0.237 OA
ATOM     88  O   UNL A   1      52.677  27.914  27.396  1.00  0.00    -0.237 OA
ATOM     89  O   UNL A   1      53.082  26.444  29.327  1.00  0.00    -0.744 OA
ENDBRANCH  83  86
ENDBRANCH  55  79
BRANCH  67  90
ATOM     90  C   UNL A   1      46.945  32.526  29.236  1.00  0.00     0.023 A 
ATOM     91  C   UNL A   1      47.499  33.495  30.083  1.00  0.00     0.012 A 
ATOM     92  C   UNL A   1      46.375  33.027  28.017  1.00  0.00     0.148 A 
ATOM     93  C   UNL A   1      47.652  34.829  29.680  1.00  0.00     0.002 A 
ATOM     94  C   UNL A   1      46.489  34.360  27.635  1.00  0.00     0.091 A 
ATOM     95  F   UNL A   1      45.664  32.232  27.215  1.00  0.00    -0.205 F 
ATOM     96  C   UNL A   1      47.173  35.257  28.449  1.00  0.00     0.022 A 
BRANCH  94  97
ATOM     97  S   UNL A   1      45.737  35.017  26.132  1.00  0.00     0.127 S 
ATOM     98  O   UNL A   1      44.320  34.730  26.367  1.00  0.00    -0.237 OA
ATOM     99  O   UNL A   1      46.092  36.434  26.215  1.00  0.00    -0.237 OA
ATOM    100  O   UNL A   1      46.331  34.301  25.013  1.00  0.00    -0.744 OA
ENDBRANCH  94  97
ENDBRANCH  67  90
ENDBRANCH  41  42
ENDBRANCH  34  36
ENDBRANCH  33  34
ENDBRANCH  32  33
ENDBRANCH  31  32
ENDBRANCH  30  31
ENDBRANCH  29  30
ENDBRANCH  28  29
ENDBRANCH   1  28
TORSDOF 26
ENDMDL
