MODEL 1
REMARK VINA RESULT:      -8.6      0.000      0.000
REMARK SMILES O=C(OCCOCCOCCOCCOC(=O)[C@@H]1CCC[N@@H+](Cc2ccc(F)cc2Cl)C1)c1ccc(-c2c3nc(c(-c4cccc(S(=O)(=O)[O-])c4F)c4ccc([nH]4)c(-c4cccc(S(=O)(=O)[O-])c4F)c4nc(c(-c5cccc(S(=O)(=O)[O-])c5F)c5ccc2[nH]5)C=C4)C=C3)cc1
REMARK SMILES IDX 8 1 7 2 6 3 5 4 4 5 3 6 2 7 1 8 33 9 34 10 95 11 35 12 94 13
REMARK SMILES IDX 36 14 37 15 38 16 88 17 39 18 93 19 87 20 89 21 40 22 92 23
REMARK SMILES IDX 86 24 85 25 41 27 73 28 53 29 72 30 54 31 57 32 71 33 90 34
REMARK SMILES IDX 55 35 56 36 70 38 91 39 58 40 42 41 43 42 51 43 44 44 46 45
REMARK SMILES IDX 52 46 45 47 47 48 48 49 49 50 50 51 74 52 75 53 83 54 76 55
REMARK SMILES IDX 78 56 84 57 77 58 79 59 80 60 81 61 82 62 59 63 60 64 68 65
REMARK SMILES IDX 61 66 63 67 69 68 62 69 64 70 65 71 66 72 67 73 9 74 10 75
REMARK SMILES IDX 11 76 12 77 13 78 14 79 15 80 16 81 17 82 18 83 19 84 32 85
REMARK SMILES IDX 20 86 22 87 21 88 23 90 24 91 25 92 30 93 26 94 29 95 31 96
REMARK SMILES IDX 27 97 28 98
REMARK H PARENT 89 26 57 37 22 89
REMARK Flexibility Score: inf
ROOT
ATOM      1  C   UNL A   1      45.550  19.989  40.706  1.00  0.00     0.188 C 
ENDROOT
BRANCH   1   2
ATOM      2  C   UNL A   1      46.369  20.967  39.866  1.00  0.00     0.188 C 
BRANCH   2   3
ATOM      3  O   UNL A   1      46.171  20.739  38.476  1.00  0.00    -0.376 OA
BRANCH   3   4
ATOM      4  C   UNL A   1      46.629  19.546  37.860  1.00  0.00     0.202 C 
BRANCH   4   5
ATOM      5  C   UNL A   1      45.666  18.817  36.929  1.00  0.00     0.261 C 
BRANCH   5   6
ATOM      6  O   UNL A   1      45.765  19.094  35.521  1.00  0.00    -0.460 OA
BRANCH   6   7
ATOM      7  C   UNL A   1      46.363  20.051  34.778  1.00  0.00     0.338 C 
ATOM      8  O   UNL A   1      47.406  19.741  34.200  1.00  0.00    -0.246 OA
BRANCH   7   9
ATOM      9  C   UNL A   1      45.897  21.463  34.634  1.00  0.00     0.060 A 
ATOM     10  C   UNL A   1      44.584  21.912  34.735  1.00  0.00     0.016 A 
ATOM     11  C   UNL A   1      46.898  22.432  34.456  1.00  0.00     0.016 A 
ATOM     12  C   UNL A   1      44.238  23.239  34.559  1.00  0.00     0.010 A 
ATOM     13  C   UNL A   1      46.571  23.780  34.299  1.00  0.00     0.010 A 
ATOM     14  C   UNL A   1      45.228  24.170  34.288  1.00  0.00    -0.014 A 
BRANCH  14  15
ATOM     15  C   UNL A   1      44.806  25.460  33.726  1.00  0.00     0.031 A 
ATOM     16  C   UNL A   1      44.393  25.464  32.286  1.00  0.00     0.074 A 
ATOM     17  C   UNL A   1      44.668  26.537  34.515  1.00  0.00     0.049 A 
ATOM     18  N   UNL A   1      44.112  26.469  31.507  1.00  0.00    -0.248 NA
ATOM     19  C   UNL A   1      44.282  24.147  31.629  1.00  0.00     0.031 C 
ATOM     20  C   UNL A   1      44.898  26.563  35.962  1.00  0.00     0.029 A 
ATOM     21  N   UNL A   1      44.290  27.814  34.212  1.00  0.00    -0.354 N 
ATOM     22  C   UNL A   1      43.886  25.914  30.255  1.00  0.00     0.074 A 
ATOM     23  C   UNL A   1      44.035  24.484  30.376  1.00  0.00     0.031 C 
ATOM     24  C   UNL A   1      44.660  27.802  36.421  1.00  0.00     0.029 A 
ATOM     25  C   UNL A   1      44.349  28.666  35.289  1.00  0.00     0.049 A 
ATOM     26  H   UNL A   1      44.004  28.097  33.313  1.00  0.00     0.167 HD
ATOM     27  C   UNL A   1      43.594  26.556  29.104  1.00  0.00     0.034 A 
ATOM     28  C   UNL A   1      44.223  30.005  35.326  1.00  0.00     0.034 A 
ATOM     29  C   UNL A   1      43.427  27.980  29.041  1.00  0.00     0.049 A 
ATOM     30  C   UNL A   1      43.963  30.710  34.022  1.00  0.00     0.074 A 
ATOM     31  C   UNL A   1      43.168  28.775  27.945  1.00  0.00     0.029 A 
ATOM     32  N   UNL A   1      43.511  28.820  30.145  1.00  0.00    -0.354 N 
ATOM     33  N   UNL A   1      43.781  30.193  32.827  1.00  0.00    -0.248 NA
ATOM     34  C   UNL A   1      43.884  32.173  34.064  1.00  0.00     0.031 C 
ATOM     35  C   UNL A   1      43.130  30.103  28.383  1.00  0.00     0.029 A 
ATOM     36  C   UNL A   1      43.320  30.130  29.759  1.00  0.00     0.049 A 
ATOM     37  H   UNL A   1      43.681  28.523  31.068  1.00  0.00     0.167 HD
ATOM     38  C   UNL A   1      43.542  31.263  31.978  1.00  0.00     0.074 A 
ATOM     39  C   UNL A   1      43.580  32.458  32.804  1.00  0.00     0.031 C 
ATOM     40  C   UNL A   1      43.326  31.273  30.638  1.00  0.00     0.034 A 
BRANCH  27  41
ATOM     41  C   UNL A   1      43.517  25.724  27.853  1.00  0.00     0.023 A 
ATOM     42  C   UNL A   1      42.289  25.179  27.424  1.00  0.00     0.012 A 
ATOM     43  C   UNL A   1      44.691  25.429  27.131  1.00  0.00     0.148 A 
ATOM     44  C   UNL A   1      42.238  24.315  26.329  1.00  0.00     0.002 A 
ATOM     45  C   UNL A   1      44.625  24.607  26.012  1.00  0.00     0.091 A 
ATOM     46  F   UNL A   1      45.854  25.927  27.573  1.00  0.00    -0.205 F 
ATOM     47  C   UNL A   1      43.405  24.036  25.621  1.00  0.00     0.022 A 
BRANCH  45  48
ATOM     48  S   UNL A   1      46.064  24.244  25.001  1.00  0.00     0.127 S 
ATOM     49  O   UNL A   1      46.911  23.512  25.951  1.00  0.00    -0.237 OA
ATOM     50  O   UNL A   1      45.483  23.408  23.944  1.00  0.00    -0.237 OA
ATOM     51  O   UNL A   1      46.583  25.517  24.556  1.00  0.00    -0.744 OA
ENDBRANCH  45  48
ENDBRANCH  27  41
BRANCH  28  52
ATOM     52  C   UNL A   1      44.372  30.743  36.613  1.00  0.00     0.023 A 
ATOM     53  C   UNL A   1      45.655  31.108  37.064  1.00  0.00     0.012 A 
ATOM     54  C   UNL A   1      43.247  31.117  37.378  1.00  0.00     0.148 A 
ATOM     55  C   UNL A   1      45.815  31.809  38.262  1.00  0.00     0.002 A 
ATOM     56  C   UNL A   1      43.410  31.863  38.539  1.00  0.00     0.091 A 
ATOM     57  F   UNL A   1      42.034  30.748  36.944  1.00  0.00    -0.205 F 
ATOM     58  C   UNL A   1      44.695  32.195  38.992  1.00  0.00     0.022 A 
BRANCH  56  59
ATOM     59  S   UNL A   1      42.020  32.510  39.477  1.00  0.00     0.127 S 
ATOM     60  O   UNL A   1      41.989  31.608  40.625  1.00  0.00    -0.237 OA
ATOM     61  O   UNL A   1      42.467  33.871  39.774  1.00  0.00    -0.237 OA
ATOM     62  O   UNL A   1      40.871  32.435  38.584  1.00  0.00    -0.744 OA
ENDBRANCH  56  59
ENDBRANCH  28  52
BRANCH  40  63
ATOM     63  C   UNL A   1      43.068  32.608  30.000  1.00  0.00     0.023 A 
ATOM     64  C   UNL A   1      41.803  33.214  30.120  1.00  0.00     0.012 A 
ATOM     65  C   UNL A   1      44.118  33.298  29.366  1.00  0.00     0.148 A 
ATOM     66  C   UNL A   1      41.580  34.482  29.589  1.00  0.00     0.002 A 
ATOM     67  C   UNL A   1      43.904  34.584  28.893  1.00  0.00     0.091 A 
ATOM     68  F   UNL A   1      45.307  32.688  29.250  1.00  0.00    -0.205 F 
ATOM     69  C   UNL A   1      42.633  35.172  28.990  1.00  0.00     0.022 A 
BRANCH  67  70
ATOM     70  S   UNL A   1      45.230  35.586  28.217  1.00  0.00     0.127 S 
ATOM     71  O   UNL A   1      45.579  34.840  27.008  1.00  0.00    -0.237 OA
ATOM     72  O   UNL A   1      44.559  36.864  27.975  1.00  0.00    -0.237 OA
ATOM     73  O   UNL A   1      46.265  35.631  29.242  1.00  0.00    -0.744 OA
ENDBRANCH  67  70
ENDBRANCH  40  63
ENDBRANCH  14  15
ENDBRANCH   7   9
ENDBRANCH   6   7
ENDBRANCH   5   6
ENDBRANCH   4   5
ENDBRANCH   3   4
ENDBRANCH   2   3
ENDBRANCH   1   2
BRANCH   1  74
ATOM     74  O   UNL A   1      45.812  20.075  42.096  1.00  0.00    -0.377 OA
BRANCH  74  75
ATOM     75  C   UNL A   1      45.562  18.873  42.811  1.00  0.00     0.188 C 
BRANCH  75  76
ATOM     76  C   UNL A   1      46.730  18.230  43.596  1.00  0.00     0.188 C 
BRANCH  76  77
ATOM     77  O   UNL A   1      46.753  16.811  43.535  1.00  0.00    -0.376 OA
BRANCH  77  78
ATOM     78  C   UNL A   1      46.615  16.178  44.805  1.00  0.00     0.202 C 
BRANCH  78  79
ATOM     79  C   UNL A   1      46.984  14.688  44.763  1.00  0.00     0.261 C 
BRANCH  79  80
ATOM     80  O   UNL A   1      45.828  13.818  44.946  1.00  0.00    -0.463 OA
BRANCH  80  81
ATOM     81  C   UNL A   1      45.703  13.199  46.134  1.00  0.00     0.314 C 
ATOM     82  O   UNL A   1      46.111  13.693  47.182  1.00  0.00    -0.252 OA
BRANCH  81  83
ATOM     83  C   UNL A   1      44.984  11.833  46.106  1.00  0.00     0.154 C 
ATOM     84  C   UNL A   1      45.385  10.646  45.195  1.00  0.00     0.027 C 
ATOM     85  C   UNL A   1      43.498  12.138  45.938  1.00  0.00     0.277 C 
ATOM     86  C   UNL A   1      44.499  10.316  43.963  1.00  0.00     0.062 C 
ATOM     87  N   UNL A   1      43.238  12.330  44.517  1.00  0.00    -0.330 N 
ATOM     88  C   UNL A   1      43.169  11.062  43.819  1.00  0.00     0.262 C 
ATOM     89  H   UNL A   1      44.058  12.808  44.144  1.00  0.00     0.348 HD
BRANCH  87  90
ATOM     90  C   UNL A   1      42.215  13.321  44.173  1.00  0.00     0.300 C 
BRANCH  90  91
ATOM     91  C   UNL A   1      42.470  14.084  42.897  1.00  0.00     0.025 A 
ATOM     92  C   UNL A   1      43.336  15.194  42.937  1.00  0.00     0.014 A 
ATOM     93  C   UNL A   1      41.850  13.760  41.677  1.00  0.00     0.052 A 
ATOM     94  C   UNL A   1      43.499  16.014  41.826  1.00  0.00     0.040 A 
ATOM     95  C   UNL A   1      42.041  14.565  40.554  1.00  0.00     0.060 A 
ATOM     96  Cl  UNL A   1      40.815  12.388  41.497  1.00  0.00    -0.084 Cl
ATOM     97  C   UNL A   1      42.842  15.696  40.649  1.00  0.00     0.124 A 
ATOM     98  F   UNL A   1      42.977  16.501  39.588  1.00  0.00    -0.207 F 
ENDBRANCH  90  91
ENDBRANCH  87  90
ENDBRANCH  81  83
ENDBRANCH  80  81
ENDBRANCH  79  80
ENDBRANCH  78  79
ENDBRANCH  77  78
ENDBRANCH  76  77
ENDBRANCH  75  76
ENDBRANCH  74  75
ENDBRANCH   1  74
TORSDOF 25
ENDMDL
MODEL 2
REMARK VINA RESULT:      -8.3     10.768     15.644
REMARK SMILES O=C(OCCOCCOCCOCCOC(=O)[C@@H]1CCC[N@@H+](Cc2ccc(F)cc2Cl)C1)c1ccc(-c2c3nc(c(-c4cccc(S(=O)(=O)[O-])c4F)c4ccc([nH]4)c(-c4cccc(S(=O)(=O)[O-])c4F)c4nc(c(-c5cccc(S(=O)(=O)[O-])c5F)c5ccc2[nH]5)C=C4)C=C3)cc1
REMARK SMILES IDX 8 1 7 2 6 3 5 4 4 5 3 6 2 7 1 8 33 9 34 10 95 11 35 12 94 13
REMARK SMILES IDX 36 14 37 15 38 16 88 17 39 18 93 19 87 20 89 21 40 22 92 23
REMARK SMILES IDX 86 24 85 25 41 27 73 28 53 29 72 30 54 31 57 32 71 33 90 34
REMARK SMILES IDX 55 35 56 36 70 38 91 39 58 40 42 41 43 42 51 43 44 44 46 45
REMARK SMILES IDX 52 46 45 47 47 48 48 49 49 50 50 51 74 52 75 53 83 54 76 55
REMARK SMILES IDX 78 56 84 57 77 58 79 59 80 60 81 61 82 62 59 63 60 64 68 65
REMARK SMILES IDX 61 66 63 67 69 68 62 69 64 70 65 71 66 72 67 73 9 74 10 75
REMARK SMILES IDX 11 76 12 77 13 78 14 79 15 80 16 81 17 82 18 83 19 84 32 85
REMARK SMILES IDX 20 86 22 87 21 88 23 90 24 91 25 92 30 93 26 94 29 95 31 96
REMARK SMILES IDX 27 97 28 98
REMARK H PARENT 89 26 57 37 22 89
REMARK Flexibility Score: inf
ROOT
ATOM      1  C   UNL A   1      47.361  25.842  25.237  1.00  0.00     0.188 C 
ENDROOT
BRANCH   1   2
ATOM      2  C   UNL A   1      46.040  25.109  25.015  1.00  0.00     0.188 C 
BRANCH   2   3
ATOM      3  O   UNL A   1      45.949  23.955  25.841  1.00  0.00    -0.376 OA
BRANCH   3   4
ATOM      4  C   UNL A   1      45.280  22.787  25.393  1.00  0.00     0.202 C 
BRANCH   4   5
ATOM      5  C   UNL A   1      44.193  22.956  24.337  1.00  0.00     0.261 C 
BRANCH   5   6
ATOM      6  O   UNL A   1      42.828  22.776  24.752  1.00  0.00    -0.460 OA
BRANCH   6   7
ATOM      7  C   UNL A   1      42.145  22.994  25.896  1.00  0.00     0.338 C 
ATOM      8  O   UNL A   1      41.641  22.011  26.443  1.00  0.00    -0.246 OA
BRANCH   7   9
ATOM      9  C   UNL A   1      41.907  24.324  26.533  1.00  0.00     0.060 A 
ATOM     10  C   UNL A   1      41.718  25.533  25.869  1.00  0.00     0.016 A 
ATOM     11  C   UNL A   1      41.786  24.332  27.932  1.00  0.00     0.016 A 
ATOM     12  C   UNL A   1      41.531  26.727  26.541  1.00  0.00     0.010 A 
ATOM     13  C   UNL A   1      41.574  25.523  28.628  1.00  0.00     0.010 A 
ATOM     14  C   UNL A   1      41.511  26.732  27.927  1.00  0.00    -0.014 A 
BRANCH  14  15
ATOM     15  C   UNL A   1      41.706  28.022  28.600  1.00  0.00     0.031 A 
ATOM     16  C   UNL A   1      43.123  28.457  28.825  1.00  0.00     0.074 A 
ATOM     17  C   UNL A   1      40.661  28.822  28.863  1.00  0.00     0.049 A 
ATOM     18  N   UNL A   1      43.581  29.467  29.507  1.00  0.00    -0.248 NA
ATOM     19  C   UNL A   1      44.171  27.633  28.193  1.00  0.00     0.031 C 
ATOM     20  C   UNL A   1      39.266  28.532  28.522  1.00  0.00     0.029 A 
ATOM     21  N   UNL A   1      40.612  30.047  29.467  1.00  0.00    -0.354 N 
ATOM     22  C   UNL A   1      44.964  29.344  29.463  1.00  0.00     0.074 A 
ATOM     23  C   UNL A   1      45.275  28.181  28.669  1.00  0.00     0.031 C 
ATOM     24  C   UNL A   1      38.494  29.553  28.929  1.00  0.00     0.029 A 
ATOM     25  C   UNL A   1      39.331  30.518  29.632  1.00  0.00     0.049 A 
ATOM     26  H   UNL A   1      41.412  30.542  29.755  1.00  0.00     0.167 HD
ATOM     27  C   UNL A   1      45.885  30.135  30.054  1.00  0.00     0.034 A 
ATOM     28  C   UNL A   1      38.896  31.582  30.331  1.00  0.00     0.034 A 
ATOM     29  C   UNL A   1      45.524  31.300  30.810  1.00  0.00     0.049 A 
ATOM     30  C   UNL A   1      39.933  32.414  31.036  1.00  0.00     0.074 A 
ATOM     31  C   UNL A   1      46.339  32.176  31.495  1.00  0.00     0.029 A 
ATOM     32  N   UNL A   1      44.217  31.743  30.975  1.00  0.00    -0.354 N 
ATOM     33  N   UNL A   1      41.241  32.284  31.027  1.00  0.00    -0.248 NA
ATOM     34  C   UNL A   1      39.445  33.538  31.841  1.00  0.00     0.031 C 
ATOM     35  C   UNL A   1      45.519  33.130  32.106  1.00  0.00     0.029 A 
ATOM     36  C   UNL A   1      44.197  32.875  31.763  1.00  0.00     0.049 A 
ATOM     37  H   UNL A   1      43.422  31.312  30.587  1.00  0.00     0.167 HD
ATOM     38  C   UNL A   1      41.736  33.321  31.802  1.00  0.00     0.074 A 
ATOM     39  C   UNL A   1      40.584  34.085  32.248  1.00  0.00     0.031 C 
ATOM     40  C   UNL A   1      43.018  33.617  32.136  1.00  0.00     0.034 A 
BRANCH  27  41
ATOM     41  C   UNL A   1      47.324  29.709  29.950  1.00  0.00     0.023 A 
ATOM     42  C   UNL A   1      48.176  30.279  28.981  1.00  0.00     0.012 A 
ATOM     43  C   UNL A   1      47.816  28.686  30.785  1.00  0.00     0.148 A 
ATOM     44  C   UNL A   1      49.477  29.803  28.811  1.00  0.00     0.002 A 
ATOM     45  C   UNL A   1      49.128  28.251  30.642  1.00  0.00     0.091 A 
ATOM     46  F   UNL A   1      46.982  28.132  31.675  1.00  0.00    -0.205 F 
ATOM     47  C   UNL A   1      49.953  28.795  29.646  1.00  0.00     0.022 A 
BRANCH  45  48
ATOM     48  S   UNL A   1      49.848  27.002  31.714  1.00  0.00     0.127 S 
ATOM     49  O   UNL A   1      51.277  27.320  31.615  1.00  0.00    -0.237 OA
ATOM     50  O   UNL A   1      49.244  27.336  33.010  1.00  0.00    -0.237 OA
ATOM     51  O   UNL A   1      49.455  25.722  31.170  1.00  0.00    -0.744 OA
ENDBRANCH  45  48
ENDBRANCH  27  41
BRANCH  28  52
ATOM     52  C   UNL A   1      37.439  31.886  30.416  1.00  0.00     0.023 A 
ATOM     53  C   UNL A   1      36.709  31.494  31.554  1.00  0.00     0.012 A 
ATOM     54  C   UNL A   1      36.777  32.594  29.391  1.00  0.00     0.148 A 
ATOM     55  C   UNL A   1      35.346  31.780  31.659  1.00  0.00     0.002 A 
ATOM     56  C   UNL A   1      35.435  32.924  29.526  1.00  0.00     0.091 A 
ATOM     57  F   UNL A   1      37.482  32.946  28.306  1.00  0.00    -0.205 F 
ATOM     58  C   UNL A   1      34.712  32.503  30.652  1.00  0.00     0.022 A 
BRANCH  56  59
ATOM     59  S   UNL A   1      34.567  33.958  28.339  1.00  0.00     0.127 S 
ATOM     60  O   UNL A   1      33.440  33.107  27.969  1.00  0.00    -0.237 OA
ATOM     61  O   UNL A   1      34.219  35.122  29.154  1.00  0.00    -0.237 OA
ATOM     62  O   UNL A   1      35.526  34.232  27.278  1.00  0.00    -0.744 OA
ENDBRANCH  56  59
ENDBRANCH  28  52
BRANCH  40  63
ATOM     63  C   UNL A   1      43.237  34.839  32.981  1.00  0.00     0.023 A 
ATOM     64  C   UNL A   1      43.424  36.094  32.371  1.00  0.00     0.012 A 
ATOM     65  C   UNL A   1      43.158  34.747  34.383  1.00  0.00     0.148 A 
ATOM     66  C   UNL A   1      43.558  37.240  33.150  1.00  0.00     0.002 A 
ATOM     67  C   UNL A   1      43.234  35.900  35.149  1.00  0.00     0.091 A 
ATOM     68  F   UNL A   1      42.999  33.536  34.937  1.00  0.00    -0.205 F 
ATOM     69  C   UNL A   1      43.448  37.145  34.537  1.00  0.00     0.022 A 
BRANCH  67  70
ATOM     70  S   UNL A   1      42.985  35.884  36.927  1.00  0.00     0.127 S 
ATOM     71  O   UNL A   1      44.112  35.068  37.377  1.00  0.00    -0.237 OA
ATOM     72  O   UNL A   1      43.083  37.304  37.265  1.00  0.00    -0.237 OA
ATOM     73  O   UNL A   1      41.667  35.300  37.144  1.00  0.00    -0.744 OA
ENDBRANCH  67  70
ENDBRANCH  40  63
ENDBRANCH  14  15
ENDBRANCH   7   9
ENDBRANCH   6   7
ENDBRANCH   5   6
ENDBRANCH   4   5
ENDBRANCH   3   4
ENDBRANCH   2   3
ENDBRANCH   1   2
BRANCH   1  74
ATOM     74  O   UNL A   1      47.375  27.160  24.716  1.00  0.00    -0.377 OA
BRANCH  74  75
ATOM     75  C   UNL A   1      46.454  28.042  25.342  1.00  0.00     0.188 C 
BRANCH  75  76
ATOM     76  C   UNL A   1      46.933  29.469  25.700  1.00  0.00     0.188 C 
BRANCH  76  77
ATOM     77  O   UNL A   1      45.967  30.480  25.452  1.00  0.00    -0.376 OA
BRANCH  77  78
ATOM     78  C   UNL A   1      45.894  31.472  26.473  1.00  0.00     0.202 C 
BRANCH  78  79
ATOM     79  C   UNL A   1      44.522  32.160  26.530  1.00  0.00     0.261 C 
BRANCH  79  80
ATOM     80  O   UNL A   1      44.129  32.517  27.887  1.00  0.00    -0.463 OA
BRANCH  80  81
ATOM     81  C   UNL A   1      43.960  33.825  28.157  1.00  0.00     0.314 C 
ATOM     82  O   UNL A   1      42.894  34.283  28.561  1.00  0.00    -0.252 OA
BRANCH  81  83
ATOM     83  C   UNL A   1      45.204  34.718  27.956  1.00  0.00     0.154 C 
ATOM     84  C   UNL A   1      46.395  34.801  28.942  1.00  0.00     0.027 C 
ATOM     85  C   UNL A   1      44.678  36.118  27.656  1.00  0.00     0.277 C 
ATOM     86  C   UNL A   1      46.538  36.062  29.838  1.00  0.00     0.062 C 
ATOM     87  N   UNL A   1      44.388  36.770  28.927  1.00  0.00    -0.330 N 
ATOM     88  C   UNL A   1      45.600  37.242  29.565  1.00  0.00     0.262 C 
ATOM     89  H   UNL A   1      44.019  36.041  29.538  1.00  0.00     0.348 HD
BRANCH  87  90
ATOM     90  C   UNL A   1      43.244  37.685  28.940  1.00  0.00     0.300 C 
BRANCH  90  91
ATOM     91  C   UNL A   1      43.590  39.136  29.166  1.00  0.00     0.025 A 
ATOM     92  C   UNL A   1      43.528  39.648  30.477  1.00  0.00     0.014 A 
ATOM     93  C   UNL A   1      43.934  40.010  28.120  1.00  0.00     0.052 A 
ATOM     94  C   UNL A   1      43.702  41.005  30.723  1.00  0.00     0.040 A 
ATOM     95  C   UNL A   1      44.141  41.367  28.374  1.00  0.00     0.060 A 
ATOM     96  Cl  UNL A   1      44.096  39.482  26.483  1.00  0.00    -0.084 Cl
ATOM     97  C   UNL A   1      43.997  41.852  29.668  1.00  0.00     0.124 A 
ATOM     98  F   UNL A   1      44.136  43.162  29.901  1.00  0.00    -0.207 F 
ENDBRANCH  90  91
ENDBRANCH  87  90
ENDBRANCH  81  83
ENDBRANCH  80  81
ENDBRANCH  79  80
ENDBRANCH  78  79
ENDBRANCH  77  78
ENDBRANCH  76  77
ENDBRANCH  75  76
ENDBRANCH  74  75
ENDBRANCH   1  74
TORSDOF 25
ENDMDL
MODEL 3
REMARK VINA RESULT:      -8.2     10.851     14.366
REMARK SMILES O=C(OCCOCCOCCOCCOC(=O)[C@@H]1CCC[N@@H+](Cc2ccc(F)cc2Cl)C1)c1ccc(-c2c3nc(c(-c4cccc(S(=O)(=O)[O-])c4F)c4ccc([nH]4)c(-c4cccc(S(=O)(=O)[O-])c4F)c4nc(c(-c5cccc(S(=O)(=O)[O-])c5F)c5ccc2[nH]5)C=C4)C=C3)cc1
REMARK SMILES IDX 8 1 7 2 6 3 5 4 4 5 3 6 2 7 1 8 33 9 34 10 95 11 35 12 94 13
REMARK SMILES IDX 36 14 37 15 38 16 88 17 39 18 93 19 87 20 89 21 40 22 92 23
REMARK SMILES IDX 86 24 85 25 41 27 73 28 53 29 72 30 54 31 57 32 71 33 90 34
REMARK SMILES IDX 55 35 56 36 70 38 91 39 58 40 42 41 43 42 51 43 44 44 46 45
REMARK SMILES IDX 52 46 45 47 47 48 48 49 49 50 50 51 74 52 75 53 83 54 76 55
REMARK SMILES IDX 78 56 84 57 77 58 79 59 80 60 81 61 82 62 59 63 60 64 68 65
REMARK SMILES IDX 61 66 63 67 69 68 62 69 64 70 65 71 66 72 67 73 9 74 10 75
REMARK SMILES IDX 11 76 12 77 13 78 14 79 15 80 16 81 17 82 18 83 19 84 32 85
REMARK SMILES IDX 20 86 22 87 21 88 23 90 24 91 25 92 30 93 26 94 29 95 31 96
REMARK SMILES IDX 27 97 28 98
REMARK H PARENT 89 26 57 37 22 89
REMARK Flexibility Score: inf
ROOT
ATOM      1  C   UNL A   1      38.039  31.562  34.237  1.00  0.00     0.188 C 
ENDROOT
BRANCH   1   2
ATOM      2  C   UNL A   1      36.621  32.092  34.032  1.00  0.00     0.188 C 
BRANCH   2   3
ATOM      3  O   UNL A   1      36.050  31.576  32.837  1.00  0.00    -0.376 OA
BRANCH   3   4
ATOM      4  C   UNL A   1      35.542  32.444  31.837  1.00  0.00     0.202 C 
BRANCH   4   5
ATOM      5  C   UNL A   1      35.862  33.929  31.961  1.00  0.00     0.261 C 
BRANCH   5   6
ATOM      6  O   UNL A   1      37.120  34.385  31.433  1.00  0.00    -0.460 OA
BRANCH   6   7
ATOM      7  C   UNL A   1      38.335  34.647  31.961  1.00  0.00     0.338 C 
ATOM      8  O   UNL A   1      38.366  35.028  33.133  1.00  0.00    -0.246 OA
BRANCH   7   9
ATOM      9  C   UNL A   1      39.640  34.561  31.238  1.00  0.00     0.060 A 
ATOM     10  C   UNL A   1      40.883  34.307  31.811  1.00  0.00     0.016 A 
ATOM     11  C   UNL A   1      39.585  34.672  29.840  1.00  0.00     0.016 A 
ATOM     12  C   UNL A   1      42.049  34.273  31.067  1.00  0.00     0.010 A 
ATOM     13  C   UNL A   1      40.746  34.617  29.068  1.00  0.00     0.010 A 
ATOM     14  C   UNL A   1      41.988  34.481  29.698  1.00  0.00    -0.014 A 
BRANCH  14  15
ATOM     15  C   UNL A   1      43.240  34.827  29.012  1.00  0.00     0.031 A 
ATOM     16  C   UNL A   1      44.093  33.686  28.549  1.00  0.00     0.074 A 
ATOM     17  C   UNL A   1      43.517  36.103  28.697  1.00  0.00     0.049 A 
ATOM     18  N   UNL A   1      45.294  33.698  28.048  1.00  0.00    -0.248 NA
ATOM     19  C   UNL A   1      43.507  32.336  28.672  1.00  0.00     0.031 C 
ATOM     20  C   UNL A   1      42.651  37.251  28.974  1.00  0.00     0.029 A 
ATOM     21  N   UNL A   1      44.601  36.644  28.065  1.00  0.00    -0.354 N 
ATOM     22  C   UNL A   1      45.641  32.364  27.886  1.00  0.00     0.074 A 
ATOM     23  C   UNL A   1      44.519  31.565  28.315  1.00  0.00     0.031 C 
ATOM     24  C   UNL A   1      43.242  38.366  28.517  1.00  0.00     0.029 A 
ATOM     25  C   UNL A   1      44.560  38.016  27.999  1.00  0.00     0.049 A 
ATOM     26  H   UNL A   1      45.338  36.106  27.695  1.00  0.00     0.167 HD
ATOM     27  C   UNL A   1      46.807  31.860  27.429  1.00  0.00     0.034 A 
ATOM     28  C   UNL A   1      45.516  38.882  27.617  1.00  0.00     0.034 A 
ATOM     29  C   UNL A   1      47.883  32.699  26.986  1.00  0.00     0.049 A 
ATOM     30  C   UNL A   1      46.832  38.303  27.173  1.00  0.00     0.074 A 
ATOM     31  C   UNL A   1      49.135  32.337  26.534  1.00  0.00     0.029 A 
ATOM     32  N   UNL A   1      47.820  34.086  26.947  1.00  0.00    -0.354 N 
ATOM     33  N   UNL A   1      47.179  37.041  27.049  1.00  0.00    -0.248 NA
ATOM     34  C   UNL A   1      47.887  39.255  26.812  1.00  0.00     0.031 C 
ATOM     35  C   UNL A   1      49.842  33.511  26.255  1.00  0.00     0.029 A 
ATOM     36  C   UNL A   1      49.014  34.602  26.490  1.00  0.00     0.049 A 
ATOM     37  H   UNL A   1      47.037  34.623  27.208  1.00  0.00     0.167 HD
ATOM     38  C   UNL A   1      48.481  37.045  26.573  1.00  0.00     0.074 A 
ATOM     39  C   UNL A   1      48.853  38.440  26.410  1.00  0.00     0.031 C 
ATOM     40  C   UNL A   1      49.309  36.002  26.307  1.00  0.00     0.034 A 
BRANCH  27  41
ATOM     41  C   UNL A   1      46.971  30.365  27.467  1.00  0.00     0.023 A 
ATOM     42  C   UNL A   1      47.589  29.736  28.568  1.00  0.00     0.012 A 
ATOM     43  C   UNL A   1      46.562  29.584  26.368  1.00  0.00     0.148 A 
ATOM     44  C   UNL A   1      47.844  28.363  28.551  1.00  0.00     0.002 A 
ATOM     45  C   UNL A   1      46.774  28.211  26.380  1.00  0.00     0.091 A 
ATOM     46  F   UNL A   1      46.008  30.204  25.316  1.00  0.00    -0.205 F 
ATOM     47  C   UNL A   1      47.429  27.602  27.460  1.00  0.00     0.022 A 
BRANCH  45  48
ATOM     48  S   UNL A   1      46.217  27.142  25.048  1.00  0.00     0.127 S 
ATOM     49  O   UNL A   1      47.146  27.507  23.972  1.00  0.00    -0.237 OA
ATOM     50  O   UNL A   1      46.449  25.809  25.618  1.00  0.00    -0.237 OA
ATOM     51  O   UNL A   1      44.830  27.471  24.813  1.00  0.00    -0.744 OA
ENDBRANCH  45  48
ENDBRANCH  27  41
BRANCH  28  52
ATOM     52  C   UNL A   1      45.270  40.351  27.669  1.00  0.00     0.023 A 
ATOM     53  C   UNL A   1      45.285  41.018  28.909  1.00  0.00     0.012 A 
ATOM     54  C   UNL A   1      45.055  41.101  26.494  1.00  0.00     0.148 A 
ATOM     55  C   UNL A   1      45.068  42.396  28.979  1.00  0.00     0.002 A 
ATOM     56  C   UNL A   1      44.896  42.479  26.565  1.00  0.00     0.091 A 
ATOM     57  F   UNL A   1      45.027  40.450  25.322  1.00  0.00    -0.205 F 
ATOM     58  C   UNL A   1      44.885  43.127  27.809  1.00  0.00     0.022 A 
BRANCH  56  59
ATOM     59  S   UNL A   1      44.779  43.518  25.102  1.00  0.00     0.127 S 
ATOM     60  O   UNL A   1      45.893  43.024  24.296  1.00  0.00    -0.237 OA
ATOM     61  O   UNL A   1      43.451  43.172  24.595  1.00  0.00    -0.237 OA
ATOM     62  O   UNL A   1      44.904  44.888  25.579  1.00  0.00    -0.744 OA
ENDBRANCH  56  59
ENDBRANCH  28  52
BRANCH  40  63
ATOM     63  C   UNL A   1      50.671  36.335  25.769  1.00  0.00     0.023 A 
ATOM     64  C   UNL A   1      50.933  36.214  24.392  1.00  0.00     0.012 A 
ATOM     65  C   UNL A   1      51.655  36.859  26.627  1.00  0.00     0.148 A 
ATOM     66  C   UNL A   1      52.173  36.586  23.879  1.00  0.00     0.002 A 
ATOM     67  C   UNL A   1      52.866  37.283  26.100  1.00  0.00     0.091 A 
ATOM     68  F   UNL A   1      51.383  36.945  27.937  1.00  0.00    -0.205 F 
ATOM     69  C   UNL A   1      53.133  37.134  24.730  1.00  0.00     0.022 A 
BRANCH  67  70
ATOM     70  S   UNL A   1      54.108  38.106  27.100  1.00  0.00     0.127 S 
ATOM     71  O   UNL A   1      53.936  37.443  28.392  1.00  0.00    -0.237 OA
ATOM     72  O   UNL A   1      55.345  37.766  26.398  1.00  0.00    -0.237 OA
ATOM     73  O   UNL A   1      53.770  39.524  27.077  1.00  0.00    -0.744 OA
ENDBRANCH  67  70
ENDBRANCH  40  63
ENDBRANCH  14  15
ENDBRANCH   7   9
ENDBRANCH   6   7
ENDBRANCH   5   6
ENDBRANCH   4   5
ENDBRANCH   3   4
ENDBRANCH   2   3
ENDBRANCH   1   2
BRANCH   1  74
ATOM     74  O   UNL A   1      38.120  30.148  34.272  1.00  0.00    -0.377 OA
BRANCH  74  75
ATOM     75  C   UNL A   1      38.947  29.587  33.262  1.00  0.00     0.188 C 
BRANCH  75  76
ATOM     76  C   UNL A   1      38.393  28.406  32.431  1.00  0.00     0.188 C 
BRANCH  76  77
ATOM     77  O   UNL A   1      37.220  28.720  31.694  1.00  0.00    -0.376 OA
BRANCH  77  78
ATOM     78  C   UNL A   1      37.478  29.177  30.369  1.00  0.00     0.202 C 
BRANCH  78  79
ATOM     79  C   UNL A   1      38.866  28.759  29.861  1.00  0.00     0.261 C 
BRANCH  79  80
ATOM     80  O   UNL A   1      38.907  28.596  28.412  1.00  0.00    -0.463 OA
BRANCH  80  81
ATOM     81  C   UNL A   1      40.074  28.204  27.868  1.00  0.00     0.314 C 
ATOM     82  O   UNL A   1      40.298  28.282  26.663  1.00  0.00    -0.252 OA
BRANCH  81  83
ATOM     83  C   UNL A   1      41.131  27.673  28.859  1.00  0.00     0.154 C 
ATOM     84  C   UNL A   1      42.457  28.397  29.203  1.00  0.00     0.027 C 
ATOM     85  C   UNL A   1      41.419  26.233  28.445  1.00  0.00     0.277 C 
ATOM     86  C   UNL A   1      43.786  27.842  28.621  1.00  0.00     0.062 C 
ATOM     87  N   UNL A   1      42.406  26.263  27.373  1.00  0.00    -0.330 N 
ATOM     88  C   UNL A   1      43.738  26.496  27.892  1.00  0.00     0.262 C 
ATOM     89  H   UNL A   1      42.181  27.083  26.808  1.00  0.00     0.348 HD
BRANCH  87  90
ATOM     90  C   UNL A   1      42.277  25.229  26.343  1.00  0.00     0.300 C 
BRANCH  90  91
ATOM     91  C   UNL A   1      41.843  23.876  26.849  1.00  0.00     0.025 A 
ATOM     92  C   UNL A   1      42.829  22.980  27.308  1.00  0.00     0.014 A 
ATOM     93  C   UNL A   1      40.503  23.453  26.846  1.00  0.00     0.052 A 
ATOM     94  C   UNL A   1      42.503  21.674  27.655  1.00  0.00     0.040 A 
ATOM     95  C   UNL A   1      40.173  22.152  27.227  1.00  0.00     0.060 A 
ATOM     96  Cl  UNL A   1      39.205  24.484  26.360  1.00  0.00    -0.084 Cl
ATOM     97  C   UNL A   1      41.180  21.270  27.601  1.00  0.00     0.124 A 
ATOM     98  F   UNL A   1      40.870  20.005  27.908  1.00  0.00    -0.207 F 
ENDBRANCH  90  91
ENDBRANCH  87  90
ENDBRANCH  81  83
ENDBRANCH  80  81
ENDBRANCH  79  80
ENDBRANCH  78  79
ENDBRANCH  77  78
ENDBRANCH  76  77
ENDBRANCH  75  76
ENDBRANCH  74  75
ENDBRANCH   1  74
TORSDOF 25
ENDMDL
