MODEL 1
REMARK VINA RESULT:      -8.9      0.000      0.000
REMARK SMILES Cc1ccc(Cl)c(Nc2ccccc2C(=O)NCC(=O)OCCOCCOCCOCCOC(=O)c2ccc(-c3c4nc(c(-c5cccc(S(=O)(=O)[O-])c5F)c5ccc([nH]5)c(-c5cccc(S(=O)(=O)[O-])c5F)c5nc(c(-c6cccc(S(=O)(=O)[O-])c6F)c6ccc3[nH]6)C=C5)C=C4)cc2)c1Cl
REMARK SMILES IDX 26 1 25 2 24 3 23 4 22 5 21 6 19 7 20 8 18 9 17 10 15 11
REMARK SMILES IDX 16 12 14 14 9 15 10 16 11 17 13 18 12 19 8 20 7 22 1 23 2 24
REMARK SMILES IDX 3 25 99 26 4 27 100 28 5 29 6 30 27 31 28 32 29 33 30 34
REMARK SMILES IDX 31 35 32 36 33 37 34 38 35 39 36 40 37 41 98 42 38 43 97 44
REMARK SMILES IDX 39 45 40 46 41 47 91 48 42 49 96 50 90 51 92 52 43 53 95 54
REMARK SMILES IDX 89 55 88 56 44 58 76 59 56 60 75 61 57 62 60 63 74 64 93 65
REMARK SMILES IDX 58 66 59 67 73 69 94 70 61 71 45 72 46 73 54 74 47 75 49 76
REMARK SMILES IDX 55 77 48 78 50 79 51 80 52 81 53 82 77 83 78 84 86 85 79 86
REMARK SMILES IDX 81 87 87 88 80 89 82 90 83 91 84 92 85 93 62 94 63 95 71 96
REMARK SMILES IDX 64 97 66 98 72 99 65 100 67 101 68 102 69 103 70 104
REMARK H PARENT 17 13 8 21 92 57 60 68
REMARK Flexibility Score: inf
ROOT
ATOM      1  C   UNL A   1      34.125  28.886  26.562  1.00  0.00     0.188 C 
ENDROOT
BRANCH   1   2
ATOM      2  C   UNL A   1      32.708  28.719  27.144  1.00  0.00     0.188 C 
BRANCH   2   3
ATOM      3  O   UNL A   1      31.694  28.372  26.228  1.00  0.00    -0.376 OA
BRANCH   3   4
ATOM      4  C   UNL A   1      31.953  28.092  24.858  1.00  0.00     0.202 C 
BRANCH   4   5
ATOM      5  C   UNL A   1      31.169  27.113  23.974  1.00  0.00     0.261 C 
BRANCH   5   6
ATOM      6  O   UNL A   1      31.747  25.821  23.811  1.00  0.00    -0.462 OA
BRANCH   6   7
ATOM      7  C   UNL A   1      31.934  25.489  22.521  1.00  0.00     0.325 C 
ATOM      8  O   UNL A   1      31.460  26.103  21.563  1.00  0.00    -0.250 OA
BRANCH   7   9
ATOM      9  C   UNL A   1      32.932  24.392  22.267  1.00  0.00     0.239 C 
BRANCH   9  10
ATOM     10  N   UNL A   1      32.854  22.970  22.051  1.00  0.00    -0.341 N 
ATOM     11  C   UNL A   1      32.476  22.095  23.065  1.00  0.00     0.253 C 
ATOM     12  O   UNL A   1      32.036  20.979  22.801  1.00  0.00    -0.269 OA
ATOM     13  H   UNL A   1      33.075  22.608  21.163  1.00  0.00     0.164 HD
BRANCH  11  14
ATOM     14  C   UNL A   1      32.804  22.454  24.486  1.00  0.00     0.063 A 
ATOM     15  C   UNL A   1      34.034  22.239  25.157  1.00  0.00     0.051 A 
ATOM     16  C   UNL A   1      34.013  22.252  26.568  1.00  0.00     0.027 A 
ATOM     17  C   UNL A   1      32.849  22.535  27.287  1.00  0.00     0.002 A 
ATOM     18  C   UNL A   1      31.656  22.815  25.220  1.00  0.00     0.016 A 
ATOM     19  C   UNL A   1      31.679  22.855  26.612  1.00  0.00     0.001 A 
BRANCH  15  20
ATOM     20  N   UNL A   1      35.303  21.994  24.574  1.00  0.00    -0.352 N 
ATOM     21  H   UNL A   1      35.366  22.297  23.639  1.00  0.00     0.167 HD
BRANCH  20  22
ATOM     22  C   UNL A   1      36.501  21.405  25.053  1.00  0.00     0.077 A 
ATOM     23  C   UNL A   1      40.048  22.291  26.216  1.00  0.00     0.046 C 
ATOM     24  C   UNL A   1      38.847  21.508  25.758  1.00  0.00    -0.030 A 
ATOM     25  C   UNL A   1      38.980  20.129  25.532  1.00  0.00     0.006 A 
ATOM     26  C   UNL A   1      37.602  22.135  25.534  1.00  0.00     0.069 A 
ATOM     27  C   UNL A   1      37.878  19.370  25.163  1.00  0.00     0.023 A 
ATOM     28  Cl  UNL A   1      37.405  23.793  26.025  1.00  0.00    -0.082 Cl
ATOM     29  C   UNL A   1      36.650  19.998  24.952  1.00  0.00     0.066 A 
ATOM     30  Cl  UNL A   1      35.307  18.989  24.521  1.00  0.00    -0.082 Cl
ENDBRANCH  20  22
ENDBRANCH  15  20
ENDBRANCH  11  14
ENDBRANCH   9  10
ENDBRANCH   7   9
ENDBRANCH   6   7
ENDBRANCH   5   6
ENDBRANCH   4   5
ENDBRANCH   3   4
ENDBRANCH   2   3
ENDBRANCH   1   2
BRANCH   1  31
ATOM     31  O   UNL A   1      34.724  30.168  26.612  1.00  0.00    -0.377 OA
BRANCH  31  32
ATOM     32  C   UNL A   1      35.549  30.524  27.723  1.00  0.00     0.188 C 
BRANCH  32  33
ATOM     33  C   UNL A   1      35.365  31.858  28.484  1.00  0.00     0.188 C 
BRANCH  33  34
ATOM     34  O   UNL A   1      35.117  32.989  27.668  1.00  0.00    -0.376 OA
BRANCH  34  35
ATOM     35  C   UNL A   1      34.253  33.984  28.194  1.00  0.00     0.202 C 
BRANCH  35  36
ATOM     36  C   UNL A   1      34.089  33.995  29.721  1.00  0.00     0.261 C 
BRANCH  36  37
ATOM     37  O   UNL A   1      33.377  35.119  30.267  1.00  0.00    -0.460 OA
BRANCH  37  38
ATOM     38  C   UNL A   1      33.134  35.129  31.596  1.00  0.00     0.338 C 
ATOM     39  O   UNL A   1      32.070  35.367  32.146  1.00  0.00    -0.246 OA
BRANCH  38  40
ATOM     40  C   UNL A   1      34.325  34.582  32.279  1.00  0.00     0.060 A 
ATOM     41  C   UNL A   1      35.486  35.364  32.335  1.00  0.00     0.016 A 
ATOM     42  C   UNL A   1      34.298  33.313  32.861  1.00  0.00     0.016 A 
ATOM     43  C   UNL A   1      36.640  34.858  32.931  1.00  0.00     0.010 A 
ATOM     44  C   UNL A   1      35.462  32.797  33.439  1.00  0.00     0.010 A 
ATOM     45  C   UNL A   1      36.649  33.551  33.433  1.00  0.00    -0.014 A 
BRANCH  45  46
ATOM     46  C   UNL A   1      37.954  32.907  33.723  1.00  0.00     0.031 A 
ATOM     47  C   UNL A   1      38.583  33.155  35.068  1.00  0.00     0.074 A 
ATOM     48  C   UNL A   1      38.553  32.090  32.840  1.00  0.00     0.049 A 
ATOM     49  N   UNL A   1      39.693  32.678  35.567  1.00  0.00    -0.248 NA
ATOM     50  C   UNL A   1      37.857  34.063  35.971  1.00  0.00     0.031 C 
ATOM     51  C   UNL A   1      38.048  31.768  31.507  1.00  0.00     0.029 A 
ATOM     52  N   UNL A   1      39.733  31.395  32.934  1.00  0.00    -0.354 N 
ATOM     53  C   UNL A   1      39.809  33.241  36.833  1.00  0.00     0.074 A 
ATOM     54  C   UNL A   1      38.671  34.114  37.014  1.00  0.00     0.031 C 
ATOM     55  C   UNL A   1      38.931  30.960  30.894  1.00  0.00     0.029 A 
ATOM     56  C   UNL A   1      40.066  30.721  31.784  1.00  0.00     0.049 A 
ATOM     57  H   UNL A   1      40.286  31.382  33.747  1.00  0.00     0.167 HD
ATOM     58  C   UNL A   1      40.764  33.038  37.771  1.00  0.00     0.034 A 
ATOM     59  C   UNL A   1      41.171  30.009  31.481  1.00  0.00     0.034 A 
ATOM     60  C   UNL A   1      41.899  32.174  37.591  1.00  0.00     0.049 A 
ATOM     61  C   UNL A   1      42.238  29.816  32.529  1.00  0.00     0.074 A 
ATOM     62  C   UNL A   1      42.908  31.880  38.490  1.00  0.00     0.029 A 
ATOM     63  N   UNL A   1      42.187  31.480  36.426  1.00  0.00    -0.354 N 
ATOM     64  N   UNL A   1      42.279  30.262  33.762  1.00  0.00    -0.248 NA
ATOM     65  C   UNL A   1      43.391  28.984  32.156  1.00  0.00     0.031 C 
ATOM     66  C   UNL A   1      43.826  31.034  37.855  1.00  0.00     0.029 A 
ATOM     67  C   UNL A   1      43.364  30.766  36.576  1.00  0.00     0.049 A 
ATOM     68  H   UNL A   1      41.636  31.493  35.610  1.00  0.00     0.167 HD
ATOM     69  C   UNL A   1      43.441  29.739  34.322  1.00  0.00     0.074 A 
ATOM     70  C   UNL A   1      44.061  28.922  33.299  1.00  0.00     0.031 C 
ATOM     71  C   UNL A   1      43.955  29.926  35.564  1.00  0.00     0.034 A 
BRANCH  58  72
ATOM     72  C   UNL A   1      40.603  33.763  39.082  1.00  0.00     0.023 A 
ATOM     73  C   UNL A   1      41.382  34.910  39.349  1.00  0.00     0.012 A 
ATOM     74  C   UNL A   1      39.676  33.321  40.045  1.00  0.00     0.148 A 
ATOM     75  C   UNL A   1      41.276  35.574  40.570  1.00  0.00     0.002 A 
ATOM     76  C   UNL A   1      39.539  34.018  41.238  1.00  0.00     0.091 A 
ATOM     77  F   UNL A   1      38.963  32.216  39.785  1.00  0.00    -0.205 F 
ATOM     78  C   UNL A   1      40.348  35.134  41.510  1.00  0.00     0.022 A 
BRANCH  76  79
ATOM     79  S   UNL A   1      38.317  33.578  42.479  1.00  0.00     0.127 S 
ATOM     80  O   UNL A   1      38.903  32.369  43.055  1.00  0.00    -0.237 OA
ATOM     81  O   UNL A   1      38.341  34.746  43.360  1.00  0.00    -0.237 OA
ATOM     82  O   UNL A   1      37.066  33.386  41.759  1.00  0.00    -0.744 OA
ENDBRANCH  76  79
ENDBRANCH  58  72
BRANCH  59  83
ATOM     83  C   UNL A   1      41.311  29.403  30.128  1.00  0.00     0.023 A 
ATOM     84  C   UNL A   1      42.063  30.060  29.136  1.00  0.00     0.012 A 
ATOM     85  C   UNL A   1      40.718  28.159  29.830  1.00  0.00     0.148 A 
ATOM     86  C   UNL A   1      42.199  29.505  27.863  1.00  0.00     0.002 A 
ATOM     87  C   UNL A   1      40.906  27.584  28.579  1.00  0.00     0.091 A 
ATOM     88  F   UNL A   1      39.995  27.558  30.784  1.00  0.00    -0.205 F 
ATOM     89  C   UNL A   1      41.631  28.263  27.588  1.00  0.00     0.022 A 
BRANCH  87  90
ATOM     90  S   UNL A   1      40.323  25.935  28.176  1.00  0.00     0.127 S 
ATOM     91  O   UNL A   1      41.447  25.107  28.607  1.00  0.00    -0.237 OA
ATOM     92  O   UNL A   1      39.125  25.831  29.012  1.00  0.00    -0.237 OA
ATOM     93  O   UNL A   1      40.060  25.944  26.745  1.00  0.00    -0.744 OA
ENDBRANCH  87  90
ENDBRANCH  59  83
BRANCH  71  94
ATOM     94  C   UNL A   1      45.234  29.203  35.907  1.00  0.00     0.023 A 
ATOM     95  C   UNL A   1      46.480  29.820  35.677  1.00  0.00     0.012 A 
ATOM     96  C   UNL A   1      45.200  27.925  36.502  1.00  0.00     0.148 A 
ATOM     97  C   UNL A   1      47.669  29.159  35.987  1.00  0.00     0.002 A 
ATOM     98  C   UNL A   1      46.386  27.295  36.859  1.00  0.00     0.091 A 
ATOM     99  F   UNL A   1      44.008  27.343  36.701  1.00  0.00    -0.205 F 
ATOM    100  C   UNL A   1      47.622  27.903  36.586  1.00  0.00     0.022 A 
BRANCH  98 101
ATOM    101  S   UNL A   1      46.416  25.720  37.724  1.00  0.00     0.127 S 
ATOM    102  O   UNL A   1      45.185  25.094  37.246  1.00  0.00    -0.237 OA
ATOM    103  O   UNL A   1      47.647  25.111  37.218  1.00  0.00    -0.237 OA
ATOM    104  O   UNL A   1      46.445  26.046  39.143  1.00  0.00    -0.744 OA
ENDBRANCH  98 101
ENDBRANCH  71  94
ENDBRANCH  45  46
ENDBRANCH  38  40
ENDBRANCH  37  38
ENDBRANCH  36  37
ENDBRANCH  35  36
ENDBRANCH  34  35
ENDBRANCH  33  34
ENDBRANCH  32  33
ENDBRANCH  31  32
ENDBRANCH   1  31
TORSDOF 27
ENDMDL
MODEL 2
REMARK VINA RESULT:      -8.4      3.404      8.908
REMARK SMILES Cc1ccc(Cl)c(Nc2ccccc2C(=O)NCC(=O)OCCOCCOCCOCCOC(=O)c2ccc(-c3c4nc(c(-c5cccc(S(=O)(=O)[O-])c5F)c5ccc([nH]5)c(-c5cccc(S(=O)(=O)[O-])c5F)c5nc(c(-c6cccc(S(=O)(=O)[O-])c6F)c6ccc3[nH]6)C=C5)C=C4)cc2)c1Cl
REMARK SMILES IDX 26 1 25 2 24 3 23 4 22 5 21 6 19 7 20 8 18 9 17 10 15 11
REMARK SMILES IDX 16 12 14 14 9 15 10 16 11 17 13 18 12 19 8 20 7 22 1 23 2 24
REMARK SMILES IDX 3 25 99 26 4 27 100 28 5 29 6 30 27 31 28 32 29 33 30 34
REMARK SMILES IDX 31 35 32 36 33 37 34 38 35 39 36 40 37 41 98 42 38 43 97 44
REMARK SMILES IDX 39 45 40 46 41 47 91 48 42 49 96 50 90 51 92 52 43 53 95 54
REMARK SMILES IDX 89 55 88 56 44 58 76 59 56 60 75 61 57 62 60 63 74 64 93 65
REMARK SMILES IDX 58 66 59 67 73 69 94 70 61 71 45 72 46 73 54 74 47 75 49 76
REMARK SMILES IDX 55 77 48 78 50 79 51 80 52 81 53 82 77 83 78 84 86 85 79 86
REMARK SMILES IDX 81 87 87 88 80 89 82 90 83 91 84 92 85 93 62 94 63 95 71 96
REMARK SMILES IDX 64 97 66 98 72 99 65 100 67 101 68 102 69 103 70 104
REMARK H PARENT 17 13 8 21 92 57 60 68
REMARK Flexibility Score: inf
ROOT
ATOM      1  C   UNL A   1      33.096  25.691  24.971  1.00  0.00     0.188 C 
ENDROOT
BRANCH   1   2
ATOM      2  C   UNL A   1      33.915  24.595  25.679  1.00  0.00     0.188 C 
BRANCH   2   3
ATOM      3  O   UNL A   1      35.183  24.310  25.131  1.00  0.00    -0.376 OA
BRANCH   3   4
ATOM      4  C   UNL A   1      36.333  24.071  25.931  1.00  0.00     0.202 C 
BRANCH   4   5
ATOM      5  C   UNL A   1      37.625  23.381  25.469  1.00  0.00     0.261 C 
BRANCH   5   6
ATOM      6  O   UNL A   1      38.490  22.922  26.504  1.00  0.00    -0.462 OA
BRANCH   6   7
ATOM      7  C   UNL A   1      39.268  21.895  26.118  1.00  0.00     0.325 C 
ATOM      8  O   UNL A   1      38.898  20.967  25.396  1.00  0.00    -0.250 OA
BRANCH   7   9
ATOM      9  C   UNL A   1      40.726  22.010  26.475  1.00  0.00     0.239 C 
BRANCH   9  10
ATOM     10  N   UNL A   1      41.516  21.728  27.645  1.00  0.00    -0.341 N 
ATOM     11  C   UNL A   1      42.770  22.300  27.838  1.00  0.00     0.253 C 
ATOM     12  O   UNL A   1      43.258  22.384  28.962  1.00  0.00    -0.269 OA
ATOM     13  H   UNL A   1      41.160  21.113  28.327  1.00  0.00     0.164 HD
BRANCH  11  14
ATOM     14  C   UNL A   1      43.605  22.629  26.633  1.00  0.00     0.063 A 
ATOM     15  C   UNL A   1      43.885  23.920  26.117  1.00  0.00     0.051 A 
ATOM     16  C   UNL A   1      44.318  24.000  24.776  1.00  0.00     0.027 A 
ATOM     17  C   UNL A   1      44.534  22.860  24.000  1.00  0.00     0.002 A 
ATOM     18  C   UNL A   1      43.902  21.485  25.866  1.00  0.00     0.016 A 
ATOM     19  C   UNL A   1      44.365  21.600  24.558  1.00  0.00     0.001 A 
BRANCH  15  20
ATOM     20  N   UNL A   1      43.768  25.162  26.791  1.00  0.00    -0.352 N 
ATOM     21  H   UNL A   1      44.485  25.318  27.447  1.00  0.00     0.167 HD
BRANCH  20  22
ATOM     22  C   UNL A   1      42.835  26.227  26.718  1.00  0.00     0.077 A 
ATOM     23  C   UNL A   1      39.286  27.213  27.790  1.00  0.00     0.046 C 
ATOM     24  C   UNL A   1      40.622  27.214  27.100  1.00  0.00    -0.030 A 
ATOM     25  C   UNL A   1      40.880  28.182  26.118  1.00  0.00     0.006 A 
ATOM     26  C   UNL A   1      41.609  26.252  27.408  1.00  0.00     0.069 A 
ATOM     27  C   UNL A   1      42.123  28.244  25.503  1.00  0.00     0.023 A 
ATOM     28  Cl  UNL A   1      41.352  25.202  28.773  1.00  0.00    -0.082 Cl
ATOM     29  C   UNL A   1      43.094  27.294  25.820  1.00  0.00     0.066 A 
ATOM     30  Cl  UNL A   1      44.635  27.444  25.038  1.00  0.00    -0.082 Cl
ENDBRANCH  20  22
ENDBRANCH  15  20
ENDBRANCH  11  14
ENDBRANCH   9  10
ENDBRANCH   7   9
ENDBRANCH   6   7
ENDBRANCH   5   6
ENDBRANCH   4   5
ENDBRANCH   3   4
ENDBRANCH   2   3
ENDBRANCH   1   2
BRANCH   1  31
ATOM     31  O   UNL A   1      31.688  25.678  25.119  1.00  0.00    -0.377 OA
BRANCH  31  32
ATOM     32  C   UNL A   1      30.956  26.903  25.067  1.00  0.00     0.188 C 
BRANCH  32  33
ATOM     33  C   UNL A   1      31.285  28.094  25.998  1.00  0.00     0.188 C 
BRANCH  33  34
ATOM     34  O   UNL A   1      31.524  29.325  25.340  1.00  0.00    -0.376 OA
BRANCH  34  35
ATOM     35  C   UNL A   1      32.654  30.071  25.763  1.00  0.00     0.202 C 
BRANCH  35  36
ATOM     36  C   UNL A   1      33.457  29.476  26.929  1.00  0.00     0.261 C 
BRANCH  36  37
ATOM     37  O   UNL A   1      34.749  30.062  27.166  1.00  0.00    -0.460 OA
BRANCH  37  38
ATOM     38  C   UNL A   1      34.820  31.123  27.998  1.00  0.00     0.338 C 
ATOM     39  O   UNL A   1      33.918  31.896  28.281  1.00  0.00    -0.246 OA
BRANCH  38  40
ATOM     40  C   UNL A   1      36.123  31.069  28.692  1.00  0.00     0.060 A 
ATOM     41  C   UNL A   1      36.524  29.859  29.276  1.00  0.00     0.016 A 
ATOM     42  C   UNL A   1      36.945  32.195  28.766  1.00  0.00     0.016 A 
ATOM     43  C   UNL A   1      37.725  29.788  29.978  1.00  0.00     0.010 A 
ATOM     44  C   UNL A   1      38.139  32.129  29.490  1.00  0.00     0.010 A 
ATOM     45  C   UNL A   1      38.509  30.938  30.137  1.00  0.00    -0.014 A 
BRANCH  45  46
ATOM     46  C   UNL A   1      39.572  30.939  31.173  1.00  0.00     0.031 A 
ATOM     47  C   UNL A   1      40.939  30.441  30.786  1.00  0.00     0.074 A 
ATOM     48  C   UNL A   1      39.351  31.407  32.414  1.00  0.00     0.049 A 
ATOM     49  N   UNL A   1      42.033  30.379  31.498  1.00  0.00    -0.248 NA
ATOM     50  C   UNL A   1      41.088  29.948  29.407  1.00  0.00     0.031 C 
ATOM     51  C   UNL A   1      38.077  31.917  32.913  1.00  0.00     0.029 A 
ATOM     52  N   UNL A   1      40.202  31.509  33.486  1.00  0.00    -0.354 N 
ATOM     53  C   UNL A   1      42.995  29.825  30.662  1.00  0.00     0.074 A 
ATOM     54  C   UNL A   1      42.349  29.545  29.399  1.00  0.00     0.031 C 
ATOM     55  C   UNL A   1      38.221  32.251  34.207  1.00  0.00     0.029 A 
ATOM     56  C   UNL A   1      39.592  31.965  34.629  1.00  0.00     0.049 A 
ATOM     57  H   UNL A   1      41.157  31.278  33.440  1.00  0.00     0.167 HD
ATOM     58  C   UNL A   1      44.305  29.587  30.910  1.00  0.00     0.034 A 
ATOM     59  C   UNL A   1      40.080  32.115  35.877  1.00  0.00     0.034 A 
ATOM     60  C   UNL A   1      44.948  29.860  32.166  1.00  0.00     0.049 A 
ATOM     61  C   UNL A   1      41.535  31.819  36.143  1.00  0.00     0.074 A 
ATOM     62  C   UNL A   1      46.276  29.680  32.511  1.00  0.00     0.029 A 
ATOM     63  N   UNL A   1      44.307  30.354  33.293  1.00  0.00    -0.354 N 
ATOM     64  N   UNL A   1      42.461  31.402  35.313  1.00  0.00    -0.248 NA
ATOM     65  C   UNL A   1      42.021  32.055  37.510  1.00  0.00     0.031 C 
ATOM     66  C   UNL A   1      46.430  30.032  33.857  1.00  0.00     0.029 A 
ATOM     67  C   UNL A   1      45.207  30.475  34.338  1.00  0.00     0.049 A 
ATOM     68  H   UNL A   1      43.351  30.584  33.342  1.00  0.00     0.167 HD
ATOM     69  C   UNL A   1      43.643  31.359  36.045  1.00  0.00     0.074 A 
ATOM     70  C   UNL A   1      43.319  31.817  37.381  1.00  0.00     0.031 C 
ATOM     71  C   UNL A   1      44.882  30.966  35.654  1.00  0.00     0.034 A 
BRANCH  58  72
ATOM     72  C   UNL A   1      45.123  29.009  29.785  1.00  0.00     0.023 A 
ATOM     73  C   UNL A   1      45.225  27.608  29.640  1.00  0.00     0.012 A 
ATOM     74  C   UNL A   1      45.781  29.846  28.865  1.00  0.00     0.148 A 
ATOM     75  C   UNL A   1      46.007  27.053  28.628  1.00  0.00     0.002 A 
ATOM     76  C   UNL A   1      46.517  29.286  27.828  1.00  0.00     0.091 A 
ATOM     77  F   UNL A   1      45.694  31.173  29.033  1.00  0.00    -0.205 F 
ATOM     78  C   UNL A   1      46.644  27.891  27.717  1.00  0.00     0.022 A 
BRANCH  76  79
ATOM     79  S   UNL A   1      47.309  30.279  26.559  1.00  0.00     0.127 S 
ATOM     80  O   UNL A   1      48.435  29.427  26.178  1.00  0.00    -0.237 OA
ATOM     81  O   UNL A   1      46.255  30.382  25.548  1.00  0.00    -0.237 OA
ATOM     82  O   UNL A   1      47.664  31.538  27.197  1.00  0.00    -0.744 OA
ENDBRANCH  76  79
ENDBRANCH  58  72
BRANCH  59  83
ATOM     83  C   UNL A   1      39.187  32.595  36.968  1.00  0.00     0.023 A 
ATOM     84  C   UNL A   1      39.198  33.953  37.341  1.00  0.00     0.012 A 
ATOM     85  C   UNL A   1      38.308  31.709  37.623  1.00  0.00     0.148 A 
ATOM     86  C   UNL A   1      38.370  34.415  38.364  1.00  0.00     0.002 A 
ATOM     87  C   UNL A   1      37.444  32.187  38.601  1.00  0.00     0.091 A 
ATOM     88  F   UNL A   1      38.325  30.419  37.263  1.00  0.00    -0.205 F 
ATOM     89  C   UNL A   1      37.486  33.536  38.986  1.00  0.00     0.022 A 
BRANCH  87  90
ATOM     90  S   UNL A   1      36.185  31.160  39.364  1.00  0.00     0.127 S 
ATOM     91  O   UNL A   1      36.259  29.946  38.554  1.00  0.00    -0.237 OA
ATOM     92  O   UNL A   1      36.700  31.023  40.728  1.00  0.00    -0.237 OA
ATOM     93  O   UNL A   1      34.943  31.911  39.260  1.00  0.00    -0.744 OA
ENDBRANCH  87  90
ENDBRANCH  59  83
BRANCH  71  94
ATOM     94  C   UNL A   1      45.995  31.050  36.670  1.00  0.00     0.023 A 
ATOM     95  C   UNL A   1      46.737  32.241  36.811  1.00  0.00     0.012 A 
ATOM     96  C   UNL A   1      46.277  29.961  37.519  1.00  0.00     0.148 A 
ATOM     97  C   UNL A   1      47.770  32.329  37.744  1.00  0.00     0.002 A 
ATOM     98  C   UNL A   1      47.272  30.074  38.483  1.00  0.00     0.091 A 
ATOM     99  F   UNL A   1      45.574  28.829  37.363  1.00  0.00    -0.205 F 
ATOM    100  C   UNL A   1      48.031  31.250  38.586  1.00  0.00     0.022 A 
BRANCH  98 101
ATOM    101  S   UNL A   1      47.608  28.771  39.674  1.00  0.00     0.127 S 
ATOM    102  O   UNL A   1      46.275  28.209  39.885  1.00  0.00    -0.237 OA
ATOM    103  O   UNL A   1      48.526  27.903  38.935  1.00  0.00    -0.237 OA
ATOM    104  O   UNL A   1      48.202  29.431  40.829  1.00  0.00    -0.744 OA
ENDBRANCH  98 101
ENDBRANCH  71  94
ENDBRANCH  45  46
ENDBRANCH  38  40
ENDBRANCH  37  38
ENDBRANCH  36  37
ENDBRANCH  35  36
ENDBRANCH  34  35
ENDBRANCH  33  34
ENDBRANCH  32  33
ENDBRANCH  31  32
ENDBRANCH   1  31
TORSDOF 27
ENDMDL
MODEL 3
REMARK VINA RESULT:      -8.3      3.608      5.883
REMARK SMILES Cc1ccc(Cl)c(Nc2ccccc2C(=O)NCC(=O)OCCOCCOCCOCCOC(=O)c2ccc(-c3c4nc(c(-c5cccc(S(=O)(=O)[O-])c5F)c5ccc([nH]5)c(-c5cccc(S(=O)(=O)[O-])c5F)c5nc(c(-c6cccc(S(=O)(=O)[O-])c6F)c6ccc3[nH]6)C=C5)C=C4)cc2)c1Cl
REMARK SMILES IDX 26 1 25 2 24 3 23 4 22 5 21 6 19 7 20 8 18 9 17 10 15 11
REMARK SMILES IDX 16 12 14 14 9 15 10 16 11 17 13 18 12 19 8 20 7 22 1 23 2 24
REMARK SMILES IDX 3 25 99 26 4 27 100 28 5 29 6 30 27 31 28 32 29 33 30 34
REMARK SMILES IDX 31 35 32 36 33 37 34 38 35 39 36 40 37 41 98 42 38 43 97 44
REMARK SMILES IDX 39 45 40 46 41 47 91 48 42 49 96 50 90 51 92 52 43 53 95 54
REMARK SMILES IDX 89 55 88 56 44 58 76 59 56 60 75 61 57 62 60 63 74 64 93 65
REMARK SMILES IDX 58 66 59 67 73 69 94 70 61 71 45 72 46 73 54 74 47 75 49 76
REMARK SMILES IDX 55 77 48 78 50 79 51 80 52 81 53 82 77 83 78 84 86 85 79 86
REMARK SMILES IDX 81 87 87 88 80 89 82 90 83 91 84 92 85 93 62 94 63 95 71 96
REMARK SMILES IDX 64 97 66 98 72 99 65 100 67 101 68 102 69 103 70 104
REMARK H PARENT 17 13 8 21 92 57 60 68
REMARK Flexibility Score: inf
ROOT
ATOM      1  C   UNL A   1      33.686  25.935  24.927  1.00  0.00     0.188 C 
ENDROOT
BRANCH   1   2
ATOM      2  C   UNL A   1      34.157  24.905  25.971  1.00  0.00     0.188 C 
BRANCH   2   3
ATOM      3  O   UNL A   1      34.864  23.790  25.474  1.00  0.00    -0.376 OA
BRANCH   3   4
ATOM      4  C   UNL A   1      36.257  23.824  25.190  1.00  0.00     0.202 C 
BRANCH   4   5
ATOM      5  C   UNL A   1      37.374  23.281  26.092  1.00  0.00     0.261 C 
BRANCH   5   6
ATOM      6  O   UNL A   1      37.741  21.920  25.878  1.00  0.00    -0.462 OA
BRANCH   6   7
ATOM      7  C   UNL A   1      39.022  21.667  26.198  1.00  0.00     0.325 C 
ATOM      8  O   UNL A   1      39.605  20.604  25.973  1.00  0.00    -0.250 OA
BRANCH   7   9
ATOM      9  C   UNL A   1      39.812  22.841  26.710  1.00  0.00     0.239 C 
BRANCH   9  10
ATOM     10  N   UNL A   1      41.039  23.004  27.445  1.00  0.00    -0.341 N 
ATOM     11  C   UNL A   1      41.386  24.216  28.034  1.00  0.00     0.253 C 
ATOM     12  O   UNL A   1      42.192  24.260  28.959  1.00  0.00    -0.269 OA
ATOM     13  H   UNL A   1      41.650  22.236  27.534  1.00  0.00     0.164 HD
BRANCH  11  14
ATOM     14  C   UNL A   1      40.917  25.490  27.390  1.00  0.00     0.063 A 
ATOM     15  C   UNL A   1      41.463  26.115  26.240  1.00  0.00     0.051 A 
ATOM     16  C   UNL A   1      41.170  27.481  26.045  1.00  0.00     0.027 A 
ATOM     17  C   UNL A   1      40.321  28.184  26.903  1.00  0.00     0.002 A 
ATOM     18  C   UNL A   1      40.001  26.188  28.202  1.00  0.00     0.016 A 
ATOM     19  C   UNL A   1      39.704  27.527  27.959  1.00  0.00     0.001 A 
BRANCH  15  20
ATOM     20  N   UNL A   1      42.293  25.527  25.253  1.00  0.00    -0.352 N 
ATOM     21  H   UNL A   1      41.852  25.435  24.378  1.00  0.00     0.167 HD
BRANCH  20  22
ATOM     22  C   UNL A   1      43.627  25.045  25.260  1.00  0.00     0.077 A 
ATOM     23  C   UNL A   1      45.674  21.830  25.693  1.00  0.00     0.046 C 
ATOM     24  C   UNL A   1      45.304  23.283  25.572  1.00  0.00    -0.030 A 
ATOM     25  C   UNL A   1      46.301  24.255  25.738  1.00  0.00     0.006 A 
ATOM     26  C   UNL A   1      43.974  23.683  25.316  1.00  0.00     0.069 A 
ATOM     27  C   UNL A   1      46.001  25.601  25.577  1.00  0.00     0.023 A 
ATOM     28  Cl  UNL A   1      42.802  22.464  24.901  1.00  0.00    -0.082 Cl
ATOM     29  C   UNL A   1      44.686  25.986  25.316  1.00  0.00     0.066 A 
ATOM     30  Cl  UNL A   1      44.385  27.680  25.097  1.00  0.00    -0.082 Cl
ENDBRANCH  20  22
ENDBRANCH  15  20
ENDBRANCH  11  14
ENDBRANCH   9  10
ENDBRANCH   7   9
ENDBRANCH   6   7
ENDBRANCH   5   6
ENDBRANCH   4   5
ENDBRANCH   3   4
ENDBRANCH   2   3
ENDBRANCH   1   2
BRANCH   1  31
ATOM     31  O   UNL A   1      32.407  26.519  25.091  1.00  0.00    -0.377 OA
BRANCH  31  32
ATOM     32  C   UNL A   1      32.288  27.825  25.655  1.00  0.00     0.188 C 
BRANCH  32  33
ATOM     33  C   UNL A   1      33.194  28.996  25.207  1.00  0.00     0.188 C 
BRANCH  33  34
ATOM     34  O   UNL A   1      33.055  30.188  25.959  1.00  0.00    -0.376 OA
BRANCH  34  35
ATOM     35  C   UNL A   1      33.862  30.315  27.119  1.00  0.00     0.202 C 
BRANCH  35  36
ATOM     36  C   UNL A   1      33.621  31.566  27.975  1.00  0.00     0.261 C 
BRANCH  36  37
ATOM     37  O   UNL A   1      34.701  31.950  28.844  1.00  0.00    -0.460 OA
BRANCH  37  38
ATOM     38  C   UNL A   1      35.607  32.835  28.375  1.00  0.00     0.338 C 
ATOM     39  O   UNL A   1      35.379  33.851  27.737  1.00  0.00    -0.246 OA
BRANCH  38  40
ATOM     40  C   UNL A   1      36.921  32.489  28.954  1.00  0.00     0.060 A 
ATOM     41  C   UNL A   1      37.163  31.160  29.328  1.00  0.00     0.016 A 
ATOM     42  C   UNL A   1      37.909  33.461  29.124  1.00  0.00     0.016 A 
ATOM     43  C   UNL A   1      38.375  30.811  29.920  1.00  0.00     0.010 A 
ATOM     44  C   UNL A   1      39.117  33.115  29.738  1.00  0.00     0.010 A 
ATOM     45  C   UNL A   1      39.333  31.798  30.180  1.00  0.00    -0.014 A 
BRANCH  45  46
ATOM     46  C   UNL A   1      40.438  31.489  31.122  1.00  0.00     0.031 A 
ATOM     47  C   UNL A   1      40.257  31.856  32.571  1.00  0.00     0.074 A 
ATOM     48  C   UNL A   1      41.558  30.863  30.720  1.00  0.00     0.049 A 
ATOM     49  N   UNL A   1      41.057  31.656  33.585  1.00  0.00    -0.248 NA
ATOM     50  C   UNL A   1      39.000  32.538  32.920  1.00  0.00     0.031 C 
ATOM     51  C   UNL A   1      41.854  30.455  29.349  1.00  0.00     0.029 A 
ATOM     52  N   UNL A   1      42.663  30.479  31.436  1.00  0.00    -0.354 N 
ATOM     53  C   UNL A   1      40.411  32.203  34.687  1.00  0.00     0.074 A 
ATOM     54  C   UNL A   1      39.167  32.765  34.214  1.00  0.00     0.031 C 
ATOM     55  C   UNL A   1      43.079  29.903  29.318  1.00  0.00     0.029 A 
ATOM     56  C   UNL A   1      43.657  29.932  30.661  1.00  0.00     0.049 A 
ATOM     57  H   UNL A   1      42.737  30.585  32.412  1.00  0.00     0.167 HD
ATOM     58  C   UNL A   1      40.805  32.222  35.983  1.00  0.00     0.034 A 
ATOM     59  C   UNL A   1      44.896  29.521  30.996  1.00  0.00     0.034 A 
ATOM     60  C   UNL A   1      42.045  31.668  36.455  1.00  0.00     0.049 A 
ATOM     61  C   UNL A   1      45.330  29.574  32.440  1.00  0.00     0.074 A 
ATOM     62  C   UNL A   1      42.524  31.612  37.752  1.00  0.00     0.029 A 
ATOM     63  N   UNL A   1      43.013  31.091  35.647  1.00  0.00    -0.354 N 
ATOM     64  N   UNL A   1      44.663  29.990  33.490  1.00  0.00    -0.248 NA
ATOM     65  C   UNL A   1      46.671  29.059  32.750  1.00  0.00     0.031 C 
ATOM     66  C   UNL A   1      43.798  31.032  37.722  1.00  0.00     0.029 A 
ATOM     67  C   UNL A   1      44.093  30.686  36.412  1.00  0.00     0.049 A 
ATOM     68  H   UNL A   1      42.942  30.985  34.670  1.00  0.00     0.167 HD
ATOM     69  C   UNL A   1      45.487  29.758  34.586  1.00  0.00     0.074 A 
ATOM     70  C   UNL A   1      46.694  29.140  34.073  1.00  0.00     0.031 C 
ATOM     71  C   UNL A   1      45.273  30.038  35.896  1.00  0.00     0.034 A 
BRANCH  58  72
ATOM     72  C   UNL A   1      39.868  32.857  36.976  1.00  0.00     0.023 A 
ATOM     73  C   UNL A   1      38.690  32.181  37.361  1.00  0.00     0.012 A 
ATOM     74  C   UNL A   1      40.154  34.117  37.537  1.00  0.00     0.148 A 
ATOM     75  C   UNL A   1      37.791  32.768  38.250  1.00  0.00     0.002 A 
ATOM     76  C   UNL A   1      39.279  34.673  38.461  1.00  0.00     0.091 A 
ATOM     77  F   UNL A   1      41.263  34.756  37.141  1.00  0.00    -0.205 F 
ATOM     78  C   UNL A   1      38.090  34.008  38.807  1.00  0.00     0.022 A 
BRANCH  76  79
ATOM     79  S   UNL A   1      39.613  36.228  39.294  1.00  0.00     0.127 S 
ATOM     80  O   UNL A   1      38.474  36.326  40.206  1.00  0.00    -0.237 OA
ATOM     81  O   UNL A   1      40.894  35.956  39.949  1.00  0.00    -0.237 OA
ATOM     82  O   UNL A   1      39.668  37.239  38.249  1.00  0.00    -0.744 OA
ENDBRANCH  76  79
ENDBRANCH  58  72
BRANCH  59  83
ATOM     83  C   UNL A   1      45.811  28.996  29.944  1.00  0.00     0.023 A 
ATOM     84  C   UNL A   1      45.865  27.614  29.683  1.00  0.00     0.012 A 
ATOM     85  C   UNL A   1      46.613  29.871  29.183  1.00  0.00     0.148 A 
ATOM     86  C   UNL A   1      46.721  27.108  28.703  1.00  0.00     0.002 A 
ATOM     87  C   UNL A   1      47.419  29.368  28.170  1.00  0.00     0.091 A 
ATOM     88  F   UNL A   1      46.557  31.182  29.458  1.00  0.00    -0.205 F 
ATOM     89  C   UNL A   1      47.489  27.985  27.940  1.00  0.00     0.022 A 
BRANCH  87  90
ATOM     90  S   UNL A   1      48.342  30.428  27.053  1.00  0.00     0.127 S 
ATOM     91  O   UNL A   1      49.015  31.330  27.984  1.00  0.00    -0.237 OA
ATOM     92  O   UNL A   1      49.219  29.464  26.385  1.00  0.00    -0.237 OA
ATOM     93  O   UNL A   1      47.353  31.047  26.183  1.00  0.00    -0.744 OA
ENDBRANCH  87  90
ENDBRANCH  59  83
BRANCH  71  94
ATOM     94  C   UNL A   1      46.348  29.645  36.880  1.00  0.00     0.023 A 
ATOM     95  C   UNL A   1      47.490  30.456  37.044  1.00  0.00     0.012 A 
ATOM     96  C   UNL A   1      46.204  28.492  37.679  1.00  0.00     0.148 A 
ATOM     97  C   UNL A   1      48.491  30.100  37.948  1.00  0.00     0.002 A 
ATOM     98  C   UNL A   1      47.180  28.173  38.616  1.00  0.00     0.091 A 
ATOM     99  F   UNL A   1      45.121  27.722  37.501  1.00  0.00    -0.205 F 
ATOM    100  C   UNL A   1      48.332  28.966  38.740  1.00  0.00     0.022 A 
BRANCH  98 101
ATOM    101  S   UNL A   1      47.010  26.786  39.746  1.00  0.00     0.127 S 
ATOM    102  O   UNL A   1      46.011  27.290  40.687  1.00  0.00    -0.237 OA
ATOM    103  O   UNL A   1      46.533  25.722  38.863  1.00  0.00    -0.237 OA
ATOM    104  O   UNL A   1      48.337  26.559  40.300  1.00  0.00    -0.744 OA
ENDBRANCH  98 101
ENDBRANCH  71  94
ENDBRANCH  45  46
ENDBRANCH  38  40
ENDBRANCH  37  38
ENDBRANCH  36  37
ENDBRANCH  35  36
ENDBRANCH  34  35
ENDBRANCH  33  34
ENDBRANCH  32  33
ENDBRANCH  31  32
ENDBRANCH   1  31
TORSDOF 27
ENDMDL
