MODEL 1
REMARK VINA RESULT:      -9.2      0.000      0.000
REMARK SMILES CC(C)[NH2+][C@@]1(C(=O)OCCOCCOCCOCCOC(=O)c2ccc(-c3c4nc(c(-c5cccc(S(=O)(=O)[O-])c5F)c5ccc([nH]5)c(-c5cccc(S(=O)(=O)[O-])c5F)c5nc(c(-c6cccc(S(=O)(=O)[O-])c6F)c6ccc3[nH]6)C=C5)C=C4)cc2)CCC[C@@H]([NH+]2CCS(=O)CC2)C1
REMARK SMILES IDX 15 1 14 2 13 3 12 4 11 5 10 6 9 7 8 8 6 9 7 10 5 11 86 12
REMARK SMILES IDX 97 13 87 14 89 15 88 16 4 17 2 20 1 21 3 22 90 23 91 24
REMARK SMILES IDX 96 25 92 27 95 28 93 29 94 30 16 31 17 32 18 33 19 34 20 35
REMARK SMILES IDX 21 36 22 37 23 38 24 39 85 40 25 41 84 42 26 43 27 44 28 45
REMARK SMILES IDX 78 46 29 47 83 48 77 49 79 50 30 51 82 52 76 53 75 54 31 56
REMARK SMILES IDX 63 57 43 58 62 59 44 60 47 61 61 62 80 63 45 64 46 65 60 67
REMARK SMILES IDX 81 68 48 69 32 70 33 71 41 72 34 73 36 74 42 75 35 76 37 77
REMARK SMILES IDX 38 78 39 79 40 80 64 81 65 82 73 83 66 84 68 85 74 86 67 87
REMARK SMILES IDX 69 88 70 89 71 90 72 91 49 92 50 93 58 94 51 95 53 96 59 97
REMARK SMILES IDX 52 98 54 99 55 100 56 101 57 102
REMARK H PARENT 4 18 4 19 90 26 79 55 47 66
REMARK Flexibility Score: inf
ROOT
ATOM      1  C   UNL A   1      41.200  21.899  27.642  1.00  0.00     0.188 C 
ENDROOT
BRANCH   1   2
ATOM      2  O   UNL A   1      40.617  22.215  26.393  1.00  0.00    -0.377 OA
BRANCH   2   3
ATOM      3  C   UNL A   1      39.210  22.322  26.305  1.00  0.00     0.188 C 
BRANCH   3   4
ATOM      4  C   UNL A   1      38.278  21.538  25.367  1.00  0.00     0.188 C 
BRANCH   4   5
ATOM      5  O   UNL A   1      36.968  21.993  25.149  1.00  0.00    -0.376 OA
BRANCH   5   6
ATOM      6  C   UNL A   1      36.312  23.022  25.857  1.00  0.00     0.202 C 
BRANCH   6   7
ATOM      7  C   UNL A   1      35.519  24.201  25.272  1.00  0.00     0.261 C 
BRANCH   7   8
ATOM      8  O   UNL A   1      35.010  24.103  23.938  1.00  0.00    -0.459 OA
BRANCH   8   9
ATOM      9  C   UNL A   1      33.823  23.445  23.845  1.00  0.00     0.368 C 
ATOM     10  O   UNL A   1      33.756  22.226  23.685  1.00  0.00    -0.245 OA
BRANCH   9  11
ATOM     11  C   UNL A   1      32.525  24.358  23.950  1.00  0.00     0.200 C 
ATOM     12  C   UNL A   1      32.034  24.447  22.493  1.00  0.00     0.081 C 
ATOM     13  C   UNL A   1      32.583  25.807  24.484  1.00  0.00     0.146 C 
ATOM     14  C   UNL A   1      32.962  25.362  21.665  1.00  0.00     0.013 C 
ATOM     15  C   UNL A   1      33.435  26.834  23.742  1.00  0.00     0.191 C 
ATOM     16  C   UNL A   1      33.089  26.782  22.234  1.00  0.00     0.065 C 
BRANCH  11  17
ATOM     17  N   UNL A   1      31.677  23.577  24.901  1.00  0.00    -0.330 N 
ATOM     18  H   UNL A   1      30.719  23.714  24.579  1.00  0.00     0.347 HD
ATOM     19  H   UNL A   1      32.150  22.675  24.855  1.00  0.00     0.347 HD
BRANCH  17  20
ATOM     20  C   UNL A   1      31.623  23.756  26.342  1.00  0.00     0.176 C 
ATOM     21  C   UNL A   1      30.203  23.328  26.758  1.00  0.00     0.075 C 
ATOM     22  C   UNL A   1      32.589  22.907  27.168  1.00  0.00     0.075 C 
ENDBRANCH  17  20
ENDBRANCH  11  17
BRANCH  15  23
ATOM     23  N   UNL A   1      33.298  28.220  24.263  1.00  0.00    -0.331 N 
ATOM     24  C   UNL A   1      31.975  28.851  24.346  1.00  0.00     0.276 C 
ATOM     25  C   UNL A   1      34.141  28.605  25.405  1.00  0.00     0.276 C 
ATOM     26  H   UNL A   1      33.705  28.636  23.426  1.00  0.00     0.348 HD
ATOM     27  C   UNL A   1      31.170  28.600  25.619  1.00  0.00     0.166 C 
ATOM     28  C   UNL A   1      33.584  28.331  26.800  1.00  0.00     0.166 C 
ATOM     29  S   UNL A   1      31.996  29.136  27.128  1.00  0.00     0.032 S 
ATOM     30  O   UNL A   1      32.164  30.623  27.089  1.00  0.00    -0.259 OA
ENDBRANCH  15  23
ENDBRANCH   9  11
ENDBRANCH   8   9
ENDBRANCH   7   8
ENDBRANCH   6   7
ENDBRANCH   5   6
ENDBRANCH   4   5
ENDBRANCH   3   4
ENDBRANCH   2   3
ENDBRANCH   1   2
BRANCH   1  31
ATOM     31  C   UNL A   1      42.020  20.606  27.578  1.00  0.00     0.188 C 
BRANCH  31  32
ATOM     32  O   UNL A   1      42.057  20.062  26.259  1.00  0.00    -0.376 OA
BRANCH  32  33
ATOM     33  C   UNL A   1      42.559  18.734  26.133  1.00  0.00     0.202 C 
BRANCH  33  34
ATOM     34  C   UNL A   1      43.806  18.480  25.261  1.00  0.00     0.261 C 
BRANCH  34  35
ATOM     35  O   UNL A   1      44.110  19.469  24.258  1.00  0.00    -0.460 OA
BRANCH  35  36
ATOM     36  C   UNL A   1      45.291  20.118  24.367  1.00  0.00     0.338 C 
ATOM     37  O   UNL A   1      46.361  19.771  23.913  1.00  0.00    -0.246 OA
BRANCH  36  38
ATOM     38  C   UNL A   1      45.036  21.450  24.961  1.00  0.00     0.060 A 
ATOM     39  C   UNL A   1      44.615  22.487  24.118  1.00  0.00     0.016 A 
ATOM     40  C   UNL A   1      45.240  21.684  26.322  1.00  0.00     0.016 A 
ATOM     41  C   UNL A   1      44.438  23.774  24.624  1.00  0.00     0.010 A 
ATOM     42  C   UNL A   1      45.088  22.982  26.823  1.00  0.00     0.010 A 
ATOM     43  C   UNL A   1      44.725  24.039  25.968  1.00  0.00    -0.014 A 
BRANCH  43  44
ATOM     44  C   UNL A   1      44.851  25.449  26.412  1.00  0.00     0.031 A 
ATOM     45  C   UNL A   1      46.207  26.100  26.349  1.00  0.00     0.074 A 
ATOM     46  C   UNL A   1      43.782  26.152  26.827  1.00  0.00     0.049 A 
ATOM     47  N   UNL A   1      46.563  27.311  26.689  1.00  0.00    -0.248 NA
ATOM     48  C   UNL A   1      47.310  25.272  25.832  1.00  0.00     0.031 C 
ATOM     49  C   UNL A   1      42.416  25.642  26.910  1.00  0.00     0.029 A 
ATOM     50  N   UNL A   1      43.688  27.446  27.277  1.00  0.00    -0.354 N 
ATOM     51  C   UNL A   1      47.932  27.380  26.461  1.00  0.00     0.074 A 
ATOM     52  C   UNL A   1      48.345  26.089  25.960  1.00  0.00     0.031 C 
ATOM     53  C   UNL A   1      41.622  26.606  27.411  1.00  0.00     0.029 A 
ATOM     54  C   UNL A   1      42.429  27.786  27.711  1.00  0.00     0.049 A 
ATOM     55  H   UNL A   1      44.450  28.070  27.287  1.00  0.00     0.167 HD
ATOM     56  C   UNL A   1      48.770  28.428  26.641  1.00  0.00     0.034 A 
ATOM     57  C   UNL A   1      41.988  28.913  28.308  1.00  0.00     0.034 A 
ATOM     58  C   UNL A   1      48.356  29.715  27.129  1.00  0.00     0.049 A 
ATOM     59  C   UNL A   1      42.948  30.053  28.533  1.00  0.00     0.074 A 
ATOM     60  C   UNL A   1      49.122  30.853  27.308  1.00  0.00     0.029 A 
ATOM     61  N   UNL A   1      47.068  30.030  27.535  1.00  0.00    -0.354 N 
ATOM     62  N   UNL A   1      44.218  30.140  28.215  1.00  0.00    -0.248 NA
ATOM     63  C   UNL A   1      42.408  31.264  29.168  1.00  0.00     0.031 C 
ATOM     64  C   UNL A   1      48.305  31.844  27.864  1.00  0.00     0.029 A 
ATOM     65  C   UNL A   1      47.021  31.340  27.981  1.00  0.00     0.049 A 
ATOM     66  H   UNL A   1      46.301  29.413  27.510  1.00  0.00     0.167 HD
ATOM     67  C   UNL A   1      44.616  31.424  28.574  1.00  0.00     0.074 A 
ATOM     68  C   UNL A   1      43.447  32.086  29.117  1.00  0.00     0.031 C 
ATOM     69  C   UNL A   1      45.839  32.001  28.474  1.00  0.00     0.034 A 
BRANCH  56  70
ATOM     70  C   UNL A   1      50.225  28.226  26.308  1.00  0.00     0.023 A 
ATOM     71  C   UNL A   1      50.672  28.372  24.979  1.00  0.00     0.012 A 
ATOM     72  C   UNL A   1      51.160  27.944  27.324  1.00  0.00     0.148 A 
ATOM     73  C   UNL A   1      52.020  28.205  24.661  1.00  0.00     0.002 A 
ATOM     74  C   UNL A   1      52.507  27.828  27.007  1.00  0.00     0.091 A 
ATOM     75  F   UNL A   1      50.711  27.787  28.578  1.00  0.00    -0.205 F 
ATOM     76  C   UNL A   1      52.937  27.945  25.675  1.00  0.00     0.022 A 
BRANCH  74  77
ATOM     77  S   UNL A   1      53.777  27.577  28.252  1.00  0.00     0.127 S 
ATOM     78  O   UNL A   1      53.443  26.242  28.748  1.00  0.00    -0.237 OA
ATOM     79  O   UNL A   1      55.002  27.642  27.455  1.00  0.00    -0.237 OA
ATOM     80  O   UNL A   1      53.618  28.657  29.215  1.00  0.00    -0.744 OA
ENDBRANCH  74  77
ENDBRANCH  56  70
BRANCH  57  81
ATOM     81  C   UNL A   1      40.562  29.026  28.729  1.00  0.00     0.023 A 
ATOM     82  C   UNL A   1      39.564  29.271  27.766  1.00  0.00     0.012 A 
ATOM     83  C   UNL A   1      40.191  28.890  30.081  1.00  0.00     0.148 A 
ATOM     84  C   UNL A   1      38.228  29.411  28.146  1.00  0.00     0.002 A 
ATOM     85  C   UNL A   1      38.854  28.970  30.446  1.00  0.00     0.091 A 
ATOM     86  F   UNL A   1      41.159  28.673  30.984  1.00  0.00    -0.205 F 
ATOM     87  C   UNL A   1      37.872  29.252  29.484  1.00  0.00     0.022 A 
BRANCH  85  88
ATOM     88  S   UNL A   1      38.287  28.650  32.119  1.00  0.00     0.127 S 
ATOM     89  O   UNL A   1      36.891  29.075  32.050  1.00  0.00    -0.237 OA
ATOM     90  O   UNL A   1      38.487  27.204  32.230  1.00  0.00    -0.237 OA
ATOM     91  O   UNL A   1      39.147  29.443  32.987  1.00  0.00    -0.744 OA
ENDBRANCH  85  88
ENDBRANCH  57  81
BRANCH  69  92
ATOM     92  C   UNL A   1      45.977  33.440  28.906  1.00  0.00     0.023 A 
ATOM     93  C   UNL A   1      46.451  33.751  30.196  1.00  0.00     0.012 A 
ATOM     94  C   UNL A   1      45.704  34.485  28.001  1.00  0.00     0.148 A 
ATOM     95  C   UNL A   1      46.613  35.079  30.591  1.00  0.00     0.002 A 
ATOM     96  C   UNL A   1      45.919  35.803  28.383  1.00  0.00     0.091 A 
ATOM     97  F   UNL A   1      45.239  34.171  26.783  1.00  0.00    -0.205 F 
ATOM     98  C   UNL A   1      46.359  36.103  29.682  1.00  0.00     0.022 A 
BRANCH  96  99
ATOM     99  S   UNL A   1      45.716  37.181  27.248  1.00  0.00     0.127 S 
ATOM    100  O   UNL A   1      46.147  38.310  28.071  1.00  0.00    -0.237 OA
ATOM    101  O   UNL A   1      46.634  36.829  26.166  1.00  0.00    -0.237 OA
ATOM    102  O   UNL A   1      44.309  37.188  26.870  1.00  0.00    -0.744 OA
ENDBRANCH  96  99
ENDBRANCH  69  92
ENDBRANCH  43  44
ENDBRANCH  36  38
ENDBRANCH  35  36
ENDBRANCH  34  35
ENDBRANCH  33  34
ENDBRANCH  32  33
ENDBRANCH  31  32
ENDBRANCH   1  31
TORSDOF 26
ENDMDL
MODEL 2
REMARK VINA RESULT:      -8.8      2.143      3.456
REMARK SMILES CC(C)[NH2+][C@@]1(C(=O)OCCOCCOCCOCCOC(=O)c2ccc(-c3c4nc(c(-c5cccc(S(=O)(=O)[O-])c5F)c5ccc([nH]5)c(-c5cccc(S(=O)(=O)[O-])c5F)c5nc(c(-c6cccc(S(=O)(=O)[O-])c6F)c6ccc3[nH]6)C=C5)C=C4)cc2)CCC[C@@H]([NH+]2CCS(=O)CC2)C1
REMARK SMILES IDX 15 1 14 2 13 3 12 4 11 5 10 6 9 7 8 8 6 9 7 10 5 11 86 12
REMARK SMILES IDX 97 13 87 14 89 15 88 16 4 17 2 20 1 21 3 22 90 23 91 24
REMARK SMILES IDX 96 25 92 27 95 28 93 29 94 30 16 31 17 32 18 33 19 34 20 35
REMARK SMILES IDX 21 36 22 37 23 38 24 39 85 40 25 41 84 42 26 43 27 44 28 45
REMARK SMILES IDX 78 46 29 47 83 48 77 49 79 50 30 51 82 52 76 53 75 54 31 56
REMARK SMILES IDX 63 57 43 58 62 59 44 60 47 61 61 62 80 63 45 64 46 65 60 67
REMARK SMILES IDX 81 68 48 69 32 70 33 71 41 72 34 73 36 74 42 75 35 76 37 77
REMARK SMILES IDX 38 78 39 79 40 80 64 81 65 82 73 83 66 84 68 85 74 86 67 87
REMARK SMILES IDX 69 88 70 89 71 90 72 91 49 92 50 93 58 94 51 95 53 96 59 97
REMARK SMILES IDX 52 98 54 99 55 100 56 101 57 102
REMARK H PARENT 4 18 4 19 90 26 79 55 47 66
REMARK Flexibility Score: inf
ROOT
ATOM      1  C   UNL A   1      36.358  21.646  24.268  1.00  0.00     0.188 C 
ENDROOT
BRANCH   1   2
ATOM      2  O   UNL A   1      35.635  20.846  25.182  1.00  0.00    -0.377 OA
BRANCH   2   3
ATOM      3  C   UNL A   1      34.252  20.642  24.964  1.00  0.00     0.188 C 
BRANCH   3   4
ATOM      4  C   UNL A   1      33.089  21.284  25.737  1.00  0.00     0.188 C 
BRANCH   4   5
ATOM      5  O   UNL A   1      33.122  22.656  26.031  1.00  0.00    -0.376 OA
BRANCH   5   6
ATOM      6  C   UNL A   1      32.125  23.390  26.707  1.00  0.00     0.202 C 
BRANCH   6   7
ATOM      7  C   UNL A   1      30.652  23.557  26.304  1.00  0.00     0.261 C 
BRANCH   7   8
ATOM      8  O   UNL A   1      30.316  24.479  25.262  1.00  0.00    -0.459 OA
BRANCH   8   9
ATOM      9  C   UNL A   1      30.657  25.768  25.532  1.00  0.00     0.368 C 
ATOM     10  O   UNL A   1      30.237  26.366  26.524  1.00  0.00    -0.245 OA
BRANCH   9  11
ATOM     11  C   UNL A   1      31.629  26.454  24.478  1.00  0.00     0.200 C 
ATOM     12  C   UNL A   1      32.816  26.922  25.341  1.00  0.00     0.081 C 
ATOM     13  C   UNL A   1      31.193  27.672  23.632  1.00  0.00     0.146 C 
ATOM     14  C   UNL A   1      32.413  28.143  26.198  1.00  0.00     0.013 C 
ATOM     15  C   UNL A   1      30.800  28.964  24.345  1.00  0.00     0.191 C 
ATOM     16  C   UNL A   1      31.902  29.330  25.369  1.00  0.00     0.065 C 
BRANCH  11  17
ATOM     17  N   UNL A   1      31.890  25.333  23.525  1.00  0.00    -0.330 N 
ATOM     18  H   UNL A   1      31.858  24.486  24.094  1.00  0.00     0.347 HD
ATOM     19  H   UNL A   1      31.192  25.545  22.813  1.00  0.00     0.347 HD
BRANCH  17  20
ATOM     20  C   UNL A   1      33.066  25.183  22.684  1.00  0.00     0.176 C 
ATOM     21  C   UNL A   1      33.407  23.681  22.718  1.00  0.00     0.075 C 
ATOM     22  C   UNL A   1      32.898  25.555  21.211  1.00  0.00     0.075 C 
ENDBRANCH  17  20
ENDBRANCH  11  17
BRANCH  15  23
ATOM     23  N   UNL A   1      30.539  30.103  23.427  1.00  0.00    -0.331 N 
ATOM     24  C   UNL A   1      30.197  29.856  22.020  1.00  0.00     0.276 C 
ATOM     25  C   UNL A   1      29.791  31.251  23.960  1.00  0.00     0.276 C 
ATOM     26  H   UNL A   1      31.523  30.370  23.385  1.00  0.00     0.348 HD
ATOM     27  C   UNL A   1      28.721  29.632  21.699  1.00  0.00     0.166 C 
ATOM     28  C   UNL A   1      28.268  31.192  23.857  1.00  0.00     0.166 C 
ATOM     29  S   UNL A   1      27.652  31.006  22.164  1.00  0.00     0.032 S 
ATOM     30  O   UNL A   1      28.025  32.209  21.356  1.00  0.00    -0.259 OA
ENDBRANCH  15  23
ENDBRANCH   9  11
ENDBRANCH   8   9
ENDBRANCH   7   8
ENDBRANCH   6   7
ENDBRANCH   5   6
ENDBRANCH   4   5
ENDBRANCH   3   4
ENDBRANCH   2   3
ENDBRANCH   1   2
BRANCH   1  31
ATOM     31  C   UNL A   1      37.026  22.839  24.960  1.00  0.00     0.188 C 
BRANCH  31  32
ATOM     32  O   UNL A   1      37.874  22.428  26.032  1.00  0.00    -0.376 OA
BRANCH  32  33
ATOM     33  C   UNL A   1      38.872  21.459  25.717  1.00  0.00     0.202 C 
BRANCH  33  34
ATOM     34  C   UNL A   1      39.951  21.123  26.768  1.00  0.00     0.261 C 
BRANCH  34  35
ATOM     35  O   UNL A   1      40.683  19.896  26.579  1.00  0.00    -0.460 OA
BRANCH  35  36
ATOM     36  C   UNL A   1      41.901  19.986  25.997  1.00  0.00     0.338 C 
ATOM     37  O   UNL A   1      42.395  19.204  25.212  1.00  0.00    -0.246 OA
BRANCH  36  38
ATOM     38  C   UNL A   1      42.468  21.317  26.310  1.00  0.00     0.060 A 
ATOM     39  C   UNL A   1      42.583  21.694  27.655  1.00  0.00     0.016 A 
ATOM     40  C   UNL A   1      42.849  22.196  25.295  1.00  0.00     0.016 A 
ATOM     41  C   UNL A   1      43.039  22.968  27.989  1.00  0.00     0.010 A 
ATOM     42  C   UNL A   1      43.282  23.484  25.631  1.00  0.00     0.010 A 
ATOM     43  C   UNL A   1      43.340  23.887  26.977  1.00  0.00    -0.014 A 
BRANCH  43  44
ATOM     44  C   UNL A   1      43.505  25.318  27.332  1.00  0.00     0.031 A 
ATOM     45  C   UNL A   1      44.859  25.949  27.148  1.00  0.00     0.074 A 
ATOM     46  C   UNL A   1      42.470  26.055  27.773  1.00  0.00     0.049 A 
ATOM     47  N   UNL A   1      45.246  27.173  27.397  1.00  0.00    -0.248 NA
ATOM     48  C   UNL A   1      45.921  25.081  26.610  1.00  0.00     0.031 C 
ATOM     49  C   UNL A   1      41.107  25.567  27.970  1.00  0.00     0.029 A 
ATOM     50  N   UNL A   1      42.415  27.373  28.155  1.00  0.00    -0.354 N 
ATOM     51  C   UNL A   1      46.598  27.214  27.080  1.00  0.00     0.074 A 
ATOM     52  C   UNL A   1      46.968  25.892  26.627  1.00  0.00     0.031 C 
ATOM     53  C   UNL A   1      40.355  26.566  28.465  1.00  0.00     0.029 A 
ATOM     54  C   UNL A   1      41.189  27.752  28.647  1.00  0.00     0.049 A 
ATOM     55  H   UNL A   1      43.181  27.988  28.082  1.00  0.00     0.167 HD
ATOM     56  C   UNL A   1      47.454  28.260  27.148  1.00  0.00     0.034 A 
ATOM     57  C   UNL A   1      40.795  28.915  29.206  1.00  0.00     0.034 A 
ATOM     58  C   UNL A   1      47.082  29.576  27.588  1.00  0.00     0.049 A 
ATOM     59  C   UNL A   1      41.777  30.055  29.306  1.00  0.00     0.074 A 
ATOM     60  C   UNL A   1      47.867  30.714  27.654  1.00  0.00     0.029 A 
ATOM     61  N   UNL A   1      45.825  29.929  28.055  1.00  0.00    -0.354 N 
ATOM     62  N   UNL A   1      43.025  30.109  28.905  1.00  0.00    -0.248 NA
ATOM     63  C   UNL A   1      41.287  31.305  29.904  1.00  0.00     0.031 C 
ATOM     64  C   UNL A   1      47.095  31.744  28.203  1.00  0.00     0.029 A 
ATOM     65  C   UNL A   1      45.816  31.262  28.429  1.00  0.00     0.049 A 
ATOM     66  H   UNL A   1      45.053  29.321  28.113  1.00  0.00     0.167 HD
ATOM     67  C   UNL A   1      43.455  31.406  29.166  1.00  0.00     0.074 A 
ATOM     68  C   UNL A   1      42.328  32.111  29.743  1.00  0.00     0.031 C 
ATOM     69  C   UNL A   1      44.674  31.963  28.957  1.00  0.00     0.034 A 
BRANCH  56  70
ATOM     70  C   UNL A   1      48.884  28.023  26.737  1.00  0.00     0.023 A 
ATOM     71  C   UNL A   1      49.252  28.115  25.378  1.00  0.00     0.012 A 
ATOM     72  C   UNL A   1      49.874  27.761  27.704  1.00  0.00     0.148 A 
ATOM     73  C   UNL A   1      50.576  27.915  24.987  1.00  0.00     0.002 A 
ATOM     74  C   UNL A   1      51.198  27.613  27.312  1.00  0.00     0.091 A 
ATOM     75  F   UNL A   1      49.499  27.656  28.987  1.00  0.00    -0.205 F 
ATOM     76  C   UNL A   1      51.549  27.676  25.954  1.00  0.00     0.022 A 
BRANCH  74  77
ATOM     77  S   UNL A   1      52.537  27.385  28.487  1.00  0.00     0.127 S 
ATOM     78  O   UNL A   1      53.629  26.964  27.611  1.00  0.00    -0.237 OA
ATOM     79  O   UNL A   1      52.686  28.730  29.043  1.00  0.00    -0.237 OA
ATOM     80  O   UNL A   1      52.076  26.381  29.435  1.00  0.00    -0.744 OA
ENDBRANCH  74  77
ENDBRANCH  56  70
BRANCH  57  81
ATOM     81  C   UNL A   1      39.399  29.068  29.708  1.00  0.00     0.023 A 
ATOM     82  C   UNL A   1      39.067  28.628  31.004  1.00  0.00     0.012 A 
ATOM     83  C   UNL A   1      38.400  29.652  28.905  1.00  0.00     0.148 A 
ATOM     84  C   UNL A   1      37.758  28.736  31.478  1.00  0.00     0.002 A 
ATOM     85  C   UNL A   1      37.114  29.811  29.403  1.00  0.00     0.091 A 
ATOM     86  F   UNL A   1      38.733  30.049  27.668  1.00  0.00    -0.205 F 
ATOM     87  C   UNL A   1      36.784  29.335  30.682  1.00  0.00     0.022 A 
BRANCH  85  88
ATOM     88  S   UNL A   1      35.829  30.686  28.504  1.00  0.00     0.127 S 
ATOM     89  O   UNL A   1      35.136  31.391  29.580  1.00  0.00    -0.237 OA
ATOM     90  O   UNL A   1      36.618  31.540  27.615  1.00  0.00    -0.237 OA
ATOM     91  O   UNL A   1      35.055  29.659  27.820  1.00  0.00    -0.744 OA
ENDBRANCH  85  88
ENDBRANCH  57  81
BRANCH  69  92
ATOM     92  C   UNL A   1      44.850  33.422  29.298  1.00  0.00     0.023 A 
ATOM     93  C   UNL A   1      45.405  33.798  30.538  1.00  0.00     0.012 A 
ATOM     94  C   UNL A   1      44.531  34.418  28.354  1.00  0.00     0.148 A 
ATOM     95  C   UNL A   1      45.602  35.144  30.846  1.00  0.00     0.002 A 
ATOM     96  C   UNL A   1      44.781  35.753  28.647  1.00  0.00     0.091 A 
ATOM     97  F   UNL A   1      43.991  34.042  27.185  1.00  0.00    -0.205 F 
ATOM     98  C   UNL A   1      45.302  36.119  29.898  1.00  0.00     0.022 A 
BRANCH  96  99
ATOM     99  S   UNL A   1      44.521  37.068  27.450  1.00  0.00     0.127 S 
ATOM    100  O   UNL A   1      45.645  36.865  26.537  1.00  0.00    -0.237 OA
ATOM    101  O   UNL A   1      43.213  36.726  26.893  1.00  0.00    -0.237 OA
ATOM    102  O   UNL A   1      44.550  38.313  28.206  1.00  0.00    -0.744 OA
ENDBRANCH  96  99
ENDBRANCH  69  92
ENDBRANCH  43  44
ENDBRANCH  36  38
ENDBRANCH  35  36
ENDBRANCH  34  35
ENDBRANCH  33  34
ENDBRANCH  32  33
ENDBRANCH  31  32
ENDBRANCH   1  31
TORSDOF 26
ENDMDL
MODEL 3
REMARK VINA RESULT:      -8.7      1.572      7.717
REMARK SMILES CC(C)[NH2+][C@@]1(C(=O)OCCOCCOCCOCCOC(=O)c2ccc(-c3c4nc(c(-c5cccc(S(=O)(=O)[O-])c5F)c5ccc([nH]5)c(-c5cccc(S(=O)(=O)[O-])c5F)c5nc(c(-c6cccc(S(=O)(=O)[O-])c6F)c6ccc3[nH]6)C=C5)C=C4)cc2)CCC[C@@H]([NH+]2CCS(=O)CC2)C1
REMARK SMILES IDX 15 1 14 2 13 3 12 4 11 5 10 6 9 7 8 8 6 9 7 10 5 11 86 12
REMARK SMILES IDX 97 13 87 14 89 15 88 16 4 17 2 20 1 21 3 22 90 23 91 24
REMARK SMILES IDX 96 25 92 27 95 28 93 29 94 30 16 31 17 32 18 33 19 34 20 35
REMARK SMILES IDX 21 36 22 37 23 38 24 39 85 40 25 41 84 42 26 43 27 44 28 45
REMARK SMILES IDX 78 46 29 47 83 48 77 49 79 50 30 51 82 52 76 53 75 54 31 56
REMARK SMILES IDX 63 57 43 58 62 59 44 60 47 61 61 62 80 63 45 64 46 65 60 67
REMARK SMILES IDX 81 68 48 69 32 70 33 71 41 72 34 73 36 74 42 75 35 76 37 77
REMARK SMILES IDX 38 78 39 79 40 80 64 81 65 82 73 83 66 84 68 85 74 86 67 87
REMARK SMILES IDX 69 88 70 89 71 90 72 91 49 92 50 93 58 94 51 95 53 96 59 97
REMARK SMILES IDX 52 98 54 99 55 100 56 101 57 102
REMARK H PARENT 4 18 4 19 90 26 79 55 47 66
REMARK Flexibility Score: inf
ROOT
ATOM      1  C   UNL A   1      35.594  21.159  25.773  1.00  0.00     0.188 C 
ENDROOT
BRANCH   1   2
ATOM      2  O   UNL A   1      34.362  20.847  25.154  1.00  0.00    -0.377 OA
BRANCH   2   3
ATOM      3  C   UNL A   1      33.272  21.732  25.318  1.00  0.00     0.188 C 
BRANCH   3   4
ATOM      4  C   UNL A   1      31.789  21.436  25.047  1.00  0.00     0.188 C 
BRANCH   4   5
ATOM      5  O   UNL A   1      30.809  21.936  25.919  1.00  0.00    -0.376 OA
BRANCH   5   6
ATOM      6  C   UNL A   1      30.848  23.172  26.598  1.00  0.00     0.202 C 
BRANCH   6   7
ATOM      7  C   UNL A   1      31.023  24.570  25.986  1.00  0.00     0.261 C 
BRANCH   7   8
ATOM      8  O   UNL A   1      29.996  25.091  25.137  1.00  0.00    -0.459 OA
BRANCH   8   9
ATOM      9  C   UNL A   1      30.285  25.019  23.810  1.00  0.00     0.368 C 
ATOM     10  O   UNL A   1      30.179  23.972  23.168  1.00  0.00    -0.245 OA
BRANCH   9  11
ATOM     11  C   UNL A   1      30.775  26.376  23.141  1.00  0.00     0.200 C 
ATOM     12  C   UNL A   1      31.641  25.897  21.959  1.00  0.00     0.081 C 
ATOM     13  C   UNL A   1      31.622  27.412  23.914  1.00  0.00     0.146 C 
ATOM     14  C   UNL A   1      32.982  25.326  22.468  1.00  0.00     0.013 C 
ATOM     15  C   UNL A   1      32.992  26.997  24.447  1.00  0.00     0.191 C 
ATOM     16  C   UNL A   1      33.794  26.324  23.307  1.00  0.00     0.065 C 
BRANCH  11  17
ATOM     17  N   UNL A   1      29.479  27.038  22.802  1.00  0.00    -0.330 N 
ATOM     18  H   UNL A   1      29.394  26.955  21.789  1.00  0.00     0.347 HD
ATOM     19  H   UNL A   1      28.861  26.550  23.450  1.00  0.00     0.347 HD
BRANCH  17  20
ATOM     20  C   UNL A   1      29.118  28.413  23.103  1.00  0.00     0.176 C 
ATOM     21  C   UNL A   1      29.727  29.257  21.967  1.00  0.00     0.075 C 
ATOM     22  C   UNL A   1      27.624  28.733  23.126  1.00  0.00     0.075 C 
ENDBRANCH  17  20
ENDBRANCH  11  17
BRANCH  15  23
ATOM     23  N   UNL A   1      33.768  28.114  25.046  1.00  0.00    -0.331 N 
ATOM     24  C   UNL A   1      33.442  29.506  24.708  1.00  0.00     0.276 C 
ATOM     25  C   UNL A   1      34.165  27.990  26.456  1.00  0.00     0.276 C 
ATOM     26  H   UNL A   1      34.593  27.922  24.476  1.00  0.00     0.348 HD
ATOM     27  C   UNL A   1      32.365  30.184  25.552  1.00  0.00     0.166 C 
ATOM     28  C   UNL A   1      33.175  28.499  27.501  1.00  0.00     0.166 C 
ATOM     29  S   UNL A   1      32.741  30.247  27.312  1.00  0.00     0.032 S 
ATOM     30  O   UNL A   1      33.958  31.095  27.520  1.00  0.00    -0.259 OA
ENDBRANCH  15  23
ENDBRANCH   9  11
ENDBRANCH   8   9
ENDBRANCH   7   8
ENDBRANCH   6   7
ENDBRANCH   5   6
ENDBRANCH   4   5
ENDBRANCH   3   4
ENDBRANCH   2   3
ENDBRANCH   1   2
BRANCH   1  31
ATOM     31  C   UNL A   1      36.783  20.567  25.009  1.00  0.00     0.188 C 
BRANCH  31  32
ATOM     32  O   UNL A   1      37.758  21.558  24.687  1.00  0.00    -0.376 OA
BRANCH  32  33
ATOM     33  C   UNL A   1      38.374  22.225  25.786  1.00  0.00     0.202 C 
BRANCH  33  34
ATOM     34  C   UNL A   1      39.532  21.530  26.534  1.00  0.00     0.261 C 
BRANCH  34  35
ATOM     35  O   UNL A   1      40.267  20.527  25.806  1.00  0.00    -0.460 OA
BRANCH  35  36
ATOM     36  C   UNL A   1      41.469  20.158  26.303  1.00  0.00     0.338 C 
ATOM     37  O   UNL A   1      41.895  19.029  26.425  1.00  0.00    -0.246 OA
BRANCH  36  38
ATOM     38  C   UNL A   1      42.288  21.377  26.490  1.00  0.00     0.060 A 
ATOM     39  C   UNL A   1      42.661  21.737  27.793  1.00  0.00     0.016 A 
ATOM     40  C   UNL A   1      42.655  22.174  25.405  1.00  0.00     0.016 A 
ATOM     41  C   UNL A   1      43.366  22.919  28.018  1.00  0.00     0.010 A 
ATOM     42  C   UNL A   1      43.339  23.373  25.635  1.00  0.00     0.010 A 
ATOM     43  C   UNL A   1      43.662  23.768  26.946  1.00  0.00    -0.014 A 
BRANCH  43  44
ATOM     44  C   UNL A   1      44.111  25.153  27.230  1.00  0.00     0.031 A 
ATOM     45  C   UNL A   1      43.110  26.129  27.791  1.00  0.00     0.074 A 
ATOM     46  C   UNL A   1      45.386  25.533  27.032  1.00  0.00     0.049 A 
ATOM     47  N   UNL A   1      43.264  27.387  28.108  1.00  0.00    -0.248 NA
ATOM     48  C   UNL A   1      41.750  25.612  28.026  1.00  0.00     0.031 C 
ATOM     49  C   UNL A   1      46.452  24.677  26.517  1.00  0.00     0.029 A 
ATOM     50  N   UNL A   1      45.992  26.750  27.223  1.00  0.00    -0.354 N 
ATOM     51  C   UNL A   1      42.019  27.822  28.546  1.00  0.00     0.074 A 
ATOM     52  C   UNL A   1      41.118  26.697  28.449  1.00  0.00     0.031 C 
ATOM     53  C   UNL A   1      47.578  25.404  26.405  1.00  0.00     0.029 A 
ATOM     54  C   UNL A   1      47.303  26.782  26.811  1.00  0.00     0.049 A 
ATOM     55  H   UNL A   1      45.531  27.526  27.618  1.00  0.00     0.167 HD
ATOM     56  C   UNL A   1      41.660  29.046  29.000  1.00  0.00     0.034 A 
ATOM     57  C   UNL A   1      48.171  27.812  26.744  1.00  0.00     0.034 A 
ATOM     58  C   UNL A   1      42.560  30.161  29.107  1.00  0.00     0.049 A 
ATOM     59  C   UNL A   1      47.737  29.175  27.221  1.00  0.00     0.074 A 
ATOM     60  C   UNL A   1      42.302  31.430  29.593  1.00  0.00     0.029 A 
ATOM     61  N   UNL A   1      43.887  30.148  28.703  1.00  0.00    -0.354 N 
ATOM     62  N   UNL A   1      46.586  29.545  27.730  1.00  0.00    -0.248 NA
ATOM     63  C   UNL A   1      48.731  30.255  27.145  1.00  0.00     0.031 C 
ATOM     64  C   UNL A   1      43.462  32.198  29.443  1.00  0.00     0.029 A 
ATOM     65  C   UNL A   1      44.456  31.392  28.913  1.00  0.00     0.049 A 
ATOM     66  H   UNL A   1      44.354  29.369  28.324  1.00  0.00     0.167 HD
ATOM     67  C   UNL A   1      46.731  30.886  28.071  1.00  0.00     0.074 A 
ATOM     68  C   UNL A   1      48.088  31.258  27.726  1.00  0.00     0.031 C 
ATOM     69  C   UNL A   1      45.822  31.736  28.610  1.00  0.00     0.034 A 
BRANCH  56  70
ATOM     70  C   UNL A   1      40.226  29.245  29.417  1.00  0.00     0.023 A 
ATOM     71  C   UNL A   1      39.233  29.478  28.443  1.00  0.00     0.012 A 
ATOM     72  C   UNL A   1      39.855  29.150  30.772  1.00  0.00     0.148 A 
ATOM     73  C   UNL A   1      37.900  29.647  28.815  1.00  0.00     0.002 A 
ATOM     74  C   UNL A   1      38.517  29.269  31.130  1.00  0.00     0.091 A 
ATOM     75  F   UNL A   1      40.816  28.950  31.685  1.00  0.00    -0.205 F 
ATOM     76  C   UNL A   1      37.541  29.531  30.155  1.00  0.00     0.022 A 
BRANCH  74  77
ATOM     77  S   UNL A   1      37.943  29.053  32.818  1.00  0.00     0.127 S 
ATOM     78  O   UNL A   1      36.694  29.813  32.803  1.00  0.00    -0.237 OA
ATOM     79  O   UNL A   1      37.773  27.602  32.899  1.00  0.00    -0.237 OA
ATOM     80  O   UNL A   1      38.990  29.593  33.674  1.00  0.00    -0.744 OA
ENDBRANCH  74  77
ENDBRANCH  56  70
BRANCH  57  81
ATOM     81  C   UNL A   1      49.548  27.595  26.214  1.00  0.00     0.023 A 
ATOM     82  C   UNL A   1      49.777  27.616  24.825  1.00  0.00     0.012 A 
ATOM     83  C   UNL A   1      50.633  27.372  27.085  1.00  0.00     0.148 A 
ATOM     84  C   UNL A   1      51.054  27.384  24.311  1.00  0.00     0.002 A 
ATOM     85  C   UNL A   1      51.912  27.202  26.570  1.00  0.00     0.091 A 
ATOM     86  F   UNL A   1      50.392  27.340  28.403  1.00  0.00    -0.205 F 
ATOM     87  C   UNL A   1      52.122  27.186  25.183  1.00  0.00     0.022 A 
BRANCH  85  88
ATOM     88  S   UNL A   1      53.366  27.072  27.616  1.00  0.00     0.127 S 
ATOM     89  O   UNL A   1      53.542  25.624  27.708  1.00  0.00    -0.237 OA
ATOM     90  O   UNL A   1      54.373  27.766  26.814  1.00  0.00    -0.237 OA
ATOM     91  O   UNL A   1      53.020  27.746  28.861  1.00  0.00    -0.744 OA
ENDBRANCH  85  88
ENDBRANCH  57  81
BRANCH  69  92
ATOM     92  C   UNL A   1      46.270  33.143  28.919  1.00  0.00     0.023 A 
ATOM     93  C   UNL A   1      46.840  33.447  30.171  1.00  0.00     0.012 A 
ATOM     94  C   UNL A   1      46.192  34.148  27.934  1.00  0.00     0.148 A 
ATOM     95  C   UNL A   1      47.288  34.738  30.451  1.00  0.00     0.002 A 
ATOM     96  C   UNL A   1      46.689  35.417  28.201  1.00  0.00     0.091 A 
ATOM     97  F   UNL A   1      45.633  33.844  26.753  1.00  0.00    -0.205 F 
ATOM     98  C   UNL A   1      47.223  35.719  29.464  1.00  0.00     0.022 A 
BRANCH  96  99
ATOM     99  S   UNL A   1      46.741  36.714  26.959  1.00  0.00     0.127 S 
ATOM    100  O   UNL A   1      47.312  37.828  27.714  1.00  0.00    -0.237 OA
ATOM    101  O   UNL A   1      47.632  36.141  25.950  1.00  0.00    -0.237 OA
ATOM    102  O   UNL A   1      45.367  36.903  26.514  1.00  0.00    -0.744 OA
ENDBRANCH  96  99
ENDBRANCH  69  92
ENDBRANCH  43  44
ENDBRANCH  36  38
ENDBRANCH  35  36
ENDBRANCH  34  35
ENDBRANCH  33  34
ENDBRANCH  32  33
ENDBRANCH  31  32
ENDBRANCH   1  31
TORSDOF 26
ENDMDL
