MODEL 1
REMARK VINA RESULT:      -9.5      0.000      0.000
REMARK SMILES CCCC(=O)Nc1cccc(C(=O)N[C@@H](C(=O)OCCOCCOCCOCCOC(=O)c2ccc(-c3c4nc(c(-c5cccc(S(=O)(=O)[O-])c5F)c5ccc([nH]5)c(-c5cccc(S(=O)(=O)[O-])c5F)c5nc(c(-c6cccc(S(=O)(=O)[O-])c6F)c6ccc3[nH]6)C=C5)C=C4)cc2)c2c(C)n[nH]c2C)c1
REMARK SMILES IDX 23 1 22 2 21 3 20 4 19 5 18 6 16 7 17 8 15 9 14 10 12 11
REMARK SMILES IDX 13 12 11 14 7 15 8 16 103 17 9 18 10 19 6 20 4 21 5 22 3 24
REMARK SMILES IDX 2 25 1 26 96 27 97 28 101 29 98 30 99 31 100 32 102 33 24 35
REMARK SMILES IDX 25 36 26 37 27 38 28 39 29 40 30 41 31 42 32 43 33 44 34 45
REMARK SMILES IDX 95 46 35 47 94 48 36 49 37 50 38 51 88 52 39 53 93 54 87 55
REMARK SMILES IDX 89 56 40 57 92 58 86 59 85 60 41 62 73 63 53 64 72 65 54 66
REMARK SMILES IDX 57 67 71 68 90 69 55 70 56 71 70 73 91 74 58 75 42 76 43 77
REMARK SMILES IDX 51 78 44 79 46 80 52 81 45 82 47 83 48 84 49 85 50 86 74 87
REMARK SMILES IDX 75 88 83 89 76 90 78 91 84 92 77 93 79 94 80 95 81 96 82 97
REMARK SMILES IDX 59 98 60 99 68 100 61 101 63 102 69 103 62 104 64 105 65 106
REMARK SMILES IDX 66 107 67 108
REMARK H PARENT 14 13 6 23 100 34 89 61 57 72
REMARK Flexibility Score: inf
ROOT
ATOM      1  C   UNL A   1      41.377  21.132  27.340  1.00  0.00     0.188 C 
ENDROOT
BRANCH   1   2
ATOM      2  C   UNL A   1      40.372  21.179  26.173  1.00  0.00     0.188 C 
BRANCH   2   3
ATOM      3  O   UNL A   1      38.995  21.441  26.404  1.00  0.00    -0.376 OA
BRANCH   3   4
ATOM      4  C   UNL A   1      38.069  21.492  25.330  1.00  0.00     0.202 C 
BRANCH   4   5
ATOM      5  C   UNL A   1      36.828  22.408  25.378  1.00  0.00     0.261 C 
BRANCH   5   6
ATOM      6  O   UNL A   1      35.580  21.855  24.920  1.00  0.00    -0.461 OA
BRANCH   6   7
ATOM      7  C   UNL A   1      34.576  21.815  25.835  1.00  0.00     0.333 C 
ATOM      8  O   UNL A   1      34.704  21.307  26.944  1.00  0.00    -0.249 OA
BRANCH   7   9
ATOM      9  C   UNL A   1      33.244  22.465  25.312  1.00  0.00     0.227 C 
BRANCH   9  10
ATOM     10  N   UNL A   1      32.144  22.674  26.268  1.00  0.00    -0.335 N 
ATOM     11  C   UNL A   1      31.280  23.691  26.583  1.00  0.00     0.252 C 
ATOM     12  O   UNL A   1      30.485  23.478  27.500  1.00  0.00    -0.269 OA
ATOM     13  H   UNL A   1      31.988  21.877  26.825  1.00  0.00     0.165 HD
BRANCH  11  14
ATOM     14  C   UNL A   1      31.144  24.938  25.796  1.00  0.00     0.041 A 
ATOM     15  C   UNL A   1      32.021  26.574  24.268  1.00  0.00     0.041 A 
ATOM     16  C   UNL A   1      30.738  26.911  23.843  1.00  0.00     0.026 A 
ATOM     17  C   UNL A   1      32.225  25.656  25.302  1.00  0.00     0.040 A 
ATOM     18  C   UNL A   1      29.639  26.301  24.445  1.00  0.00     0.003 A 
ATOM     19  C   UNL A   1      29.842  25.308  25.407  1.00  0.00     0.014 A 
BRANCH  15  20
ATOM     20  N   UNL A   1      33.142  27.118  23.636  1.00  0.00    -0.326 N 
ATOM     21  C   UNL A   1      33.492  28.442  23.743  1.00  0.00     0.224 C 
ATOM     22  O   UNL A   1      33.975  29.016  22.765  1.00  0.00    -0.275 OA
ATOM     23  H   UNL A   1      33.706  26.526  23.088  1.00  0.00     0.169 HD
BRANCH  21  24
ATOM     24  C   UNL A   1      33.340  29.167  25.079  1.00  0.00     0.100 C 
BRANCH  24  25
ATOM     25  C   UNL A   1      34.380  28.830  26.141  1.00  0.00     0.006 C 
ATOM     26  C   UNL A   1      33.907  28.977  27.580  1.00  0.00     0.004 C 
ENDBRANCH  24  25
ENDBRANCH  21  24
ENDBRANCH  15  20
ENDBRANCH  11  14
ENDBRANCH   9  10
BRANCH   9  27
ATOM     27  C   UNL A   1      32.756  21.747  24.035  1.00  0.00     0.029 A 
ATOM     28  C   UNL A   1      32.459  22.220  22.696  1.00  0.00     0.065 A 
ATOM     29  C   UNL A   1      32.420  20.389  23.945  1.00  0.00     0.038 A 
ATOM     30  C   UNL A   1      32.460  23.567  22.061  1.00  0.00     0.069 C 
ATOM     31  N   UNL A   1      32.056  21.230  21.890  1.00  0.00    -0.180 NA
ATOM     32  N   UNL A   1      32.048  20.153  22.657  1.00  0.00    -0.282 N 
ATOM     33  C   UNL A   1      32.357  19.259  24.907  1.00  0.00     0.066 C 
ATOM     34  H   UNL A   1      31.795  19.261  22.327  1.00  0.00     0.190 HD
ENDBRANCH   9  27
ENDBRANCH   7   9
ENDBRANCH   6   7
ENDBRANCH   5   6
ENDBRANCH   4   5
ENDBRANCH   3   4
ENDBRANCH   2   3
ENDBRANCH   1   2
BRANCH   1  35
ATOM     35  O   UNL A   1      42.461  20.253  27.158  1.00  0.00    -0.377 OA
BRANCH  35  36
ATOM     36  C   UNL A   1      42.534  19.656  25.874  1.00  0.00     0.188 C 
BRANCH  36  37
ATOM     37  C   UNL A   1      43.948  19.321  25.358  1.00  0.00     0.188 C 
BRANCH  37  38
ATOM     38  O   UNL A   1      44.398  20.136  24.277  1.00  0.00    -0.376 OA
BRANCH  38  39
ATOM     39  C   UNL A   1      45.508  21.001  24.468  1.00  0.00     0.202 C 
BRANCH  39  40
ATOM     40  C   UNL A   1      45.402  22.038  25.599  1.00  0.00     0.261 C 
BRANCH  40  41
ATOM     41  O   UNL A   1      45.082  23.369  25.183  1.00  0.00    -0.460 OA
BRANCH  41  42
ATOM     42  C   UNL A   1      43.772  23.652  25.031  1.00  0.00     0.338 C 
ATOM     43  O   UNL A   1      42.924  22.936  24.522  1.00  0.00    -0.246 OA
BRANCH  42  44
ATOM     44  C   UNL A   1      43.476  24.874  25.800  1.00  0.00     0.060 A 
ATOM     45  C   UNL A   1      43.220  26.049  25.084  1.00  0.00     0.016 A 
ATOM     46  C   UNL A   1      43.441  24.866  27.198  1.00  0.00     0.016 A 
ATOM     47  C   UNL A   1      42.982  27.237  25.762  1.00  0.00     0.010 A 
ATOM     48  C   UNL A   1      43.242  26.069  27.880  1.00  0.00     0.010 A 
ATOM     49  C   UNL A   1      43.069  27.263  27.159  1.00  0.00    -0.014 A 
BRANCH  49  50
ATOM     50  C   UNL A   1      43.286  28.579  27.799  1.00  0.00     0.031 A 
ATOM     51  C   UNL A   1      42.105  29.226  28.470  1.00  0.00     0.074 A 
ATOM     52  C   UNL A   1      44.508  29.131  27.873  1.00  0.00     0.049 A 
ATOM     53  N   UNL A   1      42.054  30.312  29.194  1.00  0.00    -0.248 NA
ATOM     54  C   UNL A   1      40.806  28.546  28.315  1.00  0.00     0.031 C 
ATOM     55  C   UNL A   1      45.727  28.578  27.288  1.00  0.00     0.029 A 
ATOM     56  N   UNL A   1      44.919  30.288  28.482  1.00  0.00    -0.354 N 
ATOM     57  C   UNL A   1      40.720  30.460  29.554  1.00  0.00     0.074 A 
ATOM     58  C   UNL A   1      39.992  29.361  28.964  1.00  0.00     0.031 C 
ATOM     59  C   UNL A   1      46.752  29.404  27.559  1.00  0.00     0.029 A 
ATOM     60  C   UNL A   1      46.257  30.550  28.320  1.00  0.00     0.049 A 
ATOM     61  H   UNL A   1      44.312  30.876  28.988  1.00  0.00     0.167 HD
ATOM     62  C   UNL A   1      40.153  31.419  30.322  1.00  0.00     0.034 A 
ATOM     63  C   UNL A   1      46.990  31.600  28.740  1.00  0.00     0.034 A 
ATOM     64  C   UNL A   1      40.883  32.503  30.914  1.00  0.00     0.049 A 
ATOM     65  C   UNL A   1      46.326  32.671  29.568  1.00  0.00     0.074 A 
ATOM     66  C   UNL A   1      40.412  33.510  31.735  1.00  0.00     0.029 A 
ATOM     67  N   UNL A   1      42.238  32.733  30.731  1.00  0.00    -0.354 N 
ATOM     68  N   UNL A   1      45.087  32.743  29.992  1.00  0.00    -0.248 NA
ATOM     69  C   UNL A   1      47.175  33.786  30.012  1.00  0.00     0.031 C 
ATOM     70  C   UNL A   1      41.475  34.375  32.015  1.00  0.00     0.029 A 
ATOM     71  C   UNL A   1      42.618  33.875  31.412  1.00  0.00     0.049 A 
ATOM     72  H   UNL A   1      42.840  32.167  30.196  1.00  0.00     0.167 HD
ATOM     73  C   UNL A   1      45.020  33.880  30.792  1.00  0.00     0.074 A 
ATOM     74  C   UNL A   1      46.349  34.455  30.803  1.00  0.00     0.031 C 
ATOM     75  C   UNL A   1      43.958  34.405  31.453  1.00  0.00     0.034 A 
BRANCH  62  76
ATOM     76  C   UNL A   1      38.666  31.339  30.547  1.00  0.00     0.023 A 
ATOM     77  C   UNL A   1      38.150  30.584  31.620  1.00  0.00     0.012 A 
ATOM     78  C   UNL A   1      37.781  32.040  29.706  1.00  0.00     0.148 A 
ATOM     79  C   UNL A   1      36.774  30.499  31.830  1.00  0.00     0.002 A 
ATOM     80  C   UNL A   1      36.415  31.992  29.952  1.00  0.00     0.091 A 
ATOM     81  F   UNL A   1      38.290  32.726  28.673  1.00  0.00    -0.205 F 
ATOM     82  C   UNL A   1      35.908  31.213  31.004  1.00  0.00     0.022 A 
BRANCH  80  83
ATOM     83  S   UNL A   1      35.229  32.941  28.995  1.00  0.00     0.127 S 
ATOM     84  O   UNL A   1      35.618  32.606  27.626  1.00  0.00    -0.237 OA
ATOM     85  O   UNL A   1      33.956  32.363  29.426  1.00  0.00    -0.237 OA
ATOM     86  O   UNL A   1      35.425  34.333  29.375  1.00  0.00    -0.744 OA
ENDBRANCH  80  83
ENDBRANCH  62  76
BRANCH  63  87
ATOM     87  C   UNL A   1      48.445  31.675  28.422  1.00  0.00     0.023 A 
ATOM     88  C   UNL A   1      49.373  30.986  29.228  1.00  0.00     0.012 A 
ATOM     89  C   UNL A   1      48.913  32.430  27.330  1.00  0.00     0.148 A 
ATOM     90  C   UNL A   1      50.742  31.080  28.976  1.00  0.00     0.002 A 
ATOM     91  C   UNL A   1      50.273  32.473  27.050  1.00  0.00     0.091 A 
ATOM     92  F   UNL A   1      48.016  33.089  26.584  1.00  0.00    -0.205 F 
ATOM     93  C   UNL A   1      51.191  31.816  27.883  1.00  0.00     0.022 A 
BRANCH  91  94
ATOM     94  S   UNL A   1      50.934  33.295  25.597  1.00  0.00     0.127 S 
ATOM     95  O   UNL A   1      51.195  32.167  24.706  1.00  0.00    -0.237 OA
ATOM     96  O   UNL A   1      49.812  34.147  25.199  1.00  0.00    -0.237 OA
ATOM     97  O   UNL A   1      52.109  34.023  26.053  1.00  0.00    -0.744 OA
ENDBRANCH  91  94
ENDBRANCH  63  87
BRANCH  75  98
ATOM     98  C   UNL A   1      44.198  35.628  32.302  1.00  0.00     0.023 A 
ATOM     99  C   UNL A   1      44.690  35.498  33.615  1.00  0.00     0.012 A 
ATOM    100  C   UNL A   1      43.985  36.915  31.769  1.00  0.00     0.148 A 
ATOM    101  C   UNL A   1      44.915  36.628  34.402  1.00  0.00     0.002 A 
ATOM    102  C   UNL A   1      44.266  38.036  32.538  1.00  0.00     0.091 A 
ATOM    103  F   UNL A   1      43.502  37.020  30.522  1.00  0.00    -0.205 F 
ATOM    104  C   UNL A   1      44.714  37.896  33.860  1.00  0.00     0.022 A 
BRANCH 102 105
ATOM    105  S   UNL A   1      44.137  39.703  31.882  1.00  0.00     0.127 S 
ATOM    106  O   UNL A   1      42.727  40.009  32.119  1.00  0.00    -0.237 OA
ATOM    107  O   UNL A   1      45.073  40.444  32.729  1.00  0.00    -0.237 OA
ATOM    108  O   UNL A   1      44.533  39.614  30.483  1.00  0.00    -0.744 OA
ENDBRANCH 102 105
ENDBRANCH  75  98
ENDBRANCH  49  50
ENDBRANCH  42  44
ENDBRANCH  41  42
ENDBRANCH  40  41
ENDBRANCH  39  40
ENDBRANCH  38  39
ENDBRANCH  37  38
ENDBRANCH  36  37
ENDBRANCH  35  36
ENDBRANCH   1  35
TORSDOF 29
ENDMDL
MODEL 2
REMARK VINA RESULT:      -9.1      4.816      7.865
REMARK SMILES CCCC(=O)Nc1cccc(C(=O)N[C@@H](C(=O)OCCOCCOCCOCCOC(=O)c2ccc(-c3c4nc(c(-c5cccc(S(=O)(=O)[O-])c5F)c5ccc([nH]5)c(-c5cccc(S(=O)(=O)[O-])c5F)c5nc(c(-c6cccc(S(=O)(=O)[O-])c6F)c6ccc3[nH]6)C=C5)C=C4)cc2)c2c(C)n[nH]c2C)c1
REMARK SMILES IDX 23 1 22 2 21 3 20 4 19 5 18 6 16 7 17 8 15 9 14 10 12 11
REMARK SMILES IDX 13 12 11 14 7 15 8 16 103 17 9 18 10 19 6 20 4 21 5 22 3 24
REMARK SMILES IDX 2 25 1 26 96 27 97 28 101 29 98 30 99 31 100 32 102 33 24 35
REMARK SMILES IDX 25 36 26 37 27 38 28 39 29 40 30 41 31 42 32 43 33 44 34 45
REMARK SMILES IDX 95 46 35 47 94 48 36 49 37 50 38 51 88 52 39 53 93 54 87 55
REMARK SMILES IDX 89 56 40 57 92 58 86 59 85 60 41 62 73 63 53 64 72 65 54 66
REMARK SMILES IDX 57 67 71 68 90 69 55 70 56 71 70 73 91 74 58 75 42 76 43 77
REMARK SMILES IDX 51 78 44 79 46 80 52 81 45 82 47 83 48 84 49 85 50 86 74 87
REMARK SMILES IDX 75 88 83 89 76 90 78 91 84 92 77 93 79 94 80 95 81 96 82 97
REMARK SMILES IDX 59 98 60 99 68 100 61 101 63 102 69 103 62 104 64 105 65 106
REMARK SMILES IDX 66 107 67 108
REMARK H PARENT 14 13 6 23 100 34 89 61 57 72
REMARK Flexibility Score: inf
ROOT
ATOM      1  C   UNL A   1      39.614  21.728  26.382  1.00  0.00     0.188 C 
ENDROOT
BRANCH   1   2
ATOM      2  C   UNL A   1      38.616  20.837  25.617  1.00  0.00     0.188 C 
BRANCH   2   3
ATOM      3  O   UNL A   1      37.707  21.396  24.679  1.00  0.00    -0.376 OA
BRANCH   3   4
ATOM      4  C   UNL A   1      37.182  22.702  24.858  1.00  0.00     0.202 C 
BRANCH   4   5
ATOM      5  C   UNL A   1      36.219  23.332  23.828  1.00  0.00     0.261 C 
BRANCH   5   6
ATOM      6  O   UNL A   1      35.113  24.097  24.340  1.00  0.00    -0.461 OA
BRANCH   6   7
ATOM      7  C   UNL A   1      34.014  24.160  23.543  1.00  0.00     0.333 C 
ATOM      8  O   UNL A   1      34.047  24.594  22.396  1.00  0.00    -0.249 OA
BRANCH   7   9
ATOM      9  C   UNL A   1      32.711  23.643  24.252  1.00  0.00     0.227 C 
BRANCH   9  10
ATOM     10  N   UNL A   1      32.283  24.301  25.498  1.00  0.00    -0.335 N 
ATOM     11  C   UNL A   1      32.174  25.588  25.956  1.00  0.00     0.252 C 
ATOM     12  O   UNL A   1      31.784  25.732  27.116  1.00  0.00    -0.269 OA
ATOM     13  H   UNL A   1      32.003  23.647  26.179  1.00  0.00     0.165 HD
BRANCH  11  14
ATOM     14  C   UNL A   1      32.337  26.789  25.105  1.00  0.00     0.041 A 
ATOM     15  C   UNL A   1      31.613  28.955  24.354  1.00  0.00     0.041 A 
ATOM     16  C   UNL A   1      32.915  29.303  24.001  1.00  0.00     0.026 A 
ATOM     17  C   UNL A   1      31.305  27.675  24.822  1.00  0.00     0.040 A 
ATOM     18  C   UNL A   1      33.932  28.361  24.141  1.00  0.00     0.003 A 
ATOM     19  C   UNL A   1      33.646  27.115  24.705  1.00  0.00     0.014 A 
BRANCH  15  20
ATOM     20  N   UNL A   1      30.586  29.900  24.288  1.00  0.00    -0.326 N 
ATOM     21  C   UNL A   1      29.710  29.981  23.232  1.00  0.00     0.224 C 
ATOM     22  O   UNL A   1      29.321  31.090  22.860  1.00  0.00    -0.275 OA
ATOM     23  H   UNL A   1      30.485  30.538  25.031  1.00  0.00     0.169 HD
BRANCH  21  24
ATOM     24  C   UNL A   1      29.183  28.706  22.578  1.00  0.00     0.100 C 
BRANCH  24  25
ATOM     25  C   UNL A   1      27.918  28.116  23.192  1.00  0.00     0.006 C 
ATOM     26  C   UNL A   1      28.094  26.759  23.858  1.00  0.00     0.004 C 
ENDBRANCH  24  25
ENDBRANCH  21  24
ENDBRANCH  15  20
ENDBRANCH  11  14
ENDBRANCH   9  10
BRANCH   9  27
ATOM     27  C   UNL A   1      32.753  22.107  24.408  1.00  0.00     0.029 A 
ATOM     28  C   UNL A   1      32.435  21.020  23.501  1.00  0.00     0.065 A 
ATOM     29  C   UNL A   1      33.076  21.420  25.586  1.00  0.00     0.038 A 
ATOM     30  C   UNL A   1      31.905  20.966  22.111  1.00  0.00     0.069 C 
ATOM     31  N   UNL A   1      32.619  19.822  24.068  1.00  0.00    -0.180 NA
ATOM     32  N   UNL A   1      33.005  20.089  25.305  1.00  0.00    -0.282 N 
ATOM     33  C   UNL A   1      33.415  21.821  26.975  1.00  0.00     0.066 C 
ATOM     34  H   UNL A   1      33.222  19.390  25.963  1.00  0.00     0.190 HD
ENDBRANCH   9  27
ENDBRANCH   7   9
ENDBRANCH   6   7
ENDBRANCH   5   6
ENDBRANCH   4   5
ENDBRANCH   3   4
ENDBRANCH   2   3
ENDBRANCH   1   2
BRANCH   1  35
ATOM     35  O   UNL A   1      40.666  21.039  27.013  1.00  0.00    -0.377 OA
BRANCH  35  36
ATOM     36  C   UNL A   1      41.286  20.042  26.218  1.00  0.00     0.188 C 
BRANCH  36  37
ATOM     37  C   UNL A   1      42.824  19.964  26.300  1.00  0.00     0.188 C 
BRANCH  37  38
ATOM     38  O   UNL A   1      43.484  19.852  25.040  1.00  0.00    -0.376 OA
BRANCH  38  39
ATOM     39  C   UNL A   1      44.670  20.596  24.803  1.00  0.00     0.202 C 
BRANCH  39  40
ATOM     40  C   UNL A   1      45.056  21.653  25.853  1.00  0.00     0.261 C 
BRANCH  40  41
ATOM     41  O   UNL A   1      44.984  23.011  25.409  1.00  0.00    -0.460 OA
BRANCH  41  42
ATOM     42  C   UNL A   1      43.767  23.457  25.035  1.00  0.00     0.338 C 
ATOM     43  O   UNL A   1      43.078  23.024  24.125  1.00  0.00    -0.246 OA
BRANCH  42  44
ATOM     44  C   UNL A   1      43.292  24.402  26.061  1.00  0.00     0.060 A 
ATOM     45  C   UNL A   1      43.791  25.710  26.025  1.00  0.00     0.016 A 
ATOM     46  C   UNL A   1      42.366  24.017  27.035  1.00  0.00     0.016 A 
ATOM     47  C   UNL A   1      43.410  26.625  26.997  1.00  0.00     0.010 A 
ATOM     48  C   UNL A   1      42.014  24.926  28.037  1.00  0.00     0.010 A 
ATOM     49  C   UNL A   1      42.582  26.212  28.047  1.00  0.00    -0.014 A 
BRANCH  49  50
ATOM     50  C   UNL A   1      42.588  27.034  29.276  1.00  0.00     0.031 A 
ATOM     51  C   UNL A   1      43.511  26.612  30.387  1.00  0.00     0.074 A 
ATOM     52  C   UNL A   1      41.879  28.171  29.365  1.00  0.00     0.049 A 
ATOM     53  N   UNL A   1      43.788  27.217  31.511  1.00  0.00    -0.248 NA
ATOM     54  C   UNL A   1      44.232  25.340  30.197  1.00  0.00     0.031 C 
ATOM     55  C   UNL A   1      40.978  28.692  28.339  1.00  0.00     0.029 A 
ATOM     56  N   UNL A   1      41.815  29.095  30.375  1.00  0.00    -0.354 N 
ATOM     57  C   UNL A   1      44.688  26.389  32.171  1.00  0.00     0.074 A 
ATOM     58  C   UNL A   1      44.906  25.235  31.330  1.00  0.00     0.031 C 
ATOM     59  C   UNL A   1      40.440  29.843  28.779  1.00  0.00     0.029 A 
ATOM     60  C   UNL A   1      40.947  30.129  30.121  1.00  0.00     0.049 A 
ATOM     61  H   UNL A   1      42.340  29.025  31.204  1.00  0.00     0.167 HD
ATOM     62  C   UNL A   1      45.293  26.579  33.366  1.00  0.00     0.034 A 
ATOM     63  C   UNL A   1      40.603  31.180  30.891  1.00  0.00     0.034 A 
ATOM     64  C   UNL A   1      45.081  27.732  34.193  1.00  0.00     0.049 A 
ATOM     65  C   UNL A   1      41.270  31.351  32.233  1.00  0.00     0.074 A 
ATOM     66  C   UNL A   1      45.667  28.040  35.406  1.00  0.00     0.029 A 
ATOM     67  N   UNL A   1      44.198  28.760  33.901  1.00  0.00    -0.354 N 
ATOM     68  N   UNL A   1      42.199  30.617  32.798  1.00  0.00    -0.248 NA
ATOM     69  C   UNL A   1      40.869  32.522  33.026  1.00  0.00     0.031 C 
ATOM     70  C   UNL A   1      45.107  29.234  35.869  1.00  0.00     0.029 A 
ATOM     71  C   UNL A   1      44.211  29.697  34.918  1.00  0.00     0.049 A 
ATOM     72  H   UNL A   1      43.644  28.815  33.089  1.00  0.00     0.167 HD
ATOM     73  C   UNL A   1      42.530  31.264  33.985  1.00  0.00     0.074 A 
ATOM     74  C   UNL A   1      41.710  32.456  34.048  1.00  0.00     0.031 C 
ATOM     75  C   UNL A   1      43.425  30.904  34.939  1.00  0.00     0.034 A 
BRANCH  62  76
ATOM     76  C   UNL A   1      46.229  25.502  33.850  1.00  0.00     0.023 A 
ATOM     77  C   UNL A   1      47.612  25.596  33.594  1.00  0.00     0.012 A 
ATOM     78  C   UNL A   1      45.734  24.409  34.586  1.00  0.00     0.148 A 
ATOM     79  C   UNL A   1      48.483  24.600  34.033  1.00  0.00     0.002 A 
ATOM     80  C   UNL A   1      46.614  23.447  35.063  1.00  0.00     0.091 A 
ATOM     81  F   UNL A   1      44.412  24.323  34.791  1.00  0.00    -0.205 F 
ATOM     82  C   UNL A   1      47.986  23.533  34.777  1.00  0.00     0.022 A 
BRANCH  80  83
ATOM     83  S   UNL A   1      46.081  22.081  36.100  1.00  0.00     0.127 S 
ATOM     84  O   UNL A   1      47.343  21.383  36.340  1.00  0.00    -0.237 OA
ATOM     85  O   UNL A   1      45.537  22.777  37.266  1.00  0.00    -0.237 OA
ATOM     86  O   UNL A   1      45.098  21.342  35.320  1.00  0.00    -0.744 OA
ENDBRANCH  80  83
ENDBRANCH  62  76
BRANCH  63  87
ATOM     87  C   UNL A   1      39.610  32.177  30.401  1.00  0.00     0.023 A 
ATOM     88  C   UNL A   1      40.055  33.387  29.833  1.00  0.00     0.012 A 
ATOM     89  C   UNL A   1      38.226  31.935  30.500  1.00  0.00     0.148 A 
ATOM     90  C   UNL A   1      39.142  34.354  29.410  1.00  0.00     0.002 A 
ATOM     91  C   UNL A   1      37.322  32.876  30.025  1.00  0.00     0.091 A 
ATOM     92  F   UNL A   1      37.822  30.784  31.056  1.00  0.00    -0.205 F 
ATOM     93  C   UNL A   1      37.777  34.095  29.498  1.00  0.00     0.022 A 
BRANCH  91  94
ATOM     94  S   UNL A   1      35.552  32.582  29.987  1.00  0.00     0.127 S 
ATOM     95  O   UNL A   1      35.373  31.681  31.123  1.00  0.00    -0.237 OA
ATOM     96  O   UNL A   1      35.019  33.931  30.180  1.00  0.00    -0.237 OA
ATOM     97  O   UNL A   1      35.273  32.007  28.678  1.00  0.00    -0.744 OA
ENDBRANCH  91  94
ENDBRANCH  63  87
BRANCH  75  98
ATOM     98  C   UNL A   1      43.619  31.842  36.104  1.00  0.00     0.023 A 
ATOM     99  C   UNL A   1      44.575  32.873  36.037  1.00  0.00     0.012 A 
ATOM    100  C   UNL A   1      42.805  31.728  37.249  1.00  0.00     0.148 A 
ATOM    101  C   UNL A   1      44.755  33.743  37.113  1.00  0.00     0.002 A 
ATOM    102  C   UNL A   1      42.950  32.633  38.293  1.00  0.00     0.091 A 
ATOM    103  F   UNL A   1      41.910  30.731  37.304  1.00  0.00    -0.205 F 
ATOM    104  C   UNL A   1      43.936  33.631  38.235  1.00  0.00     0.022 A 
BRANCH 102 105
ATOM    105  S   UNL A   1      41.866  32.625  39.725  1.00  0.00     0.127 S 
ATOM    106  O   UNL A   1      42.061  33.974  40.254  1.00  0.00    -0.237 OA
ATOM    107  O   UNL A   1      40.554  32.391  39.120  1.00  0.00    -0.237 OA
ATOM    108  O   UNL A   1      42.338  31.541  40.577  1.00  0.00    -0.744 OA
ENDBRANCH 102 105
ENDBRANCH  75  98
ENDBRANCH  49  50
ENDBRANCH  42  44
ENDBRANCH  41  42
ENDBRANCH  40  41
ENDBRANCH  39  40
ENDBRANCH  38  39
ENDBRANCH  37  38
ENDBRANCH  36  37
ENDBRANCH  35  36
ENDBRANCH   1  35
TORSDOF 29
ENDMDL
MODEL 3
REMARK VINA RESULT:      -9.0      2.441      8.238
REMARK SMILES CCCC(=O)Nc1cccc(C(=O)N[C@@H](C(=O)OCCOCCOCCOCCOC(=O)c2ccc(-c3c4nc(c(-c5cccc(S(=O)(=O)[O-])c5F)c5ccc([nH]5)c(-c5cccc(S(=O)(=O)[O-])c5F)c5nc(c(-c6cccc(S(=O)(=O)[O-])c6F)c6ccc3[nH]6)C=C5)C=C4)cc2)c2c(C)n[nH]c2C)c1
REMARK SMILES IDX 23 1 22 2 21 3 20 4 19 5 18 6 16 7 17 8 15 9 14 10 12 11
REMARK SMILES IDX 13 12 11 14 7 15 8 16 103 17 9 18 10 19 6 20 4 21 5 22 3 24
REMARK SMILES IDX 2 25 1 26 96 27 97 28 101 29 98 30 99 31 100 32 102 33 24 35
REMARK SMILES IDX 25 36 26 37 27 38 28 39 29 40 30 41 31 42 32 43 33 44 34 45
REMARK SMILES IDX 95 46 35 47 94 48 36 49 37 50 38 51 88 52 39 53 93 54 87 55
REMARK SMILES IDX 89 56 40 57 92 58 86 59 85 60 41 62 73 63 53 64 72 65 54 66
REMARK SMILES IDX 57 67 71 68 90 69 55 70 56 71 70 73 91 74 58 75 42 76 43 77
REMARK SMILES IDX 51 78 44 79 46 80 52 81 45 82 47 83 48 84 49 85 50 86 74 87
REMARK SMILES IDX 75 88 83 89 76 90 78 91 84 92 77 93 79 94 80 95 81 96 82 97
REMARK SMILES IDX 59 98 60 99 68 100 61 101 63 102 69 103 62 104 64 105 65 106
REMARK SMILES IDX 66 107 67 108
REMARK H PARENT 14 13 6 23 100 34 89 61 57 72
REMARK Flexibility Score: inf
ROOT
ATOM      1  C   UNL A   1      39.608  24.040  26.473  1.00  0.00     0.188 C 
ENDROOT
BRANCH   1   2
ATOM      2  C   UNL A   1      38.119  24.104  26.867  1.00  0.00     0.188 C 
BRANCH   2   3
ATOM      3  O   UNL A   1      37.142  23.360  26.153  1.00  0.00    -0.376 OA
BRANCH   3   4
ATOM      4  C   UNL A   1      36.454  23.927  25.048  1.00  0.00     0.202 C 
BRANCH   4   5
ATOM      5  C   UNL A   1      35.039  24.524  25.200  1.00  0.00     0.261 C 
BRANCH   5   6
ATOM      6  O   UNL A   1      34.307  24.803  23.993  1.00  0.00    -0.461 OA
BRANCH   6   7
ATOM      7  C   UNL A   1      32.958  24.911  24.126  1.00  0.00     0.333 C 
ATOM      8  O   UNL A   1      32.170  24.490  23.286  1.00  0.00    -0.249 OA
BRANCH   7   9
ATOM      9  C   UNL A   1      32.530  25.643  25.448  1.00  0.00     0.227 C 
BRANCH   9  10
ATOM     10  N   UNL A   1      31.395  25.099  26.214  1.00  0.00    -0.335 N 
ATOM     11  C   UNL A   1      30.992  23.865  26.652  1.00  0.00     0.252 C 
ATOM     12  O   UNL A   1      29.925  23.816  27.266  1.00  0.00    -0.269 OA
ATOM     13  H   UNL A   1      30.763  25.806  26.481  1.00  0.00     0.165 HD
BRANCH  11  14
ATOM     14  C   UNL A   1      31.825  22.642  26.572  1.00  0.00     0.041 A 
ATOM     15  C   UNL A   1      32.677  20.747  25.363  1.00  0.00     0.041 A 
ATOM     16  C   UNL A   1      33.818  20.711  26.162  1.00  0.00     0.026 A 
ATOM     17  C   UNL A   1      31.641  21.649  25.618  1.00  0.00     0.040 A 
ATOM     18  C   UNL A   1      33.937  21.610  27.219  1.00  0.00     0.003 A 
ATOM     19  C   UNL A   1      32.951  22.581  27.414  1.00  0.00     0.014 A 
BRANCH  15  20
ATOM     20  N   UNL A   1      32.562  19.904  24.255  1.00  0.00    -0.326 N 
ATOM     21  C   UNL A   1      32.908  18.575  24.288  1.00  0.00     0.224 C 
ATOM     22  O   UNL A   1      33.428  18.066  23.292  1.00  0.00    -0.275 OA
ATOM     23  H   UNL A   1      32.218  20.279  23.412  1.00  0.00     0.169 HD
BRANCH  21  24
ATOM     24  C   UNL A   1      32.590  17.732  25.521  1.00  0.00     0.100 C 
BRANCH  24  25
ATOM     25  C   UNL A   1      33.271  16.370  25.590  1.00  0.00     0.006 C 
ATOM     26  C   UNL A   1      32.330  15.182  25.721  1.00  0.00     0.004 C 
ENDBRANCH  24  25
ENDBRANCH  21  24
ENDBRANCH  15  20
ENDBRANCH  11  14
ENDBRANCH   9  10
BRANCH   9  27
ATOM     27  C   UNL A   1      32.371  27.159  25.201  1.00  0.00     0.029 A 
ATOM     28  C   UNL A   1      33.114  28.313  25.672  1.00  0.00     0.065 A 
ATOM     29  C   UNL A   1      31.345  27.757  24.456  1.00  0.00     0.038 A 
ATOM     30  C   UNL A   1      34.265  28.482  26.600  1.00  0.00     0.069 C 
ATOM     31  N   UNL A   1      32.615  29.461  25.196  1.00  0.00    -0.180 NA
ATOM     32  N   UNL A   1      31.567  29.100  24.473  1.00  0.00    -0.282 N 
ATOM     33  C   UNL A   1      30.140  27.260  23.744  1.00  0.00     0.066 C 
ATOM     34  H   UNL A   1      31.001  29.744  23.990  1.00  0.00     0.190 HD
ENDBRANCH   9  27
ENDBRANCH   7   9
ENDBRANCH   6   7
ENDBRANCH   5   6
ENDBRANCH   4   5
ENDBRANCH   3   4
ENDBRANCH   2   3
ENDBRANCH   1   2
BRANCH   1  35
ATOM     35  O   UNL A   1      40.158  22.745  26.432  1.00  0.00    -0.377 OA
BRANCH  35  36
ATOM     36  C   UNL A   1      40.694  22.286  27.660  1.00  0.00     0.188 C 
BRANCH  36  37
ATOM     37  C   UNL A   1      42.232  22.313  27.786  1.00  0.00     0.188 C 
BRANCH  37  38
ATOM     38  O   UNL A   1      42.871  23.366  27.065  1.00  0.00    -0.376 OA
BRANCH  38  39
ATOM     39  C   UNL A   1      43.635  23.058  25.909  1.00  0.00     0.202 C 
BRANCH  39  40
ATOM     40  C   UNL A   1      44.134  24.242  25.063  1.00  0.00     0.261 C 
BRANCH  40  41
ATOM     41  O   UNL A   1      44.123  25.513  25.721  1.00  0.00    -0.460 OA
BRANCH  41  42
ATOM     42  C   UNL A   1      43.044  26.292  25.502  1.00  0.00     0.338 C 
ATOM     43  O   UNL A   1      42.163  26.105  24.677  1.00  0.00    -0.246 OA
BRANCH  42  44
ATOM     44  C   UNL A   1      42.971  27.286  26.587  1.00  0.00     0.060 A 
ATOM     45  C   UNL A   1      42.179  28.422  26.378  1.00  0.00     0.016 A 
ATOM     46  C   UNL A   1      43.658  27.105  27.791  1.00  0.00     0.016 A 
ATOM     47  C   UNL A   1      42.114  29.411  27.350  1.00  0.00     0.010 A 
ATOM     48  C   UNL A   1      43.624  28.119  28.752  1.00  0.00     0.010 A 
ATOM     49  C   UNL A   1      42.897  29.296  28.505  1.00  0.00    -0.014 A 
BRANCH  49  50
ATOM     50  C   UNL A   1      43.171  30.536  29.262  1.00  0.00     0.031 A 
ATOM     51  C   UNL A   1      44.273  31.427  28.757  1.00  0.00     0.074 A 
ATOM     52  C   UNL A   1      42.403  30.910  30.299  1.00  0.00     0.049 A 
ATOM     53  N   UNL A   1      44.636  32.613  29.167  1.00  0.00    -0.248 NA
ATOM     54  C   UNL A   1      45.067  30.915  27.624  1.00  0.00     0.031 C 
ATOM     55  C   UNL A   1      41.291  30.143  30.853  1.00  0.00     0.029 A 
ATOM     56  N   UNL A   1      42.450  32.045  31.067  1.00  0.00    -0.354 N 
ATOM     57  C   UNL A   1      45.711  32.974  28.365  1.00  0.00     0.074 A 
ATOM     58  C   UNL A   1      45.952  31.882  27.451  1.00  0.00     0.031 C 
ATOM     59  C   UNL A   1      40.763  30.826  31.883  1.00  0.00     0.029 A 
ATOM     60  C   UNL A   1      41.512  32.068  32.070  1.00  0.00     0.049 A 
ATOM     61  H   UNL A   1      43.094  32.773  30.915  1.00  0.00     0.167 HD
ATOM     62  C   UNL A   1      46.429  34.121  28.378  1.00  0.00     0.034 A 
ATOM     63  C   UNL A   1      41.293  32.990  33.028  1.00  0.00     0.034 A 
ATOM     64  C   UNL A   1      46.179  35.208  29.281  1.00  0.00     0.049 A 
ATOM     65  C   UNL A   1      42.126  34.246  33.038  1.00  0.00     0.074 A 
ATOM     66  C   UNL A   1      46.824  36.428  29.358  1.00  0.00     0.029 A 
ATOM     67  N   UNL A   1      45.219  35.197  30.281  1.00  0.00    -0.354 N 
ATOM     68  N   UNL A   1      43.069  34.623  32.208  1.00  0.00    -0.248 NA
ATOM     69  C   UNL A   1      41.835  35.225  34.096  1.00  0.00     0.031 C 
ATOM     70  C   UNL A   1      46.281  37.140  30.432  1.00  0.00     0.029 A 
ATOM     71  C   UNL A   1      45.262  36.384  30.990  1.00  0.00     0.049 A 
ATOM     72  H   UNL A   1      44.597  34.455  30.459  1.00  0.00     0.167 HD
ATOM     73  C   UNL A   1      43.447  35.900  32.611  1.00  0.00     0.074 A 
ATOM     74  C   UNL A   1      42.619  36.236  33.751  1.00  0.00     0.031 C 
ATOM     75  C   UNL A   1      44.395  36.721  32.091  1.00  0.00     0.034 A 
BRANCH  62  76
ATOM     76  C   UNL A   1      47.560  34.245  27.391  1.00  0.00     0.023 A 
ATOM     77  C   UNL A   1      47.334  34.813  26.120  1.00  0.00     0.012 A 
ATOM     78  C   UNL A   1      48.856  33.822  27.739  1.00  0.00     0.148 A 
ATOM     79  C   UNL A   1      48.375  34.923  25.199  1.00  0.00     0.002 A 
ATOM     80  C   UNL A   1      49.898  33.982  26.835  1.00  0.00     0.091 A 
ATOM     81  F   UNL A   1      49.042  33.256  28.940  1.00  0.00    -0.205 F 
ATOM     82  C   UNL A   1      49.658  34.520  25.561  1.00  0.00     0.022 A 
BRANCH  80  83
ATOM     83  S   UNL A   1      51.598  33.569  27.240  1.00  0.00     0.127 S 
ATOM     84  O   UNL A   1      51.510  32.123  27.440  1.00  0.00    -0.237 OA
ATOM     85  O   UNL A   1      52.307  33.975  26.026  1.00  0.00    -0.237 OA
ATOM     86  O   UNL A   1      51.930  34.344  28.426  1.00  0.00    -0.744 OA
ENDBRANCH  80  83
ENDBRANCH  62  76
BRANCH  63  87
ATOM     87  C   UNL A   1      40.211  32.784  34.034  1.00  0.00     0.023 A 
ATOM     88  C   UNL A   1      40.497  32.116  35.241  1.00  0.00     0.012 A 
ATOM     89  C   UNL A   1      38.901  33.243  33.797  1.00  0.00     0.148 A 
ATOM     90  C   UNL A   1      39.489  31.872  36.175  1.00  0.00     0.002 A 
ATOM     91  C   UNL A   1      37.915  33.048  34.757  1.00  0.00     0.091 A 
ATOM     92  F   UNL A   1      38.647  33.864  32.638  1.00  0.00    -0.205 F 
ATOM     93  C   UNL A   1      38.202  32.345  35.937  1.00  0.00     0.022 A 
BRANCH  91  94
ATOM     94  S   UNL A   1      36.261  33.725  34.591  1.00  0.00     0.127 S 
ATOM     95  O   UNL A   1      35.600  32.708  33.778  1.00  0.00    -0.237 OA
ATOM     96  O   UNL A   1      35.820  33.782  35.986  1.00  0.00    -0.237 OA
ATOM     97  O   UNL A   1      36.426  35.027  33.959  1.00  0.00    -0.744 OA
ENDBRANCH  91  94
ENDBRANCH  63  87
BRANCH  75  98
ATOM     98  C   UNL A   1      44.546  38.090  32.703  1.00  0.00     0.023 A 
ATOM     99  C   UNL A   1      45.447  38.299  33.765  1.00  0.00     0.012 A 
ATOM    100  C   UNL A   1      43.828  39.184  32.182  1.00  0.00     0.148 A 
ATOM    101  C   UNL A   1      45.590  39.566  34.333  1.00  0.00     0.002 A 
ATOM    102  C   UNL A   1      44.019  40.453  32.714  1.00  0.00     0.091 A 
ATOM    103  F   UNL A   1      42.962  38.965  31.180  1.00  0.00    -0.205 F 
ATOM    104  C   UNL A   1      44.886  40.643  33.801  1.00  0.00     0.022 A 
BRANCH 102 105
ATOM    105  S   UNL A   1      43.232  41.910  32.019  1.00  0.00     0.127 S 
ATOM    106  O   UNL A   1      43.840  41.973  30.690  1.00  0.00    -0.237 OA
ATOM    107  O   UNL A   1      41.818  41.534  32.026  1.00  0.00    -0.237 OA
ATOM    108  O   UNL A   1      43.566  43.010  32.914  1.00  0.00    -0.744 OA
ENDBRANCH 102 105
ENDBRANCH  75  98
ENDBRANCH  49  50
ENDBRANCH  42  44
ENDBRANCH  41  42
ENDBRANCH  40  41
ENDBRANCH  39  40
ENDBRANCH  38  39
ENDBRANCH  37  38
ENDBRANCH  36  37
ENDBRANCH  35  36
ENDBRANCH   1  35
TORSDOF 29
ENDMDL
