MODEL 1
REMARK VINA RESULT:      -8.8      0.000      0.000
REMARK SMILES O=CN1CCN(S(=O)(=O)c2ccc(C(=O)OCCOCCOCCOCCOC(=O)c3ccc(-c4c5nc(c(-c6cccc(S(=O)(=O)[O-])c6F)c6ccc([nH]6)c(-c6cccc(S(=O)(=O)[O-])c6F)c6nc(c(-c7cccc(S(=O)(=O)[O-])c7F)c7ccc4[nH]7)C=C6)C=C5)cc3)cc2)CC1
REMARK SMILES IDX 23 1 22 2 21 3 20 4 19 5 18 6 17 7 16 8 14 9 15 10 13 11
REMARK SMILES IDX 10 12 11 13 95 14 12 15 94 16 7 17 8 18 9 19 6 20 1 21 2 22
REMARK SMILES IDX 3 23 4 24 97 25 5 26 96 27 24 28 25 29 26 30 27 31 28 32
REMARK SMILES IDX 29 33 30 34 31 35 32 36 93 37 33 38 92 39 34 40 35 41 36 42
REMARK SMILES IDX 86 43 37 44 91 45 85 46 87 47 38 48 90 49 84 50 83 51 39 53
REMARK SMILES IDX 71 54 51 55 70 56 52 57 55 58 69 59 88 60 53 61 54 62 68 64
REMARK SMILES IDX 89 65 56 66 40 67 41 68 49 69 42 70 44 71 50 72 43 73 45 74
REMARK SMILES IDX 46 75 47 76 48 77 72 78 73 79 81 80 74 81 76 82 82 83 75 84
REMARK SMILES IDX 77 85 78 86 79 87 80 88 57 89 58 90 66 91 59 92 61 93 67 94
REMARK SMILES IDX 60 95 62 96 63 97 64 98 65 99
REMARK H PARENT 87 52 55 63
REMARK Flexibility Score: inf
ROOT
ATOM      1  C   UNL A   1      42.098  19.448  26.134  1.00  0.00     0.188 C 
ENDROOT
BRANCH   1   2
ATOM      2  O   UNL A   1      41.999  20.457  27.139  1.00  0.00    -0.377 OA
BRANCH   2   3
ATOM      3  C   UNL A   1      42.796  21.619  27.025  1.00  0.00     0.188 C 
BRANCH   3   4
ATOM      4  C   UNL A   1      42.578  22.663  28.134  1.00  0.00     0.188 C 
BRANCH   4   5
ATOM      5  O   UNL A   1      41.234  23.125  28.230  1.00  0.00    -0.376 OA
BRANCH   5   6
ATOM      6  C   UNL A   1      40.545  23.365  27.009  1.00  0.00     0.202 C 
BRANCH   6   7
ATOM      7  C   UNL A   1      39.222  22.613  26.806  1.00  0.00     0.261 C 
BRANCH   7   8
ATOM      8  O   UNL A   1      38.442  23.066  25.694  1.00  0.00    -0.460 OA
BRANCH   8   9
ATOM      9  C   UNL A   1      37.674  22.169  25.042  1.00  0.00     0.338 C 
ATOM     10  O   UNL A   1      37.926  20.993  24.844  1.00  0.00    -0.246 OA
BRANCH   9  11
ATOM     11  C   UNL A   1      36.359  22.807  24.771  1.00  0.00     0.060 A 
ATOM     12  C   UNL A   1      33.930  24.097  24.315  1.00  0.00     0.082 A 
ATOM     13  C   UNL A   1      34.454  24.052  25.610  1.00  0.00     0.022 A 
ATOM     14  C   UNL A   1      34.654  23.577  23.237  1.00  0.00     0.022 A 
ATOM     15  C   UNL A   1      35.674  23.407  25.837  1.00  0.00     0.017 A 
ATOM     16  C   UNL A   1      35.848  22.899  23.470  1.00  0.00     0.017 A 
BRANCH  12  17
ATOM     17  S   UNL A   1      32.358  24.868  24.015  1.00  0.00     0.243 S 
ATOM     18  O   UNL A   1      31.731  25.116  25.293  1.00  0.00    -0.207 OA
ATOM     19  O   UNL A   1      31.668  24.087  23.006  1.00  0.00    -0.207 OA
BRANCH  17  20
ATOM     20  N   UNL A   1      32.762  26.366  23.290  1.00  0.00    -0.194 NA
ATOM     21  O   UNL A   1      32.154  30.570  26.027  1.00  0.00    -0.279 OA
ATOM     22  C   UNL A   1      31.454  29.879  25.300  1.00  0.00     0.340 C 
ATOM     23  N   UNL A   1      31.786  28.643  24.800  1.00  0.00    -0.343 N 
ATOM     24  C   UNL A   1      30.858  27.860  23.985  1.00  0.00     0.136 C 
ATOM     25  C   UNL A   1      33.029  27.988  25.207  1.00  0.00     0.136 C 
ATOM     26  C   UNL A   1      31.571  27.151  22.822  1.00  0.00     0.124 C 
ATOM     27  C   UNL A   1      33.701  27.286  24.021  1.00  0.00     0.124 C 
ENDBRANCH  17  20
ENDBRANCH  12  17
ENDBRANCH   9  11
ENDBRANCH   8   9
ENDBRANCH   7   8
ENDBRANCH   6   7
ENDBRANCH   5   6
ENDBRANCH   4   5
ENDBRANCH   3   4
ENDBRANCH   2   3
ENDBRANCH   1   2
BRANCH   1  28
ATOM     28  C   UNL A   1      43.012  18.207  26.281  1.00  0.00     0.188 C 
BRANCH  28  29
ATOM     29  O   UNL A   1      44.325  18.357  25.754  1.00  0.00    -0.376 OA
BRANCH  29  30
ATOM     30  C   UNL A   1      44.545  19.467  24.897  1.00  0.00     0.202 C 
BRANCH  30  31
ATOM     31  C   UNL A   1      46.024  19.819  24.701  1.00  0.00     0.261 C 
BRANCH  31  32
ATOM     32  O   UNL A   1      46.330  21.218  24.810  1.00  0.00    -0.460 OA
BRANCH  32  33
ATOM     33  C   UNL A   1      45.418  22.088  24.327  1.00  0.00     0.338 C 
ATOM     34  O   UNL A   1      44.577  21.876  23.471  1.00  0.00    -0.246 OA
BRANCH  33  35
ATOM     35  C   UNL A   1      45.484  23.308  25.151  1.00  0.00     0.060 A 
ATOM     36  C   UNL A   1      46.629  23.544  25.923  1.00  0.00     0.016 A 
ATOM     37  C   UNL A   1      44.420  24.213  25.156  1.00  0.00     0.016 A 
ATOM     38  C   UNL A   1      46.692  24.672  26.741  1.00  0.00     0.010 A 
ATOM     39  C   UNL A   1      44.480  25.332  25.985  1.00  0.00     0.010 A 
ATOM     40  C   UNL A   1      45.600  25.547  26.806  1.00  0.00    -0.014 A 
BRANCH  40  41
ATOM     41  C   UNL A   1      45.536  26.576  27.870  1.00  0.00     0.031 A 
ATOM     42  C   UNL A   1      45.290  26.124  29.282  1.00  0.00     0.074 A 
ATOM     43  C   UNL A   1      45.661  27.884  27.584  1.00  0.00     0.049 A 
ATOM     44  N   UNL A   1      45.152  26.838  30.368  1.00  0.00    -0.248 NA
ATOM     45  C   UNL A   1      45.179  24.671  29.498  1.00  0.00     0.031 C 
ATOM     46  C   UNL A   1      45.893  28.443  26.255  1.00  0.00     0.029 A 
ATOM     47  N   UNL A   1      45.579  28.982  28.404  1.00  0.00    -0.354 N 
ATOM     48  C   UNL A   1      44.912  25.926  31.389  1.00  0.00     0.074 A 
ATOM     49  C   UNL A   1      44.911  24.609  30.794  1.00  0.00     0.031 C 
ATOM     50  C   UNL A   1      45.901  29.785  26.343  1.00  0.00     0.029 A 
ATOM     51  C   UNL A   1      45.655  30.178  27.729  1.00  0.00     0.049 A 
ATOM     52  H   UNL A   1      45.475  28.919  29.381  1.00  0.00     0.167 HD
ATOM     53  C   UNL A   1      44.724  26.162  32.708  1.00  0.00     0.034 A 
ATOM     54  C   UNL A   1      45.520  31.441  28.181  1.00  0.00     0.034 A 
ATOM     55  C   UNL A   1      44.737  27.470  33.301  1.00  0.00     0.049 A 
ATOM     56  C   UNL A   1      45.291  31.678  29.653  1.00  0.00     0.074 A 
ATOM     57  C   UNL A   1      44.608  27.810  34.636  1.00  0.00     0.029 A 
ATOM     58  N   UNL A   1      44.871  28.657  32.597  1.00  0.00    -0.354 N 
ATOM     59  N   UNL A   1      45.204  30.805  30.629  1.00  0.00    -0.248 NA
ATOM     60  C   UNL A   1      45.174  33.077  30.093  1.00  0.00     0.031 C 
ATOM     61  C   UNL A   1      44.638  29.205  34.735  1.00  0.00     0.029 A 
ATOM     62  C   UNL A   1      44.814  29.731  33.465  1.00  0.00     0.049 A 
ATOM     63  H   UNL A   1      44.988  28.723  31.621  1.00  0.00     0.167 HD
ATOM     64  C   UNL A   1      45.060  31.547  31.796  1.00  0.00     0.074 A 
ATOM     65  C   UNL A   1      45.091  32.943  31.409  1.00  0.00     0.031 C 
ATOM     66  C   UNL A   1      44.903  31.115  33.073  1.00  0.00     0.034 A 
BRANCH  53  67
ATOM     67  C   UNL A   1      44.513  24.972  33.604  1.00  0.00     0.023 A 
ATOM     68  C   UNL A   1      43.204  24.598  33.967  1.00  0.00     0.012 A 
ATOM     69  C   UNL A   1      45.603  24.199  34.047  1.00  0.00     0.148 A 
ATOM     70  C   UNL A   1      42.984  23.488  34.782  1.00  0.00     0.002 A 
ATOM     71  C   UNL A   1      45.374  23.071  34.824  1.00  0.00     0.091 A 
ATOM     72  F   UNL A   1      46.842  24.589  33.713  1.00  0.00    -0.205 F 
ATOM     73  C   UNL A   1      44.067  22.721  35.201  1.00  0.00     0.022 A 
BRANCH  71  74
ATOM     74  S   UNL A   1      46.695  21.974  35.352  1.00  0.00     0.127 S 
ATOM     75  O   UNL A   1      47.637  22.917  35.955  1.00  0.00    -0.237 OA
ATOM     76  O   UNL A   1      46.009  21.104  36.307  1.00  0.00    -0.237 OA
ATOM     77  O   UNL A   1      47.165  21.304  34.148  1.00  0.00    -0.744 OA
ENDBRANCH  71  74
ENDBRANCH  53  67
BRANCH  54  78
ATOM     78  C   UNL A   1      45.634  32.588  27.235  1.00  0.00     0.023 A 
ATOM     79  C   UNL A   1      44.495  33.019  26.527  1.00  0.00     0.012 A 
ATOM     80  C   UNL A   1      46.857  33.257  27.040  1.00  0.00     0.148 A 
ATOM     81  C   UNL A   1      44.578  34.075  25.619  1.00  0.00     0.002 A 
ATOM     82  C   UNL A   1      46.922  34.344  26.175  1.00  0.00     0.091 A 
ATOM     83  F   UNL A   1      47.935  32.820  27.707  1.00  0.00    -0.205 F 
ATOM     84  C   UNL A   1      45.788  34.743  25.451  1.00  0.00     0.022 A 
BRANCH  82  85
ATOM     85  S   UNL A   1      48.403  35.343  25.992  1.00  0.00     0.127 S 
ATOM     86  O   UNL A   1      47.849  36.627  25.571  1.00  0.00    -0.237 OA
ATOM     87  O   UNL A   1      48.950  35.323  27.350  1.00  0.00    -0.237 OA
ATOM     88  O   UNL A   1      49.224  34.652  25.007  1.00  0.00    -0.744 OA
ENDBRANCH  82  85
ENDBRANCH  54  78
BRANCH  66  89
ATOM     89  C   UNL A   1      44.790  32.153  34.160  1.00  0.00     0.023 A 
ATOM     90  C   UNL A   1      43.520  32.627  34.546  1.00  0.00     0.012 A 
ATOM     91  C   UNL A   1      45.933  32.589  34.859  1.00  0.00     0.148 A 
ATOM     92  C   UNL A   1      43.394  33.545  35.589  1.00  0.00     0.002 A 
ATOM     93  C   UNL A   1      45.794  33.465  35.929  1.00  0.00     0.091 A 
ATOM     94  F   UNL A   1      47.134  32.139  34.466  1.00  0.00    -0.205 F 
ATOM     95  C   UNL A   1      44.528  33.953  36.289  1.00  0.00     0.022 A 
BRANCH  93  96
ATOM     96  S   UNL A   1      47.187  33.968  36.947  1.00  0.00     0.127 S 
ATOM     97  O   UNL A   1      47.721  32.678  37.380  1.00  0.00    -0.237 OA
ATOM     98  O   UNL A   1      48.029  34.686  35.989  1.00  0.00    -0.237 OA
ATOM     99  O   UNL A   1      46.631  34.803  38.004  1.00  0.00    -0.744 OA
ENDBRANCH  93  96
ENDBRANCH  66  89
ENDBRANCH  40  41
ENDBRANCH  33  35
ENDBRANCH  32  33
ENDBRANCH  31  32
ENDBRANCH  30  31
ENDBRANCH  29  30
ENDBRANCH  28  29
ENDBRANCH   1  28
TORSDOF 25
ENDMDL
MODEL 2
REMARK VINA RESULT:      -8.4      5.026     12.651
REMARK SMILES O=CN1CCN(S(=O)(=O)c2ccc(C(=O)OCCOCCOCCOCCOC(=O)c3ccc(-c4c5nc(c(-c6cccc(S(=O)(=O)[O-])c6F)c6ccc([nH]6)c(-c6cccc(S(=O)(=O)[O-])c6F)c6nc(c(-c7cccc(S(=O)(=O)[O-])c7F)c7ccc4[nH]7)C=C6)C=C5)cc3)cc2)CC1
REMARK SMILES IDX 23 1 22 2 21 3 20 4 19 5 18 6 17 7 16 8 14 9 15 10 13 11
REMARK SMILES IDX 10 12 11 13 95 14 12 15 94 16 7 17 8 18 9 19 6 20 1 21 2 22
REMARK SMILES IDX 3 23 4 24 97 25 5 26 96 27 24 28 25 29 26 30 27 31 28 32
REMARK SMILES IDX 29 33 30 34 31 35 32 36 93 37 33 38 92 39 34 40 35 41 36 42
REMARK SMILES IDX 86 43 37 44 91 45 85 46 87 47 38 48 90 49 84 50 83 51 39 53
REMARK SMILES IDX 71 54 51 55 70 56 52 57 55 58 69 59 88 60 53 61 54 62 68 64
REMARK SMILES IDX 89 65 56 66 40 67 41 68 49 69 42 70 44 71 50 72 43 73 45 74
REMARK SMILES IDX 46 75 47 76 48 77 72 78 73 79 81 80 74 81 76 82 82 83 75 84
REMARK SMILES IDX 77 85 78 86 79 87 80 88 57 89 58 90 66 91 59 92 61 93 67 94
REMARK SMILES IDX 60 95 62 96 63 97 64 98 65 99
REMARK H PARENT 87 52 55 63
REMARK Flexibility Score: inf
ROOT
ATOM      1  C   UNL A   1      34.354  36.237  33.473  1.00  0.00     0.188 C 
ENDROOT
BRANCH   1   2
ATOM      2  O   UNL A   1      35.450  35.329  33.371  1.00  0.00    -0.377 OA
BRANCH   2   3
ATOM      3  C   UNL A   1      35.635  34.360  34.385  1.00  0.00     0.188 C 
BRANCH   3   4
ATOM      4  C   UNL A   1      37.068  33.812  34.501  1.00  0.00     0.188 C 
BRANCH   4   5
ATOM      5  O   UNL A   1      37.190  32.709  35.395  1.00  0.00    -0.376 OA
BRANCH   5   6
ATOM      6  C   UNL A   1      37.574  33.001  36.733  1.00  0.00     0.202 C 
BRANCH   6   7
ATOM      7  C   UNL A   1      38.668  34.061  36.919  1.00  0.00     0.261 C 
BRANCH   7   8
ATOM      8  O   UNL A   1      39.997  33.536  37.022  1.00  0.00    -0.460 OA
BRANCH   8   9
ATOM      9  C   UNL A   1      40.784  33.565  35.927  1.00  0.00     0.338 C 
ATOM     10  O   UNL A   1      41.365  34.532  35.465  1.00  0.00    -0.246 OA
BRANCH   9  11
ATOM     11  C   UNL A   1      40.991  32.164  35.478  1.00  0.00     0.060 A 
ATOM     12  C   UNL A   1      41.439  29.574  34.546  1.00  0.00     0.082 A 
ATOM     13  C   UNL A   1      40.897  30.533  33.685  1.00  0.00     0.022 A 
ATOM     14  C   UNL A   1      41.837  29.925  35.840  1.00  0.00     0.022 A 
ATOM     15  C   UNL A   1      40.676  31.831  34.153  1.00  0.00     0.017 A 
ATOM     16  C   UNL A   1      41.578  31.208  36.318  1.00  0.00     0.017 A 
BRANCH  12  17
ATOM     17  S   UNL A   1      41.681  27.905  33.985  1.00  0.00     0.243 S 
ATOM     18  O   UNL A   1      42.421  27.954  32.746  1.00  0.00    -0.207 OA
ATOM     19  O   UNL A   1      40.398  27.232  34.041  1.00  0.00    -0.207 OA
BRANCH  17  20
ATOM     20  N   UNL A   1      42.664  27.199  35.196  1.00  0.00    -0.194 NA
ATOM     21  O   UNL A   1      44.570  22.601  34.327  1.00  0.00    -0.279 OA
ATOM     22  C   UNL A   1      43.530  23.056  34.784  1.00  0.00     0.340 C 
ATOM     23  N   UNL A   1      43.143  24.374  34.747  1.00  0.00    -0.343 N 
ATOM     24  C   UNL A   1      41.850  24.818  35.266  1.00  0.00     0.136 C 
ATOM     25  C   UNL A   1      43.949  25.363  34.032  1.00  0.00     0.136 C 
ATOM     26  C   UNL A   1      41.959  26.156  36.014  1.00  0.00     0.124 C 
ATOM     27  C   UNL A   1      44.023  26.685  34.807  1.00  0.00     0.124 C 
ENDBRANCH  17  20
ENDBRANCH  12  17
ENDBRANCH   9  11
ENDBRANCH   8   9
ENDBRANCH   7   8
ENDBRANCH   6   7
ENDBRANCH   5   6
ENDBRANCH   4   5
ENDBRANCH   3   4
ENDBRANCH   2   3
ENDBRANCH   1   2
BRANCH   1  28
ATOM     28  C   UNL A   1      33.139  36.192  32.515  1.00  0.00     0.188 C 
BRANCH  28  29
ATOM     29  O   UNL A   1      33.423  36.523  31.161  1.00  0.00    -0.376 OA
BRANCH  29  30
ATOM     30  C   UNL A   1      32.654  35.859  30.168  1.00  0.00     0.202 C 
BRANCH  30  31
ATOM     31  C   UNL A   1      33.464  34.891  29.298  1.00  0.00     0.261 C 
BRANCH  31  32
ATOM     32  O   UNL A   1      34.778  34.592  29.792  1.00  0.00    -0.460 OA
BRANCH  32  33
ATOM     33  C   UNL A   1      34.929  33.442  30.484  1.00  0.00     0.338 C 
ATOM     34  O   UNL A   1      34.048  32.707  30.894  1.00  0.00    -0.246 OA
BRANCH  33  35
ATOM     35  C   UNL A   1      36.367  33.117  30.503  1.00  0.00     0.060 A 
ATOM     36  C   UNL A   1      37.200  33.670  29.522  1.00  0.00     0.016 A 
ATOM     37  C   UNL A   1      36.884  32.273  31.488  1.00  0.00     0.016 A 
ATOM     38  C   UNL A   1      38.556  33.342  29.500  1.00  0.00     0.010 A 
ATOM     39  C   UNL A   1      38.236  31.935  31.455  1.00  0.00     0.010 A 
ATOM     40  C   UNL A   1      39.069  32.439  30.441  1.00  0.00    -0.014 A 
BRANCH  40  41
ATOM     41  C   UNL A   1      40.422  31.866  30.257  1.00  0.00     0.031 A 
ATOM     42  C   UNL A   1      41.609  32.705  30.643  1.00  0.00     0.074 A 
ATOM     43  C   UNL A   1      40.596  30.641  29.730  1.00  0.00     0.049 A 
ATOM     44  N   UNL A   1      42.883  32.437  30.534  1.00  0.00    -0.248 NA
ATOM     45  C   UNL A   1      41.318  34.027  31.223  1.00  0.00     0.031 C 
ATOM     46  C   UNL A   1      39.526  29.740  29.311  1.00  0.00     0.029 A 
ATOM     47  N   UNL A   1      41.749  29.960  29.431  1.00  0.00    -0.354 N 
ATOM     48  C   UNL A   1      43.545  33.564  31.006  1.00  0.00     0.074 A 
ATOM     49  C   UNL A   1      42.534  34.523  31.391  1.00  0.00     0.031 C 
ATOM     50  C   UNL A   1      40.074  28.634  28.776  1.00  0.00     0.029 A 
ATOM     51  C   UNL A   1      41.530  28.760  28.797  1.00  0.00     0.049 A 
ATOM     52  H   UNL A   1      42.648  30.299  29.649  1.00  0.00     0.167 HD
ATOM     53  C   UNL A   1      44.877  33.776  31.125  1.00  0.00     0.034 A 
ATOM     54  C   UNL A   1      42.408  27.878  28.278  1.00  0.00     0.034 A 
ATOM     55  C   UNL A   1      45.880  32.818  30.753  1.00  0.00     0.049 A 
ATOM     56  C   UNL A   1      43.886  28.146  28.403  1.00  0.00     0.074 A 
ATOM     57  C   UNL A   1      47.254  32.919  30.883  1.00  0.00     0.029 A 
ATOM     58  N   UNL A   1      45.622  31.590  30.165  1.00  0.00    -0.354 N 
ATOM     59  N   UNL A   1      44.499  29.154  28.978  1.00  0.00    -0.248 NA
ATOM     60  C   UNL A   1      44.798  27.139  27.838  1.00  0.00     0.031 C 
ATOM     61  C   UNL A   1      47.827  31.760  30.348  1.00  0.00     0.029 A 
ATOM     62  C   UNL A   1      46.809  30.928  29.911  1.00  0.00     0.049 A 
ATOM     63  H   UNL A   1      44.724  31.242  29.957  1.00  0.00     0.167 HD
ATOM     64  C   UNL A   1      45.860  28.885  28.876  1.00  0.00     0.074 A 
ATOM     65  C   UNL A   1      45.983  27.609  28.202  1.00  0.00     0.031 C 
ATOM     66  C   UNL A   1      46.914  29.631  29.290  1.00  0.00     0.034 A 
BRANCH  53  67
ATOM     67  C   UNL A   1      45.321  35.091  31.703  1.00  0.00     0.023 A 
ATOM     68  C   UNL A   1      45.559  36.184  30.846  1.00  0.00     0.012 A 
ATOM     69  C   UNL A   1      45.459  35.259  33.094  1.00  0.00     0.148 A 
ATOM     70  C   UNL A   1      45.955  37.417  31.362  1.00  0.00     0.002 A 
ATOM     71  C   UNL A   1      45.814  36.502  33.604  1.00  0.00     0.091 A 
ATOM     72  F   UNL A   1      45.256  34.199  33.890  1.00  0.00    -0.205 F 
ATOM     73  C   UNL A   1      46.073  37.578  32.739  1.00  0.00     0.022 A 
BRANCH  71  74
ATOM     74  S   UNL A   1      45.919  36.830  35.367  1.00  0.00     0.127 S 
ATOM     75  O   UNL A   1      44.611  36.370  35.832  1.00  0.00    -0.237 OA
ATOM     76  O   UNL A   1      47.042  35.984  35.770  1.00  0.00    -0.237 OA
ATOM     77  O   UNL A   1      46.160  38.261  35.494  1.00  0.00    -0.744 OA
ENDBRANCH  71  74
ENDBRANCH  53  67
BRANCH  54  78
ATOM     78  C   UNL A   1      41.914  26.634  27.619  1.00  0.00     0.023 A 
ATOM     79  C   UNL A   1      41.248  26.722  26.381  1.00  0.00     0.012 A 
ATOM     80  C   UNL A   1      42.108  25.369  28.205  1.00  0.00     0.148 A 
ATOM     81  C   UNL A   1      40.756  25.577  25.754  1.00  0.00     0.002 A 
ATOM     82  C   UNL A   1      41.665  24.226  27.549  1.00  0.00     0.091 A 
ATOM     83  F   UNL A   1      42.726  25.306  29.393  1.00  0.00    -0.205 F 
ATOM     84  C   UNL A   1      40.973  24.329  26.332  1.00  0.00     0.022 A 
BRANCH  82  85
ATOM     85  S   UNL A   1      42.012  22.571  28.154  1.00  0.00     0.127 S 
ATOM     86  O   UNL A   1      40.699  21.938  28.067  1.00  0.00    -0.237 OA
ATOM     87  O   UNL A   1      42.993  22.093  27.179  1.00  0.00    -0.237 OA
ATOM     88  O   UNL A   1      42.543  22.748  29.499  1.00  0.00    -0.744 OA
ENDBRANCH  82  85
ENDBRANCH  54  78
BRANCH  66  89
ATOM     89  C   UNL A   1      48.300  29.081  29.067  1.00  0.00     0.023 A 
ATOM     90  C   UNL A   1      49.034  29.473  27.931  1.00  0.00     0.012 A 
ATOM     91  C   UNL A   1      48.905  28.247  30.028  1.00  0.00     0.148 A 
ATOM     92  C   UNL A   1      50.339  29.018  27.739  1.00  0.00     0.002 A 
ATOM     93  C   UNL A   1      50.222  27.837  29.854  1.00  0.00     0.091 A 
ATOM     94  F   UNL A   1      48.183  27.871  31.095  1.00  0.00    -0.205 F 
ATOM     95  C   UNL A   1      50.936  28.212  28.705  1.00  0.00     0.022 A 
BRANCH  93  96
ATOM     96  S   UNL A   1      51.102  26.879  31.094  1.00  0.00     0.127 S 
ATOM     97  O   UNL A   1      52.427  26.757  30.491  1.00  0.00    -0.237 OA
ATOM     98  O   UNL A   1      51.042  27.755  32.265  1.00  0.00    -0.237 OA
ATOM     99  O   UNL A   1      50.361  25.632  31.238  1.00  0.00    -0.744 OA
ENDBRANCH  93  96
ENDBRANCH  66  89
ENDBRANCH  40  41
ENDBRANCH  33  35
ENDBRANCH  32  33
ENDBRANCH  31  32
ENDBRANCH  30  31
ENDBRANCH  29  30
ENDBRANCH  28  29
ENDBRANCH   1  28
TORSDOF 25
ENDMDL
MODEL 3
REMARK VINA RESULT:      -8.2      4.772      9.189
REMARK SMILES O=CN1CCN(S(=O)(=O)c2ccc(C(=O)OCCOCCOCCOCCOC(=O)c3ccc(-c4c5nc(c(-c6cccc(S(=O)(=O)[O-])c6F)c6ccc([nH]6)c(-c6cccc(S(=O)(=O)[O-])c6F)c6nc(c(-c7cccc(S(=O)(=O)[O-])c7F)c7ccc4[nH]7)C=C6)C=C5)cc3)cc2)CC1
REMARK SMILES IDX 23 1 22 2 21 3 20 4 19 5 18 6 17 7 16 8 14 9 15 10 13 11
REMARK SMILES IDX 10 12 11 13 95 14 12 15 94 16 7 17 8 18 9 19 6 20 1 21 2 22
REMARK SMILES IDX 3 23 4 24 97 25 5 26 96 27 24 28 25 29 26 30 27 31 28 32
REMARK SMILES IDX 29 33 30 34 31 35 32 36 93 37 33 38 92 39 34 40 35 41 36 42
REMARK SMILES IDX 86 43 37 44 91 45 85 46 87 47 38 48 90 49 84 50 83 51 39 53
REMARK SMILES IDX 71 54 51 55 70 56 52 57 55 58 69 59 88 60 53 61 54 62 68 64
REMARK SMILES IDX 89 65 56 66 40 67 41 68 49 69 42 70 44 71 50 72 43 73 45 74
REMARK SMILES IDX 46 75 47 76 48 77 72 78 73 79 81 80 74 81 76 82 82 83 75 84
REMARK SMILES IDX 77 85 78 86 79 87 80 88 57 89 58 90 66 91 59 92 61 93 67 94
REMARK SMILES IDX 60 95 62 96 63 97 64 98 65 99
REMARK H PARENT 87 52 55 63
REMARK Flexibility Score: inf
ROOT
ATOM      1  C   UNL A   1      46.334  25.565  32.779  1.00  0.00     0.188 C 
ENDROOT
BRANCH   1   2
ATOM      2  O   UNL A   1      47.054  25.579  31.547  1.00  0.00    -0.377 OA
BRANCH   2   3
ATOM      3  C   UNL A   1      46.411  26.062  30.383  1.00  0.00     0.188 C 
BRANCH   3   4
ATOM      4  C   UNL A   1      45.652  24.996  29.575  1.00  0.00     0.188 C 
BRANCH   4   5
ATOM      5  O   UNL A   1      44.236  25.147  29.614  1.00  0.00    -0.376 OA
BRANCH   5   6
ATOM      6  C   UNL A   1      43.569  25.317  28.368  1.00  0.00     0.202 C 
BRANCH   6   7
ATOM      7  C   UNL A   1      42.056  25.060  28.357  1.00  0.00     0.261 C 
BRANCH   7   8
ATOM      8  O   UNL A   1      41.257  26.207  28.047  1.00  0.00    -0.460 OA
BRANCH   8   9
ATOM      9  C   UNL A   1      39.986  26.243  28.494  1.00  0.00     0.338 C 
ATOM     10  O   UNL A   1      39.221  25.301  28.609  1.00  0.00    -0.246 OA
BRANCH   9  11
ATOM     11  C   UNL A   1      39.727  27.608  29.021  1.00  0.00     0.060 A 
ATOM     12  C   UNL A   1      39.134  30.164  29.968  1.00  0.00     0.082 A 
ATOM     13  C   UNL A   1      38.893  29.852  28.626  1.00  0.00     0.022 A 
ATOM     14  C   UNL A   1      39.587  29.181  30.855  1.00  0.00     0.022 A 
ATOM     15  C   UNL A   1      39.188  28.570  28.154  1.00  0.00     0.017 A 
ATOM     16  C   UNL A   1      39.920  27.917  30.374  1.00  0.00     0.017 A 
BRANCH  12  17
ATOM     17  S   UNL A   1      38.813  31.802  30.576  1.00  0.00     0.243 S 
ATOM     18  O   UNL A   1      38.510  32.646  29.443  1.00  0.00    -0.207 OA
ATOM     19  O   UNL A   1      39.891  32.156  31.479  1.00  0.00    -0.207 OA
BRANCH  17  20
ATOM     20  N   UNL A   1      37.405  31.621  31.532  1.00  0.00    -0.194 NA
ATOM     21  O   UNL A   1      33.369  34.432  30.373  1.00  0.00    -0.279 OA
ATOM     22  C   UNL A   1      34.375  34.568  31.055  1.00  0.00     0.340 C 
ATOM     23  N   UNL A   1      35.458  33.722  31.071  1.00  0.00    -0.343 N 
ATOM     24  C   UNL A   1      36.647  33.998  31.876  1.00  0.00     0.136 C 
ATOM     25  C   UNL A   1      35.526  32.588  30.149  1.00  0.00     0.136 C 
ATOM     26  C   UNL A   1      37.207  32.724  32.531  1.00  0.00     0.124 C 
ATOM     27  C   UNL A   1      36.098  31.344  30.839  1.00  0.00     0.124 C 
ENDBRANCH  17  20
ENDBRANCH  12  17
ENDBRANCH   9  11
ENDBRANCH   8   9
ENDBRANCH   7   8
ENDBRANCH   6   7
ENDBRANCH   5   6
ENDBRANCH   4   5
ENDBRANCH   3   4
ENDBRANCH   2   3
ENDBRANCH   1   2
BRANCH   1  28
ATOM     28  C   UNL A   1      46.488  24.433  33.824  1.00  0.00     0.188 C 
BRANCH  28  29
ATOM     29  O   UNL A   1      45.901  24.698  35.094  1.00  0.00    -0.376 OA
BRANCH  29  30
ATOM     30  C   UNL A   1      45.515  23.569  35.864  1.00  0.00     0.202 C 
BRANCH  30  31
ATOM     31  C   UNL A   1      44.140  23.002  35.490  1.00  0.00     0.261 C 
BRANCH  31  32
ATOM     32  O   UNL A   1      43.230  23.954  34.920  1.00  0.00    -0.460 OA
BRANCH  32  33
ATOM     33  C   UNL A   1      42.588  24.780  35.774  1.00  0.00     0.338 C 
ATOM     34  O   UNL A   1      42.155  24.507  36.879  1.00  0.00    -0.246 OA
BRANCH  33  35
ATOM     35  C   UNL A   1      42.657  26.142  35.215  1.00  0.00     0.060 A 
ATOM     36  C   UNL A   1      41.518  26.685  34.606  1.00  0.00     0.016 A 
ATOM     37  C   UNL A   1      43.842  26.876  35.296  1.00  0.00     0.016 A 
ATOM     38  C   UNL A   1      41.577  27.956  34.035  1.00  0.00     0.010 A 
ATOM     39  C   UNL A   1      43.903  28.141  34.712  1.00  0.00     0.010 A 
ATOM     40  C   UNL A   1      42.783  28.670  34.049  1.00  0.00    -0.014 A 
BRANCH  40  41
ATOM     41  C   UNL A   1      42.939  29.879  33.207  1.00  0.00     0.031 A 
ATOM     42  C   UNL A   1      43.191  29.694  31.737  1.00  0.00     0.074 A 
ATOM     43  C   UNL A   1      42.890  31.112  33.740  1.00  0.00     0.049 A 
ATOM     44  N   UNL A   1      43.402  30.593  30.812  1.00  0.00    -0.248 NA
ATOM     45  C   UNL A   1      43.215  28.306  31.243  1.00  0.00     0.031 C 
ATOM     46  C   UNL A   1      42.661  31.417  35.150  1.00  0.00     0.029 A 
ATOM     47  N   UNL A   1      43.063  32.340  33.151  1.00  0.00    -0.354 N 
ATOM     48  C   UNL A   1      43.609  29.882  29.637  1.00  0.00     0.074 A 
ATOM     49  C   UNL A   1      43.511  28.477  29.964  1.00  0.00     0.031 C 
ATOM     50  C   UNL A   1      42.741  32.748  35.325  1.00  0.00     0.029 A 
ATOM     51  C   UNL A   1      43.046  33.385  34.045  1.00  0.00     0.049 A 
ATOM     52  H   UNL A   1      43.187  32.461  32.182  1.00  0.00     0.167 HD
ATOM     53  C   UNL A   1      43.845  30.356  28.391  1.00  0.00     0.034 A 
ATOM     54  C   UNL A   1      43.272  34.700  33.850  1.00  0.00     0.034 A 
ATOM     55  C   UNL A   1      43.930  31.752  28.065  1.00  0.00     0.049 A 
ATOM     56  C   UNL A   1      43.553  35.201  32.455  1.00  0.00     0.074 A 
ATOM     57  C   UNL A   1      44.114  32.334  26.823  1.00  0.00     0.029 A 
ATOM     58  N   UNL A   1      43.854  32.786  28.984  1.00  0.00    -0.354 N 
ATOM     59  N   UNL A   1      43.609  34.530  31.329  1.00  0.00    -0.248 NA
ATOM     60  C   UNL A   1      43.770  36.648  32.298  1.00  0.00     0.031 C 
ATOM     61  C   UNL A   1      44.175  33.721  26.997  1.00  0.00     0.029 A 
ATOM     62  C   UNL A   1      44.001  34.002  28.343  1.00  0.00     0.049 A 
ATOM     63  H   UNL A   1      43.717  32.670  29.953  1.00  0.00     0.167 HD
ATOM     64  C   UNL A   1      43.829  35.473  30.331  1.00  0.00     0.074 A 
ATOM     65  C   UNL A   1      43.877  36.766  30.982  1.00  0.00     0.031 C 
ATOM     66  C   UNL A   1      43.991  35.286  28.997  1.00  0.00     0.034 A 
BRANCH  53  67
ATOM     67  C   UNL A   1      44.002  29.351  27.283  1.00  0.00     0.023 A 
ATOM     68  C   UNL A   1      42.866  28.914  26.573  1.00  0.00     0.012 A 
ATOM     69  C   UNL A   1      45.275  28.874  26.916  1.00  0.00     0.148 A 
ATOM     70  C   UNL A   1      42.990  27.995  25.532  1.00  0.00     0.002 A 
ATOM     71  C   UNL A   1      45.395  27.991  25.850  1.00  0.00     0.091 A 
ATOM     72  F   UNL A   1      46.339  29.281  27.623  1.00  0.00    -0.205 F 
ATOM     73  C   UNL A   1      44.254  27.542  25.165  1.00  0.00     0.022 A 
BRANCH  71  74
ATOM     74  S   UNL A   1      46.985  27.408  25.252  1.00  0.00     0.127 S 
ATOM     75  O   UNL A   1      46.634  26.896  23.928  1.00  0.00    -0.237 OA
ATOM     76  O   UNL A   1      47.779  28.636  25.240  1.00  0.00    -0.237 OA
ATOM     77  O   UNL A   1      47.431  26.406  26.212  1.00  0.00    -0.744 OA
ENDBRANCH  71  74
ENDBRANCH  53  67
BRANCH  54  78
ATOM     78  C   UNL A   1      43.208  35.646  35.000  1.00  0.00     0.023 A 
ATOM     79  C   UNL A   1      41.956  36.113  35.446  1.00  0.00     0.012 A 
ATOM     80  C   UNL A   1      44.375  36.077  35.659  1.00  0.00     0.148 A 
ATOM     81  C   UNL A   1      41.870  37.016  36.506  1.00  0.00     0.002 A 
ATOM     82  C   UNL A   1      44.279  36.934  36.750  1.00  0.00     0.091 A 
ATOM     83  F   UNL A   1      45.559  35.638  35.208  1.00  0.00    -0.205 F 
ATOM     84  C   UNL A   1      43.029  37.418  37.164  1.00  0.00     0.022 A 
BRANCH  82  85
ATOM     85  S   UNL A   1      45.706  37.403  37.736  1.00  0.00     0.127 S 
ATOM     86  O   UNL A   1      46.203  36.104  38.181  1.00  0.00    -0.237 OA
ATOM     87  O   UNL A   1      46.547  38.079  36.747  1.00  0.00    -0.237 OA
ATOM     88  O   UNL A   1      45.190  38.278  38.781  1.00  0.00    -0.744 OA
ENDBRANCH  82  85
ENDBRANCH  54  78
BRANCH  66  89
ATOM     89  C   UNL A   1      44.197  36.505  28.134  1.00  0.00     0.023 A 
ATOM     90  C   UNL A   1      43.096  37.309  27.782  1.00  0.00     0.012 A 
ATOM     91  C   UNL A   1      45.493  36.900  27.747  1.00  0.00     0.148 A 
ATOM     92  C   UNL A   1      43.278  38.471  27.032  1.00  0.00     0.002 A 
ATOM     93  C   UNL A   1      45.672  38.084  27.042  1.00  0.00     0.091 A 
ATOM     94  F   UNL A   1      46.528  36.112  28.077  1.00  0.00    -0.205 F 
ATOM     95  C   UNL A   1      44.565  38.866  26.674  1.00  0.00     0.022 A 
BRANCH  93  96
ATOM     96  S   UNL A   1      47.301  38.718  26.624  1.00  0.00     0.127 S 
ATOM     97  O   UNL A   1      47.039  40.150  26.497  1.00  0.00    -0.237 OA
ATOM     98  O   UNL A   1      48.091  38.344  27.798  1.00  0.00    -0.237 OA
ATOM     99  O   UNL A   1      47.692  38.040  25.395  1.00  0.00    -0.744 OA
ENDBRANCH  93  96
ENDBRANCH  66  89
ENDBRANCH  40  41
ENDBRANCH  33  35
ENDBRANCH  32  33
ENDBRANCH  31  32
ENDBRANCH  30  31
ENDBRANCH  29  30
ENDBRANCH  28  29
ENDBRANCH   1  28
TORSDOF 25
ENDMDL
