MODEL 1
REMARK VINA RESULT:     -10.9      0.000      0.000
REMARK SMILES O=C(Cc1cccc(-c2ccn(C(F)F)c(=O)c2)c1)OCCOCCOCCOCCOC(=O)c1ccc(-c2c3nc(c(-c4cccc(S(=O)(=O)[O-])c4F)c4ccc([nH]4)c(-c4cccc(S(=O)(=O)[O-])c4F)c4nc(c(-c5cccc(S(=O)(=O)[O-])c5F)c5ccc2[nH]5)C=C4)C=C3)cc1
REMARK SMILES IDX 26 1 25 2 24 3 23 4 22 5 21 6 20 7 2 8 1 9 3 10 4 11 5 12
REMARK SMILES IDX 19 13 6 14 8 15 7 16 9 17 10 18 18 19 11 20 16 21 12 22
REMARK SMILES IDX 17 23 13 24 14 25 15 26 27 27 28 28 29 29 30 30 31 31 32 32
REMARK SMILES IDX 33 33 34 34 35 35 36 36 97 37 37 38 96 39 38 40 39 41 40 42
REMARK SMILES IDX 90 43 41 44 95 45 89 46 91 47 42 48 94 49 88 50 87 51 43 53
REMARK SMILES IDX 75 54 55 55 74 56 56 57 59 58 73 59 92 60 57 61 58 62 72 64
REMARK SMILES IDX 93 65 60 66 44 67 45 68 53 69 46 70 48 71 54 72 47 73 49 74
REMARK SMILES IDX 50 75 51 76 52 77 76 78 77 79 85 80 78 81 80 82 86 83 79 84
REMARK SMILES IDX 81 85 82 86 83 87 84 88 61 89 62 90 70 91 63 92 65 93 71 94
REMARK SMILES IDX 64 95 66 96 67 97 68 98 69 99
REMARK H PARENT 91 52 59 63
REMARK Flexibility Score: inf
ROOT
ATOM      1  O   UNL A   1      30.561  28.548  23.805  1.00  0.00    -0.377 OA
ENDROOT
BRANCH   1   2
ATOM      2  C   UNL A   1      31.817  28.789  23.188  1.00  0.00     0.188 C 
BRANCH   2   3
ATOM      3  C   UNL A   1      32.991  28.846  24.160  1.00  0.00     0.188 C 
BRANCH   3   4
ATOM      4  O   UNL A   1      33.673  27.636  24.446  1.00  0.00    -0.376 OA
BRANCH   4   5
ATOM      5  C   UNL A   1      33.529  26.852  25.618  1.00  0.00     0.202 C 
BRANCH   5   6
ATOM      6  C   UNL A   1      32.226  26.803  26.404  1.00  0.00     0.261 C 
BRANCH   6   7
ATOM      7  O   UNL A   1      31.680  25.525  26.762  1.00  0.00    -0.463 OA
BRANCH   7   8
ATOM      8  C   UNL A   1      30.681  24.844  26.174  1.00  0.00     0.310 C 
ATOM      9  O   UNL A   1      30.046  24.015  26.828  1.00  0.00    -0.252 OA
BRANCH   8  10
ATOM     10  C   UNL A   1      30.397  25.033  24.708  1.00  0.00     0.158 C 
BRANCH  10  11
ATOM     11  C   UNL A   1      31.405  24.374  23.830  1.00  0.00    -0.036 A 
ATOM     12  C   UNL A   1      32.137  25.013  22.825  1.00  0.00     0.004 A 
ATOM     13  C   UNL A   1      31.578  23.014  24.022  1.00  0.00     0.013 A 
ATOM     14  C   UNL A   1      32.982  24.283  21.991  1.00  0.00     0.001 A 
ATOM     15  C   UNL A   1      32.426  22.277  23.202  1.00  0.00    -0.018 A 
ATOM     16  C   UNL A   1      33.118  22.909  22.169  1.00  0.00     0.009 A 
BRANCH  15  17
ATOM     17  C   UNL A   1      32.562  20.867  23.565  1.00  0.00    -0.011 A 
ATOM     18  C   UNL A   1      33.314  20.446  24.731  1.00  0.00     0.027 A 
ATOM     19  C   UNL A   1      32.202  19.971  22.635  1.00  0.00     0.080 A 
ATOM     20  C   UNL A   1      33.707  19.177  24.848  1.00  0.00     0.095 A 
ATOM     21  C   UNL A   1      32.582  18.545  22.786  1.00  0.00     0.255 A 
ATOM     22  N   UNL A   1      33.354  18.239  23.896  1.00  0.00    -0.258 N 
ATOM     23  O   UNL A   1      32.230  17.753  21.917  1.00  0.00    -0.269 OA
BRANCH  22  24
ATOM     24  C   UNL A   1      33.792  16.879  24.022  1.00  0.00     0.451 C 
ATOM     25  F   UNL A   1      32.799  16.091  24.497  1.00  0.00    -0.185 F 
ATOM     26  F   UNL A   1      34.190  16.382  22.824  1.00  0.00    -0.185 F 
ENDBRANCH  22  24
ENDBRANCH  15  17
ENDBRANCH  10  11
ENDBRANCH   8  10
ENDBRANCH   7   8
ENDBRANCH   6   7
ENDBRANCH   5   6
ENDBRANCH   4   5
ENDBRANCH   3   4
ENDBRANCH   2   3
ENDBRANCH   1   2
BRANCH   1  27
ATOM     27  C   UNL A   1      29.523  29.401  23.351  1.00  0.00     0.188 C 
BRANCH  27  28
ATOM     28  C   UNL A   1      29.799  30.915  23.521  1.00  0.00     0.188 C 
BRANCH  28  29
ATOM     29  O   UNL A   1      29.798  31.538  24.794  1.00  0.00    -0.376 OA
BRANCH  29  30
ATOM     30  C   UNL A   1      30.818  31.276  25.740  1.00  0.00     0.202 C 
BRANCH  30  31
ATOM     31  C   UNL A   1      31.492  32.367  26.595  1.00  0.00     0.261 C 
BRANCH  31  32
ATOM     32  O   UNL A   1      32.634  31.991  27.369  1.00  0.00    -0.460 OA
BRANCH  32  33
ATOM     33  C   UNL A   1      33.431  33.005  27.778  1.00  0.00     0.338 C 
ATOM     34  O   UNL A   1      33.084  34.144  28.047  1.00  0.00    -0.246 OA
BRANCH  33  35
ATOM     35  C   UNL A   1      34.767  32.451  28.104  1.00  0.00     0.060 A 
ATOM     36  C   UNL A   1      34.853  31.075  28.366  1.00  0.00     0.016 A 
ATOM     37  C   UNL A   1      35.924  33.235  28.083  1.00  0.00     0.016 A 
ATOM     38  C   UNL A   1      36.081  30.490  28.651  1.00  0.00     0.010 A 
ATOM     39  C   UNL A   1      37.155  32.654  28.410  1.00  0.00     0.010 A 
ATOM     40  C   UNL A   1      37.226  31.289  28.741  1.00  0.00    -0.014 A 
BRANCH  40  41
ATOM     41  C   UNL A   1      38.396  30.731  29.457  1.00  0.00     0.031 A 
ATOM     42  C   UNL A   1      38.593  31.140  30.893  1.00  0.00     0.074 A 
ATOM     43  C   UNL A   1      39.202  29.815  28.894  1.00  0.00     0.049 A 
ATOM     44  N   UNL A   1      39.480  30.730  31.759  1.00  0.00    -0.248 NA
ATOM     45  C   UNL A   1      37.654  32.145  31.425  1.00  0.00     0.031 C 
ATOM     46  C   UNL A   1      39.106  29.329  27.519  1.00  0.00     0.029 A 
ATOM     47  N   UNL A   1      40.275  29.137  29.419  1.00  0.00    -0.354 N 
ATOM     48  C   UNL A   1      39.212  31.426  32.931  1.00  0.00     0.074 A 
ATOM     49  C   UNL A   1      38.100  32.310  32.659  1.00  0.00     0.031 C 
ATOM     50  C   UNL A   1      40.100  28.448  27.300  1.00  0.00     0.029 A 
ATOM     51  C   UNL A   1      40.904  28.318  28.513  1.00  0.00     0.049 A 
ATOM     52  H   UNL A   1      40.563  29.228  30.355  1.00  0.00     0.167 HD
ATOM     53  C   UNL A   1      39.818  31.327  34.137  1.00  0.00     0.034 A 
ATOM     54  C   UNL A   1      42.015  27.565  28.649  1.00  0.00     0.034 A 
ATOM     55  C   UNL A   1      40.923  30.450  34.408  1.00  0.00     0.049 A 
ATOM     56  C   UNL A   1      42.697  27.497  29.993  1.00  0.00     0.074 A 
ATOM     57  C   UNL A   1      41.603  30.267  35.598  1.00  0.00     0.029 A 
ATOM     58  N   UNL A   1      41.521  29.621  33.473  1.00  0.00    -0.354 N 
ATOM     59  N   UNL A   1      42.368  28.083  31.119  1.00  0.00    -0.248 NA
ATOM     60  C   UNL A   1      43.878  26.626  30.095  1.00  0.00     0.031 C 
ATOM     61  C   UNL A   1      42.631  29.346  35.375  1.00  0.00     0.029 A 
ATOM     62  C   UNL A   1      42.565  28.926  34.056  1.00  0.00     0.049 A 
ATOM     63  H   UNL A   1      41.242  29.537  32.532  1.00  0.00     0.167 HD
ATOM     64  C   UNL A   1      43.280  27.630  32.068  1.00  0.00     0.074 A 
ATOM     65  C   UNL A   1      44.152  26.694  31.390  1.00  0.00     0.031 C 
ATOM     66  C   UNL A   1      43.398  27.966  33.377  1.00  0.00     0.034 A 
BRANCH  53  67
ATOM     67  C   UNL A   1      39.276  32.174  35.257  1.00  0.00     0.023 A 
ATOM     68  C   UNL A   1      38.161  31.725  35.996  1.00  0.00     0.012 A 
ATOM     69  C   UNL A   1      39.892  33.390  35.606  1.00  0.00     0.148 A 
ATOM     70  C   UNL A   1      37.649  32.487  37.044  1.00  0.00     0.002 A 
ATOM     71  C   UNL A   1      39.406  34.122  36.683  1.00  0.00     0.091 A 
ATOM     72  F   UNL A   1      40.934  33.811  34.875  1.00  0.00    -0.205 F 
ATOM     73  C   UNL A   1      38.279  33.679  37.395  1.00  0.00     0.022 A 
BRANCH  71  74
ATOM     74  S   UNL A   1      40.191  35.629  37.264  1.00  0.00     0.127 S 
ATOM     75  O   UNL A   1      39.806  35.637  38.675  1.00  0.00    -0.237 OA
ATOM     76  O   UNL A   1      41.605  35.351  37.019  1.00  0.00    -0.237 OA
ATOM     77  O   UNL A   1      39.631  36.709  36.463  1.00  0.00    -0.744 OA
ENDBRANCH  71  74
ENDBRANCH  53  67
BRANCH  54  78
ATOM     78  C   UNL A   1      42.551  26.804  27.485  1.00  0.00     0.023 A 
ATOM     79  C   UNL A   1      43.343  27.453  26.517  1.00  0.00     0.012 A 
ATOM     80  C   UNL A   1      42.267  25.433  27.330  1.00  0.00     0.148 A 
ATOM     81  C   UNL A   1      43.807  26.760  25.397  1.00  0.00     0.002 A 
ATOM     82  C   UNL A   1      42.785  24.735  26.246  1.00  0.00     0.091 A 
ATOM     83  F   UNL A   1      41.495  24.837  28.250  1.00  0.00    -0.205 F 
ATOM     84  C   UNL A   1      43.537  25.401  25.267  1.00  0.00     0.022 A 
BRANCH  82  85
ATOM     85  S   UNL A   1      42.603  22.956  26.075  1.00  0.00     0.127 S 
ATOM     86  O   UNL A   1      43.691  22.462  26.915  1.00  0.00    -0.237 OA
ATOM     87  O   UNL A   1      41.259  22.741  26.613  1.00  0.00    -0.237 OA
ATOM     88  O   UNL A   1      42.729  22.684  24.649  1.00  0.00    -0.744 OA
ENDBRANCH  82  85
ENDBRANCH  54  78
BRANCH  66  89
ATOM     89  C   UNL A   1      44.486  27.292  34.174  1.00  0.00     0.023 A 
ATOM     90  C   UNL A   1      45.768  27.874  34.252  1.00  0.00     0.012 A 
ATOM     91  C   UNL A   1      44.226  26.101  34.882  1.00  0.00     0.148 A 
ATOM     92  C   UNL A   1      46.785  27.255  34.979  1.00  0.00     0.002 A 
ATOM     93  C   UNL A   1      45.229  25.520  35.648  1.00  0.00     0.091 A 
ATOM     94  F   UNL A   1      43.006  25.553  34.785  1.00  0.00    -0.205 F 
ATOM     95  C   UNL A   1      46.514  26.085  35.683  1.00  0.00     0.022 A 
BRANCH  93  96
ATOM     96  S   UNL A   1      44.942  24.067  36.665  1.00  0.00     0.127 S 
ATOM     97  O   UNL A   1      44.034  24.593  37.684  1.00  0.00    -0.237 OA
ATOM     98  O   UNL A   1      44.324  23.141  35.716  1.00  0.00    -0.237 OA
ATOM     99  O   UNL A   1      46.251  23.651  37.147  1.00  0.00    -0.744 OA
ENDBRANCH  93  96
ENDBRANCH  66  89
ENDBRANCH  40  41
ENDBRANCH  33  35
ENDBRANCH  32  33
ENDBRANCH  31  32
ENDBRANCH  30  31
ENDBRANCH  29  30
ENDBRANCH  28  29
ENDBRANCH  27  28
ENDBRANCH   1  27
TORSDOF 26
ENDMDL
MODEL 2
REMARK VINA RESULT:     -10.5      2.374      3.249
REMARK SMILES O=C(Cc1cccc(-c2ccn(C(F)F)c(=O)c2)c1)OCCOCCOCCOCCOC(=O)c1ccc(-c2c3nc(c(-c4cccc(S(=O)(=O)[O-])c4F)c4ccc([nH]4)c(-c4cccc(S(=O)(=O)[O-])c4F)c4nc(c(-c5cccc(S(=O)(=O)[O-])c5F)c5ccc2[nH]5)C=C4)C=C3)cc1
REMARK SMILES IDX 26 1 25 2 24 3 23 4 22 5 21 6 20 7 2 8 1 9 3 10 4 11 5 12
REMARK SMILES IDX 19 13 6 14 8 15 7 16 9 17 10 18 18 19 11 20 16 21 12 22
REMARK SMILES IDX 17 23 13 24 14 25 15 26 27 27 28 28 29 29 30 30 31 31 32 32
REMARK SMILES IDX 33 33 34 34 35 35 36 36 97 37 37 38 96 39 38 40 39 41 40 42
REMARK SMILES IDX 90 43 41 44 95 45 89 46 91 47 42 48 94 49 88 50 87 51 43 53
REMARK SMILES IDX 75 54 55 55 74 56 56 57 59 58 73 59 92 60 57 61 58 62 72 64
REMARK SMILES IDX 93 65 60 66 44 67 45 68 53 69 46 70 48 71 54 72 47 73 49 74
REMARK SMILES IDX 50 75 51 76 52 77 76 78 77 79 85 80 78 81 80 82 86 83 79 84
REMARK SMILES IDX 81 85 82 86 83 87 84 88 61 89 62 90 70 91 63 92 65 93 71 94
REMARK SMILES IDX 64 95 66 96 67 97 68 98 69 99
REMARK H PARENT 91 52 59 63
REMARK Flexibility Score: inf
ROOT
ATOM      1  O   UNL A   1      30.158  27.266  23.925  1.00  0.00    -0.377 OA
ENDROOT
BRANCH   1   2
ATOM      2  C   UNL A   1      30.224  26.037  23.217  1.00  0.00     0.188 C 
BRANCH   2   3
ATOM      3  C   UNL A   1      31.093  26.081  21.964  1.00  0.00     0.188 C 
BRANCH   3   4
ATOM      4  O   UNL A   1      32.379  25.486  22.030  1.00  0.00    -0.376 OA
BRANCH   4   5
ATOM      5  C   UNL A   1      33.584  26.138  22.389  1.00  0.00     0.202 C 
BRANCH   5   6
ATOM      6  C   UNL A   1      33.653  27.140  23.533  1.00  0.00     0.261 C 
BRANCH   6   7
ATOM      7  O   UNL A   1      34.032  26.676  24.838  1.00  0.00    -0.463 OA
BRANCH   7   8
ATOM      8  C   UNL A   1      33.279  26.577  25.947  1.00  0.00     0.310 C 
ATOM      9  O   UNL A   1      33.311  27.479  26.784  1.00  0.00    -0.252 OA
BRANCH   8  10
ATOM     10  C   UNL A   1      32.468  25.334  26.200  1.00  0.00     0.158 C 
BRANCH  10  11
ATOM     11  C   UNL A   1      32.972  24.148  25.452  1.00  0.00    -0.036 A 
ATOM     12  C   UNL A   1      32.184  23.292  24.676  1.00  0.00     0.004 A 
ATOM     13  C   UNL A   1      34.321  23.874  25.587  1.00  0.00     0.013 A 
ATOM     14  C   UNL A   1      32.736  22.150  24.099  1.00  0.00     0.001 A 
ATOM     15  C   UNL A   1      34.886  22.743  25.008  1.00  0.00    -0.018 A 
ATOM     16  C   UNL A   1      34.087  21.865  24.275  1.00  0.00     0.009 A 
BRANCH  15  17
ATOM     17  C   UNL A   1      36.332  22.620  25.177  1.00  0.00    -0.011 A 
ATOM     18  C   UNL A   1      37.027  21.370  24.938  1.00  0.00     0.027 A 
ATOM     19  C   UNL A   1      36.949  23.622  25.820  1.00  0.00     0.080 A 
ATOM     20  C   UNL A   1      38.259  21.190  25.418  1.00  0.00     0.095 A 
ATOM     21  C   UNL A   1      38.341  23.454  26.304  1.00  0.00     0.255 A 
ATOM     22  N   UNL A   1      38.908  22.207  26.092  1.00  0.00    -0.258 N 
ATOM     23  O   UNL A   1      38.874  24.395  26.883  1.00  0.00    -0.269 OA
BRANCH  22  24
ATOM     24  C   UNL A   1      40.228  22.001  26.616  1.00  0.00     0.451 C 
ATOM     25  F   UNL A   1      40.447  20.691  26.880  1.00  0.00    -0.185 F 
ATOM     26  F   UNL A   1      41.172  22.419  25.738  1.00  0.00    -0.185 F 
ENDBRANCH  22  24
ENDBRANCH  15  17
ENDBRANCH  10  11
ENDBRANCH   8  10
ENDBRANCH   7   8
ENDBRANCH   6   7
ENDBRANCH   5   6
ENDBRANCH   4   5
ENDBRANCH   3   4
ENDBRANCH   2   3
ENDBRANCH   1   2
BRANCH   1  27
ATOM     27  C   UNL A   1      29.516  28.309  23.210  1.00  0.00     0.188 C 
BRANCH  27  28
ATOM     28  C   UNL A   1      30.232  29.680  23.267  1.00  0.00     0.188 C 
BRANCH  28  29
ATOM     29  O   UNL A   1      30.474  30.349  24.493  1.00  0.00    -0.376 OA
BRANCH  29  30
ATOM     30  C   UNL A   1      31.458  29.888  25.400  1.00  0.00     0.202 C 
BRANCH  30  31
ATOM     31  C   UNL A   1      32.005  30.730  26.569  1.00  0.00     0.261 C 
BRANCH  31  32
ATOM     32  O   UNL A   1      33.420  30.736  26.777  1.00  0.00    -0.460 OA
BRANCH  32  33
ATOM     33  C   UNL A   1      33.900  31.738  27.549  1.00  0.00     0.338 C 
ATOM     34  O   UNL A   1      33.271  32.688  27.988  1.00  0.00    -0.246 OA
BRANCH  33  35
ATOM     35  C   UNL A   1      35.263  31.370  28.003  1.00  0.00     0.060 A 
ATOM     36  C   UNL A   1      35.522  30.012  28.244  1.00  0.00     0.016 A 
ATOM     37  C   UNL A   1      36.288  32.313  28.121  1.00  0.00     0.016 A 
ATOM     38  C   UNL A   1      36.787  29.599  28.645  1.00  0.00     0.010 A 
ATOM     39  C   UNL A   1      37.551  31.902  28.565  1.00  0.00     0.010 A 
ATOM     40  C   UNL A   1      37.787  30.551  28.873  1.00  0.00    -0.014 A 
BRANCH  40  41
ATOM     41  C   UNL A   1      38.947  30.141  29.698  1.00  0.00     0.031 A 
ATOM     42  C   UNL A   1      39.056  30.723  31.082  1.00  0.00     0.074 A 
ATOM     43  C   UNL A   1      39.821  29.210  29.280  1.00  0.00     0.049 A 
ATOM     44  N   UNL A   1      39.920  30.462  32.026  1.00  0.00    -0.248 NA
ATOM     45  C   UNL A   1      38.048  31.732  31.453  1.00  0.00     0.031 C 
ATOM     46  C   UNL A   1      39.812  28.563  27.969  1.00  0.00     0.029 A 
ATOM     47  N   UNL A   1      40.898  28.654  29.924  1.00  0.00    -0.354 N 
ATOM     48  C   UNL A   1      39.565  31.274  33.096  1.00  0.00     0.074 A 
ATOM     49  C   UNL A   1      38.427  32.062  32.677  1.00  0.00     0.031 C 
ATOM     50  C   UNL A   1      40.856  27.717  27.896  1.00  0.00     0.029 A 
ATOM     51  C   UNL A   1      41.608  27.769  29.148  1.00  0.00     0.049 A 
ATOM     52  H   UNL A   1      41.138  28.867  30.855  1.00  0.00     0.167 HD
ATOM     53  C   UNL A   1      40.117  31.347  34.329  1.00  0.00     0.034 A 
ATOM     54  C   UNL A   1      42.745  27.096  29.417  1.00  0.00     0.034 A 
ATOM     55  C   UNL A   1      41.249  30.566  34.747  1.00  0.00     0.049 A 
ATOM     56  C   UNL A   1      43.365  27.219  30.787  1.00  0.00     0.074 A 
ATOM     57  C   UNL A   1      41.880  30.557  35.977  1.00  0.00     0.029 A 
ATOM     58  N   UNL A   1      41.928  29.667  33.942  1.00  0.00    -0.354 N 
ATOM     59  N   UNL A   1      42.957  27.914  31.822  1.00  0.00    -0.248 NA
ATOM     60  C   UNL A   1      44.580  26.429  31.039  1.00  0.00     0.031 C 
ATOM     61  C   UNL A   1      42.960  29.671  35.907  1.00  0.00     0.029 A 
ATOM     62  C   UNL A   1      42.976  29.099  34.645  1.00  0.00     0.049 A 
ATOM     63  H   UNL A   1      41.699  29.461  33.006  1.00  0.00     0.167 HD
ATOM     64  C   UNL A   1      43.844  27.622  32.854  1.00  0.00     0.074 A 
ATOM     65  C   UNL A   1      44.790  26.661  32.328  1.00  0.00     0.031 C 
ATOM     66  C   UNL A   1      43.884  28.112  34.118  1.00  0.00     0.034 A 
BRANCH  53  67
ATOM     67  C   UNL A   1      39.485  32.288  35.319  1.00  0.00     0.023 A 
ATOM     68  C   UNL A   1      38.386  31.855  36.090  1.00  0.00     0.012 A 
ATOM     69  C   UNL A   1      39.999  33.583  35.516  1.00  0.00     0.148 A 
ATOM     70  C   UNL A   1      37.791  32.705  37.020  1.00  0.00     0.002 A 
ATOM     71  C   UNL A   1      39.432  34.408  36.478  1.00  0.00     0.091 A 
ATOM     72  F   UNL A   1      41.027  33.984  34.754  1.00  0.00    -0.205 F 
ATOM     73  C   UNL A   1      38.321  33.977  37.222  1.00  0.00     0.022 A 
BRANCH  71  74
ATOM     74  S   UNL A   1      40.087  36.034  36.870  1.00  0.00     0.127 S 
ATOM     75  O   UNL A   1      41.513  35.748  37.028  1.00  0.00    -0.237 OA
ATOM     76  O   UNL A   1      39.747  36.797  35.669  1.00  0.00    -0.237 OA
ATOM     77  O   UNL A   1      39.402  36.464  38.081  1.00  0.00    -0.744 OA
ENDBRANCH  71  74
ENDBRANCH  53  67
BRANCH  54  78
ATOM     78  C   UNL A   1      43.371  26.235  28.374  1.00  0.00     0.023 A 
ATOM     79  C   UNL A   1      42.956  24.898  28.216  1.00  0.00     0.012 A 
ATOM     80  C   UNL A   1      44.388  26.739  27.540  1.00  0.00     0.148 A 
ATOM     81  C   UNL A   1      43.571  24.069  27.275  1.00  0.00     0.002 A 
ATOM     82  C   UNL A   1      44.951  25.928  26.564  1.00  0.00     0.091 A 
ATOM     83  F   UNL A   1      44.783  28.008  27.719  1.00  0.00    -0.205 F 
ATOM     84  C   UNL A   1      44.560  24.587  26.443  1.00  0.00     0.022 A 
BRANCH  82  85
ATOM     85  S   UNL A   1      46.130  26.552  25.360  1.00  0.00     0.127 S 
ATOM     86  O   UNL A   1      46.209  25.442  24.415  1.00  0.00    -0.237 OA
ATOM     87  O   UNL A   1      45.442  27.743  24.860  1.00  0.00    -0.237 OA
ATOM     88  O   UNL A   1      47.346  26.833  26.112  1.00  0.00    -0.744 OA
ENDBRANCH  82  85
ENDBRANCH  54  78
BRANCH  66  89
ATOM     89  C   UNL A   1      44.964  27.592  35.033  1.00  0.00     0.023 A 
ATOM     90  C   UNL A   1      46.239  28.194  35.034  1.00  0.00     0.012 A 
ATOM     91  C   UNL A   1      44.702  26.533  35.925  1.00  0.00     0.148 A 
ATOM     92  C   UNL A   1      47.249  27.716  35.869  1.00  0.00     0.002 A 
ATOM     93  C   UNL A   1      45.697  26.098  36.793  1.00  0.00     0.091 A 
ATOM     94  F   UNL A   1      43.488  25.962  35.902  1.00  0.00    -0.205 F 
ATOM     95  C   UNL A   1      46.975  26.677  36.753  1.00  0.00     0.022 A 
BRANCH  93  96
ATOM     96  S   UNL A   1      45.405  24.832  38.033  1.00  0.00     0.127 S 
ATOM     97  O   UNL A   1      44.276  25.395  38.772  1.00  0.00    -0.237 OA
ATOM     98  O   UNL A   1      45.076  23.665  37.213  1.00  0.00    -0.237 OA
ATOM     99  O   UNL A   1      46.648  24.711  38.782  1.00  0.00    -0.744 OA
ENDBRANCH  93  96
ENDBRANCH  66  89
ENDBRANCH  40  41
ENDBRANCH  33  35
ENDBRANCH  32  33
ENDBRANCH  31  32
ENDBRANCH  30  31
ENDBRANCH  29  30
ENDBRANCH  28  29
ENDBRANCH  27  28
ENDBRANCH   1  27
TORSDOF 26
ENDMDL
MODEL 3
REMARK VINA RESULT:     -10.2      1.822      7.543
REMARK SMILES O=C(Cc1cccc(-c2ccn(C(F)F)c(=O)c2)c1)OCCOCCOCCOCCOC(=O)c1ccc(-c2c3nc(c(-c4cccc(S(=O)(=O)[O-])c4F)c4ccc([nH]4)c(-c4cccc(S(=O)(=O)[O-])c4F)c4nc(c(-c5cccc(S(=O)(=O)[O-])c5F)c5ccc2[nH]5)C=C4)C=C3)cc1
REMARK SMILES IDX 26 1 25 2 24 3 23 4 22 5 21 6 20 7 2 8 1 9 3 10 4 11 5 12
REMARK SMILES IDX 19 13 6 14 8 15 7 16 9 17 10 18 18 19 11 20 16 21 12 22
REMARK SMILES IDX 17 23 13 24 14 25 15 26 27 27 28 28 29 29 30 30 31 31 32 32
REMARK SMILES IDX 33 33 34 34 35 35 36 36 97 37 37 38 96 39 38 40 39 41 40 42
REMARK SMILES IDX 90 43 41 44 95 45 89 46 91 47 42 48 94 49 88 50 87 51 43 53
REMARK SMILES IDX 75 54 55 55 74 56 56 57 59 58 73 59 92 60 57 61 58 62 72 64
REMARK SMILES IDX 93 65 60 66 44 67 45 68 53 69 46 70 48 71 54 72 47 73 49 74
REMARK SMILES IDX 50 75 51 76 52 77 76 78 77 79 85 80 78 81 80 82 86 83 79 84
REMARK SMILES IDX 81 85 82 86 83 87 84 88 61 89 62 90 70 91 63 92 65 93 71 94
REMARK SMILES IDX 64 95 66 96 67 97 68 98 69 99
REMARK H PARENT 91 52 59 63
REMARK Flexibility Score: inf
ROOT
ATOM      1  O   UNL A   1      30.618  26.759  23.200  1.00  0.00    -0.377 OA
ENDROOT
BRANCH   1   2
ATOM      2  C   UNL A   1      31.275  26.265  22.042  1.00  0.00     0.188 C 
BRANCH   2   3
ATOM      3  C   UNL A   1      32.744  26.661  21.938  1.00  0.00     0.188 C 
BRANCH   3   4
ATOM      4  O   UNL A   1      33.630  26.184  22.938  1.00  0.00    -0.376 OA
BRANCH   4   5
ATOM      5  C   UNL A   1      33.888  26.798  24.188  1.00  0.00     0.202 C 
BRANCH   5   6
ATOM      6  C   UNL A   1      33.065  26.485  25.430  1.00  0.00     0.261 C 
BRANCH   6   7
ATOM      7  O   UNL A   1      33.272  25.232  26.100  1.00  0.00    -0.463 OA
BRANCH   7   8
ATOM      8  C   UNL A   1      32.730  24.032  25.826  1.00  0.00     0.310 C 
ATOM      9  O   UNL A   1      31.994  23.496  26.654  1.00  0.00    -0.252 OA
BRANCH   8  10
ATOM     10  C   UNL A   1      33.090  23.315  24.552  1.00  0.00     0.158 C 
BRANCH  10  11
ATOM     11  C   UNL A   1      34.147  22.282  24.743  1.00  0.00    -0.036 A 
ATOM     12  C   UNL A   1      35.500  22.550  24.969  1.00  0.00     0.004 A 
ATOM     13  C   UNL A   1      33.733  20.966  24.645  1.00  0.00     0.013 A 
ATOM     14  C   UNL A   1      36.426  21.510  25.034  1.00  0.00     0.001 A 
ATOM     15  C   UNL A   1      34.646  19.919  24.718  1.00  0.00    -0.018 A 
ATOM     16  C   UNL A   1      36.002  20.191  24.894  1.00  0.00     0.009 A 
BRANCH  15  17
ATOM     17  C   UNL A   1      34.057  18.582  24.667  1.00  0.00    -0.011 A 
ATOM     18  C   UNL A   1      32.622  18.377  24.682  1.00  0.00     0.027 A 
ATOM     19  C   UNL A   1      34.888  17.551  24.881  1.00  0.00     0.080 A 
ATOM     20  C   UNL A   1      32.124  17.175  24.977  1.00  0.00     0.095 A 
ATOM     21  C   UNL A   1      34.345  16.198  25.150  1.00  0.00     0.255 A 
ATOM     22  N   UNL A   1      32.963  16.102  25.211  1.00  0.00    -0.258 N 
ATOM     23  O   UNL A   1      35.136  15.279  25.336  1.00  0.00    -0.269 OA
BRANCH  22  24
ATOM     24  C   UNL A   1      32.420  14.816  25.541  1.00  0.00     0.451 C 
ATOM     25  F   UNL A   1      33.307  13.830  25.269  1.00  0.00    -0.185 F 
ATOM     26  F   UNL A   1      32.099  14.745  26.856  1.00  0.00    -0.185 F 
ENDBRANCH  22  24
ENDBRANCH  15  17
ENDBRANCH  10  11
ENDBRANCH   8  10
ENDBRANCH   7   8
ENDBRANCH   6   7
ENDBRANCH   5   6
ENDBRANCH   4   5
ENDBRANCH   3   4
ENDBRANCH   2   3
ENDBRANCH   1   2
BRANCH   1  27
ATOM     27  C   UNL A   1      30.131  28.084  23.065  1.00  0.00     0.188 C 
BRANCH  27  28
ATOM     28  C   UNL A   1      31.065  29.184  23.624  1.00  0.00     0.188 C 
BRANCH  28  29
ATOM     29  O   UNL A   1      30.668  30.036  24.684  1.00  0.00    -0.376 OA
BRANCH  29  30
ATOM     30  C   UNL A   1      31.467  30.186  25.844  1.00  0.00     0.202 C 
BRANCH  30  31
ATOM     31  C   UNL A   1      31.753  31.543  26.516  1.00  0.00     0.261 C 
BRANCH  31  32
ATOM     32  O   UNL A   1      33.096  32.033  26.474  1.00  0.00    -0.460 OA
BRANCH  32  33
ATOM     33  C   UNL A   1      33.476  32.807  27.516  1.00  0.00     0.338 C 
ATOM     34  O   UNL A   1      32.805  33.661  28.075  1.00  0.00    -0.246 OA
BRANCH  33  35
ATOM     35  C   UNL A   1      34.754  32.279  28.052  1.00  0.00     0.060 A 
ATOM     36  C   UNL A   1      34.795  30.924  28.414  1.00  0.00     0.016 A 
ATOM     37  C   UNL A   1      35.907  33.064  28.134  1.00  0.00     0.016 A 
ATOM     38  C   UNL A   1      35.971  30.363  28.897  1.00  0.00     0.010 A 
ATOM     39  C   UNL A   1      37.080  32.509  28.660  1.00  0.00     0.010 A 
ATOM     40  C   UNL A   1      37.098  31.170  29.087  1.00  0.00    -0.014 A 
BRANCH  40  41
ATOM     41  C   UNL A   1      38.159  30.663  29.987  1.00  0.00     0.031 A 
ATOM     42  C   UNL A   1      39.121  29.648  29.426  1.00  0.00     0.074 A 
ATOM     43  C   UNL A   1      38.334  31.153  31.226  1.00  0.00     0.049 A 
ATOM     44  N   UNL A   1      40.180  29.118  29.975  1.00  0.00    -0.248 NA
ATOM     45  C   UNL A   1      38.852  29.175  28.057  1.00  0.00     0.031 C 
ATOM     46  C   UNL A   1      37.479  32.146  31.875  1.00  0.00     0.029 A 
ATOM     47  N   UNL A   1      39.293  30.867  32.165  1.00  0.00    -0.354 N 
ATOM     48  C   UNL A   1      40.700  28.247  29.024  1.00  0.00     0.074 A 
ATOM     49  C   UNL A   1      39.823  28.295  27.875  1.00  0.00     0.031 C 
ATOM     50  C   UNL A   1      37.939  32.366  33.120  1.00  0.00     0.029 A 
ATOM     51  C   UNL A   1      39.110  31.525  33.357  1.00  0.00     0.049 A 
ATOM     52  H   UNL A   1      40.043  30.251  31.998  1.00  0.00     0.167 HD
ATOM     53  C   UNL A   1      41.820  27.491  29.086  1.00  0.00     0.034 A 
ATOM     54  C   UNL A   1      39.803  31.439  34.512  1.00  0.00     0.034 A 
ATOM     55  C   UNL A   1      42.691  27.441  30.227  1.00  0.00     0.049 A 
ATOM     56  C   UNL A   1      41.028  30.560  34.570  1.00  0.00     0.074 A 
ATOM     57  C   UNL A   1      43.856  26.714  30.388  1.00  0.00     0.029 A 
ATOM     58  N   UNL A   1      42.486  28.135  31.408  1.00  0.00    -0.354 N 
ATOM     59  N   UNL A   1      41.564  29.823  33.628  1.00  0.00    -0.248 NA
ATOM     60  C   UNL A   1      41.769  30.538  35.841  1.00  0.00     0.031 C 
ATOM     61  C   UNL A   1      44.341  26.948  31.678  1.00  0.00     0.029 A 
ATOM     62  C   UNL A   1      43.499  27.851  32.306  1.00  0.00     0.049 A 
ATOM     63  H   UNL A   1      41.730  28.743  31.582  1.00  0.00     0.167 HD
ATOM     64  C   UNL A   1      42.718  29.275  34.179  1.00  0.00     0.074 A 
ATOM     65  C   UNL A   1      42.820  29.794  35.527  1.00  0.00     0.031 C 
ATOM     66  C   UNL A   1      43.607  28.410  33.630  1.00  0.00     0.034 A 
BRANCH  53  67
ATOM     67  C   UNL A   1      42.174  26.676  27.871  1.00  0.00     0.023 A 
ATOM     68  C   UNL A   1      42.971  27.245  26.856  1.00  0.00     0.012 A 
ATOM     69  C   UNL A   1      41.756  25.337  27.752  1.00  0.00     0.148 A 
ATOM     70  C   UNL A   1      43.319  26.505  25.727  1.00  0.00     0.002 A 
ATOM     71  C   UNL A   1      42.147  24.591  26.648  1.00  0.00     0.091 A 
ATOM     72  F   UNL A   1      40.978  24.823  28.716  1.00  0.00    -0.205 F 
ATOM     73  C   UNL A   1      42.918  25.175  25.629  1.00  0.00     0.022 A 
BRANCH  71  74
ATOM     74  S   UNL A   1      41.749  22.849  26.463  1.00  0.00     0.127 S 
ATOM     75  O   UNL A   1      42.289  22.289  27.701  1.00  0.00    -0.237 OA
ATOM     76  O   UNL A   1      40.288  22.877  26.393  1.00  0.00    -0.237 OA
ATOM     77  O   UNL A   1      42.411  22.411  25.242  1.00  0.00    -0.744 OA
ENDBRANCH  71  74
ENDBRANCH  53  67
BRANCH  54  78
ATOM     78  C   UNL A   1      39.363  32.212  35.708  1.00  0.00     0.023 A 
ATOM     79  C   UNL A   1      39.780  33.546  35.882  1.00  0.00     0.012 A 
ATOM     80  C   UNL A   1      38.537  31.620  36.683  1.00  0.00     0.148 A 
ATOM     81  C   UNL A   1      39.415  34.262  37.024  1.00  0.00     0.002 A 
ATOM     82  C   UNL A   1      38.125  32.359  37.785  1.00  0.00     0.091 A 
ATOM     83  F   UNL A   1      38.167  30.343  36.510  1.00  0.00    -0.205 F 
ATOM     84  C   UNL A   1      38.580  33.672  37.969  1.00  0.00     0.022 A 
BRANCH  82  85
ATOM     85  S   UNL A   1      36.940  31.725  38.977  1.00  0.00     0.127 S 
ATOM     86  O   UNL A   1      35.746  32.500  38.654  1.00  0.00    -0.237 OA
ATOM     87  O   UNL A   1      36.877  30.309  38.610  1.00  0.00    -0.237 OA
ATOM     88  O   UNL A   1      37.527  31.978  40.286  1.00  0.00    -0.744 OA
ENDBRANCH  82  85
ENDBRANCH  54  78
BRANCH  66  89
ATOM     89  C   UNL A   1      44.789  27.997  34.472  1.00  0.00     0.023 A 
ATOM     90  C   UNL A   1      45.995  28.722  34.399  1.00  0.00     0.012 A 
ATOM     91  C   UNL A   1      44.689  26.914  35.368  1.00  0.00     0.148 A 
ATOM     92  C   UNL A   1      47.098  28.344  35.165  1.00  0.00     0.002 A 
ATOM     93  C   UNL A   1      45.775  26.577  36.168  1.00  0.00     0.091 A 
ATOM     94  F   UNL A   1      43.539  26.225  35.415  1.00  0.00    -0.205 F 
ATOM     95  C   UNL A   1      46.985  27.280  36.055  1.00  0.00     0.022 A 
BRANCH  93  96
ATOM     96  S   UNL A   1      45.687  25.284  37.412  1.00  0.00     0.127 S 
ATOM     97  O   UNL A   1      44.631  25.786  38.289  1.00  0.00    -0.237 OA
ATOM     98  O   UNL A   1      45.315  24.114  36.617  1.00  0.00    -0.237 OA
ATOM     99  O   UNL A   1      47.014  25.211  38.008  1.00  0.00    -0.744 OA
ENDBRANCH  93  96
ENDBRANCH  66  89
ENDBRANCH  40  41
ENDBRANCH  33  35
ENDBRANCH  32  33
ENDBRANCH  31  32
ENDBRANCH  30  31
ENDBRANCH  29  30
ENDBRANCH  28  29
ENDBRANCH  27  28
ENDBRANCH   1  27
TORSDOF 26
ENDMDL
