MODEL 1
REMARK VINA RESULT:     -10.6      0.000      0.000
REMARK SMILES Cc1nn(C(C)C)c(C)c1S(=O)(=O)Nc1cccc(C(=O)OCCOCCOCCOCCOC(=O)c2ccc(-c3c4nc(c(-c5cccc(S(=O)(=O)[O-])c5F)c5ccc([nH]5)c(-c5cccc(S(=O)(=O)[O-])c5F)c5nc(c(-c6cccc(S(=O)(=O)[O-])c6F)c6ccc3[nH]6)C=C5)C=C4)cc2)c1C
REMARK SMILES IDX 27 1 26 2 25 3 24 4 23 5 22 6 20 7 21 8 19 9 15 10 16 11
REMARK SMILES IDX 100 12 17 13 101 14 18 15 14 16 11 18 12 19 13 20 10 21 1 22
REMARK SMILES IDX 2 23 3 24 4 25 8 26 9 27 5 28 6 29 7 30 28 31 29 32 30 33
REMARK SMILES IDX 31 34 32 35 33 36 34 37 35 38 36 39 37 40 38 41 99 42 39 43
REMARK SMILES IDX 98 44 40 45 41 46 42 47 92 48 43 49 97 50 91 51 93 52 44 53
REMARK SMILES IDX 96 54 90 55 89 56 45 58 77 59 57 60 76 61 58 62 61 63 75 64
REMARK SMILES IDX 94 65 59 66 60 67 74 69 95 70 62 71 46 72 47 73 55 74 48 75
REMARK SMILES IDX 50 76 56 77 49 78 51 79 52 80 53 81 54 82 78 83 79 84 87 85
REMARK SMILES IDX 80 86 82 87 88 88 81 89 83 90 84 91 85 92 86 93 63 94 64 95
REMARK SMILES IDX 72 96 65 97 67 98 73 99 66 100 68 101 69 102 70 103 71 104
REMARK H PARENT 14 17 93 57 61 68
REMARK Flexibility Score: inf
ROOT
ATOM      1  C   UNL A   1      30.984  26.637  22.873  1.00  0.00     0.188 C 
ENDROOT
BRANCH   1   2
ATOM      2  C   UNL A   1      31.802  25.338  23.015  1.00  0.00     0.188 C 
BRANCH   2   3
ATOM      3  O   UNL A   1      32.373  24.871  21.803  1.00  0.00    -0.376 OA
BRANCH   3   4
ATOM      4  C   UNL A   1      33.187  23.714  21.982  1.00  0.00     0.202 C 
BRANCH   4   5
ATOM      5  C   UNL A   1      34.006  23.878  23.241  1.00  0.00     0.261 C 
BRANCH   5   6
ATOM      6  O   UNL A   1      34.638  22.631  23.506  1.00  0.00    -0.460 OA
BRANCH   6   7
ATOM      7  C   UNL A   1      34.330  22.210  24.712  1.00  0.00     0.338 C 
ATOM      8  O   UNL A   1      33.258  22.348  25.305  1.00  0.00    -0.246 OA
BRANCH   7   9
ATOM      9  C   UNL A   1      35.443  21.389  25.202  1.00  0.00     0.065 A 
ATOM     10  C   UNL A   1      37.760  21.552  25.455  1.00  0.00     0.053 A 
ATOM     11  C   UNL A   1      37.907  20.204  25.090  1.00  0.00     0.027 A 
ATOM     12  C   UNL A   1      36.520  22.105  25.718  1.00  0.00    -0.012 A 
ATOM     13  C   UNL A   1      36.786  19.418  24.847  1.00  0.00     0.003 A 
ATOM     14  C   UNL A   1      36.311  23.442  26.387  1.00  0.00     0.047 C 
ATOM     15  C   UNL A   1      35.542  20.036  24.826  1.00  0.00     0.016 A 
BRANCH  10  16
ATOM     16  N   UNL A   1      38.890  22.395  25.290  1.00  0.00    -0.279 N 
ATOM     17  H   UNL A   1      38.940  23.053  24.560  1.00  0.00     0.180 HD
BRANCH  16  18
ATOM     18  S   UNL A   1      40.168  22.209  26.428  1.00  0.00     0.265 S 
ATOM     19  O   UNL A   1      39.790  21.021  27.122  1.00  0.00    -0.201 OA
ATOM     20  O   UNL A   1      40.347  23.451  27.183  1.00  0.00    -0.201 OA
BRANCH  18  21
ATOM     21  C   UNL A   1      41.760  21.886  25.816  1.00  0.00     0.131 A 
ATOM     22  C   UNL A   1      43.141  24.158  25.730  1.00  0.00     0.070 C 
ATOM     23  C   UNL A   1      42.838  22.747  25.464  1.00  0.00     0.080 A 
ATOM     24  N   UNL A   1      43.839  22.060  24.914  1.00  0.00    -0.176 NA
ATOM     25  N   UNL A   1      43.627  20.816  25.339  1.00  0.00    -0.266 N 
ATOM     26  C   UNL A   1      42.410  20.656  25.943  1.00  0.00     0.056 A 
ATOM     27  C   UNL A   1      42.029  19.434  26.690  1.00  0.00     0.068 C 
BRANCH  25  28
ATOM     28  C   UNL A   1      44.729  19.874  25.199  1.00  0.00     0.101 C 
ATOM     29  C   UNL A   1      44.552  19.074  23.913  1.00  0.00     0.033 C 
ATOM     30  C   UNL A   1      46.078  20.601  25.233  1.00  0.00     0.033 C 
ENDBRANCH  25  28
ENDBRANCH  18  21
ENDBRANCH  16  18
ENDBRANCH  10  16
ENDBRANCH   7   9
ENDBRANCH   6   7
ENDBRANCH   5   6
ENDBRANCH   4   5
ENDBRANCH   3   4
ENDBRANCH   2   3
ENDBRANCH   1   2
BRANCH   1  31
ATOM     31  O   UNL A   1      31.070  27.547  23.958  1.00  0.00    -0.377 OA
BRANCH  31  32
ATOM     32  C   UNL A   1      31.059  27.052  25.301  1.00  0.00     0.188 C 
BRANCH  32  33
ATOM     33  C   UNL A   1      31.645  27.915  26.421  1.00  0.00     0.188 C 
BRANCH  33  34
ATOM     34  O   UNL A   1      31.817  29.236  25.931  1.00  0.00    -0.376 OA
BRANCH  34  35
ATOM     35  C   UNL A   1      33.121  29.789  26.016  1.00  0.00     0.202 C 
BRANCH  35  36
ATOM     36  C   UNL A   1      33.331  30.592  27.294  1.00  0.00     0.261 C 
BRANCH  36  37
ATOM     37  O   UNL A   1      34.642  31.186  27.256  1.00  0.00    -0.460 OA
BRANCH  37  38
ATOM     38  C   UNL A   1      35.553  30.566  28.059  1.00  0.00     0.338 C 
ATOM     39  O   UNL A   1      35.828  29.380  27.989  1.00  0.00    -0.246 OA
BRANCH  38  40
ATOM     40  C   UNL A   1      35.973  31.477  29.162  1.00  0.00     0.060 A 
ATOM     41  C   UNL A   1      35.983  32.864  28.950  1.00  0.00     0.016 A 
ATOM     42  C   UNL A   1      36.615  30.952  30.280  1.00  0.00     0.016 A 
ATOM     43  C   UNL A   1      36.755  33.702  29.769  1.00  0.00     0.010 A 
ATOM     44  C   UNL A   1      37.452  31.773  31.016  1.00  0.00     0.010 A 
ATOM     45  C   UNL A   1      37.556  33.153  30.760  1.00  0.00    -0.014 A 
BRANCH  45  46
ATOM     46  C   UNL A   1      38.619  33.872  31.501  1.00  0.00     0.031 A 
ATOM     47  C   UNL A   1      38.320  34.312  32.925  1.00  0.00     0.074 A 
ATOM     48  C   UNL A   1      39.897  33.607  31.120  1.00  0.00     0.049 A 
ATOM     49  N   UNL A   1      39.171  34.685  33.830  1.00  0.00    -0.248 NA
ATOM     50  C   UNL A   1      36.942  34.377  33.431  1.00  0.00     0.031 C 
ATOM     51  C   UNL A   1      40.931  33.212  32.047  1.00  0.00     0.029 A 
ATOM     52  N   UNL A   1      40.565  33.545  29.892  1.00  0.00    -0.354 N 
ATOM     53  C   UNL A   1      38.517  34.692  35.063  1.00  0.00     0.074 A 
ATOM     54  C   UNL A   1      37.120  34.613  34.734  1.00  0.00     0.031 C 
ATOM     55  C   UNL A   1      42.101  33.028  31.441  1.00  0.00     0.029 A 
ATOM     56  C   UNL A   1      41.950  33.636  30.158  1.00  0.00     0.049 A 
ATOM     57  H   UNL A   1      40.148  33.454  29.004  1.00  0.00     0.167 HD
ATOM     58  C   UNL A   1      39.216  34.593  36.238  1.00  0.00     0.034 A 
ATOM     59  C   UNL A   1      42.812  34.608  29.742  1.00  0.00     0.034 A 
ATOM     60  C   UNL A   1      40.677  34.747  36.043  1.00  0.00     0.049 A 
ATOM     61  C   UNL A   1      43.398  35.439  30.892  1.00  0.00     0.074 A 
ATOM     62  C   UNL A   1      41.786  34.035  36.471  1.00  0.00     0.029 A 
ATOM     63  N   UNL A   1      41.175  35.718  35.173  1.00  0.00    -0.354 N 
ATOM     64  N   UNL A   1      42.997  35.350  32.142  1.00  0.00    -0.248 NA
ATOM     65  C   UNL A   1      44.475  36.420  30.753  1.00  0.00     0.031 C 
ATOM     66  C   UNL A   1      42.917  34.477  35.730  1.00  0.00     0.029 A 
ATOM     67  C   UNL A   1      42.527  35.551  34.950  1.00  0.00     0.049 A 
ATOM     68  H   UNL A   1      40.631  36.432  34.768  1.00  0.00     0.167 HD
ATOM     69  C   UNL A   1      43.626  36.288  32.919  1.00  0.00     0.074 A 
ATOM     70  C   UNL A   1      44.583  36.894  32.010  1.00  0.00     0.031 C 
ATOM     71  C   UNL A   1      43.290  36.552  34.223  1.00  0.00     0.034 A 
BRANCH  58  72
ATOM     72  C   UNL A   1      38.638  34.130  37.603  1.00  0.00     0.023 A 
ATOM     73  C   UNL A   1      39.006  34.880  38.750  1.00  0.00     0.012 A 
ATOM     74  C   UNL A   1      37.877  32.958  37.876  1.00  0.00     0.148 A 
ATOM     75  C   UNL A   1      38.698  34.484  40.062  1.00  0.00     0.002 A 
ATOM     76  C   UNL A   1      37.483  32.616  39.185  1.00  0.00     0.091 A 
ATOM     77  F   UNL A   1      37.597  32.099  36.891  1.00  0.00    -0.205 F 
ATOM     78  C   UNL A   1      37.921  33.359  40.283  1.00  0.00     0.022 A 
BRANCH  76  79
ATOM     79  S   UNL A   1      36.366  31.244  39.560  1.00  0.00     0.127 S 
ATOM     80  O   UNL A   1      36.582  31.041  40.992  1.00  0.00    -0.237 OA
ATOM     81  O   UNL A   1      35.057  31.803  39.217  1.00  0.00    -0.237 OA
ATOM     82  O   UNL A   1      36.787  30.136  38.709  1.00  0.00    -0.744 OA
ENDBRANCH  76  79
ENDBRANCH  58  72
BRANCH  59  83
ATOM     83  C   UNL A   1      42.690  34.872  28.278  1.00  0.00     0.023 A 
ATOM     84  C   UNL A   1      42.059  36.117  28.015  1.00  0.00     0.012 A 
ATOM     85  C   UNL A   1      43.751  34.468  27.451  1.00  0.00     0.148 A 
ATOM     86  C   UNL A   1      42.684  37.064  27.201  1.00  0.00     0.002 A 
ATOM     87  C   UNL A   1      44.379  35.427  26.649  1.00  0.00     0.091 A 
ATOM     88  F   UNL A   1      44.257  33.240  27.619  1.00  0.00    -0.205 F 
ATOM     89  C   UNL A   1      43.879  36.738  26.571  1.00  0.00     0.022 A 
BRANCH  87  90
ATOM     90  S   UNL A   1      46.032  35.117  26.003  1.00  0.00     0.127 S 
ATOM     91  O   UNL A   1      46.626  34.307  27.058  1.00  0.00    -0.237 OA
ATOM     92  O   UNL A   1      45.757  34.407  24.751  1.00  0.00    -0.237 OA
ATOM     93  O   UNL A   1      46.585  36.449  25.804  1.00  0.00    -0.744 OA
ENDBRANCH  87  90
ENDBRANCH  59  83
BRANCH  71  94
ATOM     94  C   UNL A   1      43.640  37.833  34.970  1.00  0.00     0.023 A 
ATOM     95  C   UNL A   1      44.366  37.787  36.176  1.00  0.00     0.012 A 
ATOM     96  C   UNL A   1      43.459  39.120  34.383  1.00  0.00     0.148 A 
ATOM     97  C   UNL A   1      44.840  38.947  36.798  1.00  0.00     0.002 A 
ATOM     98  C   UNL A   1      44.019  40.259  34.956  1.00  0.00     0.091 A 
ATOM     99  F   UNL A   1      42.732  39.254  33.267  1.00  0.00    -0.205 F 
ATOM    100  C   UNL A   1      44.688  40.178  36.179  1.00  0.00     0.022 A 
BRANCH  98 101
ATOM    101  S   UNL A   1      44.044  41.847  34.103  1.00  0.00     0.127 S 
ATOM    102  O   UNL A   1      42.622  42.183  34.054  1.00  0.00    -0.237 OA
ATOM    103  O   UNL A   1      44.831  42.678  35.017  1.00  0.00    -0.237 OA
ATOM    104  O   UNL A   1      44.684  41.603  32.819  1.00  0.00    -0.744 OA
ENDBRANCH  98 101
ENDBRANCH  71  94
ENDBRANCH  45  46
ENDBRANCH  38  40
ENDBRANCH  37  38
ENDBRANCH  36  37
ENDBRANCH  35  36
ENDBRANCH  34  35
ENDBRANCH  33  34
ENDBRANCH  32  33
ENDBRANCH  31  32
ENDBRANCH   1  31
TORSDOF 27
ENDMDL
MODEL 2
REMARK VINA RESULT:     -10.1      4.266      8.898
REMARK SMILES Cc1nn(C(C)C)c(C)c1S(=O)(=O)Nc1cccc(C(=O)OCCOCCOCCOCCOC(=O)c2ccc(-c3c4nc(c(-c5cccc(S(=O)(=O)[O-])c5F)c5ccc([nH]5)c(-c5cccc(S(=O)(=O)[O-])c5F)c5nc(c(-c6cccc(S(=O)(=O)[O-])c6F)c6ccc3[nH]6)C=C5)C=C4)cc2)c1C
REMARK SMILES IDX 27 1 26 2 25 3 24 4 23 5 22 6 20 7 21 8 19 9 15 10 16 11
REMARK SMILES IDX 100 12 17 13 101 14 18 15 14 16 11 18 12 19 13 20 10 21 1 22
REMARK SMILES IDX 2 23 3 24 4 25 8 26 9 27 5 28 6 29 7 30 28 31 29 32 30 33
REMARK SMILES IDX 31 34 32 35 33 36 34 37 35 38 36 39 37 40 38 41 99 42 39 43
REMARK SMILES IDX 98 44 40 45 41 46 42 47 92 48 43 49 97 50 91 51 93 52 44 53
REMARK SMILES IDX 96 54 90 55 89 56 45 58 77 59 57 60 76 61 58 62 61 63 75 64
REMARK SMILES IDX 94 65 59 66 60 67 74 69 95 70 62 71 46 72 47 73 55 74 48 75
REMARK SMILES IDX 50 76 56 77 49 78 51 79 52 80 53 81 54 82 78 83 79 84 87 85
REMARK SMILES IDX 80 86 82 87 88 88 81 89 83 90 84 91 85 92 86 93 63 94 64 95
REMARK SMILES IDX 72 96 65 97 67 98 73 99 66 100 68 101 69 102 70 103 71 104
REMARK H PARENT 14 17 93 57 61 68
REMARK Flexibility Score: inf
ROOT
ATOM      1  C   UNL A   1      30.842  27.244  22.364  1.00  0.00     0.188 C 
ENDROOT
BRANCH   1   2
ATOM      2  C   UNL A   1      31.600  26.162  21.570  1.00  0.00     0.188 C 
BRANCH   2   3
ATOM      3  O   UNL A   1      33.008  26.335  21.542  1.00  0.00    -0.376 OA
BRANCH   3   4
ATOM      4  C   UNL A   1      33.667  25.702  22.636  1.00  0.00     0.202 C 
BRANCH   4   5
ATOM      5  C   UNL A   1      33.101  24.313  22.817  1.00  0.00     0.261 C 
BRANCH   5   6
ATOM      6  O   UNL A   1      32.888  24.116  24.211  1.00  0.00    -0.460 OA
BRANCH   6   7
ATOM      7  C   UNL A   1      31.851  23.333  24.408  1.00  0.00     0.338 C 
ATOM      8  O   UNL A   1      30.666  23.584  24.178  1.00  0.00    -0.246 OA
BRANCH   7   9
ATOM      9  C   UNL A   1      32.351  22.015  24.812  1.00  0.00     0.065 A 
ATOM     10  C   UNL A   1      34.256  21.094  25.805  1.00  0.00     0.053 A 
ATOM     11  C   UNL A   1      34.169  19.975  24.962  1.00  0.00     0.027 A 
ATOM     12  C   UNL A   1      33.237  22.026  25.887  1.00  0.00    -0.012 A 
ATOM     13  C   UNL A   1      33.104  19.846  24.077  1.00  0.00     0.003 A 
ATOM     14  C   UNL A   1      33.133  23.078  26.964  1.00  0.00     0.047 C 
ATOM     15  C   UNL A   1      32.227  20.915  23.944  1.00  0.00     0.016 A 
BRANCH  10  16
ATOM     16  N   UNL A   1      35.525  21.382  26.371  1.00  0.00    -0.279 N 
ATOM     17  H   UNL A   1      35.768  21.075  27.274  1.00  0.00     0.180 HD
BRANCH  16  18
ATOM     18  S   UNL A   1      36.616  22.296  25.404  1.00  0.00     0.265 S 
ATOM     19  O   UNL A   1      36.247  23.639  25.711  1.00  0.00    -0.201 OA
ATOM     20  O   UNL A   1      36.552  21.838  24.014  1.00  0.00    -0.201 OA
BRANCH  18  21
ATOM     21  C   UNL A   1      38.309  22.199  25.775  1.00  0.00     0.131 A 
ATOM     22  C   UNL A   1      38.922  24.071  27.561  1.00  0.00     0.070 C 
ATOM     23  C   UNL A   1      39.161  23.025  26.561  1.00  0.00     0.080 A 
ATOM     24  N   UNL A   1      40.431  22.633  26.462  1.00  0.00    -0.176 NA
ATOM     25  N   UNL A   1      40.332  21.370  26.055  1.00  0.00    -0.266 N 
ATOM     26  C   UNL A   1      39.063  21.026  25.676  1.00  0.00     0.056 A 
ATOM     27  C   UNL A   1      38.649  19.631  25.396  1.00  0.00     0.068 C 
BRANCH  25  28
ATOM     28  C   UNL A   1      41.525  20.543  26.173  1.00  0.00     0.101 C 
ATOM     29  C   UNL A   1      42.758  21.383  25.861  1.00  0.00     0.033 C 
ATOM     30  C   UNL A   1      41.611  19.903  27.563  1.00  0.00     0.033 C 
ENDBRANCH  25  28
ENDBRANCH  18  21
ENDBRANCH  16  18
ENDBRANCH  10  16
ENDBRANCH   7   9
ENDBRANCH   6   7
ENDBRANCH   5   6
ENDBRANCH   4   5
ENDBRANCH   3   4
ENDBRANCH   2   3
ENDBRANCH   1   2
BRANCH   1  31
ATOM     31  O   UNL A   1      30.509  26.914  23.703  1.00  0.00    -0.377 OA
BRANCH  31  32
ATOM     32  C   UNL A   1      31.113  27.635  24.782  1.00  0.00     0.188 C 
BRANCH  32  33
ATOM     33  C   UNL A   1      31.458  26.894  26.076  1.00  0.00     0.188 C 
BRANCH  33  34
ATOM     34  O   UNL A   1      32.475  27.615  26.753  1.00  0.00    -0.376 OA
BRANCH  34  35
ATOM     35  C   UNL A   1      32.073  28.760  27.487  1.00  0.00     0.202 C 
BRANCH  35  36
ATOM     36  C   UNL A   1      32.359  30.059  26.743  1.00  0.00     0.261 C 
BRANCH  36  37
ATOM     37  O   UNL A   1      33.784  30.206  26.602  1.00  0.00    -0.460 OA
BRANCH  37  38
ATOM     38  C   UNL A   1      34.374  30.884  27.628  1.00  0.00     0.338 C 
ATOM     39  O   UNL A   1      34.100  32.033  27.932  1.00  0.00    -0.246 OA
BRANCH  38  40
ATOM     40  C   UNL A   1      35.540  30.115  28.152  1.00  0.00     0.060 A 
ATOM     41  C   UNL A   1      35.548  29.695  29.490  1.00  0.00     0.016 A 
ATOM     42  C   UNL A   1      36.718  30.066  27.413  1.00  0.00     0.016 A 
ATOM     43  C   UNL A   1      36.756  29.370  30.125  1.00  0.00     0.010 A 
ATOM     44  C   UNL A   1      37.912  29.843  28.075  1.00  0.00     0.010 A 
ATOM     45  C   UNL A   1      37.956  29.515  29.444  1.00  0.00    -0.014 A 
BRANCH  45  46
ATOM     46  C   UNL A   1      39.303  29.482  30.060  1.00  0.00     0.031 A 
ATOM     47  C   UNL A   1      40.266  28.397  29.605  1.00  0.00     0.074 A 
ATOM     48  C   UNL A   1      39.776  30.668  30.526  1.00  0.00     0.049 A 
ATOM     49  N   UNL A   1      41.550  28.356  29.789  1.00  0.00    -0.248 NA
ATOM     50  C   UNL A   1      39.792  27.208  28.884  1.00  0.00     0.031 C 
ATOM     51  C   UNL A   1      41.071  31.198  30.164  1.00  0.00     0.029 A 
ATOM     52  N   UNL A   1      39.254  31.691  31.326  1.00  0.00    -0.354 N 
ATOM     53  C   UNL A   1      42.076  27.373  28.949  1.00  0.00     0.074 A 
ATOM     54  C   UNL A   1      40.933  26.621  28.510  1.00  0.00     0.031 C 
ATOM     55  C   UNL A   1      41.318  32.361  30.760  1.00  0.00     0.029 A 
ATOM     56  C   UNL A   1      40.344  32.455  31.800  1.00  0.00     0.049 A 
ATOM     57  H   UNL A   1      38.303  31.850  31.522  1.00  0.00     0.167 HD
ATOM     58  C   UNL A   1      43.394  27.392  28.573  1.00  0.00     0.034 A 
ATOM     59  C   UNL A   1      40.725  32.639  33.098  1.00  0.00     0.034 A 
ATOM     60  C   UNL A   1      44.190  28.372  29.348  1.00  0.00     0.049 A 
ATOM     61  C   UNL A   1      42.100  32.039  33.422  1.00  0.00     0.074 A 
ATOM     62  C   UNL A   1      45.102  29.358  29.007  1.00  0.00     0.029 A 
ATOM     63  N   UNL A   1      43.997  28.508  30.724  1.00  0.00    -0.354 N 
ATOM     64  N   UNL A   1      42.783  31.277  32.595  1.00  0.00    -0.248 NA
ATOM     65  C   UNL A   1      42.829  32.242  34.675  1.00  0.00     0.031 C 
ATOM     66  C   UNL A   1      45.322  30.180  30.146  1.00  0.00     0.029 A 
ATOM     67  C   UNL A   1      44.653  29.617  31.218  1.00  0.00     0.049 A 
ATOM     68  H   UNL A   1      43.459  27.892  31.272  1.00  0.00     0.167 HD
ATOM     69  C   UNL A   1      43.919  30.804  33.200  1.00  0.00     0.074 A 
ATOM     70  C   UNL A   1      43.927  31.485  34.483  1.00  0.00     0.031 C 
ATOM     71  C   UNL A   1      44.740  29.853  32.650  1.00  0.00     0.034 A 
BRANCH  58  72
ATOM     72  C   UNL A   1      43.994  26.683  27.328  1.00  0.00     0.023 A 
ATOM     73  C   UNL A   1      43.092  26.312  26.297  1.00  0.00     0.012 A 
ATOM     74  C   UNL A   1      45.332  26.236  27.139  1.00  0.00     0.148 A 
ATOM     75  C   UNL A   1      43.462  25.521  25.197  1.00  0.00     0.002 A 
ATOM     76  C   UNL A   1      45.723  25.529  25.984  1.00  0.00     0.091 A 
ATOM     77  F   UNL A   1      46.236  26.401  28.110  1.00  0.00    -0.205 F 
ATOM     78  C   UNL A   1      44.783  25.141  25.028  1.00  0.00     0.022 A 
BRANCH  76  79
ATOM     79  S   UNL A   1      47.442  25.102  25.615  1.00  0.00     0.127 S 
ATOM     80  O   UNL A   1      47.761  24.135  26.664  1.00  0.00    -0.237 OA
ATOM     81  O   UNL A   1      47.340  24.528  24.272  1.00  0.00    -0.237 OA
ATOM     82  O   UNL A   1      48.191  26.352  25.678  1.00  0.00    -0.744 OA
ENDBRANCH  76  79
ENDBRANCH  58  72
BRANCH  59  83
ATOM     83  C   UNL A   1      39.578  33.038  33.964  1.00  0.00     0.023 A 
ATOM     84  C   UNL A   1      38.984  31.918  34.605  1.00  0.00     0.012 A 
ATOM     85  C   UNL A   1      39.686  34.241  34.680  1.00  0.00     0.148 A 
ATOM     86  C   UNL A   1      38.836  31.897  35.994  1.00  0.00     0.002 A 
ATOM     87  C   UNL A   1      39.550  34.209  36.071  1.00  0.00     0.091 A 
ATOM     88  F   UNL A   1      40.126  35.328  34.033  1.00  0.00    -0.205 F 
ATOM     89  C   UNL A   1      39.182  33.024  36.731  1.00  0.00     0.022 A 
BRANCH  87  90
ATOM     90  S   UNL A   1      40.196  35.562  37.071  1.00  0.00     0.127 S 
ATOM     91  O   UNL A   1      41.634  35.339  36.994  1.00  0.00    -0.237 OA
ATOM     92  O   UNL A   1      39.709  36.745  36.359  1.00  0.00    -0.237 OA
ATOM     93  O   UNL A   1      39.569  35.368  38.370  1.00  0.00    -0.744 OA
ENDBRANCH  87  90
ENDBRANCH  59  83
BRANCH  71  94
ATOM     94  C   UNL A   1      45.732  29.000  33.433  1.00  0.00     0.023 A 
ATOM     95  C   UNL A   1      45.295  27.884  34.172  1.00  0.00     0.012 A 
ATOM     96  C   UNL A   1      47.141  29.145  33.270  1.00  0.00     0.148 A 
ATOM     97  C   UNL A   1      46.194  26.991  34.764  1.00  0.00     0.002 A 
ATOM     98  C   UNL A   1      48.027  28.198  33.778  1.00  0.00     0.091 A 
ATOM     99  F   UNL A   1      47.638  30.211  32.629  1.00  0.00    -0.205 F 
ATOM    100  C   UNL A   1      47.557  27.134  34.549  1.00  0.00     0.022 A 
BRANCH  98 101
ATOM    101  S   UNL A   1      49.780  28.206  33.360  1.00  0.00     0.127 S 
ATOM    102  O   UNL A   1      49.744  28.439  31.917  1.00  0.00    -0.237 OA
ATOM    103  O   UNL A   1      50.282  29.336  34.144  1.00  0.00    -0.237 OA
ATOM    104  O   UNL A   1      50.299  26.912  33.781  1.00  0.00    -0.744 OA
ENDBRANCH  98 101
ENDBRANCH  71  94
ENDBRANCH  45  46
ENDBRANCH  38  40
ENDBRANCH  37  38
ENDBRANCH  36  37
ENDBRANCH  35  36
ENDBRANCH  34  35
ENDBRANCH  33  34
ENDBRANCH  32  33
ENDBRANCH  31  32
ENDBRANCH   1  31
TORSDOF 27
ENDMDL
MODEL 3
REMARK VINA RESULT:     -10.0      4.109      8.789
REMARK SMILES Cc1nn(C(C)C)c(C)c1S(=O)(=O)Nc1cccc(C(=O)OCCOCCOCCOCCOC(=O)c2ccc(-c3c4nc(c(-c5cccc(S(=O)(=O)[O-])c5F)c5ccc([nH]5)c(-c5cccc(S(=O)(=O)[O-])c5F)c5nc(c(-c6cccc(S(=O)(=O)[O-])c6F)c6ccc3[nH]6)C=C5)C=C4)cc2)c1C
REMARK SMILES IDX 27 1 26 2 25 3 24 4 23 5 22 6 20 7 21 8 19 9 15 10 16 11
REMARK SMILES IDX 100 12 17 13 101 14 18 15 14 16 11 18 12 19 13 20 10 21 1 22
REMARK SMILES IDX 2 23 3 24 4 25 8 26 9 27 5 28 6 29 7 30 28 31 29 32 30 33
REMARK SMILES IDX 31 34 32 35 33 36 34 37 35 38 36 39 37 40 38 41 99 42 39 43
REMARK SMILES IDX 98 44 40 45 41 46 42 47 92 48 43 49 97 50 91 51 93 52 44 53
REMARK SMILES IDX 96 54 90 55 89 56 45 58 77 59 57 60 76 61 58 62 61 63 75 64
REMARK SMILES IDX 94 65 59 66 60 67 74 69 95 70 62 71 46 72 47 73 55 74 48 75
REMARK SMILES IDX 50 76 56 77 49 78 51 79 52 80 53 81 54 82 78 83 79 84 87 85
REMARK SMILES IDX 80 86 82 87 88 88 81 89 83 90 84 91 85 92 86 93 63 94 64 95
REMARK SMILES IDX 72 96 65 97 67 98 73 99 66 100 68 101 69 102 70 103 71 104
REMARK H PARENT 14 17 93 57 61 68
REMARK Flexibility Score: inf
ROOT
ATOM      1  C   UNL A   1      31.511  27.282  22.557  1.00  0.00     0.188 C 
ENDROOT
BRANCH   1   2
ATOM      2  C   UNL A   1      31.498  26.128  21.535  1.00  0.00     0.188 C 
BRANCH   2   3
ATOM      3  O   UNL A   1      32.785  25.679  21.143  1.00  0.00    -0.376 OA
BRANCH   3   4
ATOM      4  C   UNL A   1      33.683  25.543  22.243  1.00  0.00     0.202 C 
BRANCH   4   5
ATOM      5  C   UNL A   1      33.620  24.124  22.758  1.00  0.00     0.261 C 
BRANCH   5   6
ATOM      6  O   UNL A   1      33.525  24.188  24.177  1.00  0.00    -0.460 OA
BRANCH   6   7
ATOM      7  C   UNL A   1      32.494  23.489  24.598  1.00  0.00     0.338 C 
ATOM      8  O   UNL A   1      31.305  23.812  24.566  1.00  0.00    -0.246 OA
BRANCH   7   9
ATOM      9  C   UNL A   1      32.978  22.159  24.981  1.00  0.00     0.065 A 
ATOM     10  C   UNL A   1      34.885  21.193  25.926  1.00  0.00     0.053 A 
ATOM     11  C   UNL A   1      34.758  20.082  25.077  1.00  0.00     0.027 A 
ATOM     12  C   UNL A   1      33.886  22.145  26.037  1.00  0.00    -0.012 A 
ATOM     13  C   UNL A   1      33.673  19.981  24.214  1.00  0.00     0.003 A 
ATOM     14  C   UNL A   1      33.826  23.190  27.124  1.00  0.00     0.047 C 
ATOM     15  C   UNL A   1      32.814  21.067  24.108  1.00  0.00     0.016 A 
BRANCH  10  16
ATOM     16  N   UNL A   1      36.171  21.453  26.467  1.00  0.00    -0.279 N 
ATOM     17  H   UNL A   1      36.330  21.462  27.438  1.00  0.00     0.180 HD
BRANCH  16  18
ATOM     18  S   UNL A   1      37.439  21.753  25.342  1.00  0.00     0.265 S 
ATOM     19  O   UNL A   1      36.951  22.886  24.626  1.00  0.00    -0.201 OA
ATOM     20  O   UNL A   1      37.754  20.525  24.608  1.00  0.00    -0.201 OA
BRANCH  18  21
ATOM     21  C   UNL A   1      38.981  22.245  25.968  1.00  0.00     0.131 A 
ATOM     22  C   UNL A   1      38.678  24.474  27.388  1.00  0.00     0.070 C 
ATOM     23  C   UNL A   1      39.394  23.409  26.677  1.00  0.00     0.080 A 
ATOM     24  N   UNL A   1      40.716  23.420  26.850  1.00  0.00    -0.176 NA
ATOM     25  N   UNL A   1      41.054  22.141  26.709  1.00  0.00    -0.266 N 
ATOM     26  C   UNL A   1      40.034  21.365  26.231  1.00  0.00     0.056 A 
ATOM     27  C   UNL A   1      40.087  19.884  26.195  1.00  0.00     0.068 C 
BRANCH  25  28
ATOM     28  C   UNL A   1      42.380  21.754  27.172  1.00  0.00     0.101 C 
ATOM     29  C   UNL A   1      43.392  21.968  26.052  1.00  0.00     0.033 C 
ATOM     30  C   UNL A   1      42.764  22.528  28.439  1.00  0.00     0.033 C 
ENDBRANCH  25  28
ENDBRANCH  18  21
ENDBRANCH  16  18
ENDBRANCH  10  16
ENDBRANCH   7   9
ENDBRANCH   6   7
ENDBRANCH   5   6
ENDBRANCH   4   5
ENDBRANCH   3   4
ENDBRANCH   2   3
ENDBRANCH   1   2
BRANCH   1  31
ATOM     31  O   UNL A   1      31.206  26.929  23.897  1.00  0.00    -0.377 OA
BRANCH  31  32
ATOM     32  C   UNL A   1      31.900  27.568  24.974  1.00  0.00     0.188 C 
BRANCH  32  33
ATOM     33  C   UNL A   1      31.338  27.461  26.394  1.00  0.00     0.188 C 
BRANCH  33  34
ATOM     34  O   UNL A   1      32.077  28.328  27.240  1.00  0.00    -0.376 OA
BRANCH  34  35
ATOM     35  C   UNL A   1      31.856  29.721  27.085  1.00  0.00     0.202 C 
BRANCH  35  36
ATOM     36  C   UNL A   1      33.116  30.466  26.660  1.00  0.00     0.261 C 
BRANCH  36  37
ATOM     37  O   UNL A   1      33.968  30.627  27.809  1.00  0.00    -0.460 OA
BRANCH  37  38
ATOM     38  C   UNL A   1      35.156  29.967  27.712  1.00  0.00     0.338 C 
ATOM     39  O   UNL A   1      35.349  29.014  26.976  1.00  0.00    -0.246 OA
BRANCH  38  40
ATOM     40  C   UNL A   1      36.087  30.420  28.787  1.00  0.00     0.060 A 
ATOM     41  C   UNL A   1      37.175  31.243  28.461  1.00  0.00     0.016 A 
ATOM     42  C   UNL A   1      36.045  29.806  30.035  1.00  0.00     0.016 A 
ATOM     43  C   UNL A   1      38.282  31.331  29.318  1.00  0.00     0.010 A 
ATOM     44  C   UNL A   1      37.182  29.818  30.824  1.00  0.00     0.010 A 
ATOM     45  C   UNL A   1      38.326  30.559  30.471  1.00  0.00    -0.014 A 
BRANCH  45  46
ATOM     46  C   UNL A   1      39.527  30.337  31.310  1.00  0.00     0.031 A 
ATOM     47  C   UNL A   1      40.450  29.187  30.941  1.00  0.00     0.074 A 
ATOM     48  C   UNL A   1      40.017  31.430  31.952  1.00  0.00     0.049 A 
ATOM     49  N   UNL A   1      41.667  28.993  31.345  1.00  0.00    -0.248 NA
ATOM     50  C   UNL A   1      40.006  28.107  30.048  1.00  0.00     0.031 C 
ATOM     51  C   UNL A   1      41.400  31.839  31.872  1.00  0.00     0.029 A 
ATOM     52  N   UNL A   1      39.455  32.448  32.732  1.00  0.00    -0.354 N 
ATOM     53  C   UNL A   1      42.244  28.018  30.530  1.00  0.00     0.074 A 
ATOM     54  C   UNL A   1      41.135  27.426  29.833  1.00  0.00     0.031 C 
ATOM     55  C   UNL A   1      41.643  32.925  32.600  1.00  0.00     0.029 A 
ATOM     56  C   UNL A   1      40.507  33.056  33.455  1.00  0.00     0.049 A 
ATOM     57  H   UNL A   1      38.504  32.697  32.770  1.00  0.00     0.167 HD
ATOM     58  C   UNL A   1      43.604  27.917  30.396  1.00  0.00     0.034 A 
ATOM     59  C   UNL A   1      40.657  33.110  34.811  1.00  0.00     0.034 A 
ATOM     60  C   UNL A   1      44.333  28.750  31.382  1.00  0.00     0.049 A 
ATOM     61  C   UNL A   1      41.885  32.343  35.320  1.00  0.00     0.074 A 
ATOM     62  C   UNL A   1      45.382  29.652  31.292  1.00  0.00     0.029 A 
ATOM     63  N   UNL A   1      43.903  28.815  32.708  1.00  0.00    -0.354 N 
ATOM     64  N   UNL A   1      42.634  31.568  34.565  1.00  0.00    -0.248 NA
ATOM     65  C   UNL A   1      42.386  32.380  36.695  1.00  0.00     0.031 C 
ATOM     66  C   UNL A   1      45.465  30.367  32.518  1.00  0.00     0.029 A 
ATOM     67  C   UNL A   1      44.559  29.810  33.404  1.00  0.00     0.049 A 
ATOM     68  H   UNL A   1      43.217  28.225  33.098  1.00  0.00     0.167 HD
ATOM     69  C   UNL A   1      43.587  30.934  35.318  1.00  0.00     0.074 A 
ATOM     70  C   UNL A   1      43.423  31.523  36.636  1.00  0.00     0.031 C 
ATOM     71  C   UNL A   1      44.402  29.938  34.843  1.00  0.00     0.034 A 
BRANCH  58  72
ATOM     72  C   UNL A   1      44.353  27.232  29.221  1.00  0.00     0.023 A 
ATOM     73  C   UNL A   1      45.038  26.023  29.506  1.00  0.00     0.012 A 
ATOM     74  C   UNL A   1      44.552  27.732  27.902  1.00  0.00     0.148 A 
ATOM     75  C   UNL A   1      45.891  25.385  28.591  1.00  0.00     0.002 A 
ATOM     76  C   UNL A   1      45.327  27.037  26.953  1.00  0.00     0.091 A 
ATOM     77  F   UNL A   1      44.075  28.935  27.565  1.00  0.00    -0.205 F 
ATOM     78  C   UNL A   1      46.025  25.881  27.305  1.00  0.00     0.022 A 
BRANCH  76  79
ATOM     79  S   UNL A   1      45.457  27.537  25.219  1.00  0.00     0.127 S 
ATOM     80  O   UNL A   1      46.149  26.400  24.613  1.00  0.00    -0.237 OA
ATOM     81  O   UNL A   1      44.052  27.671  24.826  1.00  0.00    -0.237 OA
ATOM     82  O   UNL A   1      46.204  28.789  25.214  1.00  0.00    -0.744 OA
ENDBRANCH  76  79
ENDBRANCH  58  72
BRANCH  59  83
ATOM     83  C   UNL A   1      39.413  33.572  35.491  1.00  0.00     0.023 A 
ATOM     84  C   UNL A   1      38.612  32.483  35.928  1.00  0.00     0.012 A 
ATOM     85  C   UNL A   1      39.499  34.711  36.308  1.00  0.00     0.148 A 
ATOM     86  C   UNL A   1      38.213  32.393  37.263  1.00  0.00     0.002 A 
ATOM     87  C   UNL A   1      39.109  34.609  37.647  1.00  0.00     0.091 A 
ATOM     88  F   UNL A   1      40.147  35.784  35.836  1.00  0.00    -0.205 F 
ATOM     89  C   UNL A   1      38.520  33.430  38.137  1.00  0.00     0.022 A 
BRANCH  87  90
ATOM     90  S   UNL A   1      39.684  35.823  38.848  1.00  0.00     0.127 S 
ATOM     91  O   UNL A   1      41.119  35.571  38.874  1.00  0.00    -0.237 OA
ATOM     92  O   UNL A   1      39.284  37.092  38.236  1.00  0.00    -0.237 OA
ATOM     93  O   UNL A   1      38.937  35.501  40.056  1.00  0.00    -0.744 OA
ENDBRANCH  87  90
ENDBRANCH  59  83
BRANCH  71  94
ATOM     94  C   UNL A   1      45.146  28.931  35.713  1.00  0.00     0.023 A 
ATOM     95  C   UNL A   1      46.396  29.252  36.276  1.00  0.00     0.012 A 
ATOM     96  C   UNL A   1      44.524  27.736  36.179  1.00  0.00     0.148 A 
ATOM     97  C   UNL A   1      47.025  28.417  37.205  1.00  0.00     0.002 A 
ATOM     98  C   UNL A   1      45.110  26.960  37.177  1.00  0.00     0.091 A 
ATOM     99  F   UNL A   1      43.362  27.332  35.651  1.00  0.00    -0.205 F 
ATOM    100  C   UNL A   1      46.374  27.285  37.672  1.00  0.00     0.022 A 
BRANCH  98 101
ATOM    101  S   UNL A   1      44.231  25.605  37.977  1.00  0.00     0.127 S 
ATOM    102  O   UNL A   1      42.969  26.243  38.347  1.00  0.00    -0.237 OA
ATOM    103  O   UNL A   1      44.120  24.625  36.894  1.00  0.00    -0.237 OA
ATOM    104  O   UNL A   1      45.075  25.177  39.083  1.00  0.00    -0.744 OA
ENDBRANCH  98 101
ENDBRANCH  71  94
ENDBRANCH  45  46
ENDBRANCH  38  40
ENDBRANCH  37  38
ENDBRANCH  36  37
ENDBRANCH  35  36
ENDBRANCH  34  35
ENDBRANCH  33  34
ENDBRANCH  32  33
ENDBRANCH  31  32
ENDBRANCH   1  31
TORSDOF 27
ENDMDL
