MODEL 1
REMARK VINA RESULT:      -8.9      0.000      0.000
REMARK SMILES O=C(OCCOCCOCCOCCOC(=O)[C@@H](c1ccccc1)[C@H](C(=O)c1ccccc1)c1ccccc1)c1ccc(-c2c3nc(c(-c4cccc(S(=O)(=O)[O-])c4F)c4ccc([nH]4)c(-c4cccc(S(=O)(=O)[O-])c4F)c4nc(c(-c5cccc(S(=O)(=O)[O-])c5F)c5ccc2[nH]5)C=C4)C=C3)cc1
REMARK SMILES IDX 9 1 8 2 7 3 6 4 5 5 4 6 3 7 2 8 1 9 40 10 41 11 102 12 42 13
REMARK SMILES IDX 101 14 43 15 44 16 45 17 95 18 46 19 100 20 94 21 96 22
REMARK SMILES IDX 47 23 99 24 93 25 92 26 48 28 80 29 60 30 79 31 61 32 64 33
REMARK SMILES IDX 78 34 97 35 62 36 63 37 77 39 98 40 65 41 49 42 50 43 58 44
REMARK SMILES IDX 51 45 53 46 59 47 52 48 54 49 55 50 56 51 57 52 81 53 82 54
REMARK SMILES IDX 90 55 83 56 85 57 91 58 84 59 86 60 87 61 88 62 89 63 66 64
REMARK SMILES IDX 67 65 75 66 68 67 70 68 76 69 69 70 71 71 72 72 73 73 74 74
REMARK SMILES IDX 10 75 11 76 12 77 13 78 14 79 15 80 16 81 17 82 18 83 19 84
REMARK SMILES IDX 20 85 24 86 21 87 23 88 22 89 25 90 34 91 35 92 39 93 36 94
REMARK SMILES IDX 38 95 37 96 26 97 27 98 28 99 29 100 33 101 30 102 32 103
REMARK SMILES IDX 31 104
REMARK H PARENT 96 27 64 38
REMARK Flexibility Score: inf
ROOT
ATOM      1  O   UNL A   1      44.478  40.455  25.608  1.00  0.00    -0.377 OA
ENDROOT
BRANCH   1   2
ATOM      2  C   UNL A   1      43.573  39.655  26.365  1.00  0.00     0.188 C 
BRANCH   2   3
ATOM      3  C   UNL A   1      42.244  40.275  26.701  1.00  0.00     0.188 C 
BRANCH   3   4
ATOM      4  O   UNL A   1      41.939  40.084  28.063  1.00  0.00    -0.376 OA
BRANCH   4   5
ATOM      5  C   UNL A   1      42.346  38.864  28.644  1.00  0.00     0.202 C 
BRANCH   5   6
ATOM      6  C   UNL A   1      43.312  39.181  29.784  1.00  0.00     0.261 C 
BRANCH   6   7
ATOM      7  O   UNL A   1      44.494  38.358  29.701  1.00  0.00    -0.460 OA
BRANCH   7   8
ATOM      8  C   UNL A   1      44.865  37.286  30.447  1.00  0.00     0.338 C 
ATOM      9  O   UNL A   1      45.315  37.513  31.571  1.00  0.00    -0.246 OA
BRANCH   8  10
ATOM     10  C   UNL A   1      44.760  35.844  30.028  1.00  0.00     0.060 A 
ATOM     11  C   UNL A   1      44.241  35.371  28.819  1.00  0.00     0.016 A 
ATOM     12  C   UNL A   1      45.305  34.889  30.911  1.00  0.00     0.016 A 
ATOM     13  C   UNL A   1      44.295  34.034  28.466  1.00  0.00     0.010 A 
ATOM     14  C   UNL A   1      45.287  33.522  30.607  1.00  0.00     0.010 A 
ATOM     15  C   UNL A   1      44.750  33.102  29.387  1.00  0.00    -0.014 A 
BRANCH  15  16
ATOM     16  C   UNL A   1      44.294  31.725  29.151  1.00  0.00     0.031 A 
ATOM     17  C   UNL A   1      42.877  31.423  29.546  1.00  0.00     0.074 A 
ATOM     18  C   UNL A   1      45.032  30.880  28.415  1.00  0.00     0.049 A 
ATOM     19  N   UNL A   1      42.181  30.335  29.374  1.00  0.00    -0.248 NA
ATOM     20  C   UNL A   1      42.126  32.519  30.190  1.00  0.00     0.031 C 
ATOM     21  C   UNL A   1      46.353  31.178  27.856  1.00  0.00     0.029 A 
ATOM     22  N   UNL A   1      44.761  29.611  27.985  1.00  0.00    -0.354 N 
ATOM     23  C   UNL A   1      40.936  30.599  29.932  1.00  0.00     0.074 A 
ATOM     24  C   UNL A   1      40.953  31.955  30.420  1.00  0.00     0.031 C 
ATOM     25  C   UNL A   1      46.784  30.107  27.168  1.00  0.00     0.029 A 
ATOM     26  C   UNL A   1      45.790  29.043  27.276  1.00  0.00     0.049 A 
ATOM     27  H   UNL A   1      43.910  29.149  28.169  1.00  0.00     0.167 HD
ATOM     28  C   UNL A   1      39.877  29.769  30.038  1.00  0.00     0.034 A 
ATOM     29  C   UNL A   1      45.907  27.789  26.801  1.00  0.00     0.034 A 
ATOM     30  C   UNL A   1      39.899  28.422  29.549  1.00  0.00     0.049 A 
ATOM     31  C   UNL A   1      44.744  26.854  27.010  1.00  0.00     0.074 A 
ATOM     32  C   UNL A   1      38.924  27.451  29.643  1.00  0.00     0.029 A 
ATOM     33  N   UNL A   1      40.978  27.856  28.882  1.00  0.00    -0.354 N 
ATOM     34  N   UNL A   1      43.571  27.102  27.548  1.00  0.00    -0.248 NA
ATOM     35  C   UNL A   1      44.904  25.476  26.529  1.00  0.00     0.031 C 
ATOM     36  C   UNL A   1      39.433  26.280  29.069  1.00  0.00     0.029 A 
ATOM     37  C   UNL A   1      40.700  26.541  28.568  1.00  0.00     0.049 A 
ATOM     38  H   UNL A   1      41.817  28.323  28.666  1.00  0.00     0.167 HD
ATOM     39  C   UNL A   1      42.839  25.927  27.435  1.00  0.00     0.074 A 
ATOM     40  C   UNL A   1      43.700  24.972  26.762  1.00  0.00     0.031 C 
ATOM     41  C   UNL A   1      41.578  25.651  27.850  1.00  0.00     0.034 A 
BRANCH  28  42
ATOM     42  C   UNL A   1      38.675  30.282  30.782  1.00  0.00     0.023 A 
ATOM     43  C   UNL A   1      38.500  30.001  32.152  1.00  0.00     0.012 A 
ATOM     44  C   UNL A   1      37.686  31.011  30.095  1.00  0.00     0.148 A 
ATOM     45  C   UNL A   1      37.339  30.401  32.815  1.00  0.00     0.002 A 
ATOM     46  C   UNL A   1      36.555  31.448  30.772  1.00  0.00     0.091 A 
ATOM     47  F   UNL A   1      37.854  31.235  28.784  1.00  0.00    -0.205 F 
ATOM     48  C   UNL A   1      36.370  31.129  32.127  1.00  0.00     0.022 A 
BRANCH  46  49
ATOM     49  S   UNL A   1      35.283  32.444  29.990  1.00  0.00     0.127 S 
ATOM     50  O   UNL A   1      36.046  33.608  29.546  1.00  0.00    -0.237 OA
ATOM     51  O   UNL A   1      34.825  31.565  28.916  1.00  0.00    -0.237 OA
ATOM     52  O   UNL A   1      34.289  32.712  31.025  1.00  0.00    -0.744 OA
ENDBRANCH  46  49
ENDBRANCH  28  42
BRANCH  29  53
ATOM     53  C   UNL A   1      47.151  27.350  26.105  1.00  0.00     0.023 A 
ATOM     54  C   UNL A   1      48.153  26.661  26.815  1.00  0.00     0.012 A 
ATOM     55  C   UNL A   1      47.348  27.618  24.735  1.00  0.00     0.148 A 
ATOM     56  C   UNL A   1      49.339  26.279  26.184  1.00  0.00     0.002 A 
ATOM     57  C   UNL A   1      48.507  27.187  24.099  1.00  0.00     0.091 A 
ATOM     58  F   UNL A   1      46.394  28.291  24.075  1.00  0.00    -0.205 F 
ATOM     59  C   UNL A   1      49.513  26.533  24.827  1.00  0.00     0.022 A 
BRANCH  57  60
ATOM     60  S   UNL A   1      48.766  27.374  22.331  1.00  0.00     0.127 S 
ATOM     61  O   UNL A   1      47.841  28.458  22.008  1.00  0.00    -0.237 OA
ATOM     62  O   UNL A   1      50.183  27.735  22.272  1.00  0.00    -0.237 OA
ATOM     63  O   UNL A   1      48.451  26.079  21.745  1.00  0.00    -0.744 OA
ENDBRANCH  57  60
ENDBRANCH  29  53
BRANCH  41  64
ATOM     64  C   UNL A   1      41.032  24.289  27.527  1.00  0.00     0.023 A 
ATOM     65  C   UNL A   1      41.619  23.136  28.084  1.00  0.00     0.012 A 
ATOM     66  C   UNL A   1      39.875  24.169  26.734  1.00  0.00     0.148 A 
ATOM     67  C   UNL A   1      41.081  21.878  27.823  1.00  0.00     0.002 A 
ATOM     68  C   UNL A   1      39.309  22.920  26.530  1.00  0.00     0.091 A 
ATOM     69  F   UNL A   1      39.346  25.280  26.200  1.00  0.00    -0.205 F 
ATOM     70  C   UNL A   1      39.919  21.771  27.060  1.00  0.00     0.022 A 
BRANCH  68  71
ATOM     71  S   UNL A   1      37.751  22.709  25.664  1.00  0.00     0.127 S 
ATOM     72  O   UNL A   1      36.819  23.397  26.556  1.00  0.00    -0.237 OA
ATOM     73  O   UNL A   1      38.006  23.397  24.398  1.00  0.00    -0.237 OA
ATOM     74  O   UNL A   1      37.554  21.271  25.538  1.00  0.00    -0.744 OA
ENDBRANCH  68  71
ENDBRANCH  41  64
ENDBRANCH  15  16
ENDBRANCH   8  10
ENDBRANCH   7   8
ENDBRANCH   6   7
ENDBRANCH   5   6
ENDBRANCH   4   5
ENDBRANCH   3   4
ENDBRANCH   2   3
ENDBRANCH   1   2
BRANCH   1  75
ATOM     75  C   UNL A   1      44.341  41.882  25.576  1.00  0.00     0.188 C 
BRANCH  75  76
ATOM     76  C   UNL A   1      44.748  42.648  24.310  1.00  0.00     0.188 C 
BRANCH  76  77
ATOM     77  O   UNL A   1      43.955  43.798  24.105  1.00  0.00    -0.376 OA
BRANCH  77  78
ATOM     78  C   UNL A   1      44.457  44.763  23.182  1.00  0.00     0.202 C 
BRANCH  78  79
ATOM     79  C   UNL A   1      45.966  45.113  23.138  1.00  0.00     0.261 C 
BRANCH  79  80
ATOM     80  O   UNL A   1      46.545  45.422  21.847  1.00  0.00    -0.463 OA
BRANCH  80  81
ATOM     81  C   UNL A   1      45.816  46.197  20.994  1.00  0.00     0.314 C 
ATOM     82  O   UNL A   1      45.215  47.212  21.351  1.00  0.00    -0.252 OA
BRANCH  81  83
ATOM     83  C   UNL A   1      45.588  45.622  19.583  1.00  0.00     0.144 C 
BRANCH  83  84
ATOM     84  C   UNL A   1      44.203  45.161  19.059  1.00  0.00    -0.033 A 
ATOM     85  C   UNL A   1      43.324  45.912  18.271  1.00  0.00     0.004 A 
ATOM     86  C   UNL A   1      43.745  43.865  19.384  1.00  0.00     0.004 A 
ATOM     87  C   UNL A   1      42.037  45.472  17.917  1.00  0.00     0.000 A 
ATOM     88  C   UNL A   1      42.473  43.396  19.004  1.00  0.00     0.000 A 
ATOM     89  C   UNL A   1      41.606  44.211  18.290  1.00  0.00     0.000 A 
ENDBRANCH  83  84
BRANCH  83  90
ATOM     90  C   UNL A   1      46.642  46.213  18.594  1.00  0.00     0.110 C 
BRANCH  90  91
ATOM     91  C   UNL A   1      47.302  47.565  18.937  1.00  0.00    -0.036 A 
ATOM     92  C   UNL A   1      48.456  47.595  19.738  1.00  0.00     0.004 A 
ATOM     93  C   UNL A   1      46.776  48.807  18.566  1.00  0.00     0.004 A 
ATOM     94  C   UNL A   1      48.985  48.805  20.208  1.00  0.00     0.000 A 
ATOM     95  C   UNL A   1      47.312  50.020  19.003  1.00  0.00     0.000 A 
ATOM     96  C   UNL A   1      48.408  50.017  19.845  1.00  0.00     0.000 A 
ENDBRANCH  90  91
BRANCH  90  97
ATOM     97  C   UNL A   1      47.735  45.104  18.446  1.00  0.00     0.171 C 
ATOM     98  O   UNL A   1      47.734  44.061  19.101  1.00  0.00    -0.293 OA
BRANCH  97  99
ATOM     99  C   UNL A   1      48.787  45.215  17.396  1.00  0.00     0.018 A 
ATOM    100  C   UNL A   1      50.095  44.842  17.742  1.00  0.00     0.012 A 
ATOM    101  C   UNL A   1      48.526  45.731  16.126  1.00  0.00     0.012 A 
ATOM    102  C   UNL A   1      51.140  44.995  16.832  1.00  0.00     0.001 A 
ATOM    103  C   UNL A   1      49.582  45.899  15.222  1.00  0.00     0.001 A 
ATOM    104  C   UNL A   1      50.885  45.536  15.575  1.00  0.00     0.000 A 
ENDBRANCH  97  99
ENDBRANCH  90  97
ENDBRANCH  83  90
ENDBRANCH  81  83
ENDBRANCH  80  81
ENDBRANCH  79  80
ENDBRANCH  78  79
ENDBRANCH  77  78
ENDBRANCH  76  77
ENDBRANCH  75  76
ENDBRANCH   1  75
TORSDOF 28
ENDMDL
MODEL 2
REMARK VINA RESULT:      -8.3      2.931      4.374
REMARK SMILES O=C(OCCOCCOCCOCCOC(=O)[C@@H](c1ccccc1)[C@H](C(=O)c1ccccc1)c1ccccc1)c1ccc(-c2c3nc(c(-c4cccc(S(=O)(=O)[O-])c4F)c4ccc([nH]4)c(-c4cccc(S(=O)(=O)[O-])c4F)c4nc(c(-c5cccc(S(=O)(=O)[O-])c5F)c5ccc2[nH]5)C=C4)C=C3)cc1
REMARK SMILES IDX 9 1 8 2 7 3 6 4 5 5 4 6 3 7 2 8 1 9 40 10 41 11 102 12 42 13
REMARK SMILES IDX 101 14 43 15 44 16 45 17 95 18 46 19 100 20 94 21 96 22
REMARK SMILES IDX 47 23 99 24 93 25 92 26 48 28 80 29 60 30 79 31 61 32 64 33
REMARK SMILES IDX 78 34 97 35 62 36 63 37 77 39 98 40 65 41 49 42 50 43 58 44
REMARK SMILES IDX 51 45 53 46 59 47 52 48 54 49 55 50 56 51 57 52 81 53 82 54
REMARK SMILES IDX 90 55 83 56 85 57 91 58 84 59 86 60 87 61 88 62 89 63 66 64
REMARK SMILES IDX 67 65 75 66 68 67 70 68 76 69 69 70 71 71 72 72 73 73 74 74
REMARK SMILES IDX 10 75 11 76 12 77 13 78 14 79 15 80 16 81 17 82 18 83 19 84
REMARK SMILES IDX 20 85 24 86 21 87 23 88 22 89 25 90 34 91 35 92 39 93 36 94
REMARK SMILES IDX 38 95 37 96 26 97 27 98 28 99 29 100 33 101 30 102 32 103
REMARK SMILES IDX 31 104
REMARK H PARENT 96 27 64 38
REMARK Flexibility Score: inf
ROOT
ATOM      1  O   UNL A   1      44.338  40.895  25.918  1.00  0.00    -0.377 OA
ENDROOT
BRANCH   1   2
ATOM      2  C   UNL A   1      43.280  40.009  26.273  1.00  0.00     0.188 C 
BRANCH   2   3
ATOM      3  C   UNL A   1      41.878  40.509  26.050  1.00  0.00     0.188 C 
BRANCH   3   4
ATOM      4  O   UNL A   1      41.237  40.751  27.281  1.00  0.00    -0.376 OA
BRANCH   4   5
ATOM      5  C   UNL A   1      41.578  39.903  28.356  1.00  0.00     0.202 C 
BRANCH   5   6
ATOM      6  C   UNL A   1      42.092  40.773  29.501  1.00  0.00     0.261 C 
BRANCH   6   7
ATOM      7  O   UNL A   1      43.384  40.318  29.955  1.00  0.00    -0.460 OA
BRANCH   7   8
ATOM      8  C   UNL A   1      43.703  39.425  30.926  1.00  0.00     0.338 C 
ATOM      9  O   UNL A   1      43.722  39.842  32.086  1.00  0.00    -0.246 OA
BRANCH   8  10
ATOM     10  C   UNL A   1      44.020  37.969  30.715  1.00  0.00     0.060 A 
ATOM     11  C   UNL A   1      43.948  37.276  29.503  1.00  0.00     0.016 A 
ATOM     12  C   UNL A   1      44.505  37.260  31.833  1.00  0.00     0.016 A 
ATOM     13  C   UNL A   1      44.376  35.966  29.376  1.00  0.00     0.010 A 
ATOM     14  C   UNL A   1      44.858  35.908  31.741  1.00  0.00     0.010 A 
ATOM     15  C   UNL A   1      44.761  35.261  30.507  1.00  0.00    -0.014 A 
BRANCH  15  16
ATOM     16  C   UNL A   1      44.686  33.798  30.379  1.00  0.00     0.031 A 
ATOM     17  C   UNL A   1      43.312  33.198  30.464  1.00  0.00     0.074 A 
ATOM     18  C   UNL A   1      45.755  33.094  29.977  1.00  0.00     0.049 A 
ATOM     19  N   UNL A   1      42.933  31.963  30.297  1.00  0.00    -0.248 NA
ATOM     20  C   UNL A   1      42.202  34.133  30.736  1.00  0.00     0.031 C 
ATOM     21  C   UNL A   1      47.084  33.651  29.713  1.00  0.00     0.029 A 
ATOM     22  N   UNL A   1      45.883  31.764  29.691  1.00  0.00    -0.354 N 
ATOM     23  C   UNL A   1      41.558  31.967  30.493  1.00  0.00     0.074 A 
ATOM     24  C   UNL A   1      41.157  33.325  30.760  1.00  0.00     0.031 C 
ATOM     25  C   UNL A   1      47.899  32.659  29.317  1.00  0.00     0.029 A 
ATOM     26  C   UNL A   1      47.161  31.400  29.343  1.00  0.00     0.049 A 
ATOM     27  H   UNL A   1      45.132  31.128  29.733  1.00  0.00     0.167 HD
ATOM     28  C   UNL A   1      40.709  30.918  30.467  1.00  0.00     0.034 A 
ATOM     29  C   UNL A   1      47.663  30.174  29.105  1.00  0.00     0.034 A 
ATOM     30  C   UNL A   1      41.145  29.578  30.206  1.00  0.00     0.049 A 
ATOM     31  C   UNL A   1      46.710  29.007  29.168  1.00  0.00     0.074 A 
ATOM     32  C   UNL A   1      40.408  28.412  30.209  1.00  0.00     0.029 A 
ATOM     33  N   UNL A   1      42.457  29.232  29.910  1.00  0.00    -0.354 N 
ATOM     34  N   UNL A   1      45.412  29.011  29.366  1.00  0.00    -0.248 NA
ATOM     35  C   UNL A   1      47.280  27.672  28.953  1.00  0.00     0.031 C 
ATOM     36  C   UNL A   1      41.287  27.352  29.957  1.00  0.00     0.029 A 
ATOM     37  C   UNL A   1      42.557  27.866  29.741  1.00  0.00     0.049 A 
ATOM     38  H   UNL A   1      43.205  29.867  29.834  1.00  0.00     0.167 HD
ATOM     39  C   UNL A   1      45.001  27.689  29.259  1.00  0.00     0.074 A 
ATOM     40  C   UNL A   1      46.192  26.914  28.964  1.00  0.00     0.031 C 
ATOM     41  C   UNL A   1      43.763  27.154  29.397  1.00  0.00     0.034 A 
BRANCH  28  42
ATOM     42  C   UNL A   1      39.271  31.190  30.815  1.00  0.00     0.023 A 
ATOM     43  C   UNL A   1      38.861  31.289  32.160  1.00  0.00     0.012 A 
ATOM     44  C   UNL A   1      38.312  31.298  29.790  1.00  0.00     0.148 A 
ATOM     45  C   UNL A   1      37.511  31.449  32.479  1.00  0.00     0.002 A 
ATOM     46  C   UNL A   1      36.978  31.506  30.113  1.00  0.00     0.091 A 
ATOM     47  F   UNL A   1      38.718  31.162  28.520  1.00  0.00    -0.205 F 
ATOM     48  C   UNL A   1      36.572  31.564  31.456  1.00  0.00     0.022 A 
BRANCH  46  49
ATOM     49  S   UNL A   1      35.704  31.729  28.869  1.00  0.00     0.127 S 
ATOM     50  O   UNL A   1      34.543  32.066  29.688  1.00  0.00    -0.237 OA
ATOM     51  O   UNL A   1      36.239  32.837  28.079  1.00  0.00    -0.237 OA
ATOM     52  O   UNL A   1      35.612  30.459  28.154  1.00  0.00    -0.744 OA
ENDBRANCH  46  49
ENDBRANCH  28  42
BRANCH  29  53
ATOM     53  C   UNL A   1      49.111  29.988  28.802  1.00  0.00     0.023 A 
ATOM     54  C   UNL A   1      49.561  29.999  27.468  1.00  0.00     0.012 A 
ATOM     55  C   UNL A   1      50.049  29.795  29.837  1.00  0.00     0.148 A 
ATOM     56  C   UNL A   1      50.909  29.787  27.168  1.00  0.00     0.002 A 
ATOM     57  C   UNL A   1      51.398  29.639  29.536  1.00  0.00     0.091 A 
ATOM     58  F   UNL A   1      49.605  29.768  31.102  1.00  0.00    -0.205 F 
ATOM     59  C   UNL A   1      51.827  29.616  28.200  1.00  0.00     0.022 A 
BRANCH  57  60
ATOM     60  S   UNL A   1      52.664  29.523  30.805  1.00  0.00     0.127 S 
ATOM     61  O   UNL A   1      53.880  29.406  30.004  1.00  0.00    -0.237 OA
ATOM     62  O   UNL A   1      52.506  30.799  31.504  1.00  0.00    -0.237 OA
ATOM     63  O   UNL A   1      52.317  28.355  31.603  1.00  0.00    -0.744 OA
ENDBRANCH  57  60
ENDBRANCH  29  53
BRANCH  41  64
ATOM     64  C   UNL A   1      43.624  25.676  29.162  1.00  0.00     0.023 A 
ATOM     65  C   UNL A   1      43.883  24.762  30.202  1.00  0.00     0.012 A 
ATOM     66  C   UNL A   1      43.147  25.207  27.923  1.00  0.00     0.148 A 
ATOM     67  C   UNL A   1      43.705  23.396  29.997  1.00  0.00     0.002 A 
ATOM     68  C   UNL A   1      42.913  23.852  27.747  1.00  0.00     0.091 A 
ATOM     69  F   UNL A   1      42.926  26.096  26.943  1.00  0.00    -0.205 F 
ATOM     70  C   UNL A   1      43.207  22.942  28.776  1.00  0.00     0.022 A 
BRANCH  68  71
ATOM     71  S   UNL A   1      42.161  23.201  26.253  1.00  0.00     0.127 S 
ATOM     72  O   UNL A   1      42.736  24.070  25.227  1.00  0.00    -0.237 OA
ATOM     73  O   UNL A   1      42.654  21.824  26.233  1.00  0.00    -0.237 OA
ATOM     74  O   UNL A   1      40.722  23.323  26.443  1.00  0.00    -0.744 OA
ENDBRANCH  68  71
ENDBRANCH  41  64
ENDBRANCH  15  16
ENDBRANCH   8  10
ENDBRANCH   7   8
ENDBRANCH   6   7
ENDBRANCH   5   6
ENDBRANCH   4   5
ENDBRANCH   3   4
ENDBRANCH   2   3
ENDBRANCH   1   2
BRANCH   1  75
ATOM     75  C   UNL A   1      44.280  42.283  26.271  1.00  0.00     0.188 C 
BRANCH  75  76
ATOM     76  C   UNL A   1      44.679  43.341  25.232  1.00  0.00     0.188 C 
BRANCH  76  77
ATOM     77  O   UNL A   1      45.520  42.813  24.229  1.00  0.00    -0.376 OA
BRANCH  77  78
ATOM     78  C   UNL A   1      45.485  43.462  22.960  1.00  0.00     0.202 C 
BRANCH  78  79
ATOM     79  C   UNL A   1      44.197  44.164  22.460  1.00  0.00     0.261 C 
BRANCH  79  80
ATOM     80  O   UNL A   1      44.281  44.923  21.229  1.00  0.00    -0.463 OA
BRANCH  80  81
ATOM     81  C   UNL A   1      44.961  44.367  20.186  1.00  0.00     0.314 C 
ATOM     82  O   UNL A   1      44.816  43.194  19.836  1.00  0.00    -0.252 OA
BRANCH  81  83
ATOM     83  C   UNL A   1      46.100  45.214  19.589  1.00  0.00     0.144 C 
BRANCH  83  84
ATOM     84  C   UNL A   1      47.582  44.759  19.560  1.00  0.00    -0.033 A 
ATOM     85  C   UNL A   1      48.532  45.095  18.589  1.00  0.00     0.004 A 
ATOM     86  C   UNL A   1      48.063  43.924  20.593  1.00  0.00     0.004 A 
ATOM     87  C   UNL A   1      49.832  44.562  18.566  1.00  0.00     0.000 A 
ATOM     88  C   UNL A   1      49.375  43.414  20.604  1.00  0.00     0.000 A 
ATOM     89  C   UNL A   1      50.255  43.713  19.573  1.00  0.00     0.000 A 
ENDBRANCH  83  84
BRANCH  83  90
ATOM     90  C   UNL A   1      45.540  46.130  18.456  1.00  0.00     0.110 C 
BRANCH  90  91
ATOM     91  C   UNL A   1      44.160  45.799  17.850  1.00  0.00    -0.036 A 
ATOM     92  C   UNL A   1      44.057  44.828  16.839  1.00  0.00     0.004 A 
ATOM     93  C   UNL A   1      42.979  46.470  18.184  1.00  0.00     0.004 A 
ATOM     94  C   UNL A   1      42.854  44.621  16.150  1.00  0.00     0.000 A 
ATOM     95  C   UNL A   1      41.768  46.250  17.526  1.00  0.00     0.000 A 
ATOM     96  C   UNL A   1      41.711  45.337  16.490  1.00  0.00     0.000 A 
ENDBRANCH  90  91
BRANCH  90  97
ATOM     97  C   UNL A   1      45.528  47.574  19.060  1.00  0.00     0.171 C 
ATOM     98  O   UNL A   1      45.540  47.800  20.270  1.00  0.00    -0.293 OA
BRANCH  97  99
ATOM     99  C   UNL A   1      45.620  48.766  18.170  1.00  0.00     0.018 A 
ATOM    100  C   UNL A   1      44.596  49.722  18.253  1.00  0.00     0.012 A 
ATOM    101  C   UNL A   1      46.641  48.923  17.231  1.00  0.00     0.012 A 
ATOM    102  C   UNL A   1      44.580  50.820  17.396  1.00  0.00     0.001 A 
ATOM    103  C   UNL A   1      46.611  50.019  16.360  1.00  0.00     0.001 A 
ATOM    104  C   UNL A   1      45.582  50.962  16.439  1.00  0.00     0.000 A 
ENDBRANCH  97  99
ENDBRANCH  90  97
ENDBRANCH  83  90
ENDBRANCH  81  83
ENDBRANCH  80  81
ENDBRANCH  79  80
ENDBRANCH  78  79
ENDBRANCH  77  78
ENDBRANCH  76  77
ENDBRANCH  75  76
ENDBRANCH   1  75
TORSDOF 28
ENDMDL
MODEL 3
REMARK VINA RESULT:      -8.0      8.362     13.510
REMARK SMILES O=C(OCCOCCOCCOCCOC(=O)[C@@H](c1ccccc1)[C@H](C(=O)c1ccccc1)c1ccccc1)c1ccc(-c2c3nc(c(-c4cccc(S(=O)(=O)[O-])c4F)c4ccc([nH]4)c(-c4cccc(S(=O)(=O)[O-])c4F)c4nc(c(-c5cccc(S(=O)(=O)[O-])c5F)c5ccc2[nH]5)C=C4)C=C3)cc1
REMARK SMILES IDX 9 1 8 2 7 3 6 4 5 5 4 6 3 7 2 8 1 9 40 10 41 11 102 12 42 13
REMARK SMILES IDX 101 14 43 15 44 16 45 17 95 18 46 19 100 20 94 21 96 22
REMARK SMILES IDX 47 23 99 24 93 25 92 26 48 28 80 29 60 30 79 31 61 32 64 33
REMARK SMILES IDX 78 34 97 35 62 36 63 37 77 39 98 40 65 41 49 42 50 43 58 44
REMARK SMILES IDX 51 45 53 46 59 47 52 48 54 49 55 50 56 51 57 52 81 53 82 54
REMARK SMILES IDX 90 55 83 56 85 57 91 58 84 59 86 60 87 61 88 62 89 63 66 64
REMARK SMILES IDX 67 65 75 66 68 67 70 68 76 69 69 70 71 71 72 72 73 73 74 74
REMARK SMILES IDX 10 75 11 76 12 77 13 78 14 79 15 80 16 81 17 82 18 83 19 84
REMARK SMILES IDX 20 85 24 86 21 87 23 88 22 89 25 90 34 91 35 92 39 93 36 94
REMARK SMILES IDX 38 95 37 96 26 97 27 98 28 99 29 100 33 101 30 102 32 103
REMARK SMILES IDX 31 104
REMARK H PARENT 96 27 64 38
REMARK Flexibility Score: inf
ROOT
ATOM      1  O   UNL A   1      42.528  36.701  37.210  1.00  0.00    -0.377 OA
ENDROOT
BRANCH   1   2
ATOM      2  C   UNL A   1      43.148  36.426  38.463  1.00  0.00     0.188 C 
BRANCH   2   3
ATOM      3  C   UNL A   1      44.302  35.459  38.447  1.00  0.00     0.188 C 
BRANCH   3   4
ATOM      4  O   UNL A   1      44.595  35.017  39.752  1.00  0.00    -0.376 OA
BRANCH   4   5
ATOM      5  C   UNL A   1      43.501  34.634  40.558  1.00  0.00     0.202 C 
BRANCH   5   6
ATOM      6  C   UNL A   1      43.853  33.313  41.237  1.00  0.00     0.261 C 
BRANCH   6   7
ATOM      7  O   UNL A   1      43.257  32.199  40.540  1.00  0.00    -0.460 OA
BRANCH   7   8
ATOM      8  C   UNL A   1      42.511  32.178  39.406  1.00  0.00     0.338 C 
ATOM      9  O   UNL A   1      41.318  32.469  39.513  1.00  0.00    -0.246 OA
BRANCH   8  10
ATOM     10  C   UNL A   1      43.015  31.845  38.027  1.00  0.00     0.060 A 
ATOM     11  C   UNL A   1      42.230  31.632  36.891  1.00  0.00     0.016 A 
ATOM     12  C   UNL A   1      44.415  31.819  37.856  1.00  0.00     0.016 A 
ATOM     13  C   UNL A   1      42.783  31.450  35.635  1.00  0.00     0.010 A 
ATOM     14  C   UNL A   1      44.990  31.547  36.608  1.00  0.00     0.010 A 
ATOM     15  C   UNL A   1      44.159  31.335  35.506  1.00  0.00    -0.014 A 
BRANCH  15  16
ATOM     16  C   UNL A   1      44.611  30.640  34.292  1.00  0.00     0.031 A 
ATOM     17  C   UNL A   1      45.154  31.511  33.196  1.00  0.00     0.074 A 
ATOM     18  C   UNL A   1      44.739  29.305  34.280  1.00  0.00     0.049 A 
ATOM     19  N   UNL A   1      45.703  31.176  32.063  1.00  0.00    -0.248 NA
ATOM     20  C   UNL A   1      45.109  32.969  33.431  1.00  0.00     0.031 C 
ATOM     21  C   UNL A   1      44.385  28.411  35.385  1.00  0.00     0.029 A 
ATOM     22  N   UNL A   1      45.234  28.471  33.316  1.00  0.00    -0.354 N 
ATOM     23  C   UNL A   1      46.018  32.375  31.434  1.00  0.00     0.074 A 
ATOM     24  C   UNL A   1      45.633  33.447  32.317  1.00  0.00     0.031 C 
ATOM     25  C   UNL A   1      44.660  27.146  35.025  1.00  0.00     0.029 A 
ATOM     26  C   UNL A   1      45.167  27.142  33.656  1.00  0.00     0.049 A 
ATOM     27  H   UNL A   1      45.600  28.793  32.460  1.00  0.00     0.167 HD
ATOM     28  C   UNL A   1      46.568  32.557  30.215  1.00  0.00     0.034 A 
ATOM     29  C   UNL A   1      45.461  26.057  32.916  1.00  0.00     0.034 A 
ATOM     30  C   UNL A   1      46.931  31.465  29.360  1.00  0.00     0.049 A 
ATOM     31  C   UNL A   1      45.992  26.287  31.524  1.00  0.00     0.074 A 
ATOM     32  C   UNL A   1      47.438  31.502  28.078  1.00  0.00     0.029 A 
ATOM     33  N   UNL A   1      46.800  30.128  29.711  1.00  0.00    -0.354 N 
ATOM     34  N   UNL A   1      46.278  27.421  30.926  1.00  0.00    -0.248 NA
ATOM     35  C   UNL A   1      46.264  25.095  30.712  1.00  0.00     0.031 C 
ATOM     36  C   UNL A   1      47.575  30.181  27.637  1.00  0.00     0.029 A 
ATOM     37  C   UNL A   1      47.206  29.325  28.665  1.00  0.00     0.049 A 
ATOM     38  H   UNL A   1      46.467  29.801  30.577  1.00  0.00     0.167 HD
ATOM     39  C   UNL A   1      46.802  27.082  29.685  1.00  0.00     0.074 A 
ATOM     40  C   UNL A   1      46.805  25.632  29.626  1.00  0.00     0.031 C 
ATOM     41  C   UNL A   1      47.235  27.883  28.681  1.00  0.00     0.034 A 
BRANCH  28  42
ATOM     42  C   UNL A   1      46.712  33.974  29.732  1.00  0.00     0.023 A 
ATOM     43  C   UNL A   1      47.774  34.785  30.179  1.00  0.00     0.012 A 
ATOM     44  C   UNL A   1      45.747  34.517  28.861  1.00  0.00     0.148 A 
ATOM     45  C   UNL A   1      47.850  36.126  29.800  1.00  0.00     0.002 A 
ATOM     46  C   UNL A   1      45.856  35.838  28.448  1.00  0.00     0.091 A 
ATOM     47  F   UNL A   1      44.724  33.740  28.478  1.00  0.00    -0.205 F 
ATOM     48  C   UNL A   1      46.896  36.650  28.930  1.00  0.00     0.022 A 
BRANCH  46  49
ATOM     49  S   UNL A   1      44.714  36.586  27.283  1.00  0.00     0.127 S 
ATOM     50  O   UNL A   1      43.505  36.715  28.092  1.00  0.00    -0.237 OA
ATOM     51  O   UNL A   1      45.381  37.848  26.972  1.00  0.00    -0.237 OA
ATOM     52  O   UNL A   1      44.615  35.656  26.162  1.00  0.00    -0.744 OA
ENDBRANCH  46  49
ENDBRANCH  28  42
BRANCH  29  53
ATOM     53  C   UNL A   1      45.255  24.684  33.459  1.00  0.00     0.023 A 
ATOM     54  C   UNL A   1      44.015  24.036  33.293  1.00  0.00     0.012 A 
ATOM     55  C   UNL A   1      46.287  24.015  34.148  1.00  0.00     0.148 A 
ATOM     56  C   UNL A   1      43.797  22.766  33.831  1.00  0.00     0.002 A 
ATOM     57  C   UNL A   1      46.082  22.728  34.634  1.00  0.00     0.091 A 
ATOM     58  F   UNL A   1      47.456  24.650  34.316  1.00  0.00    -0.205 F 
ATOM     59  C   UNL A   1      44.830  22.109  34.493  1.00  0.00     0.022 A 
BRANCH  57  60
ATOM     60  S   UNL A   1      47.389  21.766  35.403  1.00  0.00     0.127 S 
ATOM     61  O   UNL A   1      48.424  21.790  34.371  1.00  0.00    -0.237 OA
ATOM     62  O   UNL A   1      47.688  22.563  36.594  1.00  0.00    -0.237 OA
ATOM     63  O   UNL A   1      46.808  20.461  35.684  1.00  0.00    -0.744 OA
ENDBRANCH  57  60
ENDBRANCH  29  53
BRANCH  41  64
ATOM     64  C   UNL A   1      47.810  27.211  27.466  1.00  0.00     0.023 A 
ATOM     65  C   UNL A   1      46.996  26.942  26.349  1.00  0.00     0.012 A 
ATOM     66  C   UNL A   1      49.188  26.928  27.410  1.00  0.00     0.148 A 
ATOM     67  C   UNL A   1      47.542  26.365  25.205  1.00  0.00     0.002 A 
ATOM     68  C   UNL A   1      49.735  26.411  26.246  1.00  0.00     0.091 A 
ATOM     69  F   UNL A   1      49.938  27.176  28.494  1.00  0.00    -0.205 F 
ATOM     70  C   UNL A   1      48.912  26.113  25.147  1.00  0.00     0.022 A 
BRANCH  68  71
ATOM     71  S   UNL A   1      51.503  26.173  26.048  1.00  0.00     0.127 S 
ATOM     72  O   UNL A   1      51.685  24.829  26.594  1.00  0.00    -0.237 OA
ATOM     73  O   UNL A   1      51.668  26.271  24.597  1.00  0.00    -0.237 OA
ATOM     74  O   UNL A   1      52.139  27.246  26.800  1.00  0.00    -0.744 OA
ENDBRANCH  68  71
ENDBRANCH  41  64
ENDBRANCH  15  16
ENDBRANCH   8  10
ENDBRANCH   7   8
ENDBRANCH   6   7
ENDBRANCH   5   6
ENDBRANCH   4   5
ENDBRANCH   3   4
ENDBRANCH   2   3
ENDBRANCH   1   2
BRANCH   1  75
ATOM     75  C   UNL A   1      41.152  36.365  36.987  1.00  0.00     0.188 C 
BRANCH  75  76
ATOM     76  C   UNL A   1      40.714  34.896  37.066  1.00  0.00     0.188 C 
BRANCH  76  77
ATOM     77  O   UNL A   1      39.346  34.764  37.389  1.00  0.00    -0.376 OA
BRANCH  77  78
ATOM     78  C   UNL A   1      38.512  34.160  36.402  1.00  0.00     0.202 C 
BRANCH  78  79
ATOM     79  C   UNL A   1      39.095  33.162  35.370  1.00  0.00     0.261 C 
BRANCH  79  80
ATOM     80  O   UNL A   1      38.257  32.791  34.248  1.00  0.00    -0.463 OA
BRANCH  80  81
ATOM     81  C   UNL A   1      38.662  33.168  33.002  1.00  0.00     0.314 C 
ATOM     82  O   UNL A   1      38.434  34.282  32.527  1.00  0.00    -0.252 OA
BRANCH  81  83
ATOM     83  C   UNL A   1      39.237  32.053  32.109  1.00  0.00     0.144 C 
BRANCH  83  84
ATOM     84  C   UNL A   1      38.558  31.565  30.803  1.00  0.00    -0.033 A 
ATOM     85  C   UNL A   1      37.894  32.364  29.866  1.00  0.00     0.004 A 
ATOM     86  C   UNL A   1      38.587  30.188  30.489  1.00  0.00     0.004 A 
ATOM     87  C   UNL A   1      37.209  31.843  28.755  1.00  0.00     0.000 A 
ATOM     88  C   UNL A   1      37.938  29.656  29.359  1.00  0.00     0.000 A 
ATOM     89  C   UNL A   1      37.225  30.483  28.503  1.00  0.00     0.000 A 
ENDBRANCH  83  84
BRANCH  83  90
ATOM     90  C   UNL A   1      40.792  32.016  32.243  1.00  0.00     0.110 C 
BRANCH  90  91
ATOM     91  C   UNL A   1      41.531  30.697  31.932  1.00  0.00    -0.036 A 
ATOM     92  C   UNL A   1      42.465  30.651  30.884  1.00  0.00     0.004 A 
ATOM     93  C   UNL A   1      41.273  29.486  32.583  1.00  0.00     0.004 A 
ATOM     94  C   UNL A   1      43.028  29.439  30.464  1.00  0.00     0.000 A 
ATOM     95  C   UNL A   1      41.852  28.277  32.194  1.00  0.00     0.000 A 
ATOM     96  C   UNL A   1      42.716  28.250  31.116  1.00  0.00     0.000 A 
ENDBRANCH  90  91
BRANCH  90  97
ATOM     97  C   UNL A   1      41.314  33.157  31.309  1.00  0.00     0.171 C 
ATOM     98  O   UNL A   1      41.110  33.184  30.095  1.00  0.00    -0.293 OA
BRANCH  97  99
ATOM     99  C   UNL A   1      42.001  34.349  31.884  1.00  0.00     0.018 A 
ATOM    100  C   UNL A   1      42.813  35.108  31.027  1.00  0.00     0.012 A 
ATOM    101  C   UNL A   1      41.911  34.685  33.235  1.00  0.00     0.012 A 
ATOM    102  C   UNL A   1      43.544  36.189  31.518  1.00  0.00     0.001 A 
ATOM    103  C   UNL A   1      42.661  35.761  33.726  1.00  0.00     0.001 A 
ATOM    104  C   UNL A   1      43.478  36.507  32.872  1.00  0.00     0.000 A 
ENDBRANCH  97  99
ENDBRANCH  90  97
ENDBRANCH  83  90
ENDBRANCH  81  83
ENDBRANCH  80  81
ENDBRANCH  79  80
ENDBRANCH  78  79
ENDBRANCH  77  78
ENDBRANCH  76  77
ENDBRANCH  75  76
ENDBRANCH   1  75
TORSDOF 28
ENDMDL
