MODEL 1
REMARK VINA RESULT:     -10.4      0.000      0.000
REMARK SMILES CC(=O)N1[C@@H](c2c(F)cccc2Cl)SC[C@H]1C(=O)OCCOCCOCCOCCOC(=O)c1ccc(-c2c3nc(c(-c4cccc(S(=O)(=O)[O-])c4F)c4ccc([nH]4)c(-c4cccc(S(=O)(=O)[O-])c4F)c4nc(c(-c5cccc(S(=O)(=O)[O-])c5F)c5ccc2[nH]5)C=C4)C=C3)cc1
REMARK SMILES IDX 26 1 25 2 24 3 23 4 22 5 21 6 20 7 19 8 17 9 18 10 16 11
REMARK SMILES IDX 4 12 5 13 14 14 15 15 2 16 1 17 3 18 6 19 7 20 12 21 8 22
REMARK SMILES IDX 9 23 11 24 13 25 10 26 27 27 28 28 29 29 30 30 31 31 32 32
REMARK SMILES IDX 33 33 34 34 35 35 96 36 36 37 95 38 37 39 38 40 39 41 89 42
REMARK SMILES IDX 40 43 94 44 88 45 90 46 41 47 93 48 87 49 86 50 42 52 74 53
REMARK SMILES IDX 54 54 73 55 55 56 58 57 72 58 91 59 56 60 57 61 71 63 92 64
REMARK SMILES IDX 59 65 43 66 44 67 52 68 45 69 47 70 53 71 46 72 48 73 49 74
REMARK SMILES IDX 50 75 51 76 75 77 76 78 84 79 77 80 79 81 85 82 78 83 80 84
REMARK SMILES IDX 81 85 82 86 83 87 60 88 61 89 69 90 62 91 64 92 70 93 63 94
REMARK SMILES IDX 65 95 66 96 67 97 68 98
REMARK H PARENT 90 51 58 62
REMARK Flexibility Score: inf
ROOT
ATOM      1  C   UNL A   1      37.057  23.276  25.503  1.00  0.00     0.188 C 
ENDROOT
BRANCH   1   2
ATOM      2  O   UNL A   1      36.379  23.700  24.337  1.00  0.00    -0.377 OA
BRANCH   2   3
ATOM      3  C   UNL A   1      34.976  23.518  24.351  1.00  0.00     0.188 C 
BRANCH   3   4
ATOM      4  C   UNL A   1      34.395  22.738  23.147  1.00  0.00     0.188 C 
BRANCH   4   5
ATOM      5  O   UNL A   1      33.008  22.823  22.817  1.00  0.00    -0.376 OA
BRANCH   5   6
ATOM      6  C   UNL A   1      32.037  22.469  23.791  1.00  0.00     0.202 C 
BRANCH   6   7
ATOM      7  C   UNL A   1      31.019  23.536  24.223  1.00  0.00     0.261 C 
BRANCH   7   8
ATOM      8  O   UNL A   1      30.693  24.506  23.209  1.00  0.00    -0.462 OA
BRANCH   8   9
ATOM      9  C   UNL A   1      30.421  25.770  23.609  1.00  0.00     0.329 C 
ATOM     10  O   UNL A   1      29.907  26.050  24.691  1.00  0.00    -0.250 OA
BRANCH   9  11
ATOM     11  C   UNL A   1      30.801  26.873  22.587  1.00  0.00     0.206 C 
ATOM     12  N   UNL A   1      30.781  28.338  22.831  1.00  0.00    -0.312 N 
ATOM     13  C   UNL A   1      32.072  28.895  23.254  1.00  0.00     0.179 C 
ATOM     14  S   UNL A   1      33.289  27.935  22.291  1.00  0.00    -0.129 SA
ATOM     15  C   UNL A   1      32.169  26.530  21.990  1.00  0.00     0.109 C 
BRANCH  12  16
ATOM     16  C   UNL A   1      29.716  29.063  22.315  1.00  0.00     0.221 C 
ATOM     17  C   UNL A   1      28.351  28.960  22.948  1.00  0.00     0.114 C 
ATOM     18  O   UNL A   1      29.864  29.853  21.377  1.00  0.00    -0.275 OA
ENDBRANCH  12  16
BRANCH  13  19
ATOM     19  C   UNL A   1      32.316  28.917  24.757  1.00  0.00     0.039 A 
ATOM     20  C   UNL A   1      31.690  29.857  25.595  1.00  0.00     0.130 A 
ATOM     21  C   UNL A   1      33.167  27.999  25.412  1.00  0.00     0.050 A 
ATOM     22  F   UNL A   1      30.812  30.738  25.095  1.00  0.00    -0.207 F 
ATOM     23  C   UNL A   1      31.920  29.928  26.971  1.00  0.00     0.040 A 
ATOM     24  C   UNL A   1      33.398  28.060  26.799  1.00  0.00     0.021 A 
ATOM     25  Cl  UNL A   1      33.943  26.681  24.604  1.00  0.00    -0.084 Cl
ATOM     26  C   UNL A   1      32.781  29.030  27.577  1.00  0.00     0.005 A 
ENDBRANCH  13  19
ENDBRANCH   9  11
ENDBRANCH   8   9
ENDBRANCH   7   8
ENDBRANCH   6   7
ENDBRANCH   5   6
ENDBRANCH   4   5
ENDBRANCH   3   4
ENDBRANCH   2   3
ENDBRANCH   1   2
BRANCH   1  27
ATOM     27  C   UNL A   1      37.073  21.757  25.740  1.00  0.00     0.188 C 
BRANCH  27  28
ATOM     28  O   UNL A   1      37.542  21.020  24.616  1.00  0.00    -0.376 OA
BRANCH  28  29
ATOM     29  C   UNL A   1      38.162  19.762  24.815  1.00  0.00     0.202 C 
BRANCH  29  30
ATOM     30  C   UNL A   1      39.204  19.622  25.940  1.00  0.00     0.261 C 
BRANCH  30  31
ATOM     31  O   UNL A   1      40.559  19.364  25.549  1.00  0.00    -0.460 OA
BRANCH  31  32
ATOM     32  C   UNL A   1      41.529  19.567  26.470  1.00  0.00     0.338 C 
ATOM     33  O   UNL A   1      42.338  18.756  26.866  1.00  0.00    -0.246 OA
BRANCH  32  34
ATOM     34  C   UNL A   1      41.569  21.020  26.758  1.00  0.00     0.060 A 
ATOM     35  C   UNL A   1      41.719  21.914  25.688  1.00  0.00     0.016 A 
ATOM     36  C   UNL A   1      41.435  21.498  28.064  1.00  0.00     0.016 A 
ATOM     37  C   UNL A   1      41.773  23.287  25.926  1.00  0.00     0.010 A 
ATOM     38  C   UNL A   1      41.520  22.873  28.304  1.00  0.00     0.010 A 
ATOM     39  C   UNL A   1      41.728  23.768  27.241  1.00  0.00    -0.014 A 
BRANCH  39  40
ATOM     40  C   UNL A   1      42.126  25.170  27.516  1.00  0.00     0.031 A 
ATOM     41  C   UNL A   1      43.507  25.602  27.101  1.00  0.00     0.074 A 
ATOM     42  C   UNL A   1      41.290  26.039  28.108  1.00  0.00     0.049 A 
ATOM     43  N   UNL A   1      44.093  26.759  27.253  1.00  0.00    -0.248 NA
ATOM     44  C   UNL A   1      44.339  24.590  26.424  1.00  0.00     0.031 C 
ATOM     45  C   UNL A   1      39.922  25.747  28.529  1.00  0.00     0.029 A 
ATOM     46  N   UNL A   1      41.484  27.347  28.479  1.00  0.00    -0.354 N 
ATOM     47  C   UNL A   1      45.371  26.605  26.727  1.00  0.00     0.074 A 
ATOM     48  C   UNL A   1      45.477  25.245  26.252  1.00  0.00     0.031 C 
ATOM     49  C   UNL A   1      39.408  26.836  29.129  1.00  0.00     0.029 A 
ATOM     50  C   UNL A   1      40.419  27.892  29.155  1.00  0.00     0.049 A 
ATOM     51  H   UNL A   1      42.309  27.846  28.279  1.00  0.00     0.167 HD
ATOM     52  C   UNL A   1      46.366  27.518  26.643  1.00  0.00     0.034 A 
ATOM     53  C   UNL A   1      40.289  29.099  29.746  1.00  0.00     0.034 A 
ATOM     54  C   UNL A   1      46.254  28.874  27.101  1.00  0.00     0.049 A 
ATOM     55  C   UNL A   1      41.432  30.082  29.668  1.00  0.00     0.074 A 
ATOM     56  C   UNL A   1      47.187  29.891  27.007  1.00  0.00     0.029 A 
ATOM     57  N   UNL A   1      45.153  29.397  27.758  1.00  0.00    -0.354 N 
ATOM     58  N   UNL A   1      42.587  29.963  29.060  1.00  0.00    -0.248 NA
ATOM     59  C   UNL A   1      41.239  31.379  30.333  1.00  0.00     0.031 C 
ATOM     60  C   UNL A   1      46.667  31.018  27.652  1.00  0.00     0.029 A 
ATOM     61  C   UNL A   1      45.390  30.717  28.098  1.00  0.00     0.049 A 
ATOM     62  H   UNL A   1      44.323  28.903  27.954  1.00  0.00     0.167 HD
ATOM     63  C   UNL A   1      43.233  31.185  29.223  1.00  0.00     0.074 A 
ATOM     64  C   UNL A   1      42.336  32.034  29.977  1.00  0.00     0.031 C 
ATOM     65  C   UNL A   1      44.461  31.568  28.795  1.00  0.00     0.034 A 
BRANCH  52  66
ATOM     66  C   UNL A   1      47.673  27.080  26.039  1.00  0.00     0.023 A 
ATOM     67  C   UNL A   1      47.948  27.337  24.682  1.00  0.00     0.012 A 
ATOM     68  C   UNL A   1      48.657  26.473  26.844  1.00  0.00     0.148 A 
ATOM     69  C   UNL A   1      49.176  26.974  24.128  1.00  0.00     0.002 A 
ATOM     70  C   UNL A   1      49.895  26.160  26.297  1.00  0.00     0.091 A 
ATOM     71  F   UNL A   1      48.363  26.214  28.126  1.00  0.00    -0.205 F 
ATOM     72  C   UNL A   1      50.153  26.399  24.938  1.00  0.00     0.022 A 
BRANCH  70  73
ATOM     73  S   UNL A   1      51.244  25.493  27.277  1.00  0.00     0.127 S 
ATOM     74  O   UNL A   1      50.551  24.493  28.089  1.00  0.00    -0.237 OA
ATOM     75  O   UNL A   1      52.124  24.942  26.248  1.00  0.00    -0.237 OA
ATOM     76  O   UNL A   1      51.799  26.616  28.017  1.00  0.00    -0.744 OA
ENDBRANCH  70  73
ENDBRANCH  52  66
BRANCH  53  77
ATOM     77  C   UNL A   1      39.027  29.470  30.449  1.00  0.00     0.023 A 
ATOM     78  C   UNL A   1      38.737  28.905  31.707  1.00  0.00     0.012 A 
ATOM     79  C   UNL A   1      38.099  30.353  29.865  1.00  0.00     0.148 A 
ATOM     80  C   UNL A   1      37.526  29.174  32.346  1.00  0.00     0.002 A 
ATOM     81  C   UNL A   1      36.921  30.662  30.534  1.00  0.00     0.091 A 
ATOM     82  F   UNL A   1      38.385  30.868  28.661  1.00  0.00    -0.205 F 
ATOM     83  C   UNL A   1      36.622  30.058  31.764  1.00  0.00     0.022 A 
BRANCH  81  84
ATOM     84  S   UNL A   1      35.762  31.888  29.919  1.00  0.00     0.127 S 
ATOM     85  O   UNL A   1      35.150  31.184  28.796  1.00  0.00    -0.237 OA
ATOM     86  O   UNL A   1      34.890  32.083  31.078  1.00  0.00    -0.237 OA
ATOM     87  O   UNL A   1      36.570  33.051  29.575  1.00  0.00    -0.744 OA
ENDBRANCH  81  84
ENDBRANCH  53  77
BRANCH  65  88
ATOM     88  C   UNL A   1      44.890  32.988  29.064  1.00  0.00     0.023 A 
ATOM     89  C   UNL A   1      45.571  33.314  30.253  1.00  0.00     0.012 A 
ATOM     90  C   UNL A   1      44.681  33.988  28.091  1.00  0.00     0.148 A 
ATOM     91  C   UNL A   1      46.001  34.620  30.488  1.00  0.00     0.002 A 
ATOM     92  C   UNL A   1      45.162  35.273  28.307  1.00  0.00     0.091 A 
ATOM     93  F   UNL A   1      44.019  33.662  26.971  1.00  0.00    -0.205 F 
ATOM     94  C   UNL A   1      45.808  35.595  29.511  1.00  0.00     0.022 A 
BRANCH  92  95
ATOM     95  S   UNL A   1      45.054  36.563  27.062  1.00  0.00     0.127 S 
ATOM     96  O   UNL A   1      45.636  37.705  27.767  1.00  0.00    -0.237 OA
ATOM     97  O   UNL A   1      45.883  36.023  25.984  1.00  0.00    -0.237 OA
ATOM     98  O   UNL A   1      43.640  36.688  26.734  1.00  0.00    -0.744 OA
ENDBRANCH  92  95
ENDBRANCH  65  88
ENDBRANCH  39  40
ENDBRANCH  32  34
ENDBRANCH  31  32
ENDBRANCH  30  31
ENDBRANCH  29  30
ENDBRANCH  28  29
ENDBRANCH  27  28
ENDBRANCH   1  27
TORSDOF 25
ENDMDL
MODEL 2
REMARK VINA RESULT:      -9.7      1.927      2.437
REMARK SMILES CC(=O)N1[C@@H](c2c(F)cccc2Cl)SC[C@H]1C(=O)OCCOCCOCCOCCOC(=O)c1ccc(-c2c3nc(c(-c4cccc(S(=O)(=O)[O-])c4F)c4ccc([nH]4)c(-c4cccc(S(=O)(=O)[O-])c4F)c4nc(c(-c5cccc(S(=O)(=O)[O-])c5F)c5ccc2[nH]5)C=C4)C=C3)cc1
REMARK SMILES IDX 26 1 25 2 24 3 23 4 22 5 21 6 20 7 19 8 17 9 18 10 16 11
REMARK SMILES IDX 4 12 5 13 14 14 15 15 2 16 1 17 3 18 6 19 7 20 12 21 8 22
REMARK SMILES IDX 9 23 11 24 13 25 10 26 27 27 28 28 29 29 30 30 31 31 32 32
REMARK SMILES IDX 33 33 34 34 35 35 96 36 36 37 95 38 37 39 38 40 39 41 89 42
REMARK SMILES IDX 40 43 94 44 88 45 90 46 41 47 93 48 87 49 86 50 42 52 74 53
REMARK SMILES IDX 54 54 73 55 55 56 58 57 72 58 91 59 56 60 57 61 71 63 92 64
REMARK SMILES IDX 59 65 43 66 44 67 52 68 45 69 47 70 53 71 46 72 48 73 49 74
REMARK SMILES IDX 50 75 51 76 75 77 76 78 84 79 77 80 79 81 85 82 78 83 80 84
REMARK SMILES IDX 81 85 82 86 83 87 60 88 61 89 69 90 62 91 64 92 70 93 63 94
REMARK SMILES IDX 65 95 66 96 67 97 68 98
REMARK H PARENT 90 51 58 62
REMARK Flexibility Score: inf
ROOT
ATOM      1  C   UNL A   1      36.268  22.465  25.042  1.00  0.00     0.188 C 
ENDROOT
BRANCH   1   2
ATOM      2  O   UNL A   1      35.020  22.916  24.552  1.00  0.00    -0.377 OA
BRANCH   2   3
ATOM      3  C   UNL A   1      33.909  22.106  24.886  1.00  0.00     0.188 C 
BRANCH   3   4
ATOM      4  C   UNL A   1      32.684  22.240  23.950  1.00  0.00     0.188 C 
BRANCH   4   5
ATOM      5  O   UNL A   1      31.537  22.995  24.345  1.00  0.00    -0.376 OA
BRANCH   5   6
ATOM      6  C   UNL A   1      30.908  22.709  25.585  1.00  0.00     0.202 C 
BRANCH   6   7
ATOM      7  C   UNL A   1      31.010  23.752  26.709  1.00  0.00     0.261 C 
BRANCH   7   8
ATOM      8  O   UNL A   1      30.341  24.999  26.439  1.00  0.00    -0.462 OA
BRANCH   8   9
ATOM      9  C   UNL A   1      31.107  26.101  26.264  1.00  0.00     0.329 C 
ATOM     10  O   UNL A   1      31.406  26.878  27.169  1.00  0.00    -0.250 OA
BRANCH   9  11
ATOM     11  C   UNL A   1      31.592  26.331  24.808  1.00  0.00     0.206 C 
ATOM     12  N   UNL A   1      31.326  27.532  23.977  1.00  0.00    -0.312 N 
ATOM     13  C   UNL A   1      32.384  28.548  24.028  1.00  0.00     0.179 C 
ATOM     14  S   UNL A   1      33.918  27.563  24.116  1.00  0.00    -0.129 SA
ATOM     15  C   UNL A   1      33.099  26.065  24.751  1.00  0.00     0.109 C 
BRANCH  12  16
ATOM     16  C   UNL A   1      30.343  27.436  23.001  1.00  0.00     0.221 C 
ATOM     17  C   UNL A   1      28.910  27.767  23.332  1.00  0.00     0.114 C 
ATOM     18  O   UNL A   1      30.618  27.142  21.833  1.00  0.00    -0.275 OA
ENDBRANCH  12  16
BRANCH  13  19
ATOM     19  C   UNL A   1      32.234  29.599  25.120  1.00  0.00     0.039 A 
ATOM     20  C   UNL A   1      31.166  30.515  25.124  1.00  0.00     0.130 A 
ATOM     21  C   UNL A   1      33.135  29.720  26.202  1.00  0.00     0.050 A 
ATOM     22  F   UNL A   1      30.214  30.455  24.182  1.00  0.00    -0.207 F 
ATOM     23  C   UNL A   1      31.019  31.513  26.089  1.00  0.00     0.040 A 
ATOM     24  C   UNL A   1      32.989  30.720  27.181  1.00  0.00     0.021 A 
ATOM     25  Cl  UNL A   1      34.447  28.626  26.470  1.00  0.00    -0.084 Cl
ATOM     26  C   UNL A   1      31.936  31.622  27.120  1.00  0.00     0.005 A 
ENDBRANCH  13  19
ENDBRANCH   9  11
ENDBRANCH   8   9
ENDBRANCH   7   8
ENDBRANCH   6   7
ENDBRANCH   5   6
ENDBRANCH   4   5
ENDBRANCH   3   4
ENDBRANCH   2   3
ENDBRANCH   1   2
BRANCH   1  27
ATOM     27  C   UNL A   1      36.434  20.939  25.114  1.00  0.00     0.188 C 
BRANCH  27  28
ATOM     28  O   UNL A   1      37.690  20.488  24.617  1.00  0.00    -0.376 OA
BRANCH  28  29
ATOM     29  C   UNL A   1      38.469  19.596  25.394  1.00  0.00     0.202 C 
BRANCH  29  30
ATOM     30  C   UNL A   1      39.794  20.099  25.992  1.00  0.00     0.261 C 
BRANCH  30  31
ATOM     31  O   UNL A   1      41.005  19.653  25.369  1.00  0.00    -0.460 OA
BRANCH  31  32
ATOM     32  C   UNL A   1      42.090  19.472  26.158  1.00  0.00     0.338 C 
ATOM     33  O   UNL A   1      42.600  18.416  26.464  1.00  0.00    -0.246 OA
BRANCH  32  34
ATOM     34  C   UNL A   1      42.678  20.808  26.414  1.00  0.00     0.060 A 
ATOM     35  C   UNL A   1      42.845  21.226  27.742  1.00  0.00     0.016 A 
ATOM     36  C   UNL A   1      43.084  21.629  25.359  1.00  0.00     0.016 A 
ATOM     37  C   UNL A   1      43.384  22.483  28.017  1.00  0.00     0.010 A 
ATOM     38  C   UNL A   1      43.595  22.901  25.636  1.00  0.00     0.010 A 
ATOM     39  C   UNL A   1      43.711  23.346  26.965  1.00  0.00    -0.014 A 
BRANCH  39  40
ATOM     40  C   UNL A   1      43.952  24.781  27.249  1.00  0.00     0.031 A 
ATOM     41  C   UNL A   1      45.357  25.300  27.102  1.00  0.00     0.074 A 
ATOM     42  C   UNL A   1      42.956  25.606  27.619  1.00  0.00     0.049 A 
ATOM     43  N   UNL A   1      45.822  26.502  27.315  1.00  0.00    -0.248 NA
ATOM     44  C   UNL A   1      46.374  24.331  26.656  1.00  0.00     0.031 C 
ATOM     45  C   UNL A   1      41.553  25.227  27.767  1.00  0.00     0.029 A 
ATOM     46  N   UNL A   1      42.984  26.935  27.959  1.00  0.00    -0.354 N 
ATOM     47  C   UNL A   1      47.188  26.426  27.067  1.00  0.00     0.074 A 
ATOM     48  C   UNL A   1      47.478  25.062  26.687  1.00  0.00     0.031 C 
ATOM     49  C   UNL A   1      40.857  26.294  28.198  1.00  0.00     0.029 A 
ATOM     50  C   UNL A   1      41.769  27.422  28.379  1.00  0.00     0.049 A 
ATOM     51  H   UNL A   1      43.798  27.487  27.907  1.00  0.00     0.167 HD
ATOM     52  C   UNL A   1      48.117  27.406  27.143  1.00  0.00     0.034 A 
ATOM     53  C   UNL A   1      41.443  28.634  28.875  1.00  0.00     0.034 A 
ATOM     54  C   UNL A   1      47.824  28.764  27.504  1.00  0.00     0.049 A 
ATOM     55  C   UNL A   1      42.510  29.696  28.984  1.00  0.00     0.074 A 
ATOM     56  C   UNL A   1      48.688  29.844  27.554  1.00  0.00     0.029 A 
ATOM     57  N   UNL A   1      46.581  29.226  27.900  1.00  0.00    -0.354 N 
ATOM     58  N   UNL A   1      43.771  29.643  28.628  1.00  0.00    -0.248 NA
ATOM     59  C   UNL A   1      42.101  30.997  29.534  1.00  0.00     0.031 C 
ATOM     60  C   UNL A   1      47.974  30.949  28.027  1.00  0.00     0.029 A 
ATOM     61  C   UNL A   1      46.656  30.570  28.219  1.00  0.00     0.049 A 
ATOM     62  H   UNL A   1      45.763  28.679  27.947  1.00  0.00     0.167 HD
ATOM     63  C   UNL A   1      44.288  30.914  28.861  1.00  0.00     0.074 A 
ATOM     64  C   UNL A   1      43.201  31.718  29.377  1.00  0.00     0.031 C 
ATOM     65  C   UNL A   1      45.550  31.372  28.673  1.00  0.00     0.034 A 
BRANCH  52  66
ATOM     66  C   UNL A   1      49.546  27.046  26.837  1.00  0.00     0.023 A 
ATOM     67  C   UNL A   1      50.340  26.406  27.809  1.00  0.00     0.012 A 
ATOM     68  C   UNL A   1      50.076  27.283  25.553  1.00  0.00     0.148 A 
ATOM     69  C   UNL A   1      51.650  26.028  27.515  1.00  0.00     0.002 A 
ATOM     70  C   UNL A   1      51.364  26.859  25.254  1.00  0.00     0.091 A 
ATOM     71  F   UNL A   1      49.311  27.917  24.654  1.00  0.00    -0.205 F 
ATOM     72  C   UNL A   1      52.157  26.242  26.235  1.00  0.00     0.022 A 
BRANCH  70  73
ATOM     73  S   UNL A   1      52.076  27.015  23.612  1.00  0.00     0.127 S 
ATOM     74  O   UNL A   1      53.030  25.907  23.599  1.00  0.00    -0.237 OA
ATOM     75  O   UNL A   1      50.907  26.824  22.754  1.00  0.00    -0.237 OA
ATOM     76  O   UNL A   1      52.666  28.344  23.552  1.00  0.00    -0.744 OA
ENDBRANCH  70  73
ENDBRANCH  52  66
BRANCH  53  77
ATOM     77  C   UNL A   1      40.042  28.934  29.290  1.00  0.00     0.023 A 
ATOM     78  C   UNL A   1      39.082  29.272  28.317  1.00  0.00     0.012 A 
ATOM     79  C   UNL A   1      39.664  28.917  30.647  1.00  0.00     0.148 A 
ATOM     80  C   UNL A   1      37.786  29.634  28.689  1.00  0.00     0.002 A 
ATOM     81  C   UNL A   1      38.357  29.223  31.006  1.00  0.00     0.091 A 
ATOM     82  F   UNL A   1      40.595  28.609  31.561  1.00  0.00    -0.205 F 
ATOM     83  C   UNL A   1      37.422  29.603  30.031  1.00  0.00     0.022 A 
BRANCH  81  84
ATOM     84  S   UNL A   1      37.768  29.081  32.696  1.00  0.00     0.127 S 
ATOM     85  O   UNL A   1      36.449  29.701  32.605  1.00  0.00    -0.237 OA
ATOM     86  O   UNL A   1      37.759  27.631  32.890  1.00  0.00    -0.237 OA
ATOM     87  O   UNL A   1      38.747  29.789  33.511  1.00  0.00    -0.744 OA
ENDBRANCH  81  84
ENDBRANCH  53  77
BRANCH  65  88
ATOM     88  C   UNL A   1      45.821  32.828  28.956  1.00  0.00     0.023 A 
ATOM     89  C   UNL A   1      46.385  33.222  30.184  1.00  0.00     0.012 A 
ATOM     90  C   UNL A   1      45.581  33.800  27.962  1.00  0.00     0.148 A 
ATOM     91  C   UNL A   1      46.670  34.565  30.435  1.00  0.00     0.002 A 
ATOM     92  C   UNL A   1      45.920  35.127  28.198  1.00  0.00     0.091 A 
ATOM     93  F   UNL A   1      45.030  33.408  26.804  1.00  0.00    -0.205 F 
ATOM     94  C   UNL A   1      46.450  35.513  29.439  1.00  0.00     0.022 A 
BRANCH  92  95
ATOM     95  S   UNL A   1      45.771  36.397  26.936  1.00  0.00     0.127 S 
ATOM     96  O   UNL A   1      46.399  35.748  25.786  1.00  0.00    -0.237 OA
ATOM     97  O   UNL A   1      44.321  36.559  26.830  1.00  0.00    -0.237 OA
ATOM     98  O   UNL A   1      46.474  37.563  27.455  1.00  0.00    -0.744 OA
ENDBRANCH  92  95
ENDBRANCH  65  88
ENDBRANCH  39  40
ENDBRANCH  32  34
ENDBRANCH  31  32
ENDBRANCH  30  31
ENDBRANCH  29  30
ENDBRANCH  28  29
ENDBRANCH  27  28
ENDBRANCH   1  27
TORSDOF 25
ENDMDL
MODEL 3
REMARK VINA RESULT:      -9.6      3.144      4.180
REMARK SMILES CC(=O)N1[C@@H](c2c(F)cccc2Cl)SC[C@H]1C(=O)OCCOCCOCCOCCOC(=O)c1ccc(-c2c3nc(c(-c4cccc(S(=O)(=O)[O-])c4F)c4ccc([nH]4)c(-c4cccc(S(=O)(=O)[O-])c4F)c4nc(c(-c5cccc(S(=O)(=O)[O-])c5F)c5ccc2[nH]5)C=C4)C=C3)cc1
REMARK SMILES IDX 26 1 25 2 24 3 23 4 22 5 21 6 20 7 19 8 17 9 18 10 16 11
REMARK SMILES IDX 4 12 5 13 14 14 15 15 2 16 1 17 3 18 6 19 7 20 12 21 8 22
REMARK SMILES IDX 9 23 11 24 13 25 10 26 27 27 28 28 29 29 30 30 31 31 32 32
REMARK SMILES IDX 33 33 34 34 35 35 96 36 36 37 95 38 37 39 38 40 39 41 89 42
REMARK SMILES IDX 40 43 94 44 88 45 90 46 41 47 93 48 87 49 86 50 42 52 74 53
REMARK SMILES IDX 54 54 73 55 55 56 58 57 72 58 91 59 56 60 57 61 71 63 92 64
REMARK SMILES IDX 59 65 43 66 44 67 52 68 45 69 47 70 53 71 46 72 48 73 49 74
REMARK SMILES IDX 50 75 51 76 75 77 76 78 84 79 77 80 79 81 85 82 78 83 80 84
REMARK SMILES IDX 81 85 82 86 83 87 60 88 61 89 69 90 62 91 64 92 70 93 63 94
REMARK SMILES IDX 65 95 66 96 67 97 68 98
REMARK H PARENT 90 51 58 62
REMARK Flexibility Score: inf
ROOT
ATOM      1  C   UNL A   1      35.583  21.590  26.060  1.00  0.00     0.188 C 
ENDROOT
BRANCH   1   2
ATOM      2  O   UNL A   1      34.286  21.445  26.608  1.00  0.00    -0.377 OA
BRANCH   2   3
ATOM      3  C   UNL A   1      33.301  22.306  26.071  1.00  0.00     0.188 C 
BRANCH   3   4
ATOM      4  C   UNL A   1      33.530  23.815  26.320  1.00  0.00     0.188 C 
BRANCH   4   5
ATOM      5  O   UNL A   1      32.433  24.729  26.352  1.00  0.00    -0.376 OA
BRANCH   5   6
ATOM      6  C   UNL A   1      31.128  24.263  26.042  1.00  0.00     0.202 C 
BRANCH   6   7
ATOM      7  C   UNL A   1      29.981  25.285  26.005  1.00  0.00     0.261 C 
BRANCH   7   8
ATOM      8  O   UNL A   1      30.021  26.199  24.891  1.00  0.00    -0.462 OA
BRANCH   8   9
ATOM      9  C   UNL A   1      30.364  25.701  23.680  1.00  0.00     0.329 C 
ATOM     10  O   UNL A   1      30.373  24.502  23.410  1.00  0.00    -0.250 OA
BRANCH   9  11
ATOM     11  C   UNL A   1      30.763  26.769  22.627  1.00  0.00     0.206 C 
ATOM     12  N   UNL A   1      30.813  28.237  22.845  1.00  0.00    -0.312 N 
ATOM     13  C   UNL A   1      32.136  28.746  23.223  1.00  0.00     0.179 C 
ATOM     14  S   UNL A   1      33.285  27.718  22.248  1.00  0.00    -0.129 SA
ATOM     15  C   UNL A   1      32.099  26.357  22.002  1.00  0.00     0.109 C 
BRANCH  12  16
ATOM     16  C   UNL A   1      29.766  28.998  22.344  1.00  0.00     0.221 C 
ATOM     17  C   UNL A   1      28.383  28.866  22.931  1.00  0.00     0.114 C 
ATOM     18  O   UNL A   1      29.944  29.841  21.459  1.00  0.00    -0.275 OA
ENDBRANCH  12  16
BRANCH  13  19
ATOM     19  C   UNL A   1      32.422  28.783  24.719  1.00  0.00     0.039 A 
ATOM     20  C   UNL A   1      33.343  27.905  25.318  1.00  0.00     0.130 A 
ATOM     21  C   UNL A   1      31.802  29.699  25.599  1.00  0.00     0.050 A 
ATOM     22  F   UNL A   1      34.040  27.035  24.573  1.00  0.00    -0.207 F 
ATOM     23  C   UNL A   1      33.602  27.888  26.691  1.00  0.00     0.040 A 
ATOM     24  C   UNL A   1      32.063  29.691  26.982  1.00  0.00     0.021 A 
ATOM     25  Cl  UNL A   1      30.732  30.949  25.069  1.00  0.00    -0.084 Cl
ATOM     26  C   UNL A   1      32.956  28.780  27.529  1.00  0.00     0.005 A 
ENDBRANCH  13  19
ENDBRANCH   9  11
ENDBRANCH   8   9
ENDBRANCH   7   8
ENDBRANCH   6   7
ENDBRANCH   5   6
ENDBRANCH   4   5
ENDBRANCH   3   4
ENDBRANCH   2   3
ENDBRANCH   1   2
BRANCH   1  27
ATOM     27  C   UNL A   1      35.946  20.586  24.954  1.00  0.00     0.188 C 
BRANCH  27  28
ATOM     28  O   UNL A   1      37.340  20.546  24.670  1.00  0.00    -0.376 OA
BRANCH  28  29
ATOM     29  C   UNL A   1      38.268  20.465  25.738  1.00  0.00     0.202 C 
BRANCH  29  30
ATOM     30  C   UNL A   1      39.420  21.484  25.796  1.00  0.00     0.261 C 
BRANCH  30  31
ATOM     31  O   UNL A   1      39.262  22.602  26.679  1.00  0.00    -0.460 OA
BRANCH  31  32
ATOM     32  C   UNL A   1      38.767  23.749  26.160  1.00  0.00     0.338 C 
ATOM     33  O   UNL A   1      37.854  23.857  25.369  1.00  0.00    -0.246 OA
BRANCH  32  34
ATOM     34  C   UNL A   1      39.397  24.874  26.892  1.00  0.00     0.060 A 
ATOM     35  C   UNL A   1      39.206  24.965  28.278  1.00  0.00     0.016 A 
ATOM     36  C   UNL A   1      40.188  25.812  26.225  1.00  0.00     0.016 A 
ATOM     37  C   UNL A   1      39.775  26.018  28.995  1.00  0.00     0.010 A 
ATOM     38  C   UNL A   1      40.732  26.883  26.940  1.00  0.00     0.010 A 
ATOM     39  C   UNL A   1      40.495  27.010  28.319  1.00  0.00    -0.014 A 
BRANCH  39  40
ATOM     40  C   UNL A   1      40.799  28.286  29.011  1.00  0.00     0.031 A 
ATOM     41  C   UNL A   1      42.238  28.586  29.333  1.00  0.00     0.074 A 
ATOM     42  C   UNL A   1      39.832  29.161  29.339  1.00  0.00     0.049 A 
ATOM     43  N   UNL A   1      42.752  29.616  29.949  1.00  0.00    -0.248 NA
ATOM     44  C   UNL A   1      43.232  27.586  28.900  1.00  0.00     0.031 C 
ATOM     45  C   UNL A   1      38.408  28.995  29.056  1.00  0.00     0.029 A 
ATOM     46  N   UNL A   1      39.905  30.358  30.007  1.00  0.00    -0.354 N 
ATOM     47  C   UNL A   1      44.119  29.373  30.013  1.00  0.00     0.074 A 
ATOM     48  C   UNL A   1      44.357  28.099  29.374  1.00  0.00     0.031 C 
ATOM     49  C   UNL A   1      37.736  30.040  29.574  1.00  0.00     0.029 A 
ATOM     50  C   UNL A   1      38.680  30.933  30.245  1.00  0.00     0.049 A 
ATOM     51  H   UNL A   1      40.757  30.765  30.289  1.00  0.00     0.167 HD
ATOM     52  C   UNL A   1      45.092  30.144  30.553  1.00  0.00     0.034 A 
ATOM     53  C   UNL A   1      38.361  32.041  30.946  1.00  0.00     0.034 A 
ATOM     54  C   UNL A   1      44.855  31.417  31.173  1.00  0.00     0.049 A 
ATOM     55  C   UNL A   1      39.464  32.860  31.568  1.00  0.00     0.074 A 
ATOM     56  C   UNL A   1      45.782  32.300  31.698  1.00  0.00     0.029 A 
ATOM     57  N   UNL A   1      43.606  31.978  31.374  1.00  0.00    -0.354 N 
ATOM     58  N   UNL A   1      40.762  32.680  31.513  1.00  0.00    -0.248 NA
ATOM     59  C   UNL A   1      39.060  34.055  32.325  1.00  0.00     0.031 C 
ATOM     60  C   UNL A   1      45.086  33.376  32.260  1.00  0.00     0.029 A 
ATOM     61  C   UNL A   1      43.732  33.186  32.037  1.00  0.00     0.049 A 
ATOM     62  H   UNL A   1      42.753  31.577  31.088  1.00  0.00     0.167 HD
ATOM     63  C   UNL A   1      41.327  33.764  32.179  1.00  0.00     0.074 A 
ATOM     64  C   UNL A   1      40.232  34.602  32.618  1.00  0.00     0.031 C 
ATOM     65  C   UNL A   1      42.635  34.039  32.413  1.00  0.00     0.034 A 
BRANCH  52  66
ATOM     66  C   UNL A   1      46.505  29.630  30.504  1.00  0.00     0.023 A 
ATOM     67  C   UNL A   1      47.367  30.024  29.461  1.00  0.00     0.012 A 
ATOM     68  C   UNL A   1      46.996  28.810  31.539  1.00  0.00     0.148 A 
ATOM     69  C   UNL A   1      48.691  29.588  29.436  1.00  0.00     0.002 A 
ATOM     70  C   UNL A   1      48.329  28.421  31.532  1.00  0.00     0.091 A 
ATOM     71  F   UNL A   1      46.151  28.428  32.506  1.00  0.00    -0.205 F 
ATOM     72  C   UNL A   1      49.176  28.799  30.477  1.00  0.00     0.022 A 
BRANCH  70  73
ATOM     73  S   UNL A   1      49.066  27.475  32.869  1.00  0.00     0.127 S 
ATOM     74  O   UNL A   1      48.349  26.205  32.761  1.00  0.00    -0.237 OA
ATOM     75  O   UNL A   1      50.471  27.419  32.464  1.00  0.00    -0.237 OA
ATOM     76  O   UNL A   1      48.812  28.229  34.087  1.00  0.00    -0.744 OA
ENDBRANCH  70  73
ENDBRANCH  52  66
BRANCH  53  77
ATOM     77  C   UNL A   1      36.938  32.468  31.088  1.00  0.00     0.023 A 
ATOM     78  C   UNL A   1      36.275  32.290  32.318  1.00  0.00     0.012 A 
ATOM     79  C   UNL A   1      36.230  33.018  30.002  1.00  0.00     0.148 A 
ATOM     80  C   UNL A   1      34.923  32.607  32.451  1.00  0.00     0.002 A 
ATOM     81  C   UNL A   1      34.899  33.385  30.158  1.00  0.00     0.091 A 
ATOM     82  F   UNL A   1      36.872  33.165  28.835  1.00  0.00    -0.205 F 
ATOM     83  C   UNL A   1      34.237  33.160  31.374  1.00  0.00     0.022 A 
BRANCH  81  84
ATOM     84  S   UNL A   1      33.978  34.225  28.865  1.00  0.00     0.127 S 
ATOM     85  O   UNL A   1      33.700  33.131  27.938  1.00  0.00    -0.237 OA
ATOM     86  O   UNL A   1      32.815  34.723  29.601  1.00  0.00    -0.237 OA
ATOM     87  O   UNL A   1      34.864  35.268  28.368  1.00  0.00    -0.744 OA
ENDBRANCH  81  84
ENDBRANCH  53  77
BRANCH  65  88
ATOM     88  C   UNL A   1      42.969  35.330  33.116  1.00  0.00     0.023 A 
ATOM     89  C   UNL A   1      42.927  35.408  34.521  1.00  0.00     0.012 A 
ATOM     90  C   UNL A   1      43.402  36.449  32.374  1.00  0.00     0.148 A 
ATOM     91  C   UNL A   1      43.271  36.591  35.176  1.00  0.00     0.002 A 
ATOM     92  C   UNL A   1      43.797  37.604  33.036  1.00  0.00     0.091 A 
ATOM     93  F   UNL A   1      43.423  36.361  31.036  1.00  0.00    -0.205 F 
ATOM     94  C   UNL A   1      43.718  37.682  34.435  1.00  0.00     0.022 A 
BRANCH  92  95
ATOM     95  S   UNL A   1      44.487  39.020  32.172  1.00  0.00     0.127 S 
ATOM     96  O   UNL A   1      44.594  40.003  33.249  1.00  0.00    -0.237 OA
ATOM     97  O   UNL A   1      45.766  38.497  31.691  1.00  0.00    -0.237 OA
ATOM     98  O   UNL A   1      43.535  39.352  31.119  1.00  0.00    -0.744 OA
ENDBRANCH  92  95
ENDBRANCH  65  88
ENDBRANCH  39  40
ENDBRANCH  32  34
ENDBRANCH  31  32
ENDBRANCH  30  31
ENDBRANCH  29  30
ENDBRANCH  28  29
ENDBRANCH  27  28
ENDBRANCH   1  27
TORSDOF 25
ENDMDL
