MODEL 1
REMARK VINA RESULT:      -6.7      0.000      0.000
REMARK SMILES CCCCc1cc(S(F)(F)(F)(F)F)cc2c1O[C@@H](C(F)(F)F)C(C(=O)OCCOCCOCCOCCOC(=O)c1ccc(-c3c4nc(c(-c5cccc(S(=O)(=O)[O-])c5F)c5ccc([nH]5)c(-c5cccc(S(=O)(=O)[O-])c5F)c5nc(c(-c6cccc(S(=O)(=O)[O-])c6F)c6ccc3[nH]6)C=C5)C=C4)cc1)=C2
REMARK SMILES IDX 32 1 31 2 30 3 29 4 28 5 27 6 26 7 24 8 25 9 23 10 5 11 6 12
REMARK SMILES IDX 16 13 7 14 15 15 17 16 14 17 104 18 18 19 4 20 3 21 2 22
REMARK SMILES IDX 1 23 8 24 9 25 10 26 11 27 12 28 13 29 19 30 20 31 21 32
REMARK SMILES IDX 22 33 33 34 34 35 35 36 36 37 37 38 38 39 39 40 40 41 41 42
REMARK SMILES IDX 42 43 103 44 43 45 102 46 44 47 45 48 46 49 96 50 47 51
REMARK SMILES IDX 101 52 95 53 97 54 48 55 100 56 94 57 93 58 49 60 81 61
REMARK SMILES IDX 61 62 80 63 62 64 65 65 79 66 98 67 63 68 64 69 78 71 99 72
REMARK SMILES IDX 66 73 50 74 51 75 59 76 52 77 54 78 60 79 53 80 55 81 56 82
REMARK SMILES IDX 57 83 58 84 82 85 83 86 91 87 84 88 86 89 92 90 85 91 87 92
REMARK SMILES IDX 88 93 89 94 90 95 67 96 68 97 76 98 69 99 71 100 77 101
REMARK SMILES IDX 70 102 72 103 73 104 74 105 75 106
REMARK H PARENT 97 59 65 70
REMARK Flexibility Score: inf
ROOT
ATOM      1  O   UNL A   1      45.746  25.619  24.780  1.00  0.00    -0.377 OA
ENDROOT
BRANCH   1   2
ATOM      2  C   UNL A   1      45.680  26.950  25.269  1.00  0.00     0.188 C 
BRANCH   2   3
ATOM      3  C   UNL A   1      44.231  27.318  25.544  1.00  0.00     0.188 C 
BRANCH   3   4
ATOM      4  O   UNL A   1      44.174  28.261  26.604  1.00  0.00    -0.376 OA
BRANCH   4   5
ATOM      5  C   UNL A   1      43.672  27.629  27.773  1.00  0.00     0.202 C 
BRANCH   5   6
ATOM      6  C   UNL A   1      42.255  27.142  27.516  1.00  0.00     0.261 C 
BRANCH   6   7
ATOM      7  O   UNL A   1      41.349  28.228  27.644  1.00  0.00    -0.460 OA
BRANCH   7   8
ATOM      8  C   UNL A   1      40.028  27.999  28.112  1.00  0.00     0.338 C 
ATOM      9  O   UNL A   1      39.468  26.876  27.911  1.00  0.00    -0.246 OA
BRANCH   8  10
ATOM     10  C   UNL A   1      39.285  29.097  28.855  1.00  0.00     0.087 C 
ATOM     11  C   UNL A   1      36.971  31.739  31.117  1.00  0.00    -0.004 A 
ATOM     12  C   UNL A   1      36.080  32.589  30.487  1.00  0.00     0.032 A 
ATOM     13  C   UNL A   1      37.681  30.844  30.353  1.00  0.00     0.131 A 
ATOM     14  C   UNL A   1      35.899  32.540  29.130  1.00  0.00     0.108 A 
ATOM     15  C   UNL A   1      37.538  30.779  28.980  1.00  0.00     0.019 A 
ATOM     16  O   UNL A   1      38.476  29.932  31.003  1.00  0.00    -0.475 OA
ATOM     17  C   UNL A   1      36.630  31.643  28.378  1.00  0.00     0.036 A 
ATOM     18  C   UNL A   1      38.304  29.771  28.267  1.00  0.00     0.027 C 
ATOM     19  C   UNL A   1      39.649  29.450  30.292  1.00  0.00     0.316 C 
BRANCH  11  20
ATOM     20  C   UNL A   1      37.162  31.796  32.624  1.00  0.00     0.039 C 
BRANCH  20  21
ATOM     21  C   UNL A   1      36.814  33.188  33.126  1.00  0.00     0.005 C 
BRANCH  21  22
ATOM     22  C   UNL A   1      35.529  33.127  33.935  1.00  0.00    -0.003 C 
ATOM     23  C   UNL A   1      35.264  34.484  34.568  1.00  0.00     0.004 C 
ENDBRANCH  21  22
ENDBRANCH  20  21
ENDBRANCH  11  20
BRANCH  14  24
ATOM     24  S   UNL A   1      34.710  33.644  28.327  1.00  0.00     0.310 S 
ATOM     25  F   UNL A   1      33.998  33.989  29.702  1.00  0.00    -0.094 F 
ATOM     26  F   UNL A   1      33.703  32.440  28.187  1.00  0.00    -0.094 F 
ATOM     27  F   UNL A   1      33.701  34.605  27.635  1.00  0.00    -0.094 F 
ATOM     28  F   UNL A   1      35.671  34.866  28.603  1.00  0.00    -0.094 F 
ATOM     29  F   UNL A   1      35.696  32.706  29.133  1.00  0.00    -0.094 F 
ENDBRANCH  14  24
BRANCH  19  30
ATOM     30  C   UNL A   1      40.175  28.205  30.989  1.00  0.00     0.430 C 
ATOM     31  F   UNL A   1      39.328  27.199  30.799  1.00  0.00    -0.167 F 
ATOM     32  F   UNL A   1      41.364  27.885  30.487  1.00  0.00    -0.167 F 
ATOM     33  F   UNL A   1      40.294  28.443  32.292  1.00  0.00    -0.167 F 
ENDBRANCH  19  30
ENDBRANCH   8  10
ENDBRANCH   7   8
ENDBRANCH   6   7
ENDBRANCH   5   6
ENDBRANCH   4   5
ENDBRANCH   3   4
ENDBRANCH   2   3
ENDBRANCH   1   2
BRANCH   1  34
ATOM     34  C   UNL A   1      44.622  24.887  25.245  1.00  0.00     0.188 C 
BRANCH  34  35
ATOM     35  C   UNL A   1      45.093  23.590  25.883  1.00  0.00     0.188 C 
BRANCH  35  36
ATOM     36  O   UNL A   1      44.050  23.048  26.679  1.00  0.00    -0.376 OA
BRANCH  36  37
ATOM     37  C   UNL A   1      43.907  23.822  27.861  1.00  0.00     0.202 C 
BRANCH  37  38
ATOM     38  C   UNL A   1      45.079  23.548  28.791  1.00  0.00     0.261 C 
BRANCH  38  39
ATOM     39  O   UNL A   1      45.262  24.654  29.661  1.00  0.00    -0.460 OA
BRANCH  39  40
ATOM     40  C   UNL A   1      44.752  24.609  30.985  1.00  0.00     0.338 C 
ATOM     41  O   UNL A   1      44.487  23.490  31.526  1.00  0.00    -0.246 OA
BRANCH  40  42
ATOM     42  C   UNL A   1      44.521  25.899  31.754  1.00  0.00     0.060 A 
ATOM     43  C   UNL A   1      45.409  26.950  31.598  1.00  0.00     0.016 A 
ATOM     44  C   UNL A   1      43.474  25.997  32.565  1.00  0.00     0.016 A 
ATOM     45  C   UNL A   1      45.267  27.971  32.567  1.00  0.00     0.010 A 
ATOM     46  C   UNL A   1      43.327  27.087  33.389  1.00  0.00     0.010 A 
ATOM     47  C   UNL A   1      44.201  28.137  33.330  1.00  0.00    -0.014 A 
BRANCH  47  48
ATOM     48  C   UNL A   1      43.958  29.425  34.098  1.00  0.00     0.031 A 
ATOM     49  C   UNL A   1      44.373  29.485  35.429  1.00  0.00     0.074 A 
ATOM     50  C   UNL A   1      43.341  30.470  33.433  1.00  0.00     0.049 A 
ATOM     51  N   UNL A   1      44.289  30.522  36.263  1.00  0.00    -0.248 NA
ATOM     52  C   UNL A   1      44.999  28.364  36.149  1.00  0.00     0.031 C 
ATOM     53  C   UNL A   1      42.927  30.422  32.087  1.00  0.00     0.029 A 
ATOM     54  N   UNL A   1      43.019  31.715  33.928  1.00  0.00    -0.354 N 
ATOM     55  C   UNL A   1      44.809  30.204  37.450  1.00  0.00     0.074 A 
ATOM     56  C   UNL A   1      45.267  28.809  37.395  1.00  0.00     0.031 C 
ATOM     57  C   UNL A   1      42.353  31.615  31.779  1.00  0.00     0.029 A 
ATOM     58  C   UNL A   1      42.400  32.429  32.926  1.00  0.00     0.049 A 
ATOM     59  H   UNL A   1      43.199  32.038  34.840  1.00  0.00     0.167 HD
ATOM     60  C   UNL A   1      44.921  31.023  38.576  1.00  0.00     0.034 A 
ATOM     61  C   UNL A   1      41.895  33.719  32.991  1.00  0.00     0.034 A 
ATOM     62  C   UNL A   1      44.455  32.327  38.626  1.00  0.00     0.049 A 
ATOM     63  C   UNL A   1      41.955  34.518  34.135  1.00  0.00     0.074 A 
ATOM     64  C   UNL A   1      44.567  33.168  39.750  1.00  0.00     0.029 A 
ATOM     65  N   UNL A   1      43.813  33.033  37.632  1.00  0.00    -0.354 N 
ATOM     66  N   UNL A   1      42.510  34.213  35.308  1.00  0.00    -0.248 NA
ATOM     67  C   UNL A   1      41.395  35.873  34.224  1.00  0.00     0.031 C 
ATOM     68  C   UNL A   1      43.992  34.362  39.441  1.00  0.00     0.029 A 
ATOM     69  C   UNL A   1      43.512  34.285  38.119  1.00  0.00     0.049 A 
ATOM     70  H   UNL A   1      43.607  32.700  36.729  1.00  0.00     0.167 HD
ATOM     71  C   UNL A   1      42.387  35.238  36.154  1.00  0.00     0.074 A 
ATOM     72  C   UNL A   1      41.662  36.318  35.472  1.00  0.00     0.031 C 
ATOM     73  C   UNL A   1      42.855  35.318  37.467  1.00  0.00     0.034 A 
BRANCH  60  74
ATOM     74  C   UNL A   1      45.590  30.452  39.814  1.00  0.00     0.023 A 
ATOM     75  C   UNL A   1      44.857  29.769  40.770  1.00  0.00     0.012 A 
ATOM     76  C   UNL A   1      46.914  30.533  39.890  1.00  0.00     0.148 A 
ATOM     77  C   UNL A   1      45.593  29.447  41.935  1.00  0.00     0.002 A 
ATOM     78  C   UNL A   1      47.581  30.074  40.999  1.00  0.00     0.091 A 
ATOM     79  F   UNL A   1      47.600  31.063  38.881  1.00  0.00    -0.205 F 
ATOM     80  C   UNL A   1      46.911  29.441  42.010  1.00  0.00     0.022 A 
BRANCH  78  81
ATOM     81  S   UNL A   1      49.371  30.308  41.126  1.00  0.00     0.127 S 
ATOM     82  O   UNL A   1      50.067  29.557  39.989  1.00  0.00    -0.237 OA
ATOM     83  O   UNL A   1      49.698  31.800  41.027  1.00  0.00    -0.237 OA
ATOM     84  O   UNL A   1      49.918  29.703  42.629  1.00  0.00    -0.744 OA
ENDBRANCH  78  81
ENDBRANCH  60  74
BRANCH  61  85
ATOM     85  C   UNL A   1      41.241  34.295  31.746  1.00  0.00     0.023 A 
ATOM     86  C   UNL A   1      39.872  34.181  31.571  1.00  0.00     0.012 A 
ATOM     87  C   UNL A   1      42.018  34.799  30.794  1.00  0.00     0.148 A 
ATOM     88  C   UNL A   1      39.447  34.362  30.233  1.00  0.00     0.002 A 
ATOM     89  C   UNL A   1      41.506  35.080  29.550  1.00  0.00     0.091 A 
ATOM     90  F   UNL A   1      43.301  35.035  31.046  1.00  0.00    -0.205 F 
ATOM     91  C   UNL A   1      40.172  34.934  29.289  1.00  0.00     0.022 A 
BRANCH  89  92
ATOM     92  S   UNL A   1      42.614  35.652  28.237  1.00  0.00     0.127 S 
ATOM     93  O   UNL A   1      43.803  34.695  28.120  1.00  0.00    -0.237 OA
ATOM     94  O   UNL A   1      41.856  35.688  26.908  1.00  0.00    -0.237 OA
ATOM     95  O   UNL A   1      43.180  37.221  28.614  1.00  0.00    -0.744 OA
ENDBRANCH  89  92
ENDBRANCH  61  85
BRANCH  73  96
ATOM     96  C   UNL A   1      42.629  36.614  38.229  1.00  0.00     0.023 A 
ATOM     97  C   UNL A   1      43.650  37.548  38.295  1.00  0.00     0.012 A 
ATOM     98  C   UNL A   1      41.459  36.830  38.817  1.00  0.00     0.148 A 
ATOM     99  C   UNL A   1      43.437  38.562  39.259  1.00  0.00     0.002 A 
ATOM    100  C   UNL A   1      41.280  37.916  39.639  1.00  0.00     0.091 A 
ATOM    101  F   UNL A   1      40.452  35.987  38.609  1.00  0.00    -0.205 F 
ATOM    102  C   UNL A   1      42.267  38.848  39.798  1.00  0.00     0.022 A 
BRANCH 100 103
ATOM    103  S   UNL A   1      39.712  38.115  40.524  1.00  0.00     0.127 S 
ATOM    104  O   UNL A   1      38.560  38.137  39.518  1.00  0.00    -0.237 OA
ATOM    105  O   UNL A   1      39.522  36.946  41.493  1.00  0.00    -0.237 OA
ATOM    106  O   UNL A   1      39.735  39.584  41.399  1.00  0.00    -0.744 OA
ENDBRANCH 100 103
ENDBRANCH  73  96
ENDBRANCH  47  48
ENDBRANCH  40  42
ENDBRANCH  39  40
ENDBRANCH  38  39
ENDBRANCH  37  38
ENDBRANCH  36  37
ENDBRANCH  35  36
ENDBRANCH  34  35
ENDBRANCH   1  34
TORSDOF 28
ENDMDL
MODEL 2
REMARK VINA RESULT:      -6.6      4.995     10.066
REMARK SMILES CCCCc1cc(S(F)(F)(F)(F)F)cc2c1O[C@@H](C(F)(F)F)C(C(=O)OCCOCCOCCOCCOC(=O)c1ccc(-c3c4nc(c(-c5cccc(S(=O)(=O)[O-])c5F)c5ccc([nH]5)c(-c5cccc(S(=O)(=O)[O-])c5F)c5nc(c(-c6cccc(S(=O)(=O)[O-])c6F)c6ccc3[nH]6)C=C5)C=C4)cc1)=C2
REMARK SMILES IDX 32 1 31 2 30 3 29 4 28 5 27 6 26 7 24 8 25 9 23 10 5 11 6 12
REMARK SMILES IDX 16 13 7 14 15 15 17 16 14 17 104 18 18 19 4 20 3 21 2 22
REMARK SMILES IDX 1 23 8 24 9 25 10 26 11 27 12 28 13 29 19 30 20 31 21 32
REMARK SMILES IDX 22 33 33 34 34 35 35 36 36 37 37 38 38 39 39 40 40 41 41 42
REMARK SMILES IDX 42 43 103 44 43 45 102 46 44 47 45 48 46 49 96 50 47 51
REMARK SMILES IDX 101 52 95 53 97 54 48 55 100 56 94 57 93 58 49 60 81 61
REMARK SMILES IDX 61 62 80 63 62 64 65 65 79 66 98 67 63 68 64 69 78 71 99 72
REMARK SMILES IDX 66 73 50 74 51 75 59 76 52 77 54 78 60 79 53 80 55 81 56 82
REMARK SMILES IDX 57 83 58 84 82 85 83 86 91 87 84 88 86 89 92 90 85 91 87 92
REMARK SMILES IDX 88 93 89 94 90 95 67 96 68 97 76 98 69 99 71 100 77 101
REMARK SMILES IDX 70 102 72 103 73 104 74 105 75 106
REMARK H PARENT 97 59 65 70
REMARK Flexibility Score: inf
ROOT
ATOM      1  O   UNL A   1      33.661  28.418  25.621  1.00  0.00    -0.377 OA
ENDROOT
BRANCH   1   2
ATOM      2  C   UNL A   1      33.321  27.505  24.588  1.00  0.00     0.188 C 
BRANCH   2   3
ATOM      3  C   UNL A   1      33.698  26.095  25.012  1.00  0.00     0.188 C 
BRANCH   3   4
ATOM      4  O   UNL A   1      33.955  25.306  23.859  1.00  0.00    -0.376 OA
BRANCH   4   5
ATOM      5  C   UNL A   1      33.601  23.955  24.122  1.00  0.00     0.202 C 
BRANCH   5   6
ATOM      6  C   UNL A   1      34.119  23.070  23.000  1.00  0.00     0.261 C 
BRANCH   6   7
ATOM      7  O   UNL A   1      35.406  22.576  23.342  1.00  0.00    -0.460 OA
BRANCH   7   8
ATOM      8  C   UNL A   1      35.695  22.218  24.686  1.00  0.00     0.338 C 
ATOM      9  O   UNL A   1      34.845  21.561  25.365  1.00  0.00    -0.246 OA
BRANCH   8  10
ATOM     10  C   UNL A   1      37.021  22.620  25.311  1.00  0.00     0.087 C 
ATOM     11  C   UNL A   1      40.555  23.389  27.400  1.00  0.00    -0.004 A 
ATOM     12  C   UNL A   1      40.752  24.623  27.994  1.00  0.00     0.032 A 
ATOM     13  C   UNL A   1      39.361  23.145  26.764  1.00  0.00     0.131 A 
ATOM     14  C   UNL A   1      39.777  25.585  27.959  1.00  0.00     0.108 A 
ATOM     15  C   UNL A   1      38.363  24.098  26.693  1.00  0.00     0.019 A 
ATOM     16  O   UNL A   1      39.138  21.880  26.278  1.00  0.00    -0.475 OA
ATOM     17  C   UNL A   1      38.590  25.325  27.305  1.00  0.00     0.036 A 
ATOM     18  C   UNL A   1      37.121  23.729  26.033  1.00  0.00     0.027 C 
ATOM     19  C   UNL A   1      38.263  21.760  25.122  1.00  0.00     0.316 C 
BRANCH  11  20
ATOM     20  C   UNL A   1      41.640  22.325  27.448  1.00  0.00     0.039 C 
BRANCH  20  21
ATOM     21  C   UNL A   1      42.463  22.384  26.171  1.00  0.00     0.005 C 
BRANCH  21  22
ATOM     22  C   UNL A   1      43.104  21.029  25.918  1.00  0.00    -0.003 C 
ATOM     23  C   UNL A   1      42.065  19.934  26.099  1.00  0.00     0.004 C 
ENDBRANCH  21  22
ENDBRANCH  20  21
ENDBRANCH  11  20
BRANCH  14  24
ATOM     24  S   UNL A   1      40.043  27.184  28.765  1.00  0.00     0.310 S 
ATOM     25  F   UNL A   1      39.044  26.833  29.945  1.00  0.00    -0.094 F 
ATOM     26  F   UNL A   1      38.806  27.770  27.984  1.00  0.00    -0.094 F 
ATOM     27  F   UNL A   1      40.289  28.552  29.461  1.00  0.00    -0.094 F 
ATOM     28  F   UNL A   1      41.189  26.541  29.641  1.00  0.00    -0.094 F 
ATOM     29  F   UNL A   1      39.735  25.759  28.150  1.00  0.00    -0.094 F 
ENDBRANCH  14  24
BRANCH  19  30
ATOM     30  C   UNL A   1      37.841  20.307  24.969  1.00  0.00     0.430 C 
ATOM     31  F   UNL A   1      37.563  20.059  23.693  1.00  0.00    -0.167 F 
ATOM     32  F   UNL A   1      38.830  19.514  25.370  1.00  0.00    -0.167 F 
ATOM     33  F   UNL A   1      36.761  20.079  25.710  1.00  0.00    -0.167 F 
ENDBRANCH  19  30
ENDBRANCH   8  10
ENDBRANCH   7   8
ENDBRANCH   6   7
ENDBRANCH   5   6
ENDBRANCH   4   5
ENDBRANCH   3   4
ENDBRANCH   2   3
ENDBRANCH   1   2
BRANCH   1  34
ATOM     34  C   UNL A   1      33.017  29.661  25.384  1.00  0.00     0.188 C 
BRANCH  34  35
ATOM     35  C   UNL A   1      33.041  30.493  26.657  1.00  0.00     0.188 C 
BRANCH  35  36
ATOM     36  O   UNL A   1      34.341  30.450  27.226  1.00  0.00    -0.376 OA
BRANCH  36  37
ATOM     37  C   UNL A   1      34.394  31.323  28.345  1.00  0.00     0.202 C 
BRANCH  37  38
ATOM     38  C   UNL A   1      35.757  31.209  29.011  1.00  0.00     0.261 C 
BRANCH  38  39
ATOM     39  O   UNL A   1      35.653  31.600  30.372  1.00  0.00    -0.460 OA
BRANCH  39  40
ATOM     40  C   UNL A   1      36.282  30.826  31.383  1.00  0.00     0.338 C 
ATOM     41  O   UNL A   1      36.177  29.560  31.371  1.00  0.00    -0.246 OA
BRANCH  40  42
ATOM     42  C   UNL A   1      37.077  31.512  32.480  1.00  0.00     0.060 A 
ATOM     43  C   UNL A   1      36.622  32.714  32.998  1.00  0.00     0.016 A 
ATOM     44  C   UNL A   1      38.196  30.952  32.924  1.00  0.00     0.016 A 
ATOM     45  C   UNL A   1      37.577  33.398  33.787  1.00  0.00     0.010 A 
ATOM     46  C   UNL A   1      39.016  31.622  33.800  1.00  0.00     0.010 A 
ATOM     47  C   UNL A   1      38.656  32.841  34.307  1.00  0.00    -0.014 A 
BRANCH  47  48
ATOM     48  C   UNL A   1      39.455  33.517  35.408  1.00  0.00     0.031 A 
ATOM     49  C   UNL A   1      40.512  34.350  35.037  1.00  0.00     0.074 A 
ATOM     50  C   UNL A   1      39.087  33.271  36.719  1.00  0.00     0.049 A 
ATOM     51  N   UNL A   1      41.309  35.059  35.838  1.00  0.00    -0.248 NA
ATOM     52  C   UNL A   1      40.927  34.586  33.646  1.00  0.00     0.031 C 
ATOM     53  C   UNL A   1      38.016  32.439  37.102  1.00  0.00     0.029 A 
ATOM     54  N   UNL A   1      39.667  33.766  37.867  1.00  0.00    -0.354 N 
ATOM     55  C   UNL A   1      42.193  35.750  35.115  1.00  0.00     0.074 A 
ATOM     56  C   UNL A   1      41.963  35.450  33.695  1.00  0.00     0.031 C 
ATOM     57  C   UNL A   1      37.958  32.424  38.460  1.00  0.00     0.029 A 
ATOM     58  C   UNL A   1      38.991  33.246  38.949  1.00  0.00     0.049 A 
ATOM     59  H   UNL A   1      40.431  34.384  37.907  1.00  0.00     0.167 HD
ATOM     60  C   UNL A   1      43.180  36.619  35.583  1.00  0.00     0.034 A 
ATOM     61  C   UNL A   1      39.248  33.463  40.294  1.00  0.00     0.034 A 
ATOM     62  C   UNL A   1      43.408  36.869  36.927  1.00  0.00     0.049 A 
ATOM     63  C   UNL A   1      40.273  34.287  40.764  1.00  0.00     0.074 A 
ATOM     64  C   UNL A   1      44.393  37.749  37.416  1.00  0.00     0.029 A 
ATOM     65  N   UNL A   1      42.749  36.330  38.009  1.00  0.00    -0.354 N 
ATOM     66  N   UNL A   1      41.130  35.008  40.040  1.00  0.00    -0.248 NA
ATOM     67  C   UNL A   1      40.573  34.499  42.186  1.00  0.00     0.031 C 
ATOM     68  C   UNL A   1      44.335  37.733  38.775  1.00  0.00     0.029 A 
ATOM     69  C   UNL A   1      43.312  36.843  39.156  1.00  0.00     0.049 A 
ATOM     70  H   UNL A   1      42.002  35.689  37.970  1.00  0.00     0.167 HD
ATOM     71  C   UNL A   1      41.953  35.685  40.843  1.00  0.00     0.074 A 
ATOM     72  C   UNL A   1      41.612  35.362  42.235  1.00  0.00     0.031 C 
ATOM     73  C   UNL A   1      42.973  36.563  40.471  1.00  0.00     0.034 A 
BRANCH  60  74
ATOM     74  C   UNL A   1      44.052  37.331  34.563  1.00  0.00     0.023 A 
ATOM     75  C   UNL A   1      45.191  36.728  34.056  1.00  0.00     0.012 A 
ATOM     76  C   UNL A   1      43.623  38.497  34.094  1.00  0.00     0.148 A 
ATOM     77  C   UNL A   1      45.978  37.581  33.246  1.00  0.00     0.002 A 
ATOM     78  C   UNL A   1      44.380  39.213  33.200  1.00  0.00     0.091 A 
ATOM     79  F   UNL A   1      42.448  38.975  34.493  1.00  0.00    -0.205 F 
ATOM     80  C   UNL A   1      45.548  38.704  32.701  1.00  0.00     0.022 A 
BRANCH  78  81
ATOM     81  S   UNL A   1      43.827  40.854  32.673  1.00  0.00     0.127 S 
ATOM     82  O   UNL A   1      44.883  41.481  31.761  1.00  0.00    -0.237 OA
ATOM     83  O   UNL A   1      42.505  40.727  31.912  1.00  0.00    -0.237 OA
ATOM     84  O   UNL A   1      43.600  41.846  34.048  1.00  0.00    -0.744 OA
ENDBRANCH  78  81
ENDBRANCH  60  74
BRANCH  61  85
ATOM     85  C   UNL A   1      38.363  32.764  41.314  1.00  0.00     0.023 A 
ATOM     86  C   UNL A   1      38.715  31.511  41.788  1.00  0.00     0.012 A 
ATOM     87  C   UNL A   1      37.207  33.326  41.644  1.00  0.00     0.148 A 
ATOM     88  C   UNL A   1      37.644  30.800  42.380  1.00  0.00     0.002 A 
ATOM     89  C   UNL A   1      36.259  32.617  42.342  1.00  0.00     0.091 A 
ATOM     90  F   UNL A   1      36.963  34.586  41.298  1.00  0.00    -0.205 F 
ATOM     91  C   UNL A   1      36.517  31.352  42.791  1.00  0.00     0.022 A 
BRANCH  89  92
ATOM     92  S   UNL A   1      34.646  33.369  42.673  1.00  0.00     0.127 S 
ATOM     93  O   UNL A   1      34.791  34.431  43.765  1.00  0.00    -0.237 OA
ATOM     94  O   UNL A   1      34.115  34.022  41.394  1.00  0.00    -0.237 OA
ATOM     95  O   UNL A   1      33.552  32.161  43.193  1.00  0.00    -0.744 OA
ENDBRANCH  89  92
ENDBRANCH  61  85
BRANCH  73  96
ATOM     96  C   UNL A   1      43.758  37.254  41.574  1.00  0.00     0.023 A 
ATOM     97  C   UNL A   1      43.302  38.461  42.077  1.00  0.00     0.012 A 
ATOM     98  C   UNL A   1      44.867  36.690  42.037  1.00  0.00     0.148 A 
ATOM     99  C   UNL A   1      44.251  39.146  42.873  1.00  0.00     0.002 A 
ATOM    100  C   UNL A   1      45.679  37.364  42.918  1.00  0.00     0.091 A 
ATOM    101  F   UNL A   1      45.197  35.464  41.643  1.00  0.00    -0.205 F 
ATOM    102  C   UNL A   1      45.319  38.586  43.411  1.00  0.00     0.022 A 
BRANCH 100 103
ATOM    103  S   UNL A   1      47.246  36.618  43.434  1.00  0.00     0.127 S 
ATOM    104  O   UNL A   1      48.053  37.637  44.242  1.00  0.00    -0.237 OA
ATOM    105  O   UNL A   1      46.964  35.388  44.300  1.00  0.00    -0.237 OA
ATOM    106  O   UNL A   1      48.137  36.150  42.052  1.00  0.00    -0.744 OA
ENDBRANCH 100 103
ENDBRANCH  73  96
ENDBRANCH  47  48
ENDBRANCH  40  42
ENDBRANCH  39  40
ENDBRANCH  38  39
ENDBRANCH  37  38
ENDBRANCH  36  37
ENDBRANCH  35  36
ENDBRANCH  34  35
ENDBRANCH   1  34
TORSDOF 28
ENDMDL
MODEL 3
REMARK VINA RESULT:      -6.6      4.792      9.182
REMARK SMILES CCCCc1cc(S(F)(F)(F)(F)F)cc2c1O[C@@H](C(F)(F)F)C(C(=O)OCCOCCOCCOCCOC(=O)c1ccc(-c3c4nc(c(-c5cccc(S(=O)(=O)[O-])c5F)c5ccc([nH]5)c(-c5cccc(S(=O)(=O)[O-])c5F)c5nc(c(-c6cccc(S(=O)(=O)[O-])c6F)c6ccc3[nH]6)C=C5)C=C4)cc1)=C2
REMARK SMILES IDX 32 1 31 2 30 3 29 4 28 5 27 6 26 7 24 8 25 9 23 10 5 11 6 12
REMARK SMILES IDX 16 13 7 14 15 15 17 16 14 17 104 18 18 19 4 20 3 21 2 22
REMARK SMILES IDX 1 23 8 24 9 25 10 26 11 27 12 28 13 29 19 30 20 31 21 32
REMARK SMILES IDX 22 33 33 34 34 35 35 36 36 37 37 38 38 39 39 40 40 41 41 42
REMARK SMILES IDX 42 43 103 44 43 45 102 46 44 47 45 48 46 49 96 50 47 51
REMARK SMILES IDX 101 52 95 53 97 54 48 55 100 56 94 57 93 58 49 60 81 61
REMARK SMILES IDX 61 62 80 63 62 64 65 65 79 66 98 67 63 68 64 69 78 71 99 72
REMARK SMILES IDX 66 73 50 74 51 75 59 76 52 77 54 78 60 79 53 80 55 81 56 82
REMARK SMILES IDX 57 83 58 84 82 85 83 86 91 87 84 88 86 89 92 90 85 91 87 92
REMARK SMILES IDX 88 93 89 94 90 95 67 96 68 97 76 98 69 99 71 100 77 101
REMARK SMILES IDX 70 102 72 103 73 104 74 105 75 106
REMARK H PARENT 97 59 65 70
REMARK Flexibility Score: inf
ROOT
ATOM      1  O   UNL A   1      32.979  27.951  24.087  1.00  0.00    -0.377 OA
ENDROOT
BRANCH   1   2
ATOM      2  C   UNL A   1      33.530  27.727  22.798  1.00  0.00     0.188 C 
BRANCH   2   3
ATOM      3  C   UNL A   1      32.916  26.475  22.194  1.00  0.00     0.188 C 
BRANCH   3   4
ATOM      4  O   UNL A   1      33.851  25.408  22.265  1.00  0.00    -0.376 OA
BRANCH   4   5
ATOM      5  C   UNL A   1      33.215  24.257  22.804  1.00  0.00     0.202 C 
BRANCH   5   6
ATOM      6  C   UNL A   1      34.203  23.102  22.835  1.00  0.00     0.261 C 
BRANCH   6   7
ATOM      7  O   UNL A   1      35.417  23.532  23.432  1.00  0.00    -0.460 OA
BRANCH   7   8
ATOM      8  C   UNL A   1      35.600  23.410  24.835  1.00  0.00     0.338 C 
ATOM      9  O   UNL A   1      34.592  23.321  25.603  1.00  0.00    -0.246 OA
BRANCH   8  10
ATOM     10  C   UNL A   1      37.004  23.384  25.418  1.00  0.00     0.087 C 
ATOM     11  C   UNL A   1      40.660  23.048  27.411  1.00  0.00    -0.004 A 
ATOM     12  C   UNL A   1      41.265  24.175  27.938  1.00  0.00     0.032 A 
ATOM     13  C   UNL A   1      39.433  23.180  26.807  1.00  0.00     0.131 A 
ATOM     14  C   UNL A   1      40.656  25.400  27.868  1.00  0.00     0.108 A 
ATOM     15  C   UNL A   1      38.796  24.402  26.702  1.00  0.00     0.019 A 
ATOM     16  O   UNL A   1      38.795  22.037  26.390  1.00  0.00    -0.475 OA
ATOM     17  C   UNL A   1      39.429  25.514  27.246  1.00  0.00     0.036 A 
ATOM     18  C   UNL A   1      37.483  24.430  26.081  1.00  0.00     0.027 C 
ATOM     19  C   UNL A   1      37.893  22.158  25.255  1.00  0.00     0.316 C 
BRANCH  11  20
ATOM     20  C   UNL A   1      41.341  21.692  27.497  1.00  0.00     0.039 C 
BRANCH  20  21
ATOM     21  C   UNL A   1      42.163  21.457  26.240  1.00  0.00     0.005 C 
BRANCH  21  22
ATOM     22  C   UNL A   1      42.184  19.972  25.917  1.00  0.00    -0.003 C 
ATOM     23  C   UNL A   1      42.204  19.172  27.210  1.00  0.00     0.004 C 
ENDBRANCH  21  22
ENDBRANCH  20  21
ENDBRANCH  11  20
BRANCH  14  24
ATOM     24  S   UNL A   1      41.453  26.858  28.586  1.00  0.00     0.310 S 
ATOM     25  F   UNL A   1      42.351  25.977  29.550  1.00  0.00    -0.094 F 
ATOM     26  F   UNL A   1      40.366  26.877  29.727  1.00  0.00    -0.094 F 
ATOM     27  F   UNL A   1      42.146  28.114  29.186  1.00  0.00    -0.094 F 
ATOM     28  F   UNL A   1      42.611  26.739  27.519  1.00  0.00    -0.094 F 
ATOM     29  F   UNL A   1      40.824  25.517  28.031  1.00  0.00    -0.094 F 
ENDBRANCH  14  24
BRANCH  19  30
ATOM     30  C   UNL A   1      37.017  20.917  25.184  1.00  0.00     0.430 C 
ATOM     31  F   UNL A   1      36.264  20.842  26.277  1.00  0.00    -0.167 F 
ATOM     32  F   UNL A   1      36.236  20.988  24.111  1.00  0.00    -0.167 F 
ATOM     33  F   UNL A   1      37.786  19.835  25.101  1.00  0.00    -0.167 F 
ENDBRANCH  19  30
ENDBRANCH   8  10
ENDBRANCH   7   8
ENDBRANCH   6   7
ENDBRANCH   5   6
ENDBRANCH   4   5
ENDBRANCH   3   4
ENDBRANCH   2   3
ENDBRANCH   1   2
BRANCH   1  34
ATOM     34  C   UNL A   1      32.029  29.004  24.020  1.00  0.00     0.188 C 
BRANCH  34  35
ATOM     35  C   UNL A   1      31.942  29.693  25.372  1.00  0.00     0.188 C 
BRANCH  35  36
ATOM     36  O   UNL A   1      33.250  29.986  25.840  1.00  0.00    -0.376 OA
BRANCH  36  37
ATOM     37  C   UNL A   1      33.215  30.185  27.246  1.00  0.00     0.202 C 
BRANCH  37  38
ATOM     38  C   UNL A   1      34.202  31.277  27.627  1.00  0.00     0.261 C 
BRANCH  38  39
ATOM     39  O   UNL A   1      35.038  30.815  28.677  1.00  0.00    -0.460 OA
BRANCH  39  40
ATOM     40  C   UNL A   1      36.320  30.281  28.382  1.00  0.00     0.338 C 
ATOM     41  O   UNL A   1      36.448  29.399  27.476  1.00  0.00    -0.246 OA
BRANCH  40  42
ATOM     42  C   UNL A   1      37.539  30.762  29.151  1.00  0.00     0.060 A 
ATOM     43  C   UNL A   1      38.287  29.850  29.877  1.00  0.00     0.016 A 
ATOM     44  C   UNL A   1      37.866  32.049  29.117  1.00  0.00     0.016 A 
ATOM     45  C   UNL A   1      39.205  30.445  30.774  1.00  0.00     0.010 A 
ATOM     46  C   UNL A   1      38.865  32.539  29.924  1.00  0.00     0.010 A 
ATOM     47  C   UNL A   1      39.607  31.702  30.711  1.00  0.00    -0.014 A 
BRANCH  47  48
ATOM     48  C   UNL A   1      40.827  32.192  31.472  1.00  0.00     0.031 A 
ATOM     49  C   UNL A   1      40.630  32.787  32.719  1.00  0.00     0.074 A 
ATOM     50  C   UNL A   1      42.069  32.016  30.886  1.00  0.00     0.049 A 
ATOM     51  N   UNL A   1      41.559  33.248  33.557  1.00  0.00    -0.248 NA
ATOM     52  C   UNL A   1      39.309  33.005  33.328  1.00  0.00     0.031 C 
ATOM     53  C   UNL A   1      42.278  31.409  29.632  1.00  0.00     0.029 A 
ATOM     54  N   UNL A   1      43.299  32.385  31.386  1.00  0.00    -0.354 N 
ATOM     55  C   UNL A   1      40.986  33.731  34.662  1.00  0.00     0.074 A 
ATOM     56  C   UNL A   1      39.530  33.587  34.527  1.00  0.00     0.031 C 
ATOM     57  C   UNL A   1      43.613  31.421  29.375  1.00  0.00     0.029 A 
ATOM     58  C   UNL A   1      44.260  32.036  30.463  1.00  0.00     0.049 A 
ATOM     59  H   UNL A   1      43.463  32.823  32.252  1.00  0.00     0.167 HD
ATOM     60  C   UNL A   1      41.620  34.284  35.776  1.00  0.00     0.034 A 
ATOM     61  C   UNL A   1      45.629  32.236  30.547  1.00  0.00     0.034 A 
ATOM     62  C   UNL A   1      42.992  34.444  35.878  1.00  0.00     0.049 A 
ATOM     63  C   UNL A   1      46.259  32.842  31.637  1.00  0.00     0.074 A 
ATOM     64  C   UNL A   1      43.648  34.992  36.997  1.00  0.00     0.029 A 
ATOM     65  N   UNL A   1      43.952  34.117  34.945  1.00  0.00    -0.354 N 
ATOM     66  N   UNL A   1      45.689  33.288  32.757  1.00  0.00    -0.248 NA
ATOM     67  C   UNL A   1      47.704  33.087  31.722  1.00  0.00     0.031 C 
ATOM     68  C   UNL A   1      44.983  35.004  36.739  1.00  0.00     0.029 A 
ATOM     69  C   UNL A   1      45.183  34.464  35.453  1.00  0.00     0.049 A 
ATOM     70  H   UNL A   1      43.785  33.706  34.066  1.00  0.00     0.167 HD
ATOM     71  C   UNL A   1      46.616  33.787  33.577  1.00  0.00     0.074 A 
ATOM     72  C   UNL A   1      47.925  33.672  32.920  1.00  0.00     0.031 C 
ATOM     73  C   UNL A   1      46.424  34.329  34.849  1.00  0.00     0.034 A 
BRANCH  60  74
ATOM     74  C   UNL A   1      40.756  34.734  36.942  1.00  0.00     0.023 A 
ATOM     75  C   UNL A   1      40.210  36.007  36.975  1.00  0.00     0.012 A 
ATOM     76  C   UNL A   1      40.454  33.831  37.868  1.00  0.00     0.148 A 
ATOM     77  C   UNL A   1      39.573  36.326  38.197  1.00  0.00     0.002 A 
ATOM     78  C   UNL A   1      39.711  34.180  38.969  1.00  0.00     0.091 A 
ATOM     79  F   UNL A   1      40.873  32.577  37.726  1.00  0.00    -0.205 F 
ATOM     80  C   UNL A   1      39.189  35.438  39.095  1.00  0.00     0.022 A 
BRANCH  78  81
ATOM     81  S   UNL A   1      39.419  32.959  40.273  1.00  0.00     0.127 S 
ATOM     82  O   UNL A   1      38.957  33.671  41.546  1.00  0.00    -0.237 OA
ATOM     83  O   UNL A   1      38.338  31.975  39.818  1.00  0.00    -0.237 OA
ATOM     84  O   UNL A   1      40.868  32.108  40.590  1.00  0.00    -0.744 OA
ENDBRANCH  78  81
ENDBRANCH  60  74
BRANCH  61  85
ATOM     85  C   UNL A   1      46.494  31.769  29.387  1.00  0.00     0.023 A 
ATOM     86  C   UNL A   1      46.723  32.614  28.314  1.00  0.00     0.012 A 
ATOM     87  C   UNL A   1      46.920  30.511  29.377  1.00  0.00     0.148 A 
ATOM     88  C   UNL A   1      47.164  31.950  27.145  1.00  0.00     0.002 A 
ATOM     89  C   UNL A   1      47.466  29.967  28.240  1.00  0.00     0.091 A 
ATOM     90  F   UNL A   1      46.818  29.772  30.477  1.00  0.00    -0.205 F 
ATOM     91  C   UNL A   1      47.667  30.729  27.122  1.00  0.00     0.022 A 
BRANCH  89  92
ATOM     92  S   UNL A   1      47.926  28.216  28.219  1.00  0.00     0.127 S 
ATOM     93  O   UNL A   1      46.661  27.356  28.254  1.00  0.00    -0.237 OA
ATOM     94  O   UNL A   1      48.716  27.910  26.944  1.00  0.00    -0.237 OA
ATOM     95  O   UNL A   1      48.892  27.866  29.587  1.00  0.00    -0.744 OA
ENDBRANCH  89  92
ENDBRANCH  61  85
BRANCH  73  96
ATOM     96  C   UNL A   1      47.648  34.800  35.617  1.00  0.00     0.023 A 
ATOM     97  C   UNL A   1      48.054  36.120  35.502  1.00  0.00     0.012 A 
ATOM     98  C   UNL A   1      48.307  33.941  36.384  1.00  0.00     0.148 A 
ATOM     99  C   UNL A   1      49.350  36.367  36.014  1.00  0.00     0.002 A 
ATOM    100  C   UNL A   1      49.502  34.295  36.964  1.00  0.00     0.091 A 
ATOM    101  F   UNL A   1      47.808  32.726  36.592  1.00  0.00    -0.205 F 
ATOM    102  C   UNL A   1      49.993  35.565  36.842  1.00  0.00     0.022 A 
BRANCH 100 103
ATOM    103  S   UNL A   1      50.437  33.062  37.902  1.00  0.00     0.127 S 
ATOM    104  O   UNL A   1      49.760  32.831  39.255  1.00  0.00    -0.237 OA
ATOM    105  O   UNL A   1      50.477  31.747  37.120  1.00  0.00    -0.237 OA
ATOM    106  O   UNL A   1      52.033  33.625  38.151  1.00  0.00    -0.744 OA
ENDBRANCH 100 103
ENDBRANCH  73  96
ENDBRANCH  47  48
ENDBRANCH  40  42
ENDBRANCH  39  40
ENDBRANCH  38  39
ENDBRANCH  37  38
ENDBRANCH  36  37
ENDBRANCH  35  36
ENDBRANCH  34  35
ENDBRANCH   1  34
TORSDOF 28
ENDMDL
