MODEL 1
REMARK VINA RESULT:      -8.0      0.000      0.000
REMARK SMILES COCc1cc(SCC(=O)OCCOCCOCCOCCOC(=O)c2ccc(-c3c4nc(c(-c5cccc(S(=O)(=O)[O-])c5F)c5ccc([nH]5)c(-c5cccc(S(=O)(=O)[O-])c5F)c5nc(c(-c6cccc(S(=O)(=O)[O-])c6F)c6ccc3[nH]6)C=C5)C=C4)cc2)nc(-c2ccncc2)n1
REMARK SMILES IDX 16 1 15 2 14 3 13 4 12 5 11 6 9 7 10 8 8 9 7 10 6 11 4 12
REMARK SMILES IDX 5 13 97 14 90 15 89 16 3 17 2 18 1 19 91 20 92 21 96 22
REMARK SMILES IDX 93 23 95 24 94 25 17 26 18 27 19 28 20 29 21 30 22 31 23 32
REMARK SMILES IDX 24 33 25 34 26 35 27 36 88 37 28 38 87 39 29 40 30 41 31 42
REMARK SMILES IDX 81 43 32 44 86 45 80 46 82 47 33 48 85 49 79 50 78 51 34 53
REMARK SMILES IDX 66 54 46 55 65 56 47 57 50 58 64 59 83 60 48 61 49 62 63 64
REMARK SMILES IDX 84 65 51 66 35 67 36 68 44 69 37 70 39 71 45 72 38 73 40 74
REMARK SMILES IDX 41 75 42 76 43 77 67 78 68 79 76 80 69 81 71 82 77 83 70 84
REMARK SMILES IDX 72 85 73 86 74 87 75 88 52 89 53 90 61 91 54 92 56 93 62 94
REMARK SMILES IDX 55 95 57 96 58 97 59 98 60 99
REMARK H PARENT 82 52 50 63
REMARK Flexibility Score: inf
ROOT
ATOM      1  C   UNL A   1      33.566  31.809  27.751  1.00  0.00     0.188 C 
ENDROOT
BRANCH   1   2
ATOM      2  C   UNL A   1      33.283  30.393  27.225  1.00  0.00     0.188 C 
BRANCH   2   3
ATOM      3  O   UNL A   1      32.286  30.168  26.247  1.00  0.00    -0.376 OA
BRANCH   3   4
ATOM      4  C   UNL A   1      32.412  29.153  25.275  1.00  0.00     0.202 C 
BRANCH   4   5
ATOM      5  C   UNL A   1      31.501  27.909  25.224  1.00  0.00     0.261 C 
BRANCH   5   6
ATOM      6  O   UNL A   1      31.852  26.769  26.042  1.00  0.00    -0.463 OA
BRANCH   6   7
ATOM      7  C   UNL A   1      31.539  25.542  25.564  1.00  0.00     0.316 C 
ATOM      8  O   UNL A   1      31.268  25.340  24.380  1.00  0.00    -0.251 OA
BRANCH   7   9
ATOM      9  C   UNL A   1      31.503  24.381  26.555  1.00  0.00     0.199 C 
BRANCH   9  10
ATOM     10  S   UNL A   1      30.977  22.701  26.052  1.00  0.00    -0.094 SA
BRANCH  10  11
ATOM     11  C   UNL A   1      32.380  21.877  25.241  1.00  0.00     0.101 A 
ATOM     12  C   UNL A   1      34.670  21.760  24.670  1.00  0.00     0.071 A 
ATOM     13  C   UNL A   1      33.544  22.537  24.903  1.00  0.00     0.062 A 
ATOM     14  N   UNL A   1      34.615  20.412  24.639  1.00  0.00    -0.231 NA
ATOM     15  C   UNL A   1      33.424  19.840  24.894  1.00  0.00     0.160 A 
ATOM     16  N   UNL A   1      32.298  20.522  25.190  1.00  0.00    -0.222 NA
BRANCH  12  17
ATOM     17  C   UNL A   1      36.044  22.382  24.537  1.00  0.00     0.215 C 
BRANCH  17  18
ATOM     18  O   UNL A   1      36.217  23.511  25.399  1.00  0.00    -0.378 OA
ATOM     19  C   UNL A   1      37.548  23.672  25.866  1.00  0.00     0.195 C 
ENDBRANCH  17  18
ENDBRANCH  12  17
BRANCH  15  20
ATOM     20  C   UNL A   1      33.401  18.368  24.853  1.00  0.00     0.022 A 
ATOM     21  C   UNL A   1      32.562  17.626  25.690  1.00  0.00     0.032 A 
ATOM     22  C   UNL A   1      34.151  17.644  23.914  1.00  0.00     0.032 A 
ATOM     23  C   UNL A   1      32.500  16.246  25.538  1.00  0.00     0.111 A 
ATOM     24  C   UNL A   1      34.029  16.264  23.835  1.00  0.00     0.111 A 
ATOM     25  N   UNL A   1      33.206  15.549  24.622  1.00  0.00    -0.265 NA
ENDBRANCH  15  20
ENDBRANCH  10  11
ENDBRANCH   9  10
ENDBRANCH   7   9
ENDBRANCH   6   7
ENDBRANCH   5   6
ENDBRANCH   4   5
ENDBRANCH   3   4
ENDBRANCH   2   3
ENDBRANCH   1   2
BRANCH   1  26
ATOM     26  O   UNL A   1      34.476  32.073  28.781  1.00  0.00    -0.377 OA
BRANCH  26  27
ATOM     27  C   UNL A   1      34.444  33.374  29.300  1.00  0.00     0.188 C 
BRANCH  27  28
ATOM     28  C   UNL A   1      34.370  33.319  30.821  1.00  0.00     0.188 C 
BRANCH  28  29
ATOM     29  O   UNL A   1      35.579  33.599  31.504  1.00  0.00    -0.376 OA
BRANCH  29  30
ATOM     30  C   UNL A   1      36.421  32.559  31.991  1.00  0.00     0.202 C 
BRANCH  30  31
ATOM     31  C   UNL A   1      37.166  31.471  31.187  1.00  0.00     0.261 C 
BRANCH  31  32
ATOM     32  O   UNL A   1      38.514  31.132  31.506  1.00  0.00    -0.460 OA
BRANCH  32  33
ATOM     33  C   UNL A   1      39.468  32.049  31.288  1.00  0.00     0.338 C 
ATOM     34  O   UNL A   1      39.382  33.257  31.434  1.00  0.00    -0.246 OA
BRANCH  33  35
ATOM     35  C   UNL A   1      40.717  31.297  31.062  1.00  0.00     0.060 A 
ATOM     36  C   UNL A   1      40.817  30.032  31.652  1.00  0.00     0.016 A 
ATOM     37  C   UNL A   1      41.736  31.783  30.234  1.00  0.00     0.016 A 
ATOM     38  C   UNL A   1      41.937  29.248  31.427  1.00  0.00     0.010 A 
ATOM     39  C   UNL A   1      42.891  31.014  30.053  1.00  0.00     0.010 A 
ATOM     40  C   UNL A   1      43.001  29.759  30.676  1.00  0.00    -0.014 A 
BRANCH  40  41
ATOM     41  C   UNL A   1      44.302  29.069  30.794  1.00  0.00     0.031 A 
ATOM     42  C   UNL A   1      45.091  29.301  32.053  1.00  0.00     0.074 A 
ATOM     43  C   UNL A   1      44.715  28.195  29.861  1.00  0.00     0.049 A 
ATOM     44  N   UNL A   1      46.216  28.762  32.434  1.00  0.00    -0.248 NA
ATOM     45  C   UNL A   1      44.525  30.259  33.022  1.00  0.00     0.031 C 
ATOM     46  C   UNL A   1      44.002  27.875  28.624  1.00  0.00     0.029 A 
ATOM     47  N   UNL A   1      45.846  27.421  29.808  1.00  0.00    -0.354 N 
ATOM     48  C   UNL A   1      46.510  29.339  33.663  1.00  0.00     0.074 A 
ATOM     49  C   UNL A   1      45.443  30.260  33.975  1.00  0.00     0.031 C 
ATOM     50  C   UNL A   1      44.732  26.994  27.917  1.00  0.00     0.029 A 
ATOM     51  C   UNL A   1      45.969  26.708  28.639  1.00  0.00     0.049 A 
ATOM     52  H   UNL A   1      46.506  27.380  30.537  1.00  0.00     0.167 HD
ATOM     53  C   UNL A   1      47.579  29.117  34.459  1.00  0.00     0.034 A 
ATOM     54  C   UNL A   1      46.986  25.941  28.200  1.00  0.00     0.034 A 
ATOM     55  C   UNL A   1      48.627  28.189  34.141  1.00  0.00     0.049 A 
ATOM     56  C   UNL A   1      48.180  25.739  29.100  1.00  0.00     0.074 A 
ATOM     57  C   UNL A   1      49.732  27.853  34.899  1.00  0.00     0.029 A 
ATOM     58  N   UNL A   1      48.711  27.472  32.959  1.00  0.00    -0.354 N 
ATOM     59  N   UNL A   1      48.388  26.196  30.313  1.00  0.00    -0.248 NA
ATOM     60  C   UNL A   1      49.266  24.890  28.590  1.00  0.00     0.031 C 
ATOM     61  C   UNL A   1      50.513  26.969  34.152  1.00  0.00     0.029 A 
ATOM     62  C   UNL A   1      49.864  26.712  32.954  1.00  0.00     0.049 A 
ATOM     63  H   UNL A   1      48.047  27.500  32.232  1.00  0.00     0.167 HD
ATOM     64  C   UNL A   1      49.602  25.658  30.722  1.00  0.00     0.074 A 
ATOM     65  C   UNL A   1      50.074  24.823  29.638  1.00  0.00     0.031 C 
ATOM     66  C   UNL A   1      50.278  25.844  31.883  1.00  0.00     0.034 A 
BRANCH  53  67
ATOM     67  C   UNL A   1      47.689  29.900  35.736  1.00  0.00     0.023 A 
ATOM     68  C   UNL A   1      48.299  31.170  35.742  1.00  0.00     0.012 A 
ATOM     69  C   UNL A   1      47.101  29.406  36.917  1.00  0.00     0.148 A 
ATOM     70  C   UNL A   1      48.330  31.933  36.910  1.00  0.00     0.002 A 
ATOM     71  C   UNL A   1      47.092  30.191  38.060  1.00  0.00     0.091 A 
ATOM     72  F   UNL A   1      46.552  28.183  36.890  1.00  0.00    -0.205 F 
ATOM     73  C   UNL A   1      47.715  31.450  38.062  1.00  0.00     0.022 A 
BRANCH  71  74
ATOM     74  S   UNL A   1      46.251  29.695  39.568  1.00  0.00     0.127 S 
ATOM     75  O   UNL A   1      47.130  30.255  40.595  1.00  0.00    -0.237 OA
ATOM     76  O   UNL A   1      44.962  30.373  39.432  1.00  0.00    -0.237 OA
ATOM     77  O   UNL A   1      46.186  28.241  39.537  1.00  0.00    -0.744 OA
ENDBRANCH  71  74
ENDBRANCH  53  67
BRANCH  54  78
ATOM     78  C   UNL A   1      46.942  25.317  26.846  1.00  0.00     0.023 A 
ATOM     79  C   UNL A   1      47.615  25.918  25.764  1.00  0.00     0.012 A 
ATOM     80  C   UNL A   1      46.199  24.141  26.618  1.00  0.00     0.148 A 
ATOM     81  C   UNL A   1      47.504  25.394  24.475  1.00  0.00     0.002 A 
ATOM     82  C   UNL A   1      46.143  23.589  25.343  1.00  0.00     0.091 A 
ATOM     83  F   UNL A   1      45.548  23.590  27.651  1.00  0.00    -0.205 F 
ATOM     84  C   UNL A   1      46.774  24.227  24.265  1.00  0.00     0.022 A 
BRANCH  82  85
ATOM     85  S   UNL A   1      45.336  22.019  25.014  1.00  0.00     0.127 S 
ATOM     86  O   UNL A   1      46.392  21.065  25.342  1.00  0.00    -0.237 OA
ATOM     87  O   UNL A   1      44.217  22.050  25.958  1.00  0.00    -0.237 OA
ATOM     88  O   UNL A   1      44.936  22.071  23.615  1.00  0.00    -0.744 OA
ENDBRANCH  82  85
ENDBRANCH  54  78
BRANCH  66  89
ATOM     89  C   UNL A   1      51.565  25.086  32.073  1.00  0.00     0.023 A 
ATOM     90  C   UNL A   1      52.796  25.683  31.739  1.00  0.00     0.012 A 
ATOM     91  C   UNL A   1      51.551  23.808  32.665  1.00  0.00     0.148 A 
ATOM     92  C   UNL A   1      53.993  25.002  31.954  1.00  0.00     0.002 A 
ATOM     93  C   UNL A   1      52.749  23.159  32.930  1.00  0.00     0.091 A 
ATOM     94  F   UNL A   1      50.367  23.254  32.963  1.00  0.00    -0.205 F 
ATOM     95  C   UNL A   1      53.970  23.747  32.560  1.00  0.00     0.022 A 
BRANCH  93  96
ATOM     96  S   UNL A   1      52.821  21.593  33.805  1.00  0.00     0.127 S 
ATOM     97  O   UNL A   1      54.056  21.740  34.574  1.00  0.00    -0.237 OA
ATOM     98  O   UNL A   1      51.597  21.629  34.604  1.00  0.00    -0.237 OA
ATOM     99  O   UNL A   1      52.846  20.558  32.780  1.00  0.00    -0.744 OA
ENDBRANCH  93  96
ENDBRANCH  66  89
ENDBRANCH  40  41
ENDBRANCH  33  35
ENDBRANCH  32  33
ENDBRANCH  31  32
ENDBRANCH  30  31
ENDBRANCH  29  30
ENDBRANCH  28  29
ENDBRANCH  27  28
ENDBRANCH  26  27
ENDBRANCH   1  26
TORSDOF 28
ENDMDL
MODEL 2
REMARK VINA RESULT:      -7.6      2.758      7.923
REMARK SMILES COCc1cc(SCC(=O)OCCOCCOCCOCCOC(=O)c2ccc(-c3c4nc(c(-c5cccc(S(=O)(=O)[O-])c5F)c5ccc([nH]5)c(-c5cccc(S(=O)(=O)[O-])c5F)c5nc(c(-c6cccc(S(=O)(=O)[O-])c6F)c6ccc3[nH]6)C=C5)C=C4)cc2)nc(-c2ccncc2)n1
REMARK SMILES IDX 16 1 15 2 14 3 13 4 12 5 11 6 9 7 10 8 8 9 7 10 6 11 4 12
REMARK SMILES IDX 5 13 97 14 90 15 89 16 3 17 2 18 1 19 91 20 92 21 96 22
REMARK SMILES IDX 93 23 95 24 94 25 17 26 18 27 19 28 20 29 21 30 22 31 23 32
REMARK SMILES IDX 24 33 25 34 26 35 27 36 88 37 28 38 87 39 29 40 30 41 31 42
REMARK SMILES IDX 81 43 32 44 86 45 80 46 82 47 33 48 85 49 79 50 78 51 34 53
REMARK SMILES IDX 66 54 46 55 65 56 47 57 50 58 64 59 83 60 48 61 49 62 63 64
REMARK SMILES IDX 84 65 51 66 35 67 36 68 44 69 37 70 39 71 45 72 38 73 40 74
REMARK SMILES IDX 41 75 42 76 43 77 67 78 68 79 76 80 69 81 71 82 77 83 70 84
REMARK SMILES IDX 72 85 73 86 74 87 75 88 52 89 53 90 61 91 54 92 56 93 62 94
REMARK SMILES IDX 55 95 57 96 58 97 59 98 60 99
REMARK H PARENT 82 52 50 63
REMARK Flexibility Score: inf
ROOT
ATOM      1  C   UNL A   1      35.788  30.112  27.838  1.00  0.00     0.188 C 
ENDROOT
BRANCH   1   2
ATOM      2  C   UNL A   1      34.621  29.463  27.075  1.00  0.00     0.188 C 
BRANCH   2   3
ATOM      3  O   UNL A   1      33.448  30.197  26.784  1.00  0.00    -0.376 OA
BRANCH   3   4
ATOM      4  C   UNL A   1      32.610  29.861  25.698  1.00  0.00     0.202 C 
BRANCH   4   5
ATOM      5  C   UNL A   1      31.510  28.783  25.776  1.00  0.00     0.261 C 
BRANCH   5   6
ATOM      6  O   UNL A   1      31.879  27.409  25.514  1.00  0.00    -0.463 OA
BRANCH   6   7
ATOM      7  C   UNL A   1      30.920  26.593  25.016  1.00  0.00     0.316 C 
ATOM      8  O   UNL A   1      30.470  26.717  23.876  1.00  0.00    -0.251 OA
BRANCH   7   9
ATOM      9  C   UNL A   1      30.374  25.499  25.928  1.00  0.00     0.199 C 
BRANCH   9  10
ATOM     10  S   UNL A   1      31.463  24.226  26.667  1.00  0.00    -0.094 SA
BRANCH  10  11
ATOM     11  C   UNL A   1      32.599  23.624  25.382  1.00  0.00     0.101 A 
ATOM     12  C   UNL A   1      33.388  23.603  23.155  1.00  0.00     0.071 A 
ATOM     13  C   UNL A   1      32.320  23.712  24.033  1.00  0.00     0.062 A 
ATOM     14  N   UNL A   1      34.632  23.291  23.577  1.00  0.00    -0.231 NA
ATOM     15  C   UNL A   1      34.811  23.137  24.902  1.00  0.00     0.160 A 
ATOM     16  N   UNL A   1      33.838  23.287  25.825  1.00  0.00    -0.222 NA
BRANCH  12  17
ATOM     17  C   UNL A   1      33.237  23.927  21.683  1.00  0.00     0.215 C 
BRANCH  17  18
ATOM     18  O   UNL A   1      32.422  25.082  21.461  1.00  0.00    -0.378 OA
ATOM     19  C   UNL A   1      33.126  26.308  21.594  1.00  0.00     0.195 C 
ENDBRANCH  17  18
ENDBRANCH  12  17
BRANCH  15  20
ATOM     20  C   UNL A   1      36.180  22.800  25.326  1.00  0.00     0.022 A 
ATOM     21  C   UNL A   1      36.742  21.549  25.054  1.00  0.00     0.032 A 
ATOM     22  C   UNL A   1      37.016  23.745  25.941  1.00  0.00     0.032 A 
ATOM     23  C   UNL A   1      38.073  21.318  25.381  1.00  0.00     0.111 A 
ATOM     24  C   UNL A   1      38.335  23.425  26.235  1.00  0.00     0.111 A 
ATOM     25  N   UNL A   1      38.885  22.231  25.955  1.00  0.00    -0.265 NA
ENDBRANCH  15  20
ENDBRANCH  10  11
ENDBRANCH   9  10
ENDBRANCH   7   9
ENDBRANCH   6   7
ENDBRANCH   5   6
ENDBRANCH   4   5
ENDBRANCH   3   4
ENDBRANCH   2   3
ENDBRANCH   1   2
BRANCH   1  26
ATOM     26  O   UNL A   1      36.767  29.371  28.509  1.00  0.00    -0.377 OA
BRANCH  26  27
ATOM     27  C   UNL A   1      38.076  29.859  28.402  1.00  0.00     0.188 C 
BRANCH  27  28
ATOM     28  C   UNL A   1      38.208  31.155  29.193  1.00  0.00     0.188 C 
BRANCH  28  29
ATOM     29  O   UNL A   1      37.936  31.058  30.579  1.00  0.00    -0.376 OA
BRANCH  29  30
ATOM     30  C   UNL A   1      36.823  31.719  31.171  1.00  0.00     0.202 C 
BRANCH  30  31
ATOM     31  C   UNL A   1      36.335  31.656  32.635  1.00  0.00     0.261 C 
BRANCH  31  32
ATOM     32  O   UNL A   1      37.270  31.533  33.704  1.00  0.00    -0.460 OA
BRANCH  32  33
ATOM     33  C   UNL A   1      38.293  32.398  33.756  1.00  0.00     0.338 C 
ATOM     34  O   UNL A   1      38.233  33.616  33.811  1.00  0.00    -0.246 OA
BRANCH  33  35
ATOM     35  C   UNL A   1      39.507  31.588  33.971  1.00  0.00     0.060 A 
ATOM     36  C   UNL A   1      40.740  32.218  33.769  1.00  0.00     0.016 A 
ATOM     37  C   UNL A   1      39.445  30.267  34.431  1.00  0.00     0.016 A 
ATOM     38  C   UNL A   1      41.919  31.532  34.015  1.00  0.00     0.010 A 
ATOM     39  C   UNL A   1      40.636  29.558  34.627  1.00  0.00     0.010 A 
ATOM     40  C   UNL A   1      41.871  30.184  34.388  1.00  0.00    -0.014 A 
BRANCH  40  41
ATOM     41  C   UNL A   1      43.117  29.403  34.253  1.00  0.00     0.031 A 
ATOM     42  C   UNL A   1      43.454  28.876  32.886  1.00  0.00     0.074 A 
ATOM     43  C   UNL A   1      43.963  29.256  35.288  1.00  0.00     0.049 A 
ATOM     44  N   UNL A   1      44.515  28.232  32.487  1.00  0.00    -0.248 NA
ATOM     45  C   UNL A   1      42.465  29.125  31.819  1.00  0.00     0.031 C 
ATOM     46  C   UNL A   1      43.743  29.762  36.642  1.00  0.00     0.029 A 
ATOM     47  N   UNL A   1      45.179  28.624  35.357  1.00  0.00    -0.354 N 
ATOM     48  C   UNL A   1      44.308  27.967  31.139  1.00  0.00     0.074 A 
ATOM     49  C   UNL A   1      43.028  28.529  30.780  1.00  0.00     0.031 C 
ATOM     50  C   UNL A   1      44.776  29.391  37.418  1.00  0.00     0.029 A 
ATOM     51  C   UNL A   1      45.716  28.604  36.622  1.00  0.00     0.049 A 
ATOM     52  H   UNL A   1      45.624  28.224  34.575  1.00  0.00     0.167 HD
ATOM     53  C   UNL A   1      45.118  27.312  30.279  1.00  0.00     0.034 A 
ATOM     54  C   UNL A   1      46.823  27.989  37.080  1.00  0.00     0.034 A 
ATOM     55  C   UNL A   1      46.394  26.768  30.648  1.00  0.00     0.049 A 
ATOM     56  C   UNL A   1      47.689  27.237  36.098  1.00  0.00     0.074 A 
ATOM     57  C   UNL A   1      47.315  26.125  29.844  1.00  0.00     0.029 A 
ATOM     58  N   UNL A   1      46.913  26.780  31.932  1.00  0.00    -0.354 N 
ATOM     59  N   UNL A   1      47.541  27.099  34.802  1.00  0.00    -0.248 NA
ATOM     60  C   UNL A   1      48.893  26.585  36.634  1.00  0.00     0.031 C 
ATOM     61  C   UNL A   1      48.372  25.704  30.653  1.00  0.00     0.029 A 
ATOM     62  C   UNL A   1      48.134  26.134  31.949  1.00  0.00     0.049 A 
ATOM     63  H   UNL A   1      46.477  27.190  32.715  1.00  0.00     0.167 HD
ATOM     64  C   UNL A   1      48.649  26.383  34.364  1.00  0.00     0.074 A 
ATOM     65  C   UNL A   1      49.471  26.135  35.529  1.00  0.00     0.031 C 
ATOM     66  C   UNL A   1      48.958  25.954  33.115  1.00  0.00     0.034 A 
BRANCH  53  67
ATOM     67  C   UNL A   1      44.647  27.121  28.865  1.00  0.00     0.023 A 
ATOM     68  C   UNL A   1      44.896  28.109  27.892  1.00  0.00     0.012 A 
ATOM     69  C   UNL A   1      44.034  25.911  28.486  1.00  0.00     0.148 A 
ATOM     70  C   UNL A   1      44.532  27.898  26.563  1.00  0.00     0.002 A 
ATOM     71  C   UNL A   1      43.720  25.689  27.153  1.00  0.00     0.091 A 
ATOM     72  F   UNL A   1      43.783  25.000  29.436  1.00  0.00    -0.205 F 
ATOM     73  C   UNL A   1      43.958  26.685  26.192  1.00  0.00     0.022 A 
BRANCH  71  74
ATOM     74  S   UNL A   1      43.058  24.127  26.562  1.00  0.00     0.127 S 
ATOM     75  O   UNL A   1      41.753  24.090  27.221  1.00  0.00    -0.237 OA
ATOM     76  O   UNL A   1      43.007  24.348  25.117  1.00  0.00    -0.237 OA
ATOM     77  O   UNL A   1      43.997  23.100  26.992  1.00  0.00    -0.744 OA
ENDBRANCH  71  74
ENDBRANCH  53  67
BRANCH  54  78
ATOM     78  C   UNL A   1      47.179  28.034  38.528  1.00  0.00     0.023 A 
ATOM     79  C   UNL A   1      46.674  27.062  39.413  1.00  0.00     0.012 A 
ATOM     80  C   UNL A   1      47.991  29.066  39.038  1.00  0.00     0.148 A 
ATOM     81  C   UNL A   1      46.925  27.148  40.784  1.00  0.00     0.002 A 
ATOM     82  C   UNL A   1      48.288  29.110  40.396  1.00  0.00     0.091 A 
ATOM     83  F   UNL A   1      48.449  29.995  38.188  1.00  0.00    -0.205 F 
ATOM     84  C   UNL A   1      47.737  28.167  41.275  1.00  0.00     0.022 A 
BRANCH  82  85
ATOM     85  S   UNL A   1      49.431  30.311  41.087  1.00  0.00     0.127 S 
ATOM     86  O   UNL A   1      50.649  30.036  40.330  1.00  0.00    -0.237 OA
ATOM     87  O   UNL A   1      48.774  31.577  40.761  1.00  0.00    -0.237 OA
ATOM     88  O   UNL A   1      49.489  30.020  42.513  1.00  0.00    -0.744 OA
ENDBRANCH  82  85
ENDBRANCH  54  78
BRANCH  66  89
ATOM     89  C   UNL A   1      50.265  25.231  32.926  1.00  0.00     0.023 A 
ATOM     90  C   UNL A   1      51.410  25.934  32.505  1.00  0.00     0.012 A 
ATOM     91  C   UNL A   1      50.369  23.865  33.253  1.00  0.00     0.148 A 
ATOM     92  C   UNL A   1      52.632  25.277  32.373  1.00  0.00     0.002 A 
ATOM     93  C   UNL A   1      51.602  23.231  33.174  1.00  0.00     0.091 A 
ATOM     94  F   UNL A   1      49.263  23.213  33.640  1.00  0.00    -0.205 F 
ATOM     95  C   UNL A   1      52.731  23.931  32.719  1.00  0.00     0.022 A 
BRANCH  93  96
ATOM     96  S   UNL A   1      51.844  21.532  33.702  1.00  0.00     0.127 S 
ATOM     97  O   UNL A   1      50.975  20.807  32.776  1.00  0.00    -0.237 OA
ATOM     98  O   UNL A   1      53.276  21.339  33.473  1.00  0.00    -0.237 OA
ATOM     99  O   UNL A   1      51.442  21.482  35.101  1.00  0.00    -0.744 OA
ENDBRANCH  93  96
ENDBRANCH  66  89
ENDBRANCH  40  41
ENDBRANCH  33  35
ENDBRANCH  32  33
ENDBRANCH  31  32
ENDBRANCH  30  31
ENDBRANCH  29  30
ENDBRANCH  28  29
ENDBRANCH  27  28
ENDBRANCH  26  27
ENDBRANCH   1  26
TORSDOF 28
ENDMDL
MODEL 3
REMARK VINA RESULT:      -7.6      2.914      3.590
REMARK SMILES COCc1cc(SCC(=O)OCCOCCOCCOCCOC(=O)c2ccc(-c3c4nc(c(-c5cccc(S(=O)(=O)[O-])c5F)c5ccc([nH]5)c(-c5cccc(S(=O)(=O)[O-])c5F)c5nc(c(-c6cccc(S(=O)(=O)[O-])c6F)c6ccc3[nH]6)C=C5)C=C4)cc2)nc(-c2ccncc2)n1
REMARK SMILES IDX 16 1 15 2 14 3 13 4 12 5 11 6 9 7 10 8 8 9 7 10 6 11 4 12
REMARK SMILES IDX 5 13 97 14 90 15 89 16 3 17 2 18 1 19 91 20 92 21 96 22
REMARK SMILES IDX 93 23 95 24 94 25 17 26 18 27 19 28 20 29 21 30 22 31 23 32
REMARK SMILES IDX 24 33 25 34 26 35 27 36 88 37 28 38 87 39 29 40 30 41 31 42
REMARK SMILES IDX 81 43 32 44 86 45 80 46 82 47 33 48 85 49 79 50 78 51 34 53
REMARK SMILES IDX 66 54 46 55 65 56 47 57 50 58 64 59 83 60 48 61 49 62 63 64
REMARK SMILES IDX 84 65 51 66 35 67 36 68 44 69 37 70 39 71 45 72 38 73 40 74
REMARK SMILES IDX 41 75 42 76 43 77 67 78 68 79 76 80 69 81 71 82 77 83 70 84
REMARK SMILES IDX 72 85 73 86 74 87 75 88 52 89 53 90 61 91 54 92 56 93 62 94
REMARK SMILES IDX 55 95 57 96 58 97 59 98 60 99
REMARK H PARENT 82 52 50 63
REMARK Flexibility Score: inf
ROOT
ATOM      1  C   UNL A   1      35.131  30.347  27.814  1.00  0.00     0.188 C 
ENDROOT
BRANCH   1   2
ATOM      2  C   UNL A   1      33.976  29.993  26.863  1.00  0.00     0.188 C 
BRANCH   2   3
ATOM      3  O   UNL A   1      32.833  30.820  26.770  1.00  0.00    -0.376 OA
BRANCH   3   4
ATOM      4  C   UNL A   1      31.732  30.480  25.954  1.00  0.00     0.202 C 
BRANCH   4   5
ATOM      5  C   UNL A   1      31.633  29.153  25.172  1.00  0.00     0.261 C 
BRANCH   5   6
ATOM      6  O   UNL A   1      31.418  29.215  23.743  1.00  0.00    -0.463 OA
BRANCH   6   7
ATOM      7  C   UNL A   1      31.321  28.040  23.078  1.00  0.00     0.316 C 
ATOM      8  O   UNL A   1      30.803  27.949  21.964  1.00  0.00    -0.251 OA
BRANCH   7   9
ATOM      9  C   UNL A   1      31.859  26.788  23.765  1.00  0.00     0.199 C 
BRANCH   9  10
ATOM     10  S   UNL A   1      33.644  26.383  23.769  1.00  0.00    -0.094 SA
BRANCH  10  11
ATOM     11  C   UNL A   1      33.965  25.209  25.119  1.00  0.00     0.101 A 
ATOM     12  C   UNL A   1      33.221  23.681  26.760  1.00  0.00     0.071 A 
ATOM     13  C   UNL A   1      33.007  24.850  26.045  1.00  0.00     0.062 A 
ATOM     14  N   UNL A   1      34.373  22.985  26.665  1.00  0.00    -0.231 NA
ATOM     15  C   UNL A   1      35.299  23.443  25.802  1.00  0.00     0.160 A 
ATOM     16  N   UNL A   1      35.141  24.536  25.025  1.00  0.00    -0.222 NA
BRANCH  12  17
ATOM     17  C   UNL A   1      32.131  23.067  27.615  1.00  0.00     0.215 C 
BRANCH  17  18
ATOM     18  O   UNL A   1      30.826  23.519  27.240  1.00  0.00    -0.378 OA
ATOM     19  C   UNL A   1      30.107  22.586  26.447  1.00  0.00     0.195 C 
ENDBRANCH  17  18
ENDBRANCH  12  17
BRANCH  15  20
ATOM     20  C   UNL A   1      36.542  22.658  25.722  1.00  0.00     0.022 A 
ATOM     21  C   UNL A   1      36.557  21.367  25.188  1.00  0.00     0.032 A 
ATOM     22  C   UNL A   1      37.782  23.200  26.094  1.00  0.00     0.032 A 
ATOM     23  C   UNL A   1      37.773  20.709  25.037  1.00  0.00     0.111 A 
ATOM     24  C   UNL A   1      38.948  22.469  25.910  1.00  0.00     0.111 A 
ATOM     25  N   UNL A   1      38.969  21.235  25.376  1.00  0.00    -0.265 NA
ENDBRANCH  15  20
ENDBRANCH  10  11
ENDBRANCH   9  10
ENDBRANCH   7   9
ENDBRANCH   6   7
ENDBRANCH   5   6
ENDBRANCH   4   5
ENDBRANCH   3   4
ENDBRANCH   2   3
ENDBRANCH   1   2
BRANCH   1  26
ATOM     26  O   UNL A   1      36.001  29.391  28.349  1.00  0.00    -0.377 OA
BRANCH  26  27
ATOM     27  C   UNL A   1      37.345  29.517  27.973  1.00  0.00     0.188 C 
BRANCH  27  28
ATOM     28  C   UNL A   1      38.068  30.436  28.950  1.00  0.00     0.188 C 
BRANCH  28  29
ATOM     29  O   UNL A   1      38.097  29.999  30.296  1.00  0.00    -0.376 OA
BRANCH  29  30
ATOM     30  C   UNL A   1      37.209  30.532  31.274  1.00  0.00     0.202 C 
BRANCH  30  31
ATOM     31  C   UNL A   1      37.007  30.077  32.736  1.00  0.00     0.261 C 
BRANCH  31  32
ATOM     32  O   UNL A   1      38.084  29.499  33.470  1.00  0.00    -0.460 OA
BRANCH  32  33
ATOM     33  C   UNL A   1      38.920  30.319  34.122  1.00  0.00     0.338 C 
ATOM     34  O   UNL A   1      38.645  31.098  35.019  1.00  0.00    -0.246 OA
BRANCH  33  35
ATOM     35  C   UNL A   1      40.282  29.930  33.710  1.00  0.00     0.060 A 
ATOM     36  C   UNL A   1      40.478  28.599  33.327  1.00  0.00     0.016 A 
ATOM     37  C   UNL A   1      41.327  30.859  33.629  1.00  0.00     0.016 A 
ATOM     38  C   UNL A   1      41.719  28.183  32.868  1.00  0.00     0.010 A 
ATOM     39  C   UNL A   1      42.593  30.426  33.220  1.00  0.00     0.010 A 
ATOM     40  C   UNL A   1      42.793  29.080  32.869  1.00  0.00    -0.014 A 
BRANCH  40  41
ATOM     41  C   UNL A   1      44.150  28.506  32.758  1.00  0.00     0.031 A 
ATOM     42  C   UNL A   1      45.005  28.522  33.994  1.00  0.00     0.074 A 
ATOM     43  C   UNL A   1      44.563  27.908  31.628  1.00  0.00     0.049 A 
ATOM     44  N   UNL A   1      46.194  28.019  34.182  1.00  0.00    -0.248 NA
ATOM     45  C   UNL A   1      44.436  29.179  35.186  1.00  0.00     0.031 C 
ATOM     46  C   UNL A   1      43.792  27.809  30.390  1.00  0.00     0.029 A 
ATOM     47  N   UNL A   1      45.746  27.275  31.340  1.00  0.00    -0.354 N 
ATOM     48  C   UNL A   1      46.528  28.329  35.495  1.00  0.00     0.074 A 
ATOM     49  C   UNL A   1      45.417  29.051  36.065  1.00  0.00     0.031 C 
ATOM     50  C   UNL A   1      44.537  27.183  29.462  1.00  0.00     0.029 A 
ATOM     51  C   UNL A   1      45.842  26.858  30.034  1.00  0.00     0.049 A 
ATOM     52  H   UNL A   1      46.458  27.133  32.006  1.00  0.00     0.167 HD
ATOM     53  C   UNL A   1      47.665  28.034  36.162  1.00  0.00     0.034 A 
ATOM     54  C   UNL A   1      46.882  26.309  29.378  1.00  0.00     0.034 A 
ATOM     55  C   UNL A   1      48.758  27.305  35.586  1.00  0.00     0.049 A 
ATOM     56  C   UNL A   1      48.150  26.022  30.145  1.00  0.00     0.074 A 
ATOM     57  C   UNL A   1      49.938  26.912  36.188  1.00  0.00     0.029 A 
ATOM     58  N   UNL A   1      48.815  26.883  34.267  1.00  0.00    -0.354 N 
ATOM     59  N   UNL A   1      48.406  26.212  31.418  1.00  0.00    -0.248 NA
ATOM     60  C   UNL A   1      49.260  25.415  29.397  1.00  0.00     0.031 C 
ATOM     61  C   UNL A   1      50.732  26.296  35.218  1.00  0.00     0.029 A 
ATOM     62  C   UNL A   1      50.022  26.255  34.028  1.00  0.00     0.049 A 
ATOM     63  H   UNL A   1      48.101  27.012  33.601  1.00  0.00     0.167 HD
ATOM     64  C   UNL A   1      49.686  25.711  31.630  1.00  0.00     0.074 A 
ATOM     65  C   UNL A   1      50.144  25.190  30.360  1.00  0.00     0.031 C 
ATOM     66  C   UNL A   1      50.426  25.694  32.766  1.00  0.00     0.034 A 
BRANCH  53  67
ATOM     67  C   UNL A   1      47.803  28.516  37.578  1.00  0.00     0.023 A 
ATOM     68  C   UNL A   1      47.417  27.691  38.653  1.00  0.00     0.012 A 
ATOM     69  C   UNL A   1      48.405  29.762  37.841  1.00  0.00     0.148 A 
ATOM     70  C   UNL A   1      47.619  28.105  39.969  1.00  0.00     0.002 A 
ATOM     71  C   UNL A   1      48.647  30.145  39.152  1.00  0.00     0.091 A 
ATOM     72  F   UNL A   1      48.736  30.540  36.801  1.00  0.00    -0.205 F 
ATOM     73  C   UNL A   1      48.246  29.323  40.217  1.00  0.00     0.022 A 
BRANCH  71  74
ATOM     74  S   UNL A   1      49.526  31.654  39.572  1.00  0.00     0.127 S 
ATOM     75  O   UNL A   1      49.522  31.602  41.034  1.00  0.00    -0.237 OA
ATOM     76  O   UNL A   1      50.833  31.423  38.957  1.00  0.00    -0.237 OA
ATOM     77  O   UNL A   1      48.759  32.747  38.991  1.00  0.00    -0.744 OA
ENDBRANCH  71  74
ENDBRANCH  53  67
BRANCH  54  78
ATOM     78  C   UNL A   1      46.791  26.004  27.920  1.00  0.00     0.023 A 
ATOM     79  C   UNL A   1      46.228  24.789  27.483  1.00  0.00     0.012 A 
ATOM     80  C   UNL A   1      47.299  26.905  26.963  1.00  0.00     0.148 A 
ATOM     81  C   UNL A   1      46.222  24.454  26.128  1.00  0.00     0.002 A 
ATOM     82  C   UNL A   1      47.233  26.592  25.610  1.00  0.00     0.091 A 
ATOM     83  F   UNL A   1      47.849  28.048  27.394  1.00  0.00    -0.205 F 
ATOM     84  C   UNL A   1      46.718  25.356  25.191  1.00  0.00     0.022 A 
BRANCH  82  85
ATOM     85  S   UNL A   1      47.728  27.754  24.334  1.00  0.00     0.127 S 
ATOM     86  O   UNL A   1      46.801  28.858  24.558  1.00  0.00    -0.237 OA
ATOM     87  O   UNL A   1      49.119  28.031  24.699  1.00  0.00    -0.237 OA
ATOM     88  O   UNL A   1      47.575  27.039  23.073  1.00  0.00    -0.744 OA
ENDBRANCH  82  85
ENDBRANCH  54  78
BRANCH  66  89
ATOM     89  C   UNL A   1      51.779  25.037  32.710  1.00  0.00     0.023 A 
ATOM     90  C   UNL A   1      52.941  25.818  32.557  1.00  0.00     0.012 A 
ATOM     91  C   UNL A   1      51.897  23.645  32.895  1.00  0.00     0.148 A 
ATOM     92  C   UNL A   1      54.199  25.217  32.549  1.00  0.00     0.002 A 
ATOM     93  C   UNL A   1      53.155  23.061  32.943  1.00  0.00     0.091 A 
ATOM     94  F   UNL A   1      50.776  22.920  33.025  1.00  0.00    -0.205 F 
ATOM     95  C   UNL A   1      54.307  23.843  32.754  1.00  0.00     0.022 A 
BRANCH  93  96
ATOM     96  S   UNL A   1      53.393  21.320  33.311  1.00  0.00     0.127 S 
ATOM     97  O   UNL A   1      52.115  20.970  33.928  1.00  0.00    -0.237 OA
ATOM     98  O   UNL A   1      53.604  20.749  31.980  1.00  0.00    -0.237 OA
ATOM     99  O   UNL A   1      54.551  21.247  34.191  1.00  0.00    -0.744 OA
ENDBRANCH  93  96
ENDBRANCH  66  89
ENDBRANCH  40  41
ENDBRANCH  33  35
ENDBRANCH  32  33
ENDBRANCH  31  32
ENDBRANCH  30  31
ENDBRANCH  29  30
ENDBRANCH  28  29
ENDBRANCH  27  28
ENDBRANCH  26  27
ENDBRANCH   1  26
TORSDOF 28
ENDMDL
