MODEL 1
REMARK VINA RESULT:      -7.6      0.000      0.000
REMARK SMILES CN(C)S(=O)(=O)c1cccc(-c2cc(Cl)cc(C(=O)OCCOCCOCCOCCOC(=O)c3ccc(-c4c5nc(c(-c6cccc(S(=O)(=O)[O-])c6F)c6ccc([nH]6)c(-c6cccc(S(=O)(=O)[O-])c6F)c6nc(c(-c7cccc(S(=O)(=O)[O-])c7F)c7ccc4[nH]7)C=C6)C=C5)cc3)c2)c1
REMARK SMILES IDX 26 1 25 2 24 3 23 4 22 5 21 6 20 7 18 8 19 9 17 10 12 11
REMARK SMILES IDX 13 12 98 13 14 14 15 15 16 16 11 17 7 18 8 19 99 20 9 21
REMARK SMILES IDX 10 22 4 23 5 24 6 25 2 26 1 27 3 28 27 29 28 30 29 31 30 32
REMARK SMILES IDX 31 33 32 34 33 35 34 36 35 37 36 38 97 39 37 40 96 41 38 42
REMARK SMILES IDX 39 43 40 44 90 45 41 46 95 47 89 48 91 49 42 50 94 51 88 52
REMARK SMILES IDX 87 53 43 55 75 56 55 57 74 58 56 59 59 60 73 61 92 62 57 63
REMARK SMILES IDX 58 64 72 66 93 67 60 68 44 69 45 70 53 71 46 72 48 73 54 74
REMARK SMILES IDX 47 75 49 76 50 77 51 78 52 79 76 80 77 81 85 82 78 83 80 84
REMARK SMILES IDX 86 85 79 86 81 87 82 88 83 89 84 90 61 91 62 92 70 93 63 94
REMARK SMILES IDX 65 95 71 96 64 97 66 98 67 99 68 100 69 101
REMARK H PARENT 91 54 59 65
REMARK Flexibility Score: inf
ROOT
ATOM      1  O   UNL A   1      48.488  24.822  28.345  1.00  0.00    -0.377 OA
ENDROOT
BRANCH   1   2
ATOM      2  C   UNL A   1      48.503  25.910  29.251  1.00  0.00     0.188 C 
BRANCH   2   3
ATOM      3  C   UNL A   1      47.670  25.743  30.536  1.00  0.00     0.188 C 
BRANCH   3   4
ATOM      4  O   UNL A   1      46.281  25.606  30.291  1.00  0.00    -0.376 OA
BRANCH   4   5
ATOM      5  C   UNL A   1      45.353  25.946  31.304  1.00  0.00     0.202 C 
BRANCH   5   6
ATOM      6  C   UNL A   1      44.529  24.864  32.019  1.00  0.00     0.261 C 
BRANCH   6   7
ATOM      7  O   UNL A   1      44.887  24.577  33.374  1.00  0.00    -0.460 OA
BRANCH   7   8
ATOM      8  C   UNL A   1      44.292  23.543  33.998  1.00  0.00     0.338 C 
ATOM      9  O   UNL A   1      43.113  23.234  33.957  1.00  0.00    -0.246 OA
BRANCH   8  10
ATOM     10  C   UNL A   1      45.377  22.694  34.548  1.00  0.00     0.062 A 
ATOM     11  C   UNL A   1      47.746  22.354  35.062  1.00  0.00    -0.016 A 
ATOM     12  C   UNL A   1      47.457  21.008  35.336  1.00  0.00     0.029 A 
ATOM     13  C   UNL A   1      46.687  23.180  34.641  1.00  0.00     0.024 A 
ATOM     14  C   UNL A   1      46.150  20.522  35.227  1.00  0.00     0.042 A 
ATOM     15  Cl  UNL A   1      45.836  18.857  35.535  1.00  0.00    -0.084 Cl
ATOM     16  C   UNL A   1      45.102  21.361  34.855  1.00  0.00     0.036 A 
BRANCH  11  17
ATOM     17  C   UNL A   1      49.097  22.917  35.238  1.00  0.00    -0.017 A 
ATOM     18  C   UNL A   1      51.499  22.555  35.456  1.00  0.00     0.083 A 
ATOM     19  C   UNL A   1      51.723  23.923  35.596  1.00  0.00     0.022 A 
ATOM     20  C   UNL A   1      50.207  22.058  35.263  1.00  0.00     0.030 A 
ATOM     21  C   UNL A   1      50.635  24.793  35.560  1.00  0.00     0.002 A 
ATOM     22  C   UNL A   1      49.335  24.295  35.388  1.00  0.00     0.009 A 
BRANCH  18  23
ATOM     23  S   UNL A   1      52.839  21.394  35.514  1.00  0.00     0.242 S 
ATOM     24  O   UNL A   1      52.298  20.096  35.854  1.00  0.00    -0.207 OA
ATOM     25  O   UNL A   1      53.872  22.005  36.326  1.00  0.00    -0.207 OA
BRANCH  23  26
ATOM     26  N   UNL A   1      53.373  21.355  33.892  1.00  0.00    -0.204 NA
ATOM     27  C   UNL A   1      52.526  20.508  33.015  1.00  0.00     0.124 C 
ATOM     28  C   UNL A   1      53.606  22.679  33.262  1.00  0.00     0.124 C 
ENDBRANCH  23  26
ENDBRANCH  18  23
ENDBRANCH  11  17
ENDBRANCH   8  10
ENDBRANCH   7   8
ENDBRANCH   6   7
ENDBRANCH   5   6
ENDBRANCH   4   5
ENDBRANCH   3   4
ENDBRANCH   2   3
ENDBRANCH   1   2
BRANCH   1  29
ATOM     29  C   UNL A   1      47.727  24.915  27.140  1.00  0.00     0.188 C 
BRANCH  29  30
ATOM     30  C   UNL A   1      46.386  24.168  26.928  1.00  0.00     0.188 C 
BRANCH  30  31
ATOM     31  O   UNL A   1      46.381  23.215  25.875  1.00  0.00    -0.376 OA
BRANCH  31  32
ATOM     32  C   UNL A   1      45.535  22.087  26.014  1.00  0.00     0.202 C 
BRANCH  32  33
ATOM     33  C   UNL A   1      44.094  22.279  25.524  1.00  0.00     0.261 C 
BRANCH  33  34
ATOM     34  O   UNL A   1      43.073  21.884  26.451  1.00  0.00    -0.460 OA
BRANCH  34  35
ATOM     35  C   UNL A   1      41.830  22.366  26.225  1.00  0.00     0.338 C 
ATOM     36  O   UNL A   1      40.882  21.760  25.759  1.00  0.00    -0.246 OA
BRANCH  35  37
ATOM     37  C   UNL A   1      41.748  23.713  26.822  1.00  0.00     0.060 A 
ATOM     38  C   UNL A   1      41.488  24.803  25.984  1.00  0.00     0.016 A 
ATOM     39  C   UNL A   1      41.930  23.900  28.195  1.00  0.00     0.016 A 
ATOM     40  C   UNL A   1      41.457  26.092  26.511  1.00  0.00     0.010 A 
ATOM     41  C   UNL A   1      41.913  25.195  28.719  1.00  0.00     0.010 A 
ATOM     42  C   UNL A   1      41.717  26.300  27.873  1.00  0.00    -0.014 A 
BRANCH  42  43
ATOM     43  C   UNL A   1      41.950  27.682  28.358  1.00  0.00     0.031 A 
ATOM     44  C   UNL A   1      43.357  28.215  28.375  1.00  0.00     0.074 A 
ATOM     45  C   UNL A   1      40.925  28.467  28.735  1.00  0.00     0.049 A 
ATOM     46  N   UNL A   1      43.786  29.406  28.700  1.00  0.00    -0.248 NA
ATOM     47  C   UNL A   1      44.422  27.281  27.970  1.00  0.00     0.031 C 
ATOM     48  C   UNL A   1      39.520  28.064  28.764  1.00  0.00     0.029 A 
ATOM     49  N   UNL A   1      40.914  29.766  29.175  1.00  0.00    -0.354 N 
ATOM     50  C   UNL A   1      45.169  29.361  28.560  1.00  0.00     0.074 A 
ATOM     51  C   UNL A   1      45.508  28.020  28.138  1.00  0.00     0.031 C 
ATOM     52  C   UNL A   1      38.783  29.093  29.219  1.00  0.00     0.029 A 
ATOM     53  C   UNL A   1      39.666  30.217  29.529  1.00  0.00     0.049 A 
ATOM     54  H   UNL A   1      41.725  30.321  29.233  1.00  0.00     0.167 HD
ATOM     55  C   UNL A   1      46.073  30.351  28.747  1.00  0.00     0.034 A 
ATOM     56  C   UNL A   1      39.282  31.398  30.055  1.00  0.00     0.034 A 
ATOM     57  C   UNL A   1      45.734  31.687  29.157  1.00  0.00     0.049 A 
ATOM     58  C   UNL A   1      40.311  32.478  30.269  1.00  0.00     0.074 A 
ATOM     59  C   UNL A   1      46.575  32.772  29.330  1.00  0.00     0.029 A 
ATOM     60  N   UNL A   1      44.456  32.117  29.479  1.00  0.00    -0.354 N 
ATOM     61  N   UNL A   1      41.597  32.460  30.009  1.00  0.00    -0.248 NA
ATOM     62  C   UNL A   1      39.828  33.757  30.810  1.00  0.00     0.031 C 
ATOM     63  C   UNL A   1      45.810  33.849  29.794  1.00  0.00     0.029 A 
ATOM     64  C   UNL A   1      44.486  33.447  29.866  1.00  0.00     0.049 A 
ATOM     65  H   UNL A   1      43.647  31.560  29.438  1.00  0.00     0.167 HD
ATOM     66  C   UNL A   1      42.069  33.731  30.323  1.00  0.00     0.074 A 
ATOM     67  C   UNL A   1      40.924  34.502  30.763  1.00  0.00     0.031 C 
ATOM     68  C   UNL A   1      43.335  34.215  30.266  1.00  0.00     0.034 A 
BRANCH  55  69
ATOM     69  C   UNL A   1      47.523  30.028  28.498  1.00  0.00     0.023 A 
ATOM     70  C   UNL A   1      48.057  30.149  27.198  1.00  0.00     0.012 A 
ATOM     71  C   UNL A   1      48.370  29.655  29.560  1.00  0.00     0.148 A 
ATOM     72  C   UNL A   1      49.403  29.875  26.955  1.00  0.00     0.002 A 
ATOM     73  C   UNL A   1      49.719  29.430  29.319  1.00  0.00     0.091 A 
ATOM     74  F   UNL A   1      47.838  29.522  30.783  1.00  0.00    -0.205 F 
ATOM     75  C   UNL A   1      50.235  29.527  28.016  1.00  0.00     0.022 A 
BRANCH  73  76
ATOM     76  S   UNL A   1      50.888  29.056  30.630  1.00  0.00     0.127 S 
ATOM     77  O   UNL A   1      52.088  28.716  29.866  1.00  0.00    -0.237 OA
ATOM     78  O   UNL A   1      50.962  30.330  31.346  1.00  0.00    -0.237 OA
ATOM     79  O   UNL A   1      50.303  27.961  31.392  1.00  0.00    -0.744 OA
ENDBRANCH  73  76
ENDBRANCH  55  69
BRANCH  56  80
ATOM     80  C   UNL A   1      37.847  31.633  30.390  1.00  0.00     0.023 A 
ATOM     81  C   UNL A   1      37.382  31.383  31.696  1.00  0.00     0.012 A 
ATOM     82  C   UNL A   1      36.946  32.111  29.420  1.00  0.00     0.148 A 
ATOM     83  C   UNL A   1      36.036  31.568  32.018  1.00  0.00     0.002 A 
ATOM     84  C   UNL A   1      35.621  32.355  29.763  1.00  0.00     0.091 A 
ATOM     85  F   UNL A   1      37.402  32.325  28.178  1.00  0.00    -0.205 F 
ATOM     86  C   UNL A   1      35.159  32.063  31.056  1.00  0.00     0.022 A 
BRANCH  84  87
ATOM     87  S   UNL A   1      34.462  33.125  28.627  1.00  0.00     0.127 S 
ATOM     88  O   UNL A   1      33.824  34.123  29.480  1.00  0.00    -0.237 OA
ATOM     89  O   UNL A   1      35.355  33.668  27.603  1.00  0.00    -0.237 OA
ATOM     90  O   UNL A   1      33.598  32.052  28.151  1.00  0.00    -0.744 OA
ENDBRANCH  84  87
ENDBRANCH  56  80
BRANCH  68  91
ATOM     91  C   UNL A   1      43.549  35.657  30.654  1.00  0.00     0.023 A 
ATOM     92  C   UNL A   1      43.873  35.990  31.985  1.00  0.00     0.012 A 
ATOM     93  C   UNL A   1      43.469  36.682  29.688  1.00  0.00     0.148 A 
ATOM     94  C   UNL A   1      44.061  37.321  32.359  1.00  0.00     0.002 A 
ATOM     95  C   UNL A   1      43.713  37.999  30.058  1.00  0.00     0.091 A 
ATOM     96  F   UNL A   1      43.145  36.352  28.430  1.00  0.00    -0.205 F 
ATOM     97  C   UNL A   1      43.991  38.323  31.394  1.00  0.00     0.022 A 
BRANCH  95  98
ATOM     98  S   UNL A   1      43.742  39.342  28.864  1.00  0.00     0.127 S 
ATOM     99  O   UNL A   1      44.144  38.646  27.643  1.00  0.00    -0.237 OA
ATOM    100  O   UNL A   1      42.352  39.800  28.877  1.00  0.00    -0.237 OA
ATOM    101  O   UNL A   1      44.700  40.312  29.377  1.00  0.00    -0.744 OA
ENDBRANCH  95  98
ENDBRANCH  68  91
ENDBRANCH  42  43
ENDBRANCH  35  37
ENDBRANCH  34  35
ENDBRANCH  33  34
ENDBRANCH  32  33
ENDBRANCH  31  32
ENDBRANCH  30  31
ENDBRANCH  29  30
ENDBRANCH   1  29
TORSDOF 26
ENDMDL
MODEL 2
REMARK VINA RESULT:      -7.6      1.623      2.054
REMARK SMILES CN(C)S(=O)(=O)c1cccc(-c2cc(Cl)cc(C(=O)OCCOCCOCCOCCOC(=O)c3ccc(-c4c5nc(c(-c6cccc(S(=O)(=O)[O-])c6F)c6ccc([nH]6)c(-c6cccc(S(=O)(=O)[O-])c6F)c6nc(c(-c7cccc(S(=O)(=O)[O-])c7F)c7ccc4[nH]7)C=C6)C=C5)cc3)c2)c1
REMARK SMILES IDX 26 1 25 2 24 3 23 4 22 5 21 6 20 7 18 8 19 9 17 10 12 11
REMARK SMILES IDX 13 12 98 13 14 14 15 15 16 16 11 17 7 18 8 19 99 20 9 21
REMARK SMILES IDX 10 22 4 23 5 24 6 25 2 26 1 27 3 28 27 29 28 30 29 31 30 32
REMARK SMILES IDX 31 33 32 34 33 35 34 36 35 37 36 38 97 39 37 40 96 41 38 42
REMARK SMILES IDX 39 43 40 44 90 45 41 46 95 47 89 48 91 49 42 50 94 51 88 52
REMARK SMILES IDX 87 53 43 55 75 56 55 57 74 58 56 59 59 60 73 61 92 62 57 63
REMARK SMILES IDX 58 64 72 66 93 67 60 68 44 69 45 70 53 71 46 72 48 73 54 74
REMARK SMILES IDX 47 75 49 76 50 77 51 78 52 79 76 80 77 81 85 82 78 83 80 84
REMARK SMILES IDX 86 85 79 86 81 87 82 88 83 89 84 90 61 91 62 92 70 93 63 94
REMARK SMILES IDX 65 95 71 96 64 97 66 98 67 99 68 100 69 101
REMARK H PARENT 91 54 59 65
REMARK Flexibility Score: inf
ROOT
ATOM      1  O   UNL A   1      48.475  24.800  28.335  1.00  0.00    -0.377 OA
ENDROOT
BRANCH   1   2
ATOM      2  C   UNL A   1      48.571  25.880  29.246  1.00  0.00     0.188 C 
BRANCH   2   3
ATOM      3  C   UNL A   1      47.967  25.652  30.645  1.00  0.00     0.188 C 
BRANCH   3   4
ATOM      4  O   UNL A   1      46.552  25.580  30.640  1.00  0.00    -0.376 OA
BRANCH   4   5
ATOM      5  C   UNL A   1      45.830  25.896  31.816  1.00  0.00     0.202 C 
BRANCH   5   6
ATOM      6  C   UNL A   1      45.017  24.824  32.558  1.00  0.00     0.261 C 
BRANCH   6   7
ATOM      7  O   UNL A   1      45.574  24.331  33.780  1.00  0.00    -0.460 OA
BRANCH   7   8
ATOM      8  C   UNL A   1      44.859  23.453  34.511  1.00  0.00     0.338 C 
ATOM      9  O   UNL A   1      43.666  23.495  34.758  1.00  0.00    -0.246 OA
BRANCH   8  10
ATOM     10  C   UNL A   1      45.740  22.286  34.758  1.00  0.00     0.062 A 
ATOM     11  C   UNL A   1      47.938  21.220  34.598  1.00  0.00    -0.016 A 
ATOM     12  C   UNL A   1      47.339  20.008  34.977  1.00  0.00     0.029 A 
ATOM     13  C   UNL A   1      47.109  22.349  34.468  1.00  0.00     0.024 A 
ATOM     14  C   UNL A   1      45.969  19.945  35.250  1.00  0.00     0.042 A 
ATOM     15  Cl  UNL A   1      45.258  18.435  35.678  1.00  0.00    -0.084 Cl
ATOM     16  C   UNL A   1      45.167  21.080  35.165  1.00  0.00     0.036 A 
BRANCH  11  17
ATOM     17  C   UNL A   1      49.391  21.339  34.373  1.00  0.00    -0.017 A 
ATOM     18  C   UNL A   1      51.308  22.728  33.791  1.00  0.00     0.083 A 
ATOM     19  C   UNL A   1      52.170  21.639  33.901  1.00  0.00     0.022 A 
ATOM     20  C   UNL A   1      49.940  22.586  34.039  1.00  0.00     0.030 A 
ATOM     21  C   UNL A   1      51.644  20.395  34.246  1.00  0.00     0.002 A 
ATOM     22  C   UNL A   1      50.269  20.245  34.474  1.00  0.00     0.009 A 
BRANCH  18  23
ATOM     23  S   UNL A   1      51.911  24.334  33.335  1.00  0.00     0.242 S 
ATOM     24  O   UNL A   1      50.774  25.166  33.004  1.00  0.00    -0.207 OA
ATOM     25  O   UNL A   1      52.975  24.112  32.378  1.00  0.00    -0.207 OA
BRANCH  23  26
ATOM     26  N   UNL A   1      52.598  24.904  34.791  1.00  0.00    -0.204 NA
ATOM     27  C   UNL A   1      53.071  26.308  34.708  1.00  0.00     0.124 C 
ATOM     28  C   UNL A   1      51.770  24.710  36.010  1.00  0.00     0.124 C 
ENDBRANCH  23  26
ENDBRANCH  18  23
ENDBRANCH  11  17
ENDBRANCH   8  10
ENDBRANCH   7   8
ENDBRANCH   6   7
ENDBRANCH   5   6
ENDBRANCH   4   5
ENDBRANCH   3   4
ENDBRANCH   2   3
ENDBRANCH   1   2
BRANCH   1  29
ATOM     29  C   UNL A   1      47.619  24.908  27.197  1.00  0.00     0.188 C 
BRANCH  29  30
ATOM     30  C   UNL A   1      46.301  24.105  27.053  1.00  0.00     0.188 C 
BRANCH  30  31
ATOM     31  O   UNL A   1      46.266  23.182  25.974  1.00  0.00    -0.376 OA
BRANCH  31  32
ATOM     32  C   UNL A   1      45.434  22.044  26.110  1.00  0.00     0.202 C 
BRANCH  32  33
ATOM     33  C   UNL A   1      43.988  22.223  25.627  1.00  0.00     0.261 C 
BRANCH  33  34
ATOM     34  O   UNL A   1      42.975  21.819  26.560  1.00  0.00    -0.460 OA
BRANCH  34  35
ATOM     35  C   UNL A   1      41.732  22.305  26.352  1.00  0.00     0.338 C 
ATOM     36  O   UNL A   1      40.773  21.700  25.905  1.00  0.00    -0.246 OA
BRANCH  35  37
ATOM     37  C   UNL A   1      41.665  23.656  26.943  1.00  0.00     0.060 A 
ATOM     38  C   UNL A   1      41.410  24.744  26.101  1.00  0.00     0.016 A 
ATOM     39  C   UNL A   1      41.857  23.847  28.314  1.00  0.00     0.016 A 
ATOM     40  C   UNL A   1      41.393  26.035  26.622  1.00  0.00     0.010 A 
ATOM     41  C   UNL A   1      41.855  25.145  28.832  1.00  0.00     0.010 A 
ATOM     42  C   UNL A   1      41.664  26.248  27.980  1.00  0.00    -0.014 A 
BRANCH  42  43
ATOM     43  C   UNL A   1      41.912  27.630  28.457  1.00  0.00     0.031 A 
ATOM     44  C   UNL A   1      43.327  28.139  28.494  1.00  0.00     0.074 A 
ATOM     45  C   UNL A   1      40.894  28.435  28.810  1.00  0.00     0.049 A 
ATOM     46  N   UNL A   1      43.771  29.326  28.815  1.00  0.00    -0.248 NA
ATOM     47  C   UNL A   1      44.383  27.184  28.114  1.00  0.00     0.031 C 
ATOM     48  C   UNL A   1      39.482  28.056  28.819  1.00  0.00     0.029 A 
ATOM     49  N   UNL A   1      40.898  29.738  29.238  1.00  0.00    -0.354 N 
ATOM     50  C   UNL A   1      45.155  29.256  28.698  1.00  0.00     0.074 A 
ATOM     51  C   UNL A   1      45.478  27.906  28.294  1.00  0.00     0.031 C 
ATOM     52  C   UNL A   1      38.756  29.102  29.252  1.00  0.00     0.029 A 
ATOM     53  C   UNL A   1      39.652  30.214  29.567  1.00  0.00     0.049 A 
ATOM     54  H   UNL A   1      41.717  30.280  29.305  1.00  0.00     0.167 HD
ATOM     55  C   UNL A   1      46.072  30.233  28.892  1.00  0.00     0.034 A 
ATOM     56  C   UNL A   1      39.279  31.406  30.076  1.00  0.00     0.034 A 
ATOM     57  C   UNL A   1      45.750  31.578  29.284  1.00  0.00     0.049 A 
ATOM     58  C   UNL A   1      40.323  32.470  30.298  1.00  0.00     0.074 A 
ATOM     59  C   UNL A   1      46.606  32.650  29.462  1.00  0.00     0.029 A 
ATOM     60  N   UNL A   1      44.474  32.032  29.581  1.00  0.00    -0.354 N 
ATOM     61  N   UNL A   1      41.613  32.428  30.060  1.00  0.00    -0.248 NA
ATOM     62  C   UNL A   1      39.853  33.762  30.819  1.00  0.00     0.031 C 
ATOM     63  C   UNL A   1      45.852  33.744  29.903  1.00  0.00     0.029 A 
ATOM     64  C   UNL A   1      44.520  33.365  29.956  1.00  0.00     0.049 A 
ATOM     65  H   UNL A   1      43.656  31.488  29.531  1.00  0.00     0.167 HD
ATOM     66  C   UNL A   1      42.100  33.694  30.370  1.00  0.00     0.074 A 
ATOM     67  C   UNL A   1      40.962  34.488  30.784  1.00  0.00     0.031 C 
ATOM     68  C   UNL A   1      43.375  34.156  30.330  1.00  0.00     0.034 A 
BRANCH  55  69
ATOM     69  C   UNL A   1      47.521  29.883  28.670  1.00  0.00     0.023 A 
ATOM     70  C   UNL A   1      48.077  29.977  27.378  1.00  0.00     0.012 A 
ATOM     71  C   UNL A   1      48.345  29.512  29.751  1.00  0.00     0.148 A 
ATOM     72  C   UNL A   1      49.422  29.678  27.159  1.00  0.00     0.002 A 
ATOM     73  C   UNL A   1      49.694  29.261  29.534  1.00  0.00     0.091 A 
ATOM     74  F   UNL A   1      47.791  29.404  30.967  1.00  0.00    -0.205 F 
ATOM     75  C   UNL A   1      50.232  29.332  28.238  1.00  0.00     0.022 A 
BRANCH  73  76
ATOM     76  S   UNL A   1      50.836  28.887  30.868  1.00  0.00     0.127 S 
ATOM     77  O   UNL A   1      51.054  27.453  30.676  1.00  0.00    -0.237 OA
ATOM     78  O   UNL A   1      51.985  29.728  30.532  1.00  0.00    -0.237 OA
ATOM     79  O   UNL A   1      50.152  29.254  32.100  1.00  0.00    -0.744 OA
ENDBRANCH  73  76
ENDBRANCH  55  69
BRANCH  56  80
ATOM     80  C   UNL A   1      37.843  31.668  30.385  1.00  0.00     0.023 A 
ATOM     81  C   UNL A   1      37.297  31.230  31.607  1.00  0.00     0.012 A 
ATOM     82  C   UNL A   1      37.020  32.357  29.473  1.00  0.00     0.148 A 
ATOM     83  C   UNL A   1      35.948  31.440  31.897  1.00  0.00     0.002 A 
ATOM     84  C   UNL A   1      35.694  32.620  29.796  1.00  0.00     0.091 A 
ATOM     85  F   UNL A   1      37.553  32.750  28.307  1.00  0.00    -0.205 F 
ATOM     86  C   UNL A   1      35.150  32.143  30.998  1.00  0.00     0.022 A 
BRANCH  84  87
ATOM     87  S   UNL A   1      34.639  33.640  28.760  1.00  0.00     0.127 S 
ATOM     88  O   UNL A   1      35.395  34.887  28.698  1.00  0.00    -0.237 OA
ATOM     89  O   UNL A   1      34.606  32.875  27.513  1.00  0.00    -0.237 OA
ATOM     90  O   UNL A   1      33.355  33.710  29.446  1.00  0.00    -0.744 OA
ENDBRANCH  84  87
ENDBRANCH  56  80
BRANCH  68  91
ATOM     91  C   UNL A   1      43.607  35.598  30.709  1.00  0.00     0.023 A 
ATOM     92  C   UNL A   1      43.826  36.566  29.709  1.00  0.00     0.012 A 
ATOM     93  C   UNL A   1      43.564  36.002  32.060  1.00  0.00     0.148 A 
ATOM     94  C   UNL A   1      44.054  37.900  30.047  1.00  0.00     0.002 A 
ATOM     95  C   UNL A   1      43.737  37.342  32.385  1.00  0.00     0.091 A 
ATOM     96  F   UNL A   1      43.370  35.068  33.002  1.00  0.00    -0.205 F 
ATOM     97  C   UNL A   1      43.999  38.289  31.384  1.00  0.00     0.022 A 
BRANCH  95  98
ATOM     98  S   UNL A   1      43.584  37.949  34.070  1.00  0.00     0.127 S 
ATOM     99  O   UNL A   1      42.650  36.985  34.649  1.00  0.00    -0.237 OA
ATOM    100  O   UNL A   1      44.956  37.843  34.565  1.00  0.00    -0.237 OA
ATOM    101  O   UNL A   1      43.087  39.314  33.959  1.00  0.00    -0.744 OA
ENDBRANCH  95  98
ENDBRANCH  68  91
ENDBRANCH  42  43
ENDBRANCH  35  37
ENDBRANCH  34  35
ENDBRANCH  33  34
ENDBRANCH  32  33
ENDBRANCH  31  32
ENDBRANCH  30  31
ENDBRANCH  29  30
ENDBRANCH   1  29
TORSDOF 26
ENDMDL
MODEL 3
REMARK VINA RESULT:      -7.2      5.632     13.221
REMARK SMILES CN(C)S(=O)(=O)c1cccc(-c2cc(Cl)cc(C(=O)OCCOCCOCCOCCOC(=O)c3ccc(-c4c5nc(c(-c6cccc(S(=O)(=O)[O-])c6F)c6ccc([nH]6)c(-c6cccc(S(=O)(=O)[O-])c6F)c6nc(c(-c7cccc(S(=O)(=O)[O-])c7F)c7ccc4[nH]7)C=C6)C=C5)cc3)c2)c1
REMARK SMILES IDX 26 1 25 2 24 3 23 4 22 5 21 6 20 7 18 8 19 9 17 10 12 11
REMARK SMILES IDX 13 12 98 13 14 14 15 15 16 16 11 17 7 18 8 19 99 20 9 21
REMARK SMILES IDX 10 22 4 23 5 24 6 25 2 26 1 27 3 28 27 29 28 30 29 31 30 32
REMARK SMILES IDX 31 33 32 34 33 35 34 36 35 37 36 38 97 39 37 40 96 41 38 42
REMARK SMILES IDX 39 43 40 44 90 45 41 46 95 47 89 48 91 49 42 50 94 51 88 52
REMARK SMILES IDX 87 53 43 55 75 56 55 57 74 58 56 59 59 60 73 61 92 62 57 63
REMARK SMILES IDX 58 64 72 66 93 67 60 68 44 69 45 70 53 71 46 72 48 73 54 74
REMARK SMILES IDX 47 75 49 76 50 77 51 78 52 79 76 80 77 81 85 82 78 83 80 84
REMARK SMILES IDX 86 85 79 86 81 87 82 88 83 89 84 90 61 91 62 92 70 93 63 94
REMARK SMILES IDX 65 95 71 96 64 97 66 98 67 99 68 100 69 101
REMARK H PARENT 91 54 59 65
REMARK Flexibility Score: inf
ROOT
ATOM      1  O   UNL A   1      50.792  37.569  26.388  1.00  0.00    -0.377 OA
ENDROOT
BRANCH   1   2
ATOM      2  C   UNL A   1      49.544  37.188  25.837  1.00  0.00     0.188 C 
BRANCH   2   3
ATOM      3  C   UNL A   1      49.524  35.879  25.025  1.00  0.00     0.188 C 
BRANCH   3   4
ATOM      4  O   UNL A   1      48.278  35.206  25.074  1.00  0.00    -0.376 OA
BRANCH   4   5
ATOM      5  C   UNL A   1      47.444  35.358  26.208  1.00  0.00     0.202 C 
BRANCH   5   6
ATOM      6  C   UNL A   1      45.995  35.848  26.065  1.00  0.00     0.261 C 
BRANCH   6   7
ATOM      7  O   UNL A   1      45.449  36.564  27.176  1.00  0.00    -0.460 OA
BRANCH   7   8
ATOM      8  C   UNL A   1      44.546  37.536  26.942  1.00  0.00     0.338 C 
ATOM      9  O   UNL A   1      43.343  37.408  26.792  1.00  0.00    -0.246 OA
BRANCH   8  10
ATOM     10  C   UNL A   1      45.247  38.828  27.146  1.00  0.00     0.062 A 
ATOM     11  C   UNL A   1      45.788  40.740  28.576  1.00  0.00    -0.016 A 
ATOM     12  C   UNL A   1      46.341  41.377  27.454  1.00  0.00     0.029 A 
ATOM     13  C   UNL A   1      45.218  39.467  28.393  1.00  0.00     0.024 A 
ATOM     14  C   UNL A   1      46.352  40.743  26.207  1.00  0.00     0.042 A 
ATOM     15  Cl  UNL A   1      47.006  41.567  24.842  1.00  0.00    -0.084 Cl
ATOM     16  C   UNL A   1      45.829  39.463  26.048  1.00  0.00     0.036 A 
BRANCH  11  17
ATOM     17  C   UNL A   1      45.824  41.348  29.919  1.00  0.00    -0.017 A 
ATOM     18  C   UNL A   1      44.920  42.964  31.504  1.00  0.00     0.083 A 
ATOM     19  C   UNL A   1      45.847  42.581  32.471  1.00  0.00     0.022 A 
ATOM     20  C   UNL A   1      44.896  42.347  30.251  1.00  0.00     0.030 A 
ATOM     21  C   UNL A   1      46.769  41.581  32.164  1.00  0.00     0.002 A 
ATOM     22  C   UNL A   1      46.760  40.975  30.899  1.00  0.00     0.009 A 
BRANCH  18  23
ATOM     23  S   UNL A   1      43.735  44.246  31.826  1.00  0.00     0.242 S 
ATOM     24  O   UNL A   1      43.247  44.739  30.556  1.00  0.00    -0.207 OA
ATOM     25  O   UNL A   1      44.352  45.139  32.785  1.00  0.00    -0.207 OA
BRANCH  23  26
ATOM     26  N   UNL A   1      42.471  43.401  32.604  1.00  0.00    -0.204 NA
ATOM     27  C   UNL A   1      42.177  42.083  31.987  1.00  0.00     0.124 C 
ATOM     28  C   UNL A   1      42.604  43.263  34.078  1.00  0.00     0.124 C 
ENDBRANCH  23  26
ENDBRANCH  18  23
ENDBRANCH  11  17
ENDBRANCH   8  10
ENDBRANCH   7   8
ENDBRANCH   6   7
ENDBRANCH   5   6
ENDBRANCH   4   5
ENDBRANCH   3   4
ENDBRANCH   2   3
ENDBRANCH   1   2
BRANCH   1  29
ATOM     29  C   UNL A   1      51.234  36.980  27.611  1.00  0.00     0.188 C 
BRANCH  29  30
ATOM     30  C   UNL A   1      50.284  36.231  28.579  1.00  0.00     0.188 C 
BRANCH  30  31
ATOM     31  O   UNL A   1      49.176  36.986  29.049  1.00  0.00    -0.376 OA
BRANCH  31  32
ATOM     32  C   UNL A   1      49.393  37.862  30.141  1.00  0.00     0.202 C 
BRANCH  32  33
ATOM     33  C   UNL A   1      48.862  37.373  31.495  1.00  0.00     0.261 C 
BRANCH  33  34
ATOM     34  O   UNL A   1      48.314  36.046  31.496  1.00  0.00    -0.460 OA
BRANCH  34  35
ATOM     35  C   UNL A   1      46.999  35.935  31.784  1.00  0.00     0.338 C 
ATOM     36  O   UNL A   1      46.292  36.772  32.317  1.00  0.00    -0.246 OA
BRANCH  35  37
ATOM     37  C   UNL A   1      46.499  34.692  31.166  1.00  0.00     0.060 A 
ATOM     38  C   UNL A   1      45.826  34.776  29.942  1.00  0.00     0.016 A 
ATOM     39  C   UNL A   1      46.688  33.456  31.790  1.00  0.00     0.016 A 
ATOM     40  C   UNL A   1      45.298  33.625  29.360  1.00  0.00     0.010 A 
ATOM     41  C   UNL A   1      46.143  32.306  31.213  1.00  0.00     0.010 A 
ATOM     42  C   UNL A   1      45.411  32.392  30.016  1.00  0.00    -0.014 A 
BRANCH  42  43
ATOM     43  C   UNL A   1      44.614  31.241  29.527  1.00  0.00     0.031 A 
ATOM     44  C   UNL A   1      45.272  30.241  28.615  1.00  0.00     0.074 A 
ATOM     45  C   UNL A   1      43.340  31.063  29.919  1.00  0.00     0.049 A 
ATOM     46  N   UNL A   1      44.788  29.133  28.117  1.00  0.00    -0.248 NA
ATOM     47  C   UNL A   1      46.660  30.526  28.215  1.00  0.00     0.031 C 
ATOM     48  C   UNL A   1      42.593  31.963  30.796  1.00  0.00     0.029 A 
ATOM     49  N   UNL A   1      42.448  30.064  29.620  1.00  0.00    -0.354 N 
ATOM     50  C   UNL A   1      45.802  28.600  27.329  1.00  0.00     0.074 A 
ATOM     51  C   UNL A   1      46.920  29.514  27.401  1.00  0.00     0.031 C 
ATOM     52  C   UNL A   1      41.346  31.483  30.949  1.00  0.00     0.029 A 
ATOM     53  C   UNL A   1      41.202  30.255  30.168  1.00  0.00     0.049 A 
ATOM     54  H   UNL A   1      42.679  29.286  29.064  1.00  0.00     0.167 HD
ATOM     55  C   UNL A   1      45.809  27.444  26.624  1.00  0.00     0.034 A 
ATOM     56  C   UNL A   1      40.073  29.530  30.041  1.00  0.00     0.034 A 
ATOM     57  C   UNL A   1      44.700  26.530  26.561  1.00  0.00     0.049 A 
ATOM     58  C   UNL A   1      40.103  28.255  29.237  1.00  0.00     0.074 A 
ATOM     59  C   UNL A   1      44.628  25.311  25.909  1.00  0.00     0.029 A 
ATOM     60  N   UNL A   1      43.464  26.742  27.151  1.00  0.00    -0.354 N 
ATOM     61  N   UNL A   1      41.109  27.699  28.603  1.00  0.00    -0.248 NA
ATOM     62  C   UNL A   1      38.853  27.486  29.165  1.00  0.00     0.031 C 
ATOM     63  C   UNL A   1      43.334  24.804  26.074  1.00  0.00     0.029 A 
ATOM     64  C   UNL A   1      42.615  25.685  26.866  1.00  0.00     0.049 A 
ATOM     65  H   UNL A   1      43.226  27.527  27.693  1.00  0.00     0.167 HD
ATOM     66  C   UNL A   1      40.621  26.502  28.087  1.00  0.00     0.074 A 
ATOM     67  C   UNL A   1      39.239  26.400  28.509  1.00  0.00     0.031 C 
ATOM     68  C   UNL A   1      41.253  25.576  27.323  1.00  0.00     0.034 A 
BRANCH  55  69
ATOM     69  C   UNL A   1      47.065  27.094  25.869  1.00  0.00     0.023 A 
ATOM     70  C   UNL A   1      47.174  27.413  24.500  1.00  0.00     0.012 A 
ATOM     71  C   UNL A   1      48.158  26.498  26.528  1.00  0.00     0.148 A 
ATOM     72  C   UNL A   1      48.338  27.116  23.791  1.00  0.00     0.002 A 
ATOM     73  C   UNL A   1      49.332  26.248  25.828  1.00  0.00     0.091 A 
ATOM     74  F   UNL A   1      48.026  26.180  27.824  1.00  0.00    -0.205 F 
ATOM     75  C   UNL A   1      49.420  26.545  24.457  1.00  0.00     0.022 A 
BRANCH  73  76
ATOM     76  S   UNL A   1      50.807  25.590  26.612  1.00  0.00     0.127 S 
ATOM     77  O   UNL A   1      51.656  25.312  25.455  1.00  0.00    -0.237 OA
ATOM     78  O   UNL A   1      51.246  26.720  27.433  1.00  0.00    -0.237 OA
ATOM     79  O   UNL A   1      50.376  24.421  27.366  1.00  0.00    -0.744 OA
ENDBRANCH  73  76
ENDBRANCH  55  69
BRANCH  56  80
ATOM     80  C   UNL A   1      38.821  29.976  30.718  1.00  0.00     0.023 A 
ATOM     81  C   UNL A   1      38.508  29.493  32.004  1.00  0.00     0.012 A 
ATOM     82  C   UNL A   1      37.944  30.882  30.094  1.00  0.00     0.148 A 
ATOM     83  C   UNL A   1      37.325  29.875  32.637  1.00  0.00     0.002 A 
ATOM     84  C   UNL A   1      36.799  31.310  30.757  1.00  0.00     0.091 A 
ATOM     85  F   UNL A   1      38.248  31.317  28.862  1.00  0.00    -0.205 F 
ATOM     86  C   UNL A   1      36.476  30.791  32.020  1.00  0.00     0.022 A 
BRANCH  84  87
ATOM     87  S   UNL A   1      35.729  32.592  30.094  1.00  0.00     0.127 S 
ATOM     88  O   UNL A   1      36.689  33.473  29.435  1.00  0.00    -0.237 OA
ATOM     89  O   UNL A   1      34.867  31.831  29.189  1.00  0.00    -0.237 OA
ATOM     90  O   UNL A   1      35.030  33.159  31.240  1.00  0.00    -0.744 OA
ENDBRANCH  84  87
ENDBRANCH  56  80
BRANCH  68  91
ATOM     91  C   UNL A   1      40.470  24.351  26.921  1.00  0.00     0.023 A 
ATOM     92  C   UNL A   1      39.195  24.488  26.336  1.00  0.00     0.012 A 
ATOM     93  C   UNL A   1      41.016  23.062  27.085  1.00  0.00     0.148 A 
ATOM     94  C   UNL A   1      38.455  23.363  25.971  1.00  0.00     0.002 A 
ATOM     95  C   UNL A   1      40.296  21.949  26.667  1.00  0.00     0.091 A 
ATOM     96  F   UNL A   1      42.224  22.946  27.657  1.00  0.00    -0.205 F 
ATOM     97  C   UNL A   1      39.010  22.095  26.127  1.00  0.00     0.022 A 
BRANCH  95  98
ATOM     98  S   UNL A   1      40.972  20.285  26.739  1.00  0.00     0.127 S 
ATOM     99  O   UNL A   1      40.959  20.020  28.177  1.00  0.00    -0.237 OA
ATOM    100  O   UNL A   1      39.993  19.518  25.968  1.00  0.00    -0.237 OA
ATOM    101  O   UNL A   1      42.292  20.364  26.128  1.00  0.00    -0.744 OA
ENDBRANCH  95  98
ENDBRANCH  68  91
ENDBRANCH  42  43
ENDBRANCH  35  37
ENDBRANCH  34  35
ENDBRANCH  33  34
ENDBRANCH  32  33
ENDBRANCH  31  32
ENDBRANCH  30  31
ENDBRANCH  29  30
ENDBRANCH   1  29
TORSDOF 26
ENDMDL
