MODEL 1
REMARK VINA RESULT:      -9.9      0.000      0.000
REMARK SMILES CCOc1ccc(-c2nc(C(=O)OCCOCCOCCOCCOC(=O)c3ccc(-c4c5nc(c(-c6cccc(S(=O)(=O)[O-])c6F)c6ccc([nH]6)c(-c6cccc(S(=O)(=O)[O-])c6F)c6nc(c(-c7cccc(S(=O)(=O)[O-])c7F)c7ccc4[nH]7)C=C6)C=C5)cc3)cc(=O)[nH]2)cc1
REMARK SMILES IDX 19 1 18 2 17 3 16 4 15 5 14 6 13 7 11 8 12 9 10 10 8 11 9 12
REMARK SMILES IDX 94 13 92 14 91 16 93 17 7 18 4 19 5 20 96 21 6 22 95 23 3 24
REMARK SMILES IDX 2 25 1 26 20 27 21 28 22 29 23 30 24 31 25 32 26 33 27 34
REMARK SMILES IDX 28 35 29 36 90 37 30 38 89 39 31 40 32 41 33 42 83 43 34 44
REMARK SMILES IDX 88 45 82 46 84 47 35 48 87 49 81 50 80 51 36 53 68 54 48 55
REMARK SMILES IDX 67 56 49 57 52 58 66 59 85 60 50 61 51 62 65 64 86 65 53 66
REMARK SMILES IDX 37 67 38 68 46 69 39 70 41 71 47 72 40 73 42 74 43 75 44 76
REMARK SMILES IDX 45 77 69 78 70 79 78 80 71 81 73 82 79 83 72 84 74 85 75 86
REMARK SMILES IDX 76 87 77 88 54 89 55 90 63 91 56 92 58 93 64 94 57 95 59 96
REMARK SMILES IDX 60 97 61 98 62 99
REMARK H PARENT 94 15 84 52 52 63
REMARK Flexibility Score: inf
ROOT
ATOM      1  O   UNL A   1      32.446  22.819  27.685  1.00  0.00    -0.377 OA
ENDROOT
BRANCH   1   2
ATOM      2  C   UNL A   1      31.841  23.549  26.632  1.00  0.00     0.188 C 
BRANCH   2   3
ATOM      3  C   UNL A   1      30.813  22.787  25.774  1.00  0.00     0.188 C 
BRANCH   3   4
ATOM      4  O   UNL A   1      31.251  21.497  25.385  1.00  0.00    -0.376 OA
BRANCH   4   5
ATOM      5  C   UNL A   1      32.324  21.354  24.471  1.00  0.00     0.202 C 
BRANCH   5   6
ATOM      6  C   UNL A   1      32.477  22.249  23.227  1.00  0.00     0.261 C 
BRANCH   6   7
ATOM      7  O   UNL A   1      33.277  23.423  23.373  1.00  0.00    -0.459 OA
BRANCH   7   8
ATOM      8  C   UNL A   1      32.978  24.495  22.600  1.00  0.00     0.357 C 
ATOM      9  O   UNL A   1      33.237  24.614  21.413  1.00  0.00    -0.244 OA
BRANCH   8  10
ATOM     10  C   UNL A   1      32.079  25.412  23.389  1.00  0.00     0.156 A 
ATOM     11  C   UNL A   1      31.901  27.184  24.814  1.00  0.00     0.141 A 
ATOM     12  N   UNL A   1      32.680  26.345  24.214  1.00  0.00    -0.223 NA
ATOM     13  N   UNL A   1      30.541  27.179  24.679  1.00  0.00    -0.306 N 
ATOM     14  C   UNL A   1      29.895  26.283  23.882  1.00  0.00     0.251 A 
ATOM     15  H   UNL A   1      30.011  27.846  25.173  1.00  0.00     0.171 HD
ATOM     16  C   UNL A   1      30.757  25.327  23.178  1.00  0.00     0.107 A 
ATOM     17  O   UNL A   1      28.678  26.279  23.759  1.00  0.00    -0.269 OA
BRANCH  11  18
ATOM     18  C   UNL A   1      32.449  28.222  25.700  1.00  0.00     0.018 A 
ATOM     19  C   UNL A   1      33.527  30.269  27.241  1.00  0.00     0.119 A 
ATOM     20  C   UNL A   1      34.333  29.202  26.842  1.00  0.00     0.047 A 
ATOM     21  C   UNL A   1      32.184  30.319  26.863  1.00  0.00     0.047 A 
ATOM     22  C   UNL A   1      33.793  28.166  26.077  1.00  0.00     0.016 A 
ATOM     23  C   UNL A   1      31.638  29.291  26.092  1.00  0.00     0.016 A 
BRANCH  19  24
ATOM     24  O   UNL A   1      34.131  31.332  27.853  1.00  0.00    -0.494 OA
BRANCH  24  25
ATOM     25  C   UNL A   1      35.557  31.240  27.906  1.00  0.00     0.226 C 
ATOM     26  C   UNL A   1      36.200  32.607  28.076  1.00  0.00     0.049 C 
ENDBRANCH  24  25
ENDBRANCH  19  24
ENDBRANCH  11  18
ENDBRANCH   8  10
ENDBRANCH   7   8
ENDBRANCH   6   7
ENDBRANCH   5   6
ENDBRANCH   4   5
ENDBRANCH   3   4
ENDBRANCH   2   3
ENDBRANCH   1   2
BRANCH   1  27
ATOM     27  C   UNL A   1      33.858  22.610  27.687  1.00  0.00     0.188 C 
BRANCH  27  28
ATOM     28  C   UNL A   1      34.545  21.469  26.893  1.00  0.00     0.188 C 
BRANCH  28  29
ATOM     29  O   UNL A   1      35.679  21.861  26.135  1.00  0.00    -0.376 OA
BRANCH  29  30
ATOM     30  C   UNL A   1      36.233  20.922  25.232  1.00  0.00     0.202 C 
BRANCH  30  31
ATOM     31  C   UNL A   1      37.747  20.999  25.001  1.00  0.00     0.261 C 
BRANCH  31  32
ATOM     32  O   UNL A   1      38.418  22.117  25.598  1.00  0.00    -0.460 OA
BRANCH  32  33
ATOM     33  C   UNL A   1      39.389  21.851  26.496  1.00  0.00     0.338 C 
ATOM     34  O   UNL A   1      39.864  20.757  26.762  1.00  0.00    -0.246 OA
BRANCH  33  35
ATOM     35  C   UNL A   1      39.920  23.142  26.974  1.00  0.00     0.060 A 
ATOM     36  C   UNL A   1      39.352  24.334  26.505  1.00  0.00     0.016 A 
ATOM     37  C   UNL A   1      40.966  23.171  27.900  1.00  0.00     0.016 A 
ATOM     38  C   UNL A   1      39.858  25.562  26.933  1.00  0.00     0.010 A 
ATOM     39  C   UNL A   1      41.481  24.400  28.315  1.00  0.00     0.010 A 
ATOM     40  C   UNL A   1      40.954  25.600  27.806  1.00  0.00    -0.014 A 
BRANCH  40  41
ATOM     41  C   UNL A   1      41.674  26.876  28.038  1.00  0.00     0.031 A 
ATOM     42  C   UNL A   1      43.071  27.014  27.496  1.00  0.00     0.074 A 
ATOM     43  C   UNL A   1      41.109  27.887  28.720  1.00  0.00     0.049 A 
ATOM     44  N   UNL A   1      43.911  28.009  27.606  1.00  0.00    -0.248 NA
ATOM     45  C   UNL A   1      43.591  25.869  26.729  1.00  0.00     0.031 C 
ATOM     46  C   UNL A   1      39.759  27.882  29.279  1.00  0.00     0.029 A 
ATOM     47  N   UNL A   1      41.619  29.111  29.078  1.00  0.00    -0.354 N 
ATOM     48  C   UNL A   1      45.068  27.600  26.955  1.00  0.00     0.074 A 
ATOM     49  C   UNL A   1      44.827  26.261  26.465  1.00  0.00     0.031 C 
ATOM     50  C   UNL A   1      39.552  29.042  29.927  1.00  0.00     0.029 A 
ATOM     51  C   UNL A   1      40.765  29.856  29.856  1.00  0.00     0.049 A 
ATOM     52  H   UNL A   1      42.510  29.424  28.804  1.00  0.00     0.167 HD
ATOM     53  C   UNL A   1      46.224  28.281  26.768  1.00  0.00     0.034 A 
ATOM     54  C   UNL A   1      40.953  31.048  30.457  1.00  0.00     0.034 A 
ATOM     55  C   UNL A   1      46.458  29.612  27.254  1.00  0.00     0.049 A 
ATOM     56  C   UNL A   1      42.269  31.763  30.282  1.00  0.00     0.074 A 
ATOM     57  C   UNL A   1      47.579  30.406  27.083  1.00  0.00     0.029 A 
ATOM     58  N   UNL A   1      45.567  30.341  28.027  1.00  0.00    -0.354 N 
ATOM     59  N   UNL A   1      43.315  31.413  29.572  1.00  0.00    -0.248 NA
ATOM     60  C   UNL A   1      42.420  33.054  30.970  1.00  0.00     0.031 C 
ATOM     61  C   UNL A   1      47.381  31.597  27.790  1.00  0.00     0.029 A 
ATOM     62  C   UNL A   1      46.118  31.566  28.359  1.00  0.00     0.049 A 
ATOM     63  H   UNL A   1      44.672  30.032  28.298  1.00  0.00     0.167 HD
ATOM     64  C   UNL A   1      44.226  32.458  29.689  1.00  0.00     0.074 A 
ATOM     65  C   UNL A   1      43.603  33.460  30.529  1.00  0.00     0.031 C 
ATOM     66  C   UNL A   1      45.468  32.576  29.157  1.00  0.00     0.034 A 
BRANCH  53  67
ATOM     67  C   UNL A   1      47.322  27.585  26.003  1.00  0.00     0.023 A 
ATOM     68  C   UNL A   1      47.309  27.590  24.593  1.00  0.00     0.012 A 
ATOM     69  C   UNL A   1      48.376  26.945  26.682  1.00  0.00     0.148 A 
ATOM     70  C   UNL A   1      48.303  26.928  23.871  1.00  0.00     0.002 A 
ATOM     71  C   UNL A   1      49.390  26.331  25.956  1.00  0.00     0.091 A 
ATOM     72  F   UNL A   1      48.360  26.931  28.022  1.00  0.00    -0.205 F 
ATOM     73  C   UNL A   1      49.346  26.307  24.553  1.00  0.00     0.022 A 
BRANCH  71  74
ATOM     74  S   UNL A   1      50.819  25.577  26.739  1.00  0.00     0.127 S 
ATOM     75  O   UNL A   1      51.303  26.668  27.583  1.00  0.00    -0.237 OA
ATOM     76  O   UNL A   1      50.216  24.462  27.470  1.00  0.00    -0.237 OA
ATOM     77  O   UNL A   1      51.709  25.183  25.656  1.00  0.00    -0.744 OA
ENDBRANCH  71  74
ENDBRANCH  53  67
BRANCH  54  78
ATOM     78  C   UNL A   1      39.855  31.668  31.253  1.00  0.00     0.023 A 
ATOM     79  C   UNL A   1      38.913  32.492  30.605  1.00  0.00     0.012 A 
ATOM     80  C   UNL A   1      39.736  31.449  32.639  1.00  0.00     0.148 A 
ATOM     81  C   UNL A   1      37.893  33.112  31.328  1.00  0.00     0.002 A 
ATOM     82  C   UNL A   1      38.685  32.026  33.343  1.00  0.00     0.091 A 
ATOM     83  F   UNL A   1      40.650  30.673  33.238  1.00  0.00    -0.205 F 
ATOM     84  C   UNL A   1      37.773  32.872  32.693  1.00  0.00     0.022 A 
BRANCH  82  85
ATOM     85  S   UNL A   1      38.379  31.684  35.080  1.00  0.00     0.127 S 
ATOM     86  O   UNL A   1      38.314  30.223  35.090  1.00  0.00    -0.237 OA
ATOM     87  O   UNL A   1      39.570  32.252  35.710  1.00  0.00    -0.237 OA
ATOM     88  O   UNL A   1      37.136  32.370  35.405  1.00  0.00    -0.744 OA
ENDBRANCH  82  85
ENDBRANCH  54  78
BRANCH  66  89
ATOM     89  C   UNL A   1      46.225  33.855  29.412  1.00  0.00     0.023 A 
ATOM     90  C   UNL A   1      46.992  34.004  30.586  1.00  0.00     0.012 A 
ATOM     91  C   UNL A   1      46.234  34.884  28.448  1.00  0.00     0.148 A 
ATOM     92  C   UNL A   1      47.724  35.171  30.812  1.00  0.00     0.002 A 
ATOM     93  C   UNL A   1      47.009  36.019  28.654  1.00  0.00     0.091 A 
ATOM     94  F   UNL A   1      45.489  34.732  27.345  1.00  0.00    -0.205 F 
ATOM     95  C   UNL A   1      47.742  36.171  29.843  1.00  0.00     0.022 A 
BRANCH  93  96
ATOM     96  S   UNL A   1      47.176  37.313  27.419  1.00  0.00     0.127 S 
ATOM     97  O   UNL A   1      47.700  36.568  26.276  1.00  0.00    -0.237 OA
ATOM     98  O   UNL A   1      45.796  37.773  27.266  1.00  0.00    -0.237 OA
ATOM     99  O   UNL A   1      48.085  38.299  27.989  1.00  0.00    -0.744 OA
ENDBRANCH  93  96
ENDBRANCH  66  89
ENDBRANCH  40  41
ENDBRANCH  33  35
ENDBRANCH  32  33
ENDBRANCH  31  32
ENDBRANCH  30  31
ENDBRANCH  29  30
ENDBRANCH  28  29
ENDBRANCH  27  28
ENDBRANCH   1  27
TORSDOF 26
ENDMDL
MODEL 2
REMARK VINA RESULT:      -9.8      2.012      8.526
REMARK SMILES CCOc1ccc(-c2nc(C(=O)OCCOCCOCCOCCOC(=O)c3ccc(-c4c5nc(c(-c6cccc(S(=O)(=O)[O-])c6F)c6ccc([nH]6)c(-c6cccc(S(=O)(=O)[O-])c6F)c6nc(c(-c7cccc(S(=O)(=O)[O-])c7F)c7ccc4[nH]7)C=C6)C=C5)cc3)cc(=O)[nH]2)cc1
REMARK SMILES IDX 19 1 18 2 17 3 16 4 15 5 14 6 13 7 11 8 12 9 10 10 8 11 9 12
REMARK SMILES IDX 94 13 92 14 91 16 93 17 7 18 4 19 5 20 96 21 6 22 95 23 3 24
REMARK SMILES IDX 2 25 1 26 20 27 21 28 22 29 23 30 24 31 25 32 26 33 27 34
REMARK SMILES IDX 28 35 29 36 90 37 30 38 89 39 31 40 32 41 33 42 83 43 34 44
REMARK SMILES IDX 88 45 82 46 84 47 35 48 87 49 81 50 80 51 36 53 68 54 48 55
REMARK SMILES IDX 67 56 49 57 52 58 66 59 85 60 50 61 51 62 65 64 86 65 53 66
REMARK SMILES IDX 37 67 38 68 46 69 39 70 41 71 47 72 40 73 42 74 43 75 44 76
REMARK SMILES IDX 45 77 69 78 70 79 78 80 71 81 73 82 79 83 72 84 74 85 75 86
REMARK SMILES IDX 76 87 77 88 54 89 55 90 63 91 56 92 58 93 64 94 57 95 59 96
REMARK SMILES IDX 60 97 61 98 62 99
REMARK H PARENT 94 15 84 52 52 63
REMARK Flexibility Score: inf
ROOT
ATOM      1  O   UNL A   1      32.608  25.004  22.607  1.00  0.00    -0.377 OA
ENDROOT
BRANCH   1   2
ATOM      2  C   UNL A   1      32.504  26.351  22.183  1.00  0.00     0.188 C 
BRANCH   2   3
ATOM      3  C   UNL A   1      31.218  27.099  22.586  1.00  0.00     0.188 C 
BRANCH   3   4
ATOM      4  O   UNL A   1      31.037  27.189  23.987  1.00  0.00    -0.376 OA
BRANCH   4   5
ATOM      5  C   UNL A   1      31.698  28.200  24.728  1.00  0.00     0.202 C 
BRANCH   5   6
ATOM      6  C   UNL A   1      32.054  28.036  26.217  1.00  0.00     0.261 C 
BRANCH   6   7
ATOM      7  O   UNL A   1      32.081  26.703  26.730  1.00  0.00    -0.459 OA
BRANCH   7   8
ATOM      8  C   UNL A   1      32.843  25.788  26.083  1.00  0.00     0.357 C 
ATOM      9  O   UNL A   1      33.985  25.961  25.688  1.00  0.00    -0.244 OA
BRANCH   8  10
ATOM     10  C   UNL A   1      32.133  24.460  26.134  1.00  0.00     0.156 A 
ATOM     11  C   UNL A   1      32.181  22.227  25.670  1.00  0.00     0.141 A 
ATOM     12  N   UNL A   1      32.756  23.377  25.541  1.00  0.00    -0.223 NA
ATOM     13  N   UNL A   1      31.006  22.044  26.345  1.00  0.00    -0.306 N 
ATOM     14  C   UNL A   1      30.348  23.073  26.947  1.00  0.00     0.251 A 
ATOM     15  H   UNL A   1      30.623  21.138  26.397  1.00  0.00     0.171 HD
ATOM     16  C   UNL A   1      30.986  24.388  26.827  1.00  0.00     0.107 A 
ATOM     17  O   UNL A   1      29.298  22.910  27.552  1.00  0.00    -0.269 OA
BRANCH  11  18
ATOM     18  C   UNL A   1      32.775  21.015  25.087  1.00  0.00     0.018 A 
ATOM     19  C   UNL A   1      33.824  18.638  24.099  1.00  0.00     0.119 A 
ATOM     20  C   UNL A   1      34.526  19.357  25.069  1.00  0.00     0.047 A 
ATOM     21  C   UNL A   1      32.594  19.101  23.630  1.00  0.00     0.047 A 
ATOM     22  C   UNL A   1      34.007  20.557  25.560  1.00  0.00     0.016 A 
ATOM     23  C   UNL A   1      32.066  20.297  24.120  1.00  0.00     0.016 A 
BRANCH  19  24
ATOM     24  O   UNL A   1      34.289  17.397  23.763  1.00  0.00    -0.494 OA
BRANCH  24  25
ATOM     25  C   UNL A   1      34.006  16.386  24.734  1.00  0.00     0.226 C 
ATOM     26  C   UNL A   1      35.280  15.786  25.305  1.00  0.00     0.049 C 
ENDBRANCH  24  25
ENDBRANCH  19  24
ENDBRANCH  11  18
ENDBRANCH   8  10
ENDBRANCH   7   8
ENDBRANCH   6   7
ENDBRANCH   5   6
ENDBRANCH   4   5
ENDBRANCH   3   4
ENDBRANCH   2   3
ENDBRANCH   1   2
BRANCH   1  27
ATOM     27  C   UNL A   1      33.493  24.111  21.931  1.00  0.00     0.188 C 
BRANCH  27  28
ATOM     28  C   UNL A   1      34.329  23.031  22.666  1.00  0.00     0.188 C 
BRANCH  28  29
ATOM     29  O   UNL A   1      35.389  23.531  23.466  1.00  0.00    -0.376 OA
BRANCH  29  30
ATOM     30  C   UNL A   1      36.684  22.999  23.262  1.00  0.00     0.202 C 
BRANCH  30  31
ATOM     31  C   UNL A   1      37.029  21.712  24.024  1.00  0.00     0.261 C 
BRANCH  31  32
ATOM     32  O   UNL A   1      37.310  21.867  25.422  1.00  0.00    -0.460 OA
BRANCH  32  33
ATOM     33  C   UNL A   1      38.522  21.468  25.858  1.00  0.00     0.338 C 
ATOM     34  O   UNL A   1      39.063  20.393  25.645  1.00  0.00    -0.246 OA
BRANCH  33  35
ATOM     35  C   UNL A   1      39.176  22.633  26.485  1.00  0.00     0.060 A 
ATOM     36  C   UNL A   1      38.645  23.913  26.277  1.00  0.00     0.016 A 
ATOM     37  C   UNL A   1      40.302  22.455  27.293  1.00  0.00     0.016 A 
ATOM     38  C   UNL A   1      39.265  25.025  26.848  1.00  0.00     0.010 A 
ATOM     39  C   UNL A   1      40.930  23.571  27.850  1.00  0.00     0.010 A 
ATOM     40  C   UNL A   1      40.436  24.863  27.600  1.00  0.00    -0.014 A 
BRANCH  40  41
ATOM     41  C   UNL A   1      41.253  26.046  27.964  1.00  0.00     0.031 A 
ATOM     42  C   UNL A   1      40.592  27.160  28.730  1.00  0.00     0.074 A 
ATOM     43  C   UNL A   1      42.549  26.137  27.618  1.00  0.00     0.049 A 
ATOM     44  N   UNL A   1      41.084  28.306  29.122  1.00  0.00    -0.248 NA
ATOM     45  C   UNL A   1      39.181  26.953  29.097  1.00  0.00     0.031 C 
ATOM     46  C   UNL A   1      43.307  25.120  26.893  1.00  0.00     0.029 A 
ATOM     47  N   UNL A   1      43.451  27.154  27.815  1.00  0.00    -0.354 N 
ATOM     48  C   UNL A   1      40.038  28.970  29.751  1.00  0.00     0.074 A 
ATOM     49  C   UNL A   1      38.881  28.106  29.675  1.00  0.00     0.031 C 
ATOM     50  C   UNL A   1      44.556  25.571  26.689  1.00  0.00     0.029 A 
ATOM     51  C   UNL A   1      44.678  26.920  27.240  1.00  0.00     0.049 A 
ATOM     52  H   UNL A   1      43.239  27.972  28.320  1.00  0.00     0.167 HD
ATOM     53  C   UNL A   1      40.042  30.184  30.350  1.00  0.00     0.034 A 
ATOM     54  C   UNL A   1      45.763  27.715  27.152  1.00  0.00     0.034 A 
ATOM     55  C   UNL A   1      41.194  31.038  30.427  1.00  0.00     0.049 A 
ATOM     56  C   UNL A   1      45.724  29.086  27.779  1.00  0.00     0.074 A 
ATOM     57  C   UNL A   1      41.314  32.269  31.048  1.00  0.00     0.029 A 
ATOM     58  N   UNL A   1      42.422  30.764  29.844  1.00  0.00    -0.354 N 
ATOM     59  N   UNL A   1      44.765  29.658  28.466  1.00  0.00    -0.248 NA
ATOM     60  C   UNL A   1      46.933  29.913  27.641  1.00  0.00     0.031 C 
ATOM     61  C   UNL A   1      42.601  32.758  30.802  1.00  0.00     0.029 A 
ATOM     62  C   UNL A   1      43.300  31.809  30.072  1.00  0.00     0.049 A 
ATOM     63  H   UNL A   1      42.639  29.944  29.344  1.00  0.00     0.167 HD
ATOM     64  C   UNL A   1      45.269  30.887  28.881  1.00  0.00     0.074 A 
ATOM     65  C   UNL A   1      46.625  30.971  28.379  1.00  0.00     0.031 C 
ATOM     66  C   UNL A   1      44.664  31.861  29.607  1.00  0.00     0.034 A 
BRANCH  53  67
ATOM     67  C   UNL A   1      38.750  30.654  30.970  1.00  0.00     0.023 A 
ATOM     68  C   UNL A   1      38.424  30.278  32.290  1.00  0.00     0.012 A 
ATOM     69  C   UNL A   1      37.869  31.485  30.252  1.00  0.00     0.148 A 
ATOM     70  C   UNL A   1      37.220  30.683  32.867  1.00  0.00     0.002 A 
ATOM     71  C   UNL A   1      36.696  31.926  30.851  1.00  0.00     0.091 A 
ATOM     72  F   UNL A   1      38.183  31.814  28.991  1.00  0.00    -0.205 F 
ATOM     73  C   UNL A   1      36.362  31.513  32.151  1.00  0.00     0.022 A 
BRANCH  71  74
ATOM     74  S   UNL A   1      35.565  33.063  30.044  1.00  0.00     0.127 S 
ATOM     75  O   UNL A   1      36.482  34.092  29.553  1.00  0.00    -0.237 OA
ATOM     76  O   UNL A   1      34.976  32.223  29.000  1.00  0.00    -0.237 OA
ATOM     77  O   UNL A   1      34.631  33.499  31.071  1.00  0.00    -0.744 OA
ENDBRANCH  71  74
ENDBRANCH  53  67
BRANCH  54  78
ATOM     78  C   UNL A   1      46.999  27.226  26.477  1.00  0.00     0.023 A 
ATOM     79  C   UNL A   1      47.169  27.456  25.097  1.00  0.00     0.012 A 
ATOM     80  C   UNL A   1      48.002  26.538  27.187  1.00  0.00     0.148 A 
ATOM     81  C   UNL A   1      48.300  26.983  24.431  1.00  0.00     0.002 A 
ATOM     82  C   UNL A   1      49.151  26.117  26.528  1.00  0.00     0.091 A 
ATOM     83  F   UNL A   1      47.814  26.317  28.495  1.00  0.00    -0.205 F 
ATOM     84  C   UNL A   1      49.294  26.322  25.146  1.00  0.00     0.022 A 
BRANCH  82  85
ATOM     85  S   UNL A   1      50.538  25.362  27.384  1.00  0.00     0.127 S 
ATOM     86  O   UNL A   1      49.908  24.198  28.004  1.00  0.00    -0.237 OA
ATOM     87  O   UNL A   1      51.441  25.056  26.275  1.00  0.00    -0.237 OA
ATOM     88  O   UNL A   1      51.032  26.374  28.306  1.00  0.00    -0.744 OA
ENDBRANCH  82  85
ENDBRANCH  54  78
BRANCH  66  89
ATOM     89  C   UNL A   1      45.473  33.084  29.956  1.00  0.00     0.023 A 
ATOM     90  C   UNL A   1      46.258  33.106  31.127  1.00  0.00     0.012 A 
ATOM     91  C   UNL A   1      45.511  34.189  29.081  1.00  0.00     0.148 A 
ATOM     92  C   UNL A   1      47.037  34.221  31.438  1.00  0.00     0.002 A 
ATOM     93  C   UNL A   1      46.332  35.272  29.369  1.00  0.00     0.091 A 
ATOM     94  F   UNL A   1      44.747  34.157  27.980  1.00  0.00    -0.205 F 
ATOM     95  C   UNL A   1      47.083  35.298  30.555  1.00  0.00     0.022 A 
BRANCH  93  96
ATOM     96  S   UNL A   1      46.534  36.658  28.243  1.00  0.00     0.127 S 
ATOM     97  O   UNL A   1      47.270  36.041  27.141  1.00  0.00    -0.237 OA
ATOM     98  O   UNL A   1      45.149  37.008  27.932  1.00  0.00    -0.237 OA
ATOM     99  O   UNL A   1      47.264  37.677  28.986  1.00  0.00    -0.744 OA
ENDBRANCH  93  96
ENDBRANCH  66  89
ENDBRANCH  40  41
ENDBRANCH  33  35
ENDBRANCH  32  33
ENDBRANCH  31  32
ENDBRANCH  30  31
ENDBRANCH  29  30
ENDBRANCH  28  29
ENDBRANCH  27  28
ENDBRANCH   1  27
TORSDOF 26
ENDMDL
MODEL 3
REMARK VINA RESULT:      -9.8      1.370      7.401
REMARK SMILES CCOc1ccc(-c2nc(C(=O)OCCOCCOCCOCCOC(=O)c3ccc(-c4c5nc(c(-c6cccc(S(=O)(=O)[O-])c6F)c6ccc([nH]6)c(-c6cccc(S(=O)(=O)[O-])c6F)c6nc(c(-c7cccc(S(=O)(=O)[O-])c7F)c7ccc4[nH]7)C=C6)C=C5)cc3)cc(=O)[nH]2)cc1
REMARK SMILES IDX 19 1 18 2 17 3 16 4 15 5 14 6 13 7 11 8 12 9 10 10 8 11 9 12
REMARK SMILES IDX 94 13 92 14 91 16 93 17 7 18 4 19 5 20 96 21 6 22 95 23 3 24
REMARK SMILES IDX 2 25 1 26 20 27 21 28 22 29 23 30 24 31 25 32 26 33 27 34
REMARK SMILES IDX 28 35 29 36 90 37 30 38 89 39 31 40 32 41 33 42 83 43 34 44
REMARK SMILES IDX 88 45 82 46 84 47 35 48 87 49 81 50 80 51 36 53 68 54 48 55
REMARK SMILES IDX 67 56 49 57 52 58 66 59 85 60 50 61 51 62 65 64 86 65 53 66
REMARK SMILES IDX 37 67 38 68 46 69 39 70 41 71 47 72 40 73 42 74 43 75 44 76
REMARK SMILES IDX 45 77 69 78 70 79 78 80 71 81 73 82 79 83 72 84 74 85 75 86
REMARK SMILES IDX 76 87 77 88 54 89 55 90 63 91 56 92 58 93 64 94 57 95 59 96
REMARK SMILES IDX 60 97 61 98 62 99
REMARK H PARENT 94 15 84 52 52 63
REMARK Flexibility Score: inf
ROOT
ATOM      1  O   UNL A   1      32.098  22.943  27.616  1.00  0.00    -0.377 OA
ENDROOT
BRANCH   1   2
ATOM      2  C   UNL A   1      31.784  23.769  26.509  1.00  0.00     0.188 C 
BRANCH   2   3
ATOM      3  C   UNL A   1      30.985  23.110  25.368  1.00  0.00     0.188 C 
BRANCH   3   4
ATOM      4  O   UNL A   1      31.539  21.881  24.932  1.00  0.00    -0.376 OA
BRANCH   4   5
ATOM      5  C   UNL A   1      32.551  21.866  23.941  1.00  0.00     0.202 C 
BRANCH   5   6
ATOM      6  C   UNL A   1      32.470  22.720  22.662  1.00  0.00     0.261 C 
BRANCH   6   7
ATOM      7  O   UNL A   1      33.363  23.831  22.570  1.00  0.00    -0.459 OA
BRANCH   7   8
ATOM      8  C   UNL A   1      32.910  24.962  21.979  1.00  0.00     0.357 C 
ATOM      9  O   UNL A   1      33.004  25.234  20.792  1.00  0.00    -0.244 OA
BRANCH   8  10
ATOM     10  C   UNL A   1      32.079  25.721  22.981  1.00  0.00     0.156 A 
ATOM     11  C   UNL A   1      32.009  27.271  24.652  1.00  0.00     0.141 A 
ATOM     12  N   UNL A   1      32.740  26.559  23.860  1.00  0.00    -0.223 NA
ATOM     13  N   UNL A   1      30.643  27.224  24.663  1.00  0.00    -0.306 N 
ATOM     14  C   UNL A   1      29.938  26.417  23.822  1.00  0.00     0.251 A 
ATOM     15  H   UNL A   1      30.152  27.792  25.301  1.00  0.00     0.171 HD
ATOM     16  C   UNL A   1      30.744  25.606  22.902  1.00  0.00     0.107 A 
ATOM     17  O   UNL A   1      28.716  26.375  23.830  1.00  0.00    -0.269 OA
BRANCH  11  18
ATOM     18  C   UNL A   1      32.621  28.202  25.612  1.00  0.00     0.018 A 
ATOM     19  C   UNL A   1      33.817  30.058  27.300  1.00  0.00     0.119 A 
ATOM     20  C   UNL A   1      34.578  29.020  26.760  1.00  0.00     0.047 A 
ATOM     21  C   UNL A   1      32.462  30.176  26.990  1.00  0.00     0.047 A 
ATOM     22  C   UNL A   1      33.978  28.079  25.919  1.00  0.00     0.016 A 
ATOM     23  C   UNL A   1      31.856  29.243  26.145  1.00  0.00     0.016 A 
BRANCH  19  24
ATOM     24  O   UNL A   1      34.475  31.040  27.988  1.00  0.00    -0.494 OA
BRANCH  24  25
ATOM     25  C   UNL A   1      35.880  30.813  28.127  1.00  0.00     0.226 C 
ATOM     26  C   UNL A   1      36.176  29.753  29.175  1.00  0.00     0.049 C 
ENDBRANCH  24  25
ENDBRANCH  19  24
ENDBRANCH  11  18
ENDBRANCH   8  10
ENDBRANCH   7   8
ENDBRANCH   6   7
ENDBRANCH   5   6
ENDBRANCH   4   5
ENDBRANCH   3   4
ENDBRANCH   2   3
ENDBRANCH   1   2
BRANCH   1  27
ATOM     27  C   UNL A   1      33.460  22.624  27.903  1.00  0.00     0.188 C 
BRANCH  27  28
ATOM     28  C   UNL A   1      34.217  21.458  27.218  1.00  0.00     0.188 C 
BRANCH  28  29
ATOM     29  O   UNL A   1      35.204  21.852  26.277  1.00  0.00    -0.376 OA
BRANCH  29  30
ATOM     30  C   UNL A   1      35.675  20.881  25.362  1.00  0.00     0.202 C 
BRANCH  30  31
ATOM     31  C   UNL A   1      37.188  20.850  25.108  1.00  0.00     0.261 C 
BRANCH  31  32
ATOM     32  O   UNL A   1      37.940  21.937  25.665  1.00  0.00    -0.460 OA
BRANCH  32  33
ATOM     33  C   UNL A   1      39.098  21.635  26.287  1.00  0.00     0.338 C 
ATOM     34  O   UNL A   1      39.644  20.542  26.334  1.00  0.00    -0.246 OA
BRANCH  33  35
ATOM     35  C   UNL A   1      39.701  22.901  26.747  1.00  0.00     0.060 A 
ATOM     36  C   UNL A   1      39.215  24.115  26.244  1.00  0.00     0.016 A 
ATOM     37  C   UNL A   1      40.734  22.886  27.687  1.00  0.00     0.016 A 
ATOM     38  C   UNL A   1      39.789  25.319  26.655  1.00  0.00     0.010 A 
ATOM     39  C   UNL A   1      41.318  24.090  28.085  1.00  0.00     0.010 A 
ATOM     40  C   UNL A   1      40.872  25.309  27.543  1.00  0.00    -0.014 A 
BRANCH  40  41
ATOM     41  C   UNL A   1      41.666  26.543  27.760  1.00  0.00     0.031 A 
ATOM     42  C   UNL A   1      41.084  27.618  28.637  1.00  0.00     0.074 A 
ATOM     43  C   UNL A   1      42.870  26.713  27.187  1.00  0.00     0.049 A 
ATOM     44  N   UNL A   1      41.566  28.795  28.940  1.00  0.00    -0.248 NA
ATOM     45  C   UNL A   1      39.778  27.326  29.251  1.00  0.00     0.031 C 
ATOM     46  C   UNL A   1      43.548  25.741  26.333  1.00  0.00     0.029 A 
ATOM     47  N   UNL A   1      43.727  27.786  27.223  1.00  0.00    -0.354 N 
ATOM     48  C   UNL A   1      40.610  29.396  29.749  1.00  0.00     0.074 A 
ATOM     49  C   UNL A   1      39.515  28.461  29.878  1.00  0.00     0.031 C 
ATOM     50  C   UNL A   1      44.709  26.268  25.909  1.00  0.00     0.029 A 
ATOM     51  C   UNL A   1      44.842  27.626  26.436  1.00  0.00     0.049 A 
ATOM     52  H   UNL A   1      43.558  28.592  27.762  1.00  0.00     0.167 HD
ATOM     53  C   UNL A   1      40.644  30.613  30.344  1.00  0.00     0.034 A 
ATOM     54  C   UNL A   1      45.841  28.487  26.158  1.00  0.00     0.034 A 
ATOM     55  C   UNL A   1      41.736  31.538  30.216  1.00  0.00     0.049 A 
ATOM     56  C   UNL A   1      45.830  29.857  26.788  1.00  0.00     0.074 A 
ATOM     57  C   UNL A   1      41.887  32.778  30.811  1.00  0.00     0.029 A 
ATOM     58  N   UNL A   1      42.854  31.337  29.421  1.00  0.00    -0.354 N 
ATOM     59  N   UNL A   1      44.975  30.372  27.639  1.00  0.00    -0.248 NA
ATOM     60  C   UNL A   1      46.940  30.757  26.439  1.00  0.00     0.031 C 
ATOM     61  C   UNL A   1      43.076  33.345  30.340  1.00  0.00     0.029 A 
ATOM     62  C   UNL A   1      43.690  32.438  29.492  1.00  0.00     0.049 A 
ATOM     63  H   UNL A   1      43.028  30.529  28.886  1.00  0.00     0.167 HD
ATOM     64  C   UNL A   1      45.467  31.633  27.963  1.00  0.00     0.074 A 
ATOM     65  C   UNL A   1      46.703  31.799  27.225  1.00  0.00     0.031 C 
ATOM     66  C   UNL A   1      44.942  32.572  28.790  1.00  0.00     0.034 A 
BRANCH  53  67
ATOM     67  C   UNL A   1      39.458  31.005  31.188  1.00  0.00     0.023 A 
ATOM     68  C   UNL A   1      39.320  30.488  32.494  1.00  0.00     0.012 A 
ATOM     69  C   UNL A   1      38.490  31.902  30.696  1.00  0.00     0.148 A 
ATOM     70  C   UNL A   1      38.214  30.820  33.276  1.00  0.00     0.002 A 
ATOM     71  C   UNL A   1      37.418  32.267  31.500  1.00  0.00     0.091 A 
ATOM     72  F   UNL A   1      38.625  32.365  29.445  1.00  0.00    -0.205 F 
ATOM     73  C   UNL A   1      37.269  31.715  32.783  1.00  0.00     0.022 A 
BRANCH  71  74
ATOM     74  S   UNL A   1      36.193  33.476  30.988  1.00  0.00     0.127 S 
ATOM     75  O   UNL A   1      36.744  33.931  29.711  1.00  0.00    -0.237 OA
ATOM     76  O   UNL A   1      34.984  32.660  30.874  1.00  0.00    -0.237 OA
ATOM     77  O   UNL A   1      36.152  34.479  32.042  1.00  0.00    -0.744 OA
ENDBRANCH  71  74
ENDBRANCH  53  67
BRANCH  54  78
ATOM     78  C   UNL A   1      46.964  28.072  25.269  1.00  0.00     0.023 A 
ATOM     79  C   UNL A   1      46.791  28.115  23.871  1.00  0.00     0.012 A 
ATOM     80  C   UNL A   1      48.196  27.638  25.795  1.00  0.00     0.148 A 
ATOM     81  C   UNL A   1      47.812  27.703  23.014  1.00  0.00     0.002 A 
ATOM     82  C   UNL A   1      49.228  27.280  24.934  1.00  0.00     0.091 A 
ATOM     83  F   UNL A   1      48.336  27.591  27.127  1.00  0.00    -0.205 F 
ATOM     84  C   UNL A   1      49.032  27.295  23.544  1.00  0.00     0.022 A 
BRANCH  82  85
ATOM     85  S   UNL A   1      50.872  26.852  25.517  1.00  0.00     0.127 S 
ATOM     86  O   UNL A   1      51.194  27.995  26.370  1.00  0.00    -0.237 OA
ATOM     87  O   UNL A   1      50.619  25.602  26.232  1.00  0.00    -0.237 OA
ATOM     88  O   UNL A   1      51.692  26.711  24.322  1.00  0.00    -0.744 OA
ENDBRANCH  82  85
ENDBRANCH  54  78
BRANCH  66  89
ATOM     89  C   UNL A   1      45.723  33.846  28.994  1.00  0.00     0.023 A 
ATOM     90  C   UNL A   1      46.703  33.924  30.003  1.00  0.00     0.012 A 
ATOM     91  C   UNL A   1      45.531  34.946  28.132  1.00  0.00     0.148 A 
ATOM     92  C   UNL A   1      47.454  35.088  30.175  1.00  0.00     0.002 A 
ATOM     93  C   UNL A   1      46.320  36.080  28.273  1.00  0.00     0.091 A 
ATOM     94  F   UNL A   1      44.585  34.859  27.187  1.00  0.00    -0.205 F 
ATOM     95  C   UNL A   1      47.271  36.160  29.304  1.00  0.00     0.022 A 
BRANCH  93  96
ATOM     96  S   UNL A   1      46.228  37.469  27.136  1.00  0.00     0.127 S 
ATOM     97  O   UNL A   1      46.831  36.907  25.929  1.00  0.00    -0.237 OA
ATOM     98  O   UNL A   1      44.786  37.700  27.048  1.00  0.00    -0.237 OA
ATOM     99  O   UNL A   1      46.978  38.551  27.760  1.00  0.00    -0.744 OA
ENDBRANCH  93  96
ENDBRANCH  66  89
ENDBRANCH  40  41
ENDBRANCH  33  35
ENDBRANCH  32  33
ENDBRANCH  31  32
ENDBRANCH  30  31
ENDBRANCH  29  30
ENDBRANCH  28  29
ENDBRANCH  27  28
ENDBRANCH   1  27
TORSDOF 26
ENDMDL
