MODEL 1
REMARK VINA RESULT:     -10.1      0.000      0.000
REMARK SMILES C[C@H](O)[C@H](C)[N@H+]1Cc2ccccc2C[C@@H]1C(=O)OCCOCCOCCOCCOC(=O)c1ccc(-c2c3nc(c(-c4cccc(S(=O)(=O)[O-])c4F)c4ccc([nH]4)c(-c4cccc(S(=O)(=O)[O-])c4F)c4nc(c(-c5cccc(S(=O)(=O)[O-])c5F)c5ccc2[nH]5)C=C4)C=C3)cc1
REMARK SMILES IDX 24 1 23 2 22 3 21 4 20 5 19 6 18 7 16 8 17 9 15 10 6 11 7 12
REMARK SMILES IDX 8 14 14 15 9 16 13 17 10 18 12 19 11 20 4 21 5 22 2 23 1 24
REMARK SMILES IDX 3 25 25 27 26 28 27 29 28 30 29 31 30 32 31 33 32 34 33 35
REMARK SMILES IDX 34 36 95 37 35 38 94 39 36 40 37 41 38 42 88 43 39 44 93 45
REMARK SMILES IDX 87 46 89 47 40 48 92 49 86 50 85 51 41 53 73 54 53 55 72 56
REMARK SMILES IDX 54 57 57 58 71 59 90 60 55 61 56 62 70 64 91 65 58 66 42 67
REMARK SMILES IDX 43 68 51 69 44 70 46 71 52 72 45 73 47 74 48 75 49 76 50 77
REMARK SMILES IDX 74 78 75 79 83 80 76 81 78 82 84 83 77 84 79 85 80 86 81 87
REMARK SMILES IDX 82 88 59 89 60 90 68 91 61 92 63 93 69 94 62 95 64 96 65 97
REMARK SMILES IDX 66 98 67 99
REMARK H PARENT 6 13 3 26 89 52 57 63
REMARK Flexibility Score: inf
ROOT
ATOM      1  O   UNL A   1      32.708  20.246  25.401  1.00  0.00    -0.377 OA
ENDROOT
BRANCH   1   2
ATOM      2  C   UNL A   1      32.277  20.647  24.112  1.00  0.00     0.188 C 
BRANCH   2   3
ATOM      3  C   UNL A   1      31.994  22.131  23.792  1.00  0.00     0.188 C 
BRANCH   3   4
ATOM      4  O   UNL A   1      33.026  22.784  23.071  1.00  0.00    -0.376 OA
BRANCH   4   5
ATOM      5  C   UNL A   1      32.634  23.615  21.990  1.00  0.00     0.202 C 
BRANCH   5   6
ATOM      6  C   UNL A   1      33.157  25.066  21.965  1.00  0.00     0.261 C 
BRANCH   6   7
ATOM      7  O   UNL A   1      32.304  26.054  21.349  1.00  0.00    -0.459 OA
BRANCH   7   8
ATOM      8  C   UNL A   1      32.152  27.217  22.037  1.00  0.00     0.365 C 
ATOM      9  O   UNL A   1      33.096  27.971  22.241  1.00  0.00    -0.245 OA
BRANCH   8  10
ATOM     10  C   UNL A   1      30.666  27.440  22.492  1.00  0.00     0.300 C 
ATOM     11  N   UNL A   1      30.401  28.869  22.913  1.00  0.00    -0.315 N 
ATOM     12  C   UNL A   1      30.647  29.144  24.341  1.00  0.00     0.300 C 
ATOM     13  H   UNL A   1      31.124  29.406  22.433  1.00  0.00     0.349 HD
ATOM     14  C   UNL A   1      31.444  28.102  25.088  1.00  0.00     0.010 A 
ATOM     15  C   UNL A   1      30.397  26.402  23.595  1.00  0.00     0.113 C 
ATOM     16  C   UNL A   1      32.384  28.469  26.056  1.00  0.00     0.010 A 
ATOM     17  C   UNL A   1      31.260  26.742  24.784  1.00  0.00    -0.033 A 
ATOM     18  C   UNL A   1      33.175  27.495  26.664  1.00  0.00     0.001 A 
ATOM     19  C   UNL A   1      32.039  25.766  25.414  1.00  0.00     0.004 A 
ATOM     20  C   UNL A   1      33.009  26.149  26.337  1.00  0.00     0.000 A 
BRANCH  11  21
ATOM     21  C   UNL A   1      29.109  29.422  22.402  1.00  0.00     0.210 C 
ATOM     22  C   UNL A   1      27.847  28.898  23.116  1.00  0.00     0.078 C 
BRANCH  21  23
ATOM     23  C   UNL A   1      29.040  30.991  22.261  1.00  0.00     0.169 C 
ATOM     24  C   UNL A   1      27.872  31.726  22.915  1.00  0.00     0.045 C 
BRANCH  23  25
ATOM     25  O   UNL A   1      29.076  31.363  20.874  1.00  0.00    -0.387 OA
ATOM     26  H   UNL A   1      29.979  31.268  20.536  1.00  0.00     0.211 HD
ENDBRANCH  23  25
ENDBRANCH  21  23
ENDBRANCH  11  21
ENDBRANCH   8  10
ENDBRANCH   7   8
ENDBRANCH   6   7
ENDBRANCH   5   6
ENDBRANCH   4   5
ENDBRANCH   3   4
ENDBRANCH   2   3
ENDBRANCH   1   2
BRANCH   1  27
ATOM     27  C   UNL A   1      33.945  20.718  25.905  1.00  0.00     0.188 C 
BRANCH  27  28
ATOM     28  C   UNL A   1      35.260  20.403  25.161  1.00  0.00     0.188 C 
BRANCH  28  29
ATOM     29  O   UNL A   1      35.768  21.456  24.357  1.00  0.00    -0.376 OA
BRANCH  29  30
ATOM     30  C   UNL A   1      37.159  21.713  24.381  1.00  0.00     0.202 C 
BRANCH  30  31
ATOM     31  C   UNL A   1      38.076  20.636  24.977  1.00  0.00     0.261 C 
BRANCH  31  32
ATOM     32  O   UNL A   1      38.568  20.887  26.298  1.00  0.00    -0.460 OA
BRANCH  32  33
ATOM     33  C   UNL A   1      39.907  20.916  26.466  1.00  0.00     0.338 C 
ATOM     34  O   UNL A   1      40.710  20.056  26.144  1.00  0.00    -0.246 OA
BRANCH  33  35
ATOM     35  C   UNL A   1      40.253  22.272  26.935  1.00  0.00     0.060 A 
ATOM     36  C   UNL A   1      39.537  23.371  26.438  1.00  0.00     0.016 A 
ATOM     37  C   UNL A   1      41.248  22.446  27.900  1.00  0.00     0.016 A 
ATOM     38  C   UNL A   1      39.828  24.653  26.898  1.00  0.00     0.010 A 
ATOM     39  C   UNL A   1      41.561  23.733  28.333  1.00  0.00     0.010 A 
ATOM     40  C   UNL A   1      40.874  24.842  27.809  1.00  0.00    -0.014 A 
BRANCH  40  41
ATOM     41  C   UNL A   1      41.409  26.203  28.031  1.00  0.00     0.031 A 
ATOM     42  C   UNL A   1      42.803  26.492  27.549  1.00  0.00     0.074 A 
ATOM     43  C   UNL A   1      40.685  27.155  28.644  1.00  0.00     0.049 A 
ATOM     44  N   UNL A   1      43.505  27.588  27.642  1.00  0.00    -0.248 NA
ATOM     45  C   UNL A   1      43.500  25.385  26.870  1.00  0.00     0.031 C 
ATOM     46  C   UNL A   1      39.318  26.998  29.134  1.00  0.00     0.029 A 
ATOM     47  N   UNL A   1      41.018  28.446  28.972  1.00  0.00    -0.354 N 
ATOM     48  C   UNL A   1      44.733  27.297  27.062  1.00  0.00     0.074 A 
ATOM     49  C   UNL A   1      44.688  25.916  26.635  1.00  0.00     0.031 C 
ATOM     50  C   UNL A   1      38.932  28.146  29.719  1.00  0.00     0.029 A 
ATOM     51  C   UNL A   1      40.034  29.107  29.668  1.00  0.00     0.049 A 
ATOM     52  H   UNL A   1      41.879  28.858  28.732  1.00  0.00     0.167 HD
ATOM     53  C   UNL A   1      45.801  28.110  26.884  1.00  0.00     0.034 A 
ATOM     54  C   UNL A   1      40.038  30.340  30.213  1.00  0.00     0.034 A 
ATOM     55  C   UNL A   1      45.842  29.480  27.314  1.00  0.00     0.049 A 
ATOM     56  C   UNL A   1      41.262  31.207  30.056  1.00  0.00     0.074 A 
ATOM     57  C   UNL A   1      46.860  30.402  27.156  1.00  0.00     0.029 A 
ATOM     58  N   UNL A   1      44.826  30.119  28.009  1.00  0.00    -0.354 N 
ATOM     59  N   UNL A   1      42.377  30.960  29.409  1.00  0.00    -0.248 NA
ATOM     60  C   UNL A   1      41.217  32.537  30.684  1.00  0.00     0.031 C 
ATOM     61  C   UNL A   1      46.474  31.588  27.792  1.00  0.00     0.029 A 
ATOM     62  C   UNL A   1      45.198  31.419  28.306  1.00  0.00     0.049 A 
ATOM     63  H   UNL A   1      43.965  29.708  28.256  1.00  0.00     0.167 HD
ATOM     64  C   UNL A   1      43.144  32.117  29.511  1.00  0.00     0.074 A 
ATOM     65  C   UNL A   1      42.361  33.068  30.274  1.00  0.00     0.031 C 
ATOM     66  C   UNL A   1      44.386  32.369  29.025  1.00  0.00     0.034 A 
BRANCH  53  67
ATOM     67  C   UNL A   1      47.006  27.523  26.198  1.00  0.00     0.023 A 
ATOM     68  C   UNL A   1      47.105  27.568  24.791  1.00  0.00     0.012 A 
ATOM     69  C   UNL A   1      48.042  26.928  26.943  1.00  0.00     0.148 A 
ATOM     70  C   UNL A   1      48.190  26.988  24.135  1.00  0.00     0.002 A 
ATOM     71  C   UNL A   1      49.145  26.397  26.285  1.00  0.00     0.091 A 
ATOM     72  F   UNL A   1      47.919  26.869  28.276  1.00  0.00    -0.205 F 
ATOM     73  C   UNL A   1      49.213  26.410  24.883  1.00  0.00     0.022 A 
BRANCH  71  74
ATOM     74  S   UNL A   1      50.550  25.705  27.164  1.00  0.00     0.127 S 
ATOM     75  O   UNL A   1      49.999  24.444  27.656  1.00  0.00    -0.237 OA
ATOM     76  O   UNL A   1      51.540  25.562  26.095  1.00  0.00    -0.237 OA
ATOM     77  O   UNL A   1      50.901  26.679  28.187  1.00  0.00    -0.744 OA
ENDBRANCH  71  74
ENDBRANCH  53  67
BRANCH  54  78
ATOM     78  C   UNL A   1      38.827  30.853  30.914  1.00  0.00     0.023 A 
ATOM     79  C   UNL A   1      38.648  30.561  32.281  1.00  0.00     0.012 A 
ATOM     80  C   UNL A   1      37.861  31.630  30.247  1.00  0.00     0.148 A 
ATOM     81  C   UNL A   1      37.515  31.009  32.963  1.00  0.00     0.002 A 
ATOM     82  C   UNL A   1      36.761  32.118  30.944  1.00  0.00     0.091 A 
ATOM     83  F   UNL A   1      38.043  31.886  28.943  1.00  0.00    -0.205 F 
ATOM     84  C   UNL A   1      36.578  31.793  32.297  1.00  0.00     0.022 A 
BRANCH  82  85
ATOM     85  S   UNL A   1      35.558  33.228  30.206  1.00  0.00     0.127 S 
ATOM     86  O   UNL A   1      34.703  32.299  29.472  1.00  0.00    -0.237 OA
ATOM     87  O   UNL A   1      34.943  33.829  31.390  1.00  0.00    -0.237 OA
ATOM     88  O   UNL A   1      36.324  34.156  29.387  1.00  0.00    -0.744 OA
ENDBRANCH  82  85
ENDBRANCH  54  78
BRANCH  66  89
ATOM     89  C   UNL A   1      44.964  33.743  29.252  1.00  0.00     0.023 A 
ATOM     90  C   UNL A   1      45.828  33.976  30.340  1.00  0.00     0.012 A 
ATOM     91  C   UNL A   1      44.710  34.784  28.336  1.00  0.00     0.148 A 
ATOM     92  C   UNL A   1      46.399  35.234  30.535  1.00  0.00     0.002 A 
ATOM     93  C   UNL A   1      45.327  36.019  28.505  1.00  0.00     0.091 A 
ATOM     94  F   UNL A   1      43.875  34.547  27.314  1.00  0.00    -0.205 F 
ATOM     95  C   UNL A   1      46.159  36.249  29.612  1.00  0.00     0.022 A 
BRANCH  93  96
ATOM     96  S   UNL A   1      45.159  37.352  27.314  1.00  0.00     0.127 S 
ATOM     97  O   UNL A   1      43.713  37.573  27.317  1.00  0.00    -0.237 OA
ATOM     98  O   UNL A   1      45.941  38.422  27.935  1.00  0.00    -0.237 OA
ATOM     99  O   UNL A   1      45.709  36.848  26.063  1.00  0.00    -0.744 OA
ENDBRANCH  93  96
ENDBRANCH  66  89
ENDBRANCH  40  41
ENDBRANCH  33  35
ENDBRANCH  32  33
ENDBRANCH  31  32
ENDBRANCH  30  31
ENDBRANCH  29  30
ENDBRANCH  28  29
ENDBRANCH  27  28
ENDBRANCH   1  27
TORSDOF 26
ENDMDL
MODEL 2
REMARK VINA RESULT:      -9.9      4.618     10.523
REMARK SMILES C[C@H](O)[C@H](C)[N@H+]1Cc2ccccc2C[C@@H]1C(=O)OCCOCCOCCOCCOC(=O)c1ccc(-c2c3nc(c(-c4cccc(S(=O)(=O)[O-])c4F)c4ccc([nH]4)c(-c4cccc(S(=O)(=O)[O-])c4F)c4nc(c(-c5cccc(S(=O)(=O)[O-])c5F)c5ccc2[nH]5)C=C4)C=C3)cc1
REMARK SMILES IDX 24 1 23 2 22 3 21 4 20 5 19 6 18 7 16 8 17 9 15 10 6 11 7 12
REMARK SMILES IDX 8 14 14 15 9 16 13 17 10 18 12 19 11 20 4 21 5 22 2 23 1 24
REMARK SMILES IDX 3 25 25 27 26 28 27 29 28 30 29 31 30 32 31 33 32 34 33 35
REMARK SMILES IDX 34 36 95 37 35 38 94 39 36 40 37 41 38 42 88 43 39 44 93 45
REMARK SMILES IDX 87 46 89 47 40 48 92 49 86 50 85 51 41 53 73 54 53 55 72 56
REMARK SMILES IDX 54 57 57 58 71 59 90 60 55 61 56 62 70 64 91 65 58 66 42 67
REMARK SMILES IDX 43 68 51 69 44 70 46 71 52 72 45 73 47 74 48 75 49 76 50 77
REMARK SMILES IDX 74 78 75 79 83 80 76 81 78 82 84 83 77 84 79 85 80 86 81 87
REMARK SMILES IDX 82 88 59 89 60 90 68 91 61 92 63 93 69 94 62 95 64 96 65 97
REMARK SMILES IDX 66 98 67 99
REMARK H PARENT 6 13 3 26 89 52 57 63
REMARK Flexibility Score: inf
ROOT
ATOM      1  O   UNL A   1      31.260  27.600  22.901  1.00  0.00    -0.377 OA
ENDROOT
BRANCH   1   2
ATOM      2  C   UNL A   1      30.433  26.466  23.098  1.00  0.00     0.188 C 
BRANCH   2   3
ATOM      3  C   UNL A   1      29.807  26.167  24.477  1.00  0.00     0.188 C 
BRANCH   3   4
ATOM      4  O   UNL A   1      30.316  25.007  25.116  1.00  0.00    -0.376 OA
BRANCH   4   5
ATOM      5  C   UNL A   1      31.617  25.094  25.673  1.00  0.00     0.202 C 
BRANCH   5   6
ATOM      6  C   UNL A   1      31.986  24.119  26.809  1.00  0.00     0.261 C 
BRANCH   6   7
ATOM      7  O   UNL A   1      33.350  23.649  26.846  1.00  0.00    -0.459 OA
BRANCH   7   8
ATOM      8  C   UNL A   1      33.516  22.304  26.744  1.00  0.00     0.365 C 
ATOM      9  O   UNL A   1      33.840  21.620  27.708  1.00  0.00    -0.245 OA
BRANCH   8  10
ATOM     10  C   UNL A   1      33.231  21.785  25.289  1.00  0.00     0.300 C 
ATOM     11  N   UNL A   1      33.477  20.299  25.149  1.00  0.00    -0.315 N 
ATOM     12  C   UNL A   1      34.856  19.937  24.770  1.00  0.00     0.300 C 
ATOM     13  H   UNL A   1      33.383  19.943  26.100  1.00  0.00     0.349 HD
ATOM     14  C   UNL A   1      35.890  21.026  24.920  1.00  0.00     0.010 A 
ATOM     15  C   UNL A   1      34.088  22.652  24.351  1.00  0.00     0.113 C 
ATOM     16  C   UNL A   1      37.181  20.737  25.371  1.00  0.00     0.010 A 
ATOM     17  C   UNL A   1      35.541  22.356  24.630  1.00  0.00    -0.033 A 
ATOM     18  C   UNL A   1      38.091  21.771  25.592  1.00  0.00     0.001 A 
ATOM     19  C   UNL A   1      36.463  23.388  24.831  1.00  0.00     0.004 A 
ATOM     20  C   UNL A   1      37.729  23.093  25.331  1.00  0.00     0.000 A 
BRANCH  11  21
ATOM     21  C   UNL A   1      32.424  19.582  24.365  1.00  0.00     0.210 C 
ATOM     22  C   UNL A   1      32.132  20.173  22.971  1.00  0.00     0.078 C 
BRANCH  21  23
ATOM     23  C   UNL A   1      32.585  18.016  24.267  1.00  0.00     0.169 C 
ATOM     24  C   UNL A   1      32.855  17.235  25.552  1.00  0.00     0.045 C 
BRANCH  23  25
ATOM     25  O   UNL A   1      33.615  17.685  23.323  1.00  0.00    -0.387 OA
ATOM     26  H   UNL A   1      33.741  16.723  23.306  1.00  0.00     0.211 HD
ENDBRANCH  23  25
ENDBRANCH  21  23
ENDBRANCH  11  21
ENDBRANCH   8  10
ENDBRANCH   7   8
ENDBRANCH   6   7
ENDBRANCH   5   6
ENDBRANCH   4   5
ENDBRANCH   3   4
ENDBRANCH   2   3
ENDBRANCH   1   2
BRANCH   1  27
ATOM     27  C   UNL A   1      30.681  28.832  22.513  1.00  0.00     0.188 C 
BRANCH  27  28
ATOM     28  C   UNL A   1      30.097  29.787  23.576  1.00  0.00     0.188 C 
BRANCH  28  29
ATOM     29  O   UNL A   1      30.742  29.754  24.839  1.00  0.00    -0.376 OA
BRANCH  29  30
ATOM     30  C   UNL A   1      31.024  30.980  25.486  1.00  0.00     0.202 C 
BRANCH  30  31
ATOM     31  C   UNL A   1      31.885  30.939  26.756  1.00  0.00     0.261 C 
BRANCH  31  32
ATOM     32  O   UNL A   1      33.260  31.300  26.597  1.00  0.00    -0.460 OA
BRANCH  32  33
ATOM     33  C   UNL A   1      33.787  32.153  27.501  1.00  0.00     0.338 C 
ATOM     34  O   UNL A   1      33.249  33.134  27.991  1.00  0.00    -0.246 OA
BRANCH  33  35
ATOM     35  C   UNL A   1      35.068  31.573  27.946  1.00  0.00     0.060 A 
ATOM     36  C   UNL A   1      35.187  30.180  28.056  1.00  0.00     0.016 A 
ATOM     37  C   UNL A   1      36.161  32.404  28.203  1.00  0.00     0.016 A 
ATOM     38  C   UNL A   1      36.401  29.615  28.440  1.00  0.00     0.010 A 
ATOM     39  C   UNL A   1      37.365  31.839  28.621  1.00  0.00     0.010 A 
ATOM     40  C   UNL A   1      37.478  30.446  28.771  1.00  0.00    -0.014 A 
BRANCH  40  41
ATOM     41  C   UNL A   1      38.635  29.882  29.500  1.00  0.00     0.031 A 
ATOM     42  C   UNL A   1      38.806  30.269  30.943  1.00  0.00     0.074 A 
ATOM     43  C   UNL A   1      39.510  29.055  28.905  1.00  0.00     0.049 A 
ATOM     44  N   UNL A   1      39.742  29.933  31.788  1.00  0.00    -0.248 NA
ATOM     45  C   UNL A   1      37.777  31.162  31.504  1.00  0.00     0.031 C 
ATOM     46  C   UNL A   1      39.435  28.594  27.520  1.00  0.00     0.029 A 
ATOM     47  N   UNL A   1      40.651  28.471  29.396  1.00  0.00    -0.354 N 
ATOM     48  C   UNL A   1      39.432  30.594  32.971  1.00  0.00     0.074 A 
ATOM     49  C   UNL A   1      38.233  31.364  32.729  1.00  0.00     0.031 C 
ATOM     50  C   UNL A   1      40.497  27.809  27.266  1.00  0.00     0.029 A 
ATOM     51  C   UNL A   1      41.339  27.737  28.460  1.00  0.00     0.049 A 
ATOM     52  H   UNL A   1      40.948  28.569  30.330  1.00  0.00     0.167 HD
ATOM     53  C   UNL A   1      40.080  30.552  34.159  1.00  0.00     0.034 A 
ATOM     54  C   UNL A   1      42.521  27.097  28.560  1.00  0.00     0.034 A 
ATOM     55  C   UNL A   1      41.273  29.789  34.392  1.00  0.00     0.049 A 
ATOM     56  C   UNL A   1      43.257  27.115  29.877  1.00  0.00     0.074 A 
ATOM     57  C   UNL A   1      41.992  29.650  35.566  1.00  0.00     0.029 A 
ATOM     58  N   UNL A   1      41.939  29.051  33.424  1.00  0.00    -0.354 N 
ATOM     59  N   UNL A   1      42.899  27.652  31.019  1.00  0.00    -0.248 NA
ATOM     60  C   UNL A   1      44.549  26.414  29.924  1.00  0.00     0.031 C 
ATOM     61  C   UNL A   1      43.116  28.860  35.296  1.00  0.00     0.029 A 
ATOM     62  C   UNL A   1      43.072  28.469  33.967  1.00  0.00     0.049 A 
ATOM     63  H   UNL A   1      41.648  28.955  32.488  1.00  0.00     0.167 HD
ATOM     64  C   UNL A   1      43.895  27.314  31.931  1.00  0.00     0.074 A 
ATOM     65  C   UNL A   1      44.865  26.517  31.208  1.00  0.00     0.031 C 
ATOM     66  C   UNL A   1      44.002  27.638  33.244  1.00  0.00     0.034 A 
BRANCH  53  67
ATOM     67  C   UNL A   1      39.499  31.364  35.288  1.00  0.00     0.023 A 
ATOM     68  C   UNL A   1      38.539  30.789  36.147  1.00  0.00     0.012 A 
ATOM     69  C   UNL A   1      39.903  32.696  35.499  1.00  0.00     0.148 A 
ATOM     70  C   UNL A   1      37.956  31.539  37.166  1.00  0.00     0.002 A 
ATOM     71  C   UNL A   1      39.355  33.422  36.550  1.00  0.00     0.091 A 
ATOM     72  F   UNL A   1      40.795  33.236  34.657  1.00  0.00    -0.205 F 
ATOM     73  C   UNL A   1      38.371  32.853  37.372  1.00  0.00     0.022 A 
BRANCH  71  74
ATOM     74  S   UNL A   1      39.883  35.092  36.945  1.00  0.00     0.127 S 
ATOM     75  O   UNL A   1      41.337  34.942  36.981  1.00  0.00    -0.237 OA
ATOM     76  O   UNL A   1      39.376  35.853  35.802  1.00  0.00    -0.237 OA
ATOM     77  O   UNL A   1      39.254  35.421  38.216  1.00  0.00    -0.744 OA
ENDBRANCH  71  74
ENDBRANCH  53  67
BRANCH  54  78
ATOM     78  C   UNL A   1      43.064  26.340  27.396  1.00  0.00     0.023 A 
ATOM     79  C   UNL A   1      43.975  26.974  26.527  1.00  0.00     0.012 A 
ATOM     80  C   UNL A   1      42.696  25.004  27.147  1.00  0.00     0.148 A 
ATOM     81  C   UNL A   1      44.487  26.300  25.417  1.00  0.00     0.002 A 
ATOM     82  C   UNL A   1      43.250  24.321  26.070  1.00  0.00     0.091 A 
ATOM     83  F   UNL A   1      41.818  24.423  27.978  1.00  0.00    -0.205 F 
ATOM     84  C   UNL A   1      44.131  24.973  25.194  1.00  0.00     0.022 A 
BRANCH  82  85
ATOM     85  S   UNL A   1      42.942  22.579  25.763  1.00  0.00     0.127 S 
ATOM     86  O   UNL A   1      41.487  22.509  25.862  1.00  0.00    -0.237 OA
ATOM     87  O   UNL A   1      43.477  22.416  24.410  1.00  0.00    -0.237 OA
ATOM     88  O   UNL A   1      43.676  21.858  26.793  1.00  0.00    -0.744 OA
ENDBRANCH  82  85
ENDBRANCH  54  78
BRANCH  66  89
ATOM     89  C   UNL A   1      45.182  27.092  34.009  1.00  0.00     0.023 A 
ATOM     90  C   UNL A   1      46.365  27.849  34.121  1.00  0.00     0.012 A 
ATOM     91  C   UNL A   1      45.086  25.858  34.683  1.00  0.00     0.148 A 
ATOM     92  C   UNL A   1      47.447  27.369  34.859  1.00  0.00     0.002 A 
ATOM     93  C   UNL A   1      46.147  25.412  35.463  1.00  0.00     0.091 A 
ATOM     94  F   UNL A   1      43.958  25.145  34.554  1.00  0.00    -0.205 F 
ATOM     95  C   UNL A   1      47.333  26.159  35.539  1.00  0.00     0.022 A 
BRANCH  93  96
ATOM     96  S   UNL A   1      46.053  23.918  36.455  1.00  0.00     0.127 S 
ATOM     97  O   UNL A   1      47.342  23.940  37.147  1.00  0.00    -0.237 OA
ATOM     98  O   UNL A   1      44.897  24.187  37.311  1.00  0.00    -0.237 OA
ATOM     99  O   UNL A   1      45.869  22.820  35.516  1.00  0.00    -0.744 OA
ENDBRANCH  93  96
ENDBRANCH  66  89
ENDBRANCH  40  41
ENDBRANCH  33  35
ENDBRANCH  32  33
ENDBRANCH  31  32
ENDBRANCH  30  31
ENDBRANCH  29  30
ENDBRANCH  28  29
ENDBRANCH  27  28
ENDBRANCH   1  27
TORSDOF 26
ENDMDL
MODEL 3
REMARK VINA RESULT:      -9.6      3.289      5.732
REMARK SMILES C[C@H](O)[C@H](C)[N@H+]1Cc2ccccc2C[C@@H]1C(=O)OCCOCCOCCOCCOC(=O)c1ccc(-c2c3nc(c(-c4cccc(S(=O)(=O)[O-])c4F)c4ccc([nH]4)c(-c4cccc(S(=O)(=O)[O-])c4F)c4nc(c(-c5cccc(S(=O)(=O)[O-])c5F)c5ccc2[nH]5)C=C4)C=C3)cc1
REMARK SMILES IDX 24 1 23 2 22 3 21 4 20 5 19 6 18 7 16 8 17 9 15 10 6 11 7 12
REMARK SMILES IDX 8 14 14 15 9 16 13 17 10 18 12 19 11 20 4 21 5 22 2 23 1 24
REMARK SMILES IDX 3 25 25 27 26 28 27 29 28 30 29 31 30 32 31 33 32 34 33 35
REMARK SMILES IDX 34 36 95 37 35 38 94 39 36 40 37 41 38 42 88 43 39 44 93 45
REMARK SMILES IDX 87 46 89 47 40 48 92 49 86 50 85 51 41 53 73 54 53 55 72 56
REMARK SMILES IDX 54 57 57 58 71 59 90 60 55 61 56 62 70 64 91 65 58 66 42 67
REMARK SMILES IDX 43 68 51 69 44 70 46 71 52 72 45 73 47 74 48 75 49 76 50 77
REMARK SMILES IDX 74 78 75 79 83 80 76 81 78 82 84 83 77 84 79 85 80 86 81 87
REMARK SMILES IDX 82 88 59 89 60 90 68 91 61 92 63 93 69 94 62 95 64 96 65 97
REMARK SMILES IDX 66 98 67 99
REMARK H PARENT 6 13 3 26 89 52 57 63
REMARK Flexibility Score: inf
ROOT
ATOM      1  O   UNL A   1      41.343  22.253  26.473  1.00  0.00    -0.377 OA
ENDROOT
BRANCH   1   2
ATOM      2  C   UNL A   1      40.509  22.688  27.532  1.00  0.00     0.188 C 
BRANCH   2   3
ATOM      3  C   UNL A   1      39.309  23.624  27.270  1.00  0.00     0.188 C 
BRANCH   3   4
ATOM      4  O   UNL A   1      38.459  23.210  26.212  1.00  0.00    -0.376 OA
BRANCH   4   5
ATOM      5  C   UNL A   1      37.440  24.110  25.811  1.00  0.00     0.202 C 
BRANCH   5   6
ATOM      6  C   UNL A   1      35.974  23.711  26.077  1.00  0.00     0.261 C 
BRANCH   6   7
ATOM      7  O   UNL A   1      35.715  22.312  26.320  1.00  0.00    -0.459 OA
BRANCH   7   8
ATOM      8  C   UNL A   1      35.238  21.605  25.261  1.00  0.00     0.365 C 
ATOM      9  O   UNL A   1      35.669  21.777  24.127  1.00  0.00    -0.245 OA
BRANCH   8  10
ATOM     10  C   UNL A   1      34.125  20.584  25.689  1.00  0.00     0.300 C 
ATOM     11  N   UNL A   1      33.623  19.758  24.526  1.00  0.00    -0.315 N 
ATOM     12  C   UNL A   1      32.486  20.351  23.796  1.00  0.00     0.300 C 
ATOM     13  H   UNL A   1      34.388  19.789  23.852  1.00  0.00     0.349 HD
ATOM     14  C   UNL A   1      32.218  21.812  24.066  1.00  0.00     0.010 A 
ATOM     15  C   UNL A   1      33.032  21.411  26.388  1.00  0.00     0.113 C 
ATOM     16  C   UNL A   1      31.817  22.673  23.040  1.00  0.00     0.010 A 
ATOM     17  C   UNL A   1      32.401  22.321  25.364  1.00  0.00    -0.033 A 
ATOM     18  C   UNL A   1      31.667  24.037  23.293  1.00  0.00     0.001 A 
ATOM     19  C   UNL A   1      32.226  23.684  25.618  1.00  0.00     0.004 A 
ATOM     20  C   UNL A   1      31.880  24.541  24.576  1.00  0.00     0.000 A 
BRANCH  11  21
ATOM     21  C   UNL A   1      33.449  18.307  24.843  1.00  0.00     0.210 C 
ATOM     22  C   UNL A   1      32.079  17.713  24.459  1.00  0.00     0.078 C 
BRANCH  21  23
ATOM     23  C   UNL A   1      34.609  17.353  24.358  1.00  0.00     0.169 C 
ATOM     24  C   UNL A   1      34.373  16.504  23.111  1.00  0.00     0.045 C 
BRANCH  23  25
ATOM     25  O   UNL A   1      35.002  16.474  25.424  1.00  0.00    -0.387 OA
ATOM     26  H   UNL A   1      35.961  16.531  25.554  1.00  0.00     0.211 HD
ENDBRANCH  23  25
ENDBRANCH  21  23
ENDBRANCH  11  21
ENDBRANCH   8  10
ENDBRANCH   7   8
ENDBRANCH   6   7
ENDBRANCH   5   6
ENDBRANCH   4   5
ENDBRANCH   3   4
ENDBRANCH   2   3
ENDBRANCH   1   2
BRANCH   1  27
ATOM     27  C   UNL A   1      41.505  20.867  26.231  1.00  0.00     0.188 C 
BRANCH  27  28
ATOM     28  C   UNL A   1      41.684  19.887  27.410  1.00  0.00     0.188 C 
BRANCH  28  29
ATOM     29  O   UNL A   1      42.711  18.922  27.245  1.00  0.00    -0.376 OA
BRANCH  29  30
ATOM     30  C   UNL A   1      43.047  18.512  25.932  1.00  0.00     0.202 C 
BRANCH  30  31
ATOM     31  C   UNL A   1      44.522  18.218  25.630  1.00  0.00     0.261 C 
BRANCH  31  32
ATOM     32  O   UNL A   1      45.351  19.356  25.369  1.00  0.00    -0.460 OA
BRANCH  32  33
ATOM     33  C   UNL A   1      44.984  20.172  24.357  1.00  0.00     0.338 C 
ATOM     34  O   UNL A   1      44.659  19.845  23.227  1.00  0.00    -0.246 OA
BRANCH  33  35
ATOM     35  C   UNL A   1      44.853  21.528  24.923  1.00  0.00     0.060 A 
ATOM     36  C   UNL A   1      44.352  22.560  24.115  1.00  0.00     0.016 A 
ATOM     37  C   UNL A   1      45.175  21.763  26.261  1.00  0.00     0.016 A 
ATOM     38  C   UNL A   1      44.188  23.838  24.645  1.00  0.00     0.010 A 
ATOM     39  C   UNL A   1      45.043  23.050  26.780  1.00  0.00     0.010 A 
ATOM     40  C   UNL A   1      44.580  24.097  25.964  1.00  0.00    -0.014 A 
BRANCH  40  41
ATOM     41  C   UNL A   1      44.733  25.497  26.416  1.00  0.00     0.031 A 
ATOM     42  C   UNL A   1      46.098  26.119  26.308  1.00  0.00     0.074 A 
ATOM     43  C   UNL A   1      43.699  26.197  26.910  1.00  0.00     0.049 A 
ATOM     44  N   UNL A   1      46.498  27.311  26.655  1.00  0.00    -0.248 NA
ATOM     45  C   UNL A   1      47.157  25.270  25.732  1.00  0.00     0.031 C 
ATOM     46  C   UNL A   1      42.328  25.708  27.042  1.00  0.00     0.029 A 
ATOM     47  N   UNL A   1      43.653  27.475  27.410  1.00  0.00    -0.354 N 
ATOM     48  C   UNL A   1      47.857  27.349  26.367  1.00  0.00     0.074 A 
ATOM     49  C   UNL A   1      48.216  26.054  25.833  1.00  0.00     0.031 C 
ATOM     50  C   UNL A   1      41.577  26.670  27.606  1.00  0.00     0.029 A 
ATOM     51  C   UNL A   1      42.419  27.830  27.898  1.00  0.00     0.049 A 
ATOM     52  H   UNL A   1      44.431  28.079  27.418  1.00  0.00     0.167 HD
ATOM     53  C   UNL A   1      48.726  28.376  26.517  1.00  0.00     0.034 A 
ATOM     54  C   UNL A   1      42.027  28.957  28.524  1.00  0.00     0.034 A 
ATOM     55  C   UNL A   1      48.364  29.658  27.052  1.00  0.00     0.049 A 
ATOM     56  C   UNL A   1      43.028  30.065  28.737  1.00  0.00     0.074 A 
ATOM     57  C   UNL A   1      49.158  30.778  27.217  1.00  0.00     0.029 A 
ATOM     58  N   UNL A   1      47.104  29.985  27.530  1.00  0.00    -0.354 N 
ATOM     59  N   UNL A   1      44.284  30.132  28.360  1.00  0.00    -0.248 NA
ATOM     60  C   UNL A   1      42.550  31.266  29.438  1.00  0.00     0.031 C 
ATOM     61  C   UNL A   1      48.387  31.770  27.834  1.00  0.00     0.029 A 
ATOM     62  C   UNL A   1      47.101  31.284  28.010  1.00  0.00     0.049 A 
ATOM     63  H   UNL A   1      46.325  29.383  27.528  1.00  0.00     0.167 HD
ATOM     64  C   UNL A   1      44.730  31.396  28.735  1.00  0.00     0.074 A 
ATOM     65  C   UNL A   1      43.607  32.063  29.360  1.00  0.00     0.031 C 
ATOM     66  C   UNL A   1      45.959  31.951  28.584  1.00  0.00     0.034 A 
BRANCH  53  67
ATOM     67  C   UNL A   1      50.153  28.135  26.097  1.00  0.00     0.023 A 
ATOM     68  C   UNL A   1      50.555  28.425  24.776  1.00  0.00     0.012 A 
ATOM     69  C   UNL A   1      51.096  27.624  27.008  1.00  0.00     0.148 A 
ATOM     70  C   UNL A   1      51.858  28.165  24.356  1.00  0.00     0.002 A 
ATOM     71  C   UNL A   1      52.407  27.415  26.596  1.00  0.00     0.091 A 
ATOM     72  F   UNL A   1      50.691  27.328  28.251  1.00  0.00    -0.205 F 
ATOM     73  C   UNL A   1      52.786  27.668  25.268  1.00  0.00     0.022 A 
BRANCH  71  74
ATOM     74  S   UNL A   1      53.692  26.854  27.718  1.00  0.00     0.127 S 
ATOM     75  O   UNL A   1      53.029  26.983  29.014  1.00  0.00    -0.237 OA
ATOM     76  O   UNL A   1      53.905  25.475  27.276  1.00  0.00    -0.237 OA
ATOM     77  O   UNL A   1      54.827  27.740  27.502  1.00  0.00    -0.744 OA
ENDBRANCH  71  74
ENDBRANCH  53  67
BRANCH  54  78
ATOM     78  C   UNL A   1      40.608  29.123  28.952  1.00  0.00     0.023 A 
ATOM     79  C   UNL A   1      39.628  29.422  27.984  1.00  0.00     0.012 A 
ATOM     80  C   UNL A   1      40.221  28.978  30.298  1.00  0.00     0.148 A 
ATOM     81  C   UNL A   1      38.294  29.603  28.354  1.00  0.00     0.002 A 
ATOM     82  C   UNL A   1      38.882  29.108  30.652  1.00  0.00     0.091 A 
ATOM     83  F   UNL A   1      41.170  28.707  31.205  1.00  0.00    -0.205 F 
ATOM     84  C   UNL A   1      37.921  29.437  29.684  1.00  0.00     0.022 A 
BRANCH  82  85
ATOM     85  S   UNL A   1      38.285  28.803  32.318  1.00  0.00     0.127 S 
ATOM     86  O   UNL A   1      38.969  29.846  33.077  1.00  0.00    -0.237 OA
ATOM     87  O   UNL A   1      36.844  29.001  32.158  1.00  0.00    -0.237 OA
ATOM     88  O   UNL A   1      38.675  27.437  32.636  1.00  0.00    -0.744 OA
ENDBRANCH  82  85
ENDBRANCH  54  78
BRANCH  66  89
ATOM     89  C   UNL A   1      46.150  33.372  29.053  1.00  0.00     0.023 A 
ATOM     90  C   UNL A   1      46.669  33.630  30.337  1.00  0.00     0.012 A 
ATOM     91  C   UNL A   1      45.886  34.451  28.185  1.00  0.00     0.148 A 
ATOM     92  C   UNL A   1      46.887  34.940  30.763  1.00  0.00     0.002 A 
ATOM     93  C   UNL A   1      46.158  35.751  28.596  1.00  0.00     0.091 A 
ATOM     94  F   UNL A   1      45.380  34.186  26.972  1.00  0.00    -0.205 F 
ATOM     95  C   UNL A   1      46.643  35.998  29.890  1.00  0.00     0.022 A 
BRANCH  93  96
ATOM     96  S   UNL A   1      45.973  37.166  27.505  1.00  0.00     0.127 S 
ATOM     97  O   UNL A   1      46.506  38.249  28.331  1.00  0.00    -0.237 OA
ATOM     98  O   UNL A   1      46.818  36.793  26.370  1.00  0.00    -0.237 OA
ATOM     99  O   UNL A   1      44.553  37.257  27.199  1.00  0.00    -0.744 OA
ENDBRANCH  93  96
ENDBRANCH  66  89
ENDBRANCH  40  41
ENDBRANCH  33  35
ENDBRANCH  32  33
ENDBRANCH  31  32
ENDBRANCH  30  31
ENDBRANCH  29  30
ENDBRANCH  28  29
ENDBRANCH  27  28
ENDBRANCH   1  27
TORSDOF 26
ENDMDL
