MODEL 1
REMARK VINA RESULT:     -10.0      0.000      0.000
REMARK SMILES COc1ccc(Nc2c(C(=O)OCCOCCOCCOCCOC(=O)c3ccc(-c4c5nc(c(-c6cccc(S(=O)(=O)[O-])c6F)c6ccc([nH]6)c(-c6cccc(S(=O)(=O)[O-])c6F)c6nc(c(-c7cccc(S(=O)(=O)[O-])c7F)c7ccc4[nH]7)C=C6)C=C5)cc3)[nH]c(=O)[nH]c2=O)cc1
REMARK SMILES IDX 18 1 17 2 16 3 15 4 14 5 13 6 12 7 10 8 11 9 9 10 8 11 94 12
REMARK SMILES IDX 90 13 93 14 95 15 91 16 92 19 7 20 6 22 3 23 4 24 97 25 5 26
REMARK SMILES IDX 96 27 2 28 1 29 19 30 20 31 21 32 22 33 23 34 24 35 25 36
REMARK SMILES IDX 26 37 27 38 28 39 89 40 29 41 88 42 30 43 31 44 32 45 82 46
REMARK SMILES IDX 33 47 87 48 81 49 83 50 34 51 86 52 80 53 79 54 35 56 67 57
REMARK SMILES IDX 47 58 66 59 48 60 51 61 65 62 84 63 49 64 50 65 64 67 85 68
REMARK SMILES IDX 52 69 36 70 37 71 45 72 38 73 40 74 46 75 39 76 41 77 42 78
REMARK SMILES IDX 43 79 44 80 68 81 69 82 77 83 70 84 72 85 78 86 71 87 73 88
REMARK SMILES IDX 74 89 75 90 76 91 53 92 54 93 62 94 55 95 57 96 63 97 56 98
REMARK SMILES IDX 58 99 59 100 60 101 61 102
REMARK H PARENT 90 17 93 18 7 21 83 55 51 66
REMARK Flexibility Score: inf
ROOT
ATOM      1  O   UNL A   1      33.027  19.969  24.745  1.00  0.00    -0.377 OA
ENDROOT
BRANCH   1   2
ATOM      2  C   UNL A   1      32.366  19.950  23.499  1.00  0.00     0.188 C 
BRANCH   2   3
ATOM      3  C   UNL A   1      32.199  21.350  22.881  1.00  0.00     0.188 C 
BRANCH   3   4
ATOM      4  O   UNL A   1      31.665  22.429  23.632  1.00  0.00    -0.376 OA
BRANCH   4   5
ATOM      5  C   UNL A   1      31.403  23.716  23.097  1.00  0.00     0.202 C 
BRANCH   5   6
ATOM      6  C   UNL A   1      32.417  24.620  22.369  1.00  0.00     0.261 C 
BRANCH   6   7
ATOM      7  O   UNL A   1      31.949  25.866  21.860  1.00  0.00    -0.459 OA
BRANCH   7   8
ATOM      8  C   UNL A   1      32.737  26.934  22.100  1.00  0.00     0.357 C 
ATOM      9  O   UNL A   1      33.875  27.101  21.679  1.00  0.00    -0.244 OA
BRANCH   8  10
ATOM     10  C   UNL A   1      31.971  28.039  22.757  1.00  0.00     0.158 A 
ATOM     11  C   UNL A   1      32.039  28.340  24.073  1.00  0.00     0.136 A 
ATOM     12  C   UNL A   1      31.247  29.576  24.452  1.00  0.00     0.278 A 
ATOM     13  N   UNL A   1      31.066  28.648  21.912  1.00  0.00    -0.299 N 
ATOM     14  N   UNL A   1      30.244  29.953  23.603  1.00  0.00    -0.272 N 
ATOM     15  O   UNL A   1      31.484  30.257  25.445  1.00  0.00    -0.267 OA
ATOM     16  C   UNL A   1      30.132  29.544  22.315  1.00  0.00     0.326 A 
ATOM     17  H   UNL A   1      31.102  28.418  20.955  1.00  0.00     0.172 HD
ATOM     18  H   UNL A   1      29.556  30.566  23.951  1.00  0.00     0.175 HD
ATOM     19  O   UNL A   1      29.261  29.965  21.562  1.00  0.00    -0.248 OA
BRANCH  11  20
ATOM     20  N   UNL A   1      32.784  27.668  25.035  1.00  0.00    -0.349 N 
ATOM     21  H   UNL A   1      33.554  28.170  25.388  1.00  0.00     0.167 HD
BRANCH  20  22
ATOM     22  C   UNL A   1      32.611  26.376  25.586  1.00  0.00     0.039 A 
ATOM     23  C   UNL A   1      32.457  23.808  26.764  1.00  0.00     0.119 A 
ATOM     24  C   UNL A   1      31.322  24.606  26.656  1.00  0.00     0.048 A 
ATOM     25  C   UNL A   1      33.664  24.264  26.244  1.00  0.00     0.048 A 
ATOM     26  C   UNL A   1      31.401  25.879  26.080  1.00  0.00     0.030 A 
ATOM     27  C   UNL A   1      33.739  25.541  25.673  1.00  0.00     0.030 A 
BRANCH  23  28
ATOM     28  O   UNL A   1      32.285  22.588  27.358  1.00  0.00    -0.497 OA
ATOM     29  C   UNL A   1      33.506  21.997  27.802  1.00  0.00     0.278 C 
ENDBRANCH  23  28
ENDBRANCH  20  22
ENDBRANCH  11  20
ENDBRANCH   8  10
ENDBRANCH   7   8
ENDBRANCH   6   7
ENDBRANCH   5   6
ENDBRANCH   4   5
ENDBRANCH   3   4
ENDBRANCH   2   3
ENDBRANCH   1   2
BRANCH   1  30
ATOM     30  C   UNL A   1      34.448  19.871  24.725  1.00  0.00     0.188 C 
BRANCH  30  31
ATOM     31  C   UNL A   1      35.303  21.160  24.760  1.00  0.00     0.188 C 
BRANCH  31  32
ATOM     32  O   UNL A   1      36.439  21.097  25.613  1.00  0.00    -0.376 OA
BRANCH  32  33
ATOM     33  C   UNL A   1      37.711  20.846  25.036  1.00  0.00     0.202 C 
BRANCH  33  34
ATOM     34  C   UNL A   1      38.937  21.361  25.804  1.00  0.00     0.261 C 
BRANCH  34  35
ATOM     35  O   UNL A   1      39.608  20.395  26.621  1.00  0.00    -0.460 OA
BRANCH  35  36
ATOM     36  C   UNL A   1      40.920  20.202  26.378  1.00  0.00     0.338 C 
ATOM     37  O   UNL A   1      41.427  19.235  25.826  1.00  0.00    -0.246 OA
BRANCH  36  38
ATOM     38  C   UNL A   1      41.640  21.444  26.713  1.00  0.00     0.060 A 
ATOM     39  C   UNL A   1      41.816  21.772  28.063  1.00  0.00     0.016 A 
ATOM     40  C   UNL A   1      42.115  22.288  25.707  1.00  0.00     0.016 A 
ATOM     41  C   UNL A   1      42.401  22.986  28.411  1.00  0.00     0.010 A 
ATOM     42  C   UNL A   1      42.689  23.512  26.057  1.00  0.00     0.010 A 
ATOM     43  C   UNL A   1      42.777  23.888  27.409  1.00  0.00    -0.014 A 
BRANCH  43  44
ATOM     44  C   UNL A   1      43.021  25.304  27.776  1.00  0.00     0.031 A 
ATOM     45  C   UNL A   1      44.424  25.834  27.660  1.00  0.00     0.074 A 
ATOM     46  C   UNL A   1      42.023  26.111  28.171  1.00  0.00     0.049 A 
ATOM     47  N   UNL A   1      44.882  27.034  27.905  1.00  0.00    -0.248 NA
ATOM     48  C   UNL A   1      45.452  24.879  27.213  1.00  0.00     0.031 C 
ATOM     49  C   UNL A   1      40.624  25.715  28.320  1.00  0.00     0.029 A 
ATOM     50  N   UNL A   1      42.045  27.431  28.541  1.00  0.00    -0.354 N 
ATOM     51  C   UNL A   1      46.251  26.968  27.680  1.00  0.00     0.074 A 
ATOM     52  C   UNL A   1      46.553  25.608  27.293  1.00  0.00     0.031 C 
ATOM     53  C   UNL A   1      39.925  26.767  28.779  1.00  0.00     0.029 A 
ATOM     54  C   UNL A   1      40.831  27.899  28.977  1.00  0.00     0.049 A 
ATOM     55  H   UNL A   1      42.856  27.990  28.498  1.00  0.00     0.167 HD
ATOM     56  C   UNL A   1      47.178  27.951  27.776  1.00  0.00     0.034 A 
ATOM     57  C   UNL A   1      40.495  29.095  29.499  1.00  0.00     0.034 A 
ATOM     58  C   UNL A   1      46.874  29.304  28.154  1.00  0.00     0.049 A 
ATOM     59  C   UNL A   1      41.539  30.174  29.607  1.00  0.00     0.074 A 
ATOM     60  C   UNL A   1      47.727  30.390  28.226  1.00  0.00     0.029 A 
ATOM     61  N   UNL A   1      45.623  29.751  28.550  1.00  0.00    -0.354 N 
ATOM     62  N   UNL A   1      42.808  30.134  29.279  1.00  0.00    -0.248 NA
ATOM     63  C   UNL A   1      41.094  31.480  30.119  1.00  0.00     0.031 C 
ATOM     64  C   UNL A   1      47.003  31.482  28.714  1.00  0.00     0.029 A 
ATOM     65  C   UNL A   1      45.684  31.092  28.887  1.00  0.00     0.049 A 
ATOM     66  H   UNL A   1      44.811  29.197  28.586  1.00  0.00     0.167 HD
ATOM     67  C   UNL A   1      43.305  31.414  29.504  1.00  0.00     0.074 A 
ATOM     68  C   UNL A   1      42.194  32.209  29.986  1.00  0.00     0.031 C 
ATOM     69  C   UNL A   1      44.565  31.885  29.330  1.00  0.00     0.034 A 
BRANCH  56  70
ATOM     70  C   UNL A   1      48.609  27.583  27.479  1.00  0.00     0.023 A 
ATOM     71  C   UNL A   1      49.057  27.487  26.145  1.00  0.00     0.012 A 
ATOM     72  C   UNL A   1      49.515  27.341  28.529  1.00  0.00     0.148 A 
ATOM     73  C   UNL A   1      50.367  27.102  25.862  1.00  0.00     0.002 A 
ATOM     74  C   UNL A   1      50.833  27.010  28.240  1.00  0.00     0.091 A 
ATOM     75  F   UNL A   1      49.067  27.411  29.791  1.00  0.00    -0.205 F 
ATOM     76  C   UNL A   1      51.256  26.873  26.908  1.00  0.00     0.022 A 
BRANCH  74  77
ATOM     77  S   UNL A   1      52.072  26.783  29.519  1.00  0.00     0.127 S 
ATOM     78  O   UNL A   1      52.135  28.119  30.109  1.00  0.00    -0.237 OA
ATOM     79  O   UNL A   1      51.450  25.769  30.371  1.00  0.00    -0.237 OA
ATOM     80  O   UNL A   1      53.279  26.341  28.835  1.00  0.00    -0.744 OA
ENDBRANCH  74  77
ENDBRANCH  56  70
BRANCH  57  81
ATOM     81  C   UNL A   1      39.092  29.333  29.939  1.00  0.00     0.023 A 
ATOM     82  C   UNL A   1      38.665  28.891  31.206  1.00  0.00     0.012 A 
ATOM     83  C   UNL A   1      38.194  30.039  29.116  1.00  0.00     0.148 A 
ATOM     84  C   UNL A   1      37.360  29.130  31.636  1.00  0.00     0.002 A 
ATOM     85  C   UNL A   1      36.915  30.327  29.576  1.00  0.00     0.091 A 
ATOM     86  F   UNL A   1      38.620  30.440  27.911  1.00  0.00    -0.205 F 
ATOM     87  C   UNL A   1      36.490  29.858  30.828  1.00  0.00     0.022 A 
BRANCH  85  88
ATOM     88  S   UNL A   1      35.779  31.378  28.667  1.00  0.00     0.127 S 
ATOM     89  O   UNL A   1      36.636  32.503  28.303  1.00  0.00    -0.237 OA
ATOM     90  O   UNL A   1      35.395  30.507  27.556  1.00  0.00    -0.237 OA
ATOM     91  O   UNL A   1      34.696  31.687  29.592  1.00  0.00    -0.744 OA
ENDBRANCH  85  88
ENDBRANCH  57  81
BRANCH  69  92
ATOM     92  C   UNL A   1      44.811  33.349  29.601  1.00  0.00     0.023 A 
ATOM     93  C   UNL A   1      45.179  33.786  30.888  1.00  0.00     0.012 A 
ATOM     94  C   UNL A   1      44.736  34.287  28.551  1.00  0.00     0.148 A 
ATOM     95  C   UNL A   1      45.426  35.137  31.136  1.00  0.00     0.002 A 
ATOM     96  C   UNL A   1      45.039  35.621  28.791  1.00  0.00     0.091 A 
ATOM     97  F   UNL A   1      44.367  33.858  27.335  1.00  0.00    -0.205 F 
ATOM     98  C   UNL A   1      45.367  36.052  30.087  1.00  0.00     0.022 A 
BRANCH  96  99
ATOM     99  S   UNL A   1      45.088  36.847  27.479  1.00  0.00     0.127 S 
ATOM    100  O   UNL A   1      45.947  36.193  26.493  1.00  0.00    -0.237 OA
ATOM    101  O   UNL A   1      43.679  36.943  27.092  1.00  0.00    -0.237 OA
ATOM    102  O   UNL A   1      45.632  38.057  28.079  1.00  0.00    -0.744 OA
ENDBRANCH  96  99
ENDBRANCH  69  92
ENDBRANCH  43  44
ENDBRANCH  36  38
ENDBRANCH  35  36
ENDBRANCH  34  35
ENDBRANCH  33  34
ENDBRANCH  32  33
ENDBRANCH  31  32
ENDBRANCH  30  31
ENDBRANCH   1  30
TORSDOF 26
ENDMDL
MODEL 2
REMARK VINA RESULT:     -10.0      1.802      3.039
REMARK SMILES COc1ccc(Nc2c(C(=O)OCCOCCOCCOCCOC(=O)c3ccc(-c4c5nc(c(-c6cccc(S(=O)(=O)[O-])c6F)c6ccc([nH]6)c(-c6cccc(S(=O)(=O)[O-])c6F)c6nc(c(-c7cccc(S(=O)(=O)[O-])c7F)c7ccc4[nH]7)C=C6)C=C5)cc3)[nH]c(=O)[nH]c2=O)cc1
REMARK SMILES IDX 18 1 17 2 16 3 15 4 14 5 13 6 12 7 10 8 11 9 9 10 8 11 94 12
REMARK SMILES IDX 90 13 93 14 95 15 91 16 92 19 7 20 6 22 3 23 4 24 97 25 5 26
REMARK SMILES IDX 96 27 2 28 1 29 19 30 20 31 21 32 22 33 23 34 24 35 25 36
REMARK SMILES IDX 26 37 27 38 28 39 89 40 29 41 88 42 30 43 31 44 32 45 82 46
REMARK SMILES IDX 33 47 87 48 81 49 83 50 34 51 86 52 80 53 79 54 35 56 67 57
REMARK SMILES IDX 47 58 66 59 48 60 51 61 65 62 84 63 49 64 50 65 64 67 85 68
REMARK SMILES IDX 52 69 36 70 37 71 45 72 38 73 40 74 46 75 39 76 41 77 42 78
REMARK SMILES IDX 43 79 44 80 68 81 69 82 77 83 70 84 72 85 78 86 71 87 73 88
REMARK SMILES IDX 74 89 75 90 76 91 53 92 54 93 62 94 55 95 57 96 63 97 56 98
REMARK SMILES IDX 58 99 59 100 60 101 61 102
REMARK H PARENT 90 17 93 18 7 21 83 55 51 66
REMARK Flexibility Score: inf
ROOT
ATOM      1  O   UNL A   1      34.613  24.330  25.773  1.00  0.00    -0.377 OA
ENDROOT
BRANCH   1   2
ATOM      2  C   UNL A   1      34.710  25.661  25.316  1.00  0.00     0.188 C 
BRANCH   2   3
ATOM      3  C   UNL A   1      33.526  26.539  25.758  1.00  0.00     0.188 C 
BRANCH   3   4
ATOM      4  O   UNL A   1      32.986  27.536  24.903  1.00  0.00    -0.376 OA
BRANCH   4   5
ATOM      5  C   UNL A   1      33.715  28.171  23.865  1.00  0.00     0.202 C 
BRANCH   5   6
ATOM      6  C   UNL A   1      33.704  27.775  22.375  1.00  0.00     0.261 C 
BRANCH   6   7
ATOM      7  O   UNL A   1      33.988  26.417  22.048  1.00  0.00    -0.459 OA
BRANCH   7   8
ATOM      8  C   UNL A   1      32.957  25.701  21.554  1.00  0.00     0.357 C 
ATOM      9  O   UNL A   1      32.873  25.246  20.420  1.00  0.00    -0.244 OA
BRANCH   8  10
ATOM     10  C   UNL A   1      32.003  25.302  22.635  1.00  0.00     0.158 A 
ATOM     11  C   UNL A   1      32.082  24.151  23.340  1.00  0.00     0.136 A 
ATOM     12  C   UNL A   1      31.057  24.051  24.451  1.00  0.00     0.278 A 
ATOM     13  N   UNL A   1      30.933  26.165  22.759  1.00  0.00    -0.299 N 
ATOM     14  N   UNL A   1      29.943  24.837  24.340  1.00  0.00    -0.272 N 
ATOM     15  O   UNL A   1      31.195  23.339  25.442  1.00  0.00    -0.267 OA
ATOM     16  C   UNL A   1      29.847  25.924  23.534  1.00  0.00     0.326 A 
ATOM     17  H   UNL A   1      30.960  27.008  22.253  1.00  0.00     0.172 HD
ATOM     18  H   UNL A   1      29.157  24.597  24.882  1.00  0.00     0.175 HD
ATOM     19  O   UNL A   1      28.859  26.649  23.518  1.00  0.00    -0.248 OA
BRANCH  11  20
ATOM     20  N   UNL A   1      33.019  23.140  23.163  1.00  0.00    -0.349 N 
ATOM     21  H   UNL A   1      33.905  23.444  22.861  1.00  0.00     0.167 HD
BRANCH  20  22
ATOM     22  C   UNL A   1      32.900  21.742  23.349  1.00  0.00     0.039 A 
ATOM     23  C   UNL A   1      32.662  18.982  23.924  1.00  0.00     0.119 A 
ATOM     24  C   UNL A   1      32.074  19.519  22.783  1.00  0.00     0.048 A 
ATOM     25  C   UNL A   1      33.412  19.805  24.758  1.00  0.00     0.048 A 
ATOM     26  C   UNL A   1      32.186  20.887  22.504  1.00  0.00     0.030 A 
ATOM     27  C   UNL A   1      33.516  21.173  24.477  1.00  0.00     0.030 A 
BRANCH  23  28
ATOM     28  O   UNL A   1      32.483  17.640  24.122  1.00  0.00    -0.497 OA
ATOM     29  C   UNL A   1      33.029  17.172  25.356  1.00  0.00     0.278 C 
ENDBRANCH  23  28
ENDBRANCH  20  22
ENDBRANCH  11  20
ENDBRANCH   8  10
ENDBRANCH   7   8
ENDBRANCH   6   7
ENDBRANCH   5   6
ENDBRANCH   4   5
ENDBRANCH   3   4
ENDBRANCH   2   3
ENDBRANCH   1   2
BRANCH   1  30
ATOM     30  C   UNL A   1      35.800  23.542  25.727  1.00  0.00     0.188 C 
BRANCH  30  31
ATOM     31  C   UNL A   1      36.513  23.315  24.372  1.00  0.00     0.188 C 
BRANCH  31  32
ATOM     32  O   UNL A   1      37.110  22.032  24.223  1.00  0.00    -0.376 OA
BRANCH  32  33
ATOM     33  C   UNL A   1      37.523  21.333  25.386  1.00  0.00     0.202 C 
BRANCH  33  34
ATOM     34  C   UNL A   1      39.001  21.458  25.784  1.00  0.00     0.261 C 
BRANCH  34  35
ATOM     35  O   UNL A   1      39.559  20.325  26.460  1.00  0.00    -0.460 OA
BRANCH  35  36
ATOM     36  C   UNL A   1      40.880  20.115  26.301  1.00  0.00     0.338 C 
ATOM     37  O   UNL A   1      41.410  19.130  25.805  1.00  0.00    -0.246 OA
BRANCH  36  38
ATOM     38  C   UNL A   1      41.591  21.360  26.645  1.00  0.00     0.060 A 
ATOM     39  C   UNL A   1      41.716  21.708  27.995  1.00  0.00     0.016 A 
ATOM     40  C   UNL A   1      42.109  22.187  25.645  1.00  0.00     0.016 A 
ATOM     41  C   UNL A   1      42.291  22.926  28.347  1.00  0.00     0.010 A 
ATOM     42  C   UNL A   1      42.673  23.414  25.999  1.00  0.00     0.010 A 
ATOM     43  C   UNL A   1      42.710  23.811  27.347  1.00  0.00    -0.014 A 
BRANCH  43  44
ATOM     44  C   UNL A   1      42.944  25.231  27.701  1.00  0.00     0.031 A 
ATOM     45  C   UNL A   1      44.339  25.776  27.561  1.00  0.00     0.074 A 
ATOM     46  C   UNL A   1      41.943  26.030  28.108  1.00  0.00     0.049 A 
ATOM     47  N   UNL A   1      44.787  26.982  27.791  1.00  0.00    -0.248 NA
ATOM     48  C   UNL A   1      45.370  24.829  27.103  1.00  0.00     0.031 C 
ATOM     49  C   UNL A   1      40.551  25.620  28.280  1.00  0.00     0.029 A 
ATOM     50  N   UNL A   1      41.957  27.353  28.469  1.00  0.00    -0.354 N 
ATOM     51  C   UNL A   1      46.154  26.929  27.545  1.00  0.00     0.074 A 
ATOM     52  C   UNL A   1      46.464  25.570  27.161  1.00  0.00     0.031 C 
ATOM     53  C   UNL A   1      39.848  26.668  28.744  1.00  0.00     0.029 A 
ATOM     54  C   UNL A   1      40.745  27.810  28.921  1.00  0.00     0.049 A 
ATOM     55  H   UNL A   1      42.761  27.920  28.410  1.00  0.00     0.167 HD
ATOM     56  C   UNL A   1      47.071  27.922  27.620  1.00  0.00     0.034 A 
ATOM     57  C   UNL A   1      40.404  29.006  29.442  1.00  0.00     0.034 A 
ATOM     58  C   UNL A   1      46.759  29.275  27.994  1.00  0.00     0.049 A 
ATOM     59  C   UNL A   1      41.438  30.097  29.526  1.00  0.00     0.074 A 
ATOM     60  C   UNL A   1      47.602  30.370  28.046  1.00  0.00     0.029 A 
ATOM     61  N   UNL A   1      45.509  29.711  28.408  1.00  0.00    -0.354 N 
ATOM     62  N   UNL A   1      42.702  30.068  29.179  1.00  0.00    -0.248 NA
ATOM     63  C   UNL A   1      40.988  31.401  30.037  1.00  0.00     0.031 C 
ATOM     64  C   UNL A   1      46.874  31.457  28.539  1.00  0.00     0.029 A 
ATOM     65  C   UNL A   1      45.562  31.054  28.736  1.00  0.00     0.049 A 
ATOM     66  H   UNL A   1      44.704  29.148  28.460  1.00  0.00     0.167 HD
ATOM     67  C   UNL A   1      43.189  31.355  29.388  1.00  0.00     0.074 A 
ATOM     68  C   UNL A   1      42.078  32.141  29.882  1.00  0.00     0.031 C 
ATOM     69  C   UNL A   1      44.441  31.838  29.191  1.00  0.00     0.034 A 
BRANCH  56  70
ATOM     70  C   UNL A   1      48.501  27.568  27.303  1.00  0.00     0.023 A 
ATOM     71  C   UNL A   1      49.354  27.078  28.314  1.00  0.00     0.012 A 
ATOM     72  C   UNL A   1      48.999  27.715  25.993  1.00  0.00     0.148 A 
ATOM     73  C   UNL A   1      50.691  26.793  28.039  1.00  0.00     0.002 A 
ATOM     74  C   UNL A   1      50.317  27.378  25.715  1.00  0.00     0.091 A 
ATOM     75  F   UNL A   1      48.183  28.207  25.050  1.00  0.00    -0.205 F 
ATOM     76  C   UNL A   1      51.170  26.934  26.739  1.00  0.00     0.022 A 
BRANCH  74  77
ATOM     77  S   UNL A   1      50.998  27.443  24.055  1.00  0.00     0.127 S 
ATOM     78  O   UNL A   1      52.280  26.764  24.235  1.00  0.00    -0.237 OA
ATOM     79  O   UNL A   1      50.008  26.684  23.289  1.00  0.00    -0.237 OA
ATOM     80  O   UNL A   1      51.078  28.855  23.709  1.00  0.00    -0.744 OA
ENDBRANCH  74  77
ENDBRANCH  56  70
BRANCH  57  81
ATOM     81  C   UNL A   1      39.006  29.232  29.902  1.00  0.00     0.023 A 
ATOM     82  C   UNL A   1      38.634  28.896  31.218  1.00  0.00     0.012 A 
ATOM     83  C   UNL A   1      38.057  29.823  29.046  1.00  0.00     0.148 A 
ATOM     84  C   UNL A   1      37.333  29.126  31.666  1.00  0.00     0.002 A 
ATOM     85  C   UNL A   1      36.781  30.104  29.518  1.00  0.00     0.091 A 
ATOM     86  F   UNL A   1      38.432  30.122  27.795  1.00  0.00    -0.205 F 
ATOM     87  C   UNL A   1      36.411  29.741  30.822  1.00  0.00     0.022 A 
BRANCH  85  88
ATOM     88  S   UNL A   1      35.578  31.020  28.551  1.00  0.00     0.127 S 
ATOM     89  O   UNL A   1      34.978  29.963  27.740  1.00  0.00    -0.237 OA
ATOM     90  O   UNL A   1      34.712  31.566  29.596  1.00  0.00    -0.237 OA
ATOM     91  O   UNL A   1      36.339  32.021  27.815  1.00  0.00    -0.744 OA
ENDBRANCH  85  88
ENDBRANCH  57  81
BRANCH  69  92
ATOM     92  C   UNL A   1      44.675  33.306  29.450  1.00  0.00     0.023 A 
ATOM     93  C   UNL A   1      45.231  33.738  30.669  1.00  0.00     0.012 A 
ATOM     94  C   UNL A   1      44.398  34.256  28.445  1.00  0.00     0.148 A 
ATOM     95  C   UNL A   1      45.467  35.094  30.902  1.00  0.00     0.002 A 
ATOM     96  C   UNL A   1      44.688  35.598  28.661  1.00  0.00     0.091 A 
ATOM     97  F   UNL A   1      43.852  33.831  27.296  1.00  0.00    -0.205 F 
ATOM     98  C   UNL A   1      45.207  36.021  29.895  1.00  0.00     0.022 A 
BRANCH  96  99
ATOM     99  S   UNL A   1      44.480  36.843  27.384  1.00  0.00     0.127 S 
ATOM    100  O   UNL A   1      44.331  38.061  28.177  1.00  0.00    -0.237 OA
ATOM    101  O   UNL A   1      45.741  36.745  26.648  1.00  0.00    -0.237 OA
ATOM    102  O   UNL A   1      43.304  36.444  26.621  1.00  0.00    -0.744 OA
ENDBRANCH  96  99
ENDBRANCH  69  92
ENDBRANCH  43  44
ENDBRANCH  36  38
ENDBRANCH  35  36
ENDBRANCH  34  35
ENDBRANCH  33  34
ENDBRANCH  32  33
ENDBRANCH  31  32
ENDBRANCH  30  31
ENDBRANCH   1  30
TORSDOF 26
ENDMDL
MODEL 3
REMARK VINA RESULT:      -9.7      2.255      3.512
REMARK SMILES COc1ccc(Nc2c(C(=O)OCCOCCOCCOCCOC(=O)c3ccc(-c4c5nc(c(-c6cccc(S(=O)(=O)[O-])c6F)c6ccc([nH]6)c(-c6cccc(S(=O)(=O)[O-])c6F)c6nc(c(-c7cccc(S(=O)(=O)[O-])c7F)c7ccc4[nH]7)C=C6)C=C5)cc3)[nH]c(=O)[nH]c2=O)cc1
REMARK SMILES IDX 18 1 17 2 16 3 15 4 14 5 13 6 12 7 10 8 11 9 9 10 8 11 94 12
REMARK SMILES IDX 90 13 93 14 95 15 91 16 92 19 7 20 6 22 3 23 4 24 97 25 5 26
REMARK SMILES IDX 96 27 2 28 1 29 19 30 20 31 21 32 22 33 23 34 24 35 25 36
REMARK SMILES IDX 26 37 27 38 28 39 89 40 29 41 88 42 30 43 31 44 32 45 82 46
REMARK SMILES IDX 33 47 87 48 81 49 83 50 34 51 86 52 80 53 79 54 35 56 67 57
REMARK SMILES IDX 47 58 66 59 48 60 51 61 65 62 84 63 49 64 50 65 64 67 85 68
REMARK SMILES IDX 52 69 36 70 37 71 45 72 38 73 40 74 46 75 39 76 41 77 42 78
REMARK SMILES IDX 43 79 44 80 68 81 69 82 77 83 70 84 72 85 78 86 71 87 73 88
REMARK SMILES IDX 74 89 75 90 76 91 53 92 54 93 62 94 55 95 57 96 63 97 56 98
REMARK SMILES IDX 58 99 59 100 60 101 61 102
REMARK H PARENT 90 17 93 18 7 21 83 55 51 66
REMARK Flexibility Score: inf
ROOT
ATOM      1  O   UNL A   1      32.527  21.378  24.565  1.00  0.00    -0.377 OA
ENDROOT
BRANCH   1   2
ATOM      2  C   UNL A   1      32.520  21.386  23.154  1.00  0.00     0.188 C 
BRANCH   2   3
ATOM      3  C   UNL A   1      32.523  22.805  22.558  1.00  0.00     0.188 C 
BRANCH   3   4
ATOM      4  O   UNL A   1      33.495  23.766  22.942  1.00  0.00    -0.376 OA
BRANCH   4   5
ATOM      5  C   UNL A   1      34.788  23.438  23.424  1.00  0.00     0.202 C 
BRANCH   5   6
ATOM      6  C   UNL A   1      35.374  23.839  24.792  1.00  0.00     0.261 C 
BRANCH   6   7
ATOM      7  O   UNL A   1      34.522  24.529  25.702  1.00  0.00    -0.459 OA
BRANCH   7   8
ATOM      8  C   UNL A   1      33.752  23.753  26.493  1.00  0.00     0.357 C 
ATOM      9  O   UNL A   1      34.149  23.019  27.390  1.00  0.00    -0.244 OA
BRANCH   8  10
ATOM     10  C   UNL A   1      32.301  24.069  26.319  1.00  0.00     0.158 A 
ATOM     11  C   UNL A   1      31.825  25.207  25.765  1.00  0.00     0.136 A 
ATOM     12  C   UNL A   1      30.318  25.220  25.609  1.00  0.00     0.278 A 
ATOM     13  N   UNL A   1      31.469  23.140  26.911  1.00  0.00    -0.299 N 
ATOM     14  N   UNL A   1      29.605  24.370  26.408  1.00  0.00    -0.272 N 
ATOM     15  O   UNL A   1      29.725  25.917  24.791  1.00  0.00    -0.267 OA
ATOM     16  C   UNL A   1      30.130  23.297  27.050  1.00  0.00     0.326 A 
ATOM     17  H   UNL A   1      31.874  22.311  27.253  1.00  0.00     0.172 HD
ATOM     18  H   UNL A   1      28.643  24.549  26.524  1.00  0.00     0.175 HD
ATOM     19  O   UNL A   1      29.443  22.514  27.696  1.00  0.00    -0.248 OA
BRANCH  11  20
ATOM     20  N   UNL A   1      32.583  26.277  25.305  1.00  0.00    -0.349 N 
ATOM     21  H   UNL A   1      33.165  26.074  24.537  1.00  0.00     0.167 HD
BRANCH  20  22
ATOM     22  C   UNL A   1      32.649  27.614  25.765  1.00  0.00     0.039 A 
ATOM     23  C   UNL A   1      32.714  30.219  26.869  1.00  0.00     0.119 A 
ATOM     24  C   UNL A   1      33.642  29.836  25.906  1.00  0.00     0.048 A 
ATOM     25  C   UNL A   1      31.719  29.324  27.252  1.00  0.00     0.048 A 
ATOM     26  C   UNL A   1      33.614  28.544  25.367  1.00  0.00     0.030 A 
ATOM     27  C   UNL A   1      31.699  28.032  26.714  1.00  0.00     0.030 A 
BRANCH  23  28
ATOM     28  O   UNL A   1      32.832  31.493  27.350  1.00  0.00    -0.497 OA
ATOM     29  C   UNL A   1      31.784  32.362  26.918  1.00  0.00     0.278 C 
ENDBRANCH  23  28
ENDBRANCH  20  22
ENDBRANCH  11  20
ENDBRANCH   8  10
ENDBRANCH   7   8
ENDBRANCH   6   7
ENDBRANCH   5   6
ENDBRANCH   4   5
ENDBRANCH   3   4
ENDBRANCH   2   3
ENDBRANCH   1   2
BRANCH   1  30
ATOM     30  C   UNL A   1      33.140  20.260  25.201  1.00  0.00     0.188 C 
BRANCH  30  31
ATOM     31  C   UNL A   1      34.537  19.786  24.732  1.00  0.00     0.188 C 
BRANCH  31  32
ATOM     32  O   UNL A   1      35.628  20.499  25.301  1.00  0.00    -0.376 OA
BRANCH  32  33
ATOM     33  C   UNL A   1      36.948  20.124  24.942  1.00  0.00     0.202 C 
BRANCH  33  34
ATOM     34  C   UNL A   1      38.050  21.174  25.144  1.00  0.00     0.261 C 
BRANCH  34  35
ATOM     35  O   UNL A   1      38.690  21.163  26.425  1.00  0.00    -0.460 OA
BRANCH  35  36
ATOM     36  C   UNL A   1      39.980  20.775  26.455  1.00  0.00     0.338 C 
ATOM     37  O   UNL A   1      40.421  19.676  26.150  1.00  0.00    -0.246 OA
BRANCH  36  38
ATOM     38  C   UNL A   1      40.813  21.960  26.731  1.00  0.00     0.060 A 
ATOM     39  C   UNL A   1      41.151  22.245  28.060  1.00  0.00     0.016 A 
ATOM     40  C   UNL A   1      41.237  22.794  25.693  1.00  0.00     0.016 A 
ATOM     41  C   UNL A   1      41.849  23.411  28.363  1.00  0.00     0.010 A 
ATOM     42  C   UNL A   1      41.925  23.970  26.000  1.00  0.00     0.010 A 
ATOM     43  C   UNL A   1      42.179  24.309  27.341  1.00  0.00    -0.014 A 
BRANCH  43  44
ATOM     44  C   UNL A   1      42.554  25.697  27.702  1.00  0.00     0.031 A 
ATOM     45  C   UNL A   1      43.926  26.182  27.321  1.00  0.00     0.074 A 
ATOM     46  C   UNL A   1      41.693  26.520  28.324  1.00  0.00     0.049 A 
ATOM     47  N   UNL A   1      44.475  27.353  27.511  1.00  0.00    -0.248 NA
ATOM     48  C   UNL A   1      44.798  25.212  26.637  1.00  0.00     0.031 C 
ATOM     49  C   UNL A   1      40.338  26.167  28.741  1.00  0.00     0.029 A 
ATOM     50  N   UNL A   1      41.849  27.821  28.730  1.00  0.00    -0.354 N 
ATOM     51  C   UNL A   1      45.766  27.249  27.007  1.00  0.00     0.074 A 
ATOM     52  C   UNL A   1      45.923  25.898  26.516  1.00  0.00     0.031 C 
ATOM     53  C   UNL A   1      39.794  27.221  29.373  1.00  0.00     0.029 A 
ATOM     54  C   UNL A   1      40.770  28.310  29.423  1.00  0.00     0.049 A 
ATOM     55  H   UNL A   1      42.657  28.352  28.542  1.00  0.00     0.167 HD
ATOM     56  C   UNL A   1      46.735  28.193  26.946  1.00  0.00     0.034 A 
ATOM     57  C   UNL A   1      40.600  29.493  30.047  1.00  0.00     0.034 A 
ATOM     58  C   UNL A   1      46.574  29.538  27.429  1.00  0.00     0.049 A 
ATOM     59  C   UNL A   1      41.690  30.529  29.978  1.00  0.00     0.074 A 
ATOM     60  C   UNL A   1      47.471  30.588  27.364  1.00  0.00     0.029 A 
ATOM     61  N   UNL A   1      45.451  30.010  28.090  1.00  0.00    -0.354 N 
ATOM     62  N   UNL A   1      42.863  30.459  29.395  1.00  0.00    -0.248 NA
ATOM     63  C   UNL A   1      41.417  31.825  30.618  1.00  0.00     0.031 C 
ATOM     64  C   UNL A   1      46.910  31.682  28.030  1.00  0.00     0.029 A 
ATOM     65  C   UNL A   1      45.638  31.331  28.456  1.00  0.00     0.049 A 
ATOM     66  H   UNL A   1      44.640  29.484  28.271  1.00  0.00     0.167 HD
ATOM     67  C   UNL A   1      43.451  31.709  29.560  1.00  0.00     0.074 A 
ATOM     68  C   UNL A   1      42.498  32.521  30.289  1.00  0.00     0.031 C 
ATOM     69  C   UNL A   1      44.668  32.143  29.148  1.00  0.00     0.034 A 
BRANCH  56  70
ATOM     70  C   UNL A   1      48.058  27.789  26.349  1.00  0.00     0.023 A 
ATOM     71  C   UNL A   1      49.134  27.422  27.184  1.00  0.00     0.012 A 
ATOM     72  C   UNL A   1      48.231  27.765  24.951  1.00  0.00     0.148 A 
ATOM     73  C   UNL A   1      50.375  27.093  26.640  1.00  0.00     0.002 A 
ATOM     74  C   UNL A   1      49.455  27.383  24.415  1.00  0.00     0.091 A 
ATOM     75  F   UNL A   1      47.207  28.141  24.173  1.00  0.00    -0.205 F 
ATOM     76  C   UNL A   1      50.533  27.065  25.257  1.00  0.00     0.022 A 
BRANCH  74  77
ATOM     77  S   UNL A   1      49.726  27.232  22.647  1.00  0.00     0.127 S 
ATOM     78  O   UNL A   1      49.534  28.610  22.200  1.00  0.00    -0.237 OA
ATOM     79  O   UNL A   1      51.110  26.759  22.589  1.00  0.00    -0.237 OA
ATOM     80  O   UNL A   1      48.739  26.274  22.170  1.00  0.00    -0.744 OA
ENDBRANCH  74  77
ENDBRANCH  56  70
BRANCH  57  81
ATOM     81  C   UNL A   1      39.328  29.760  30.774  1.00  0.00     0.023 A 
ATOM     82  C   UNL A   1      39.133  29.243  32.069  1.00  0.00     0.012 A 
ATOM     83  C   UNL A   1      38.329  30.568  30.196  1.00  0.00     0.148 A 
ATOM     84  C   UNL A   1      37.955  29.507  32.767  1.00  0.00     0.002 A 
ATOM     85  C   UNL A   1      37.186  30.877  30.921  1.00  0.00     0.091 A 
ATOM     86  F   UNL A   1      38.533  31.039  28.959  1.00  0.00    -0.205 F 
ATOM     87  C   UNL A   1      36.988  30.333  32.200  1.00  0.00     0.022 A 
BRANCH  85  88
ATOM     88  S   UNL A   1      35.957  32.045  30.329  1.00  0.00     0.127 S 
ATOM     89  O   UNL A   1      36.732  33.281  30.251  1.00  0.00    -0.237 OA
ATOM     90  O   UNL A   1      35.591  31.460  29.040  1.00  0.00    -0.237 OA
ATOM     91  O   UNL A   1      34.890  32.035  31.321  1.00  0.00    -0.744 OA
ENDBRANCH  85  88
ENDBRANCH  57  81
BRANCH  69  92
ATOM     92  C   UNL A   1      45.028  33.583  29.417  1.00  0.00     0.023 A 
ATOM     93  C   UNL A   1      45.594  33.961  30.650  1.00  0.00     0.012 A 
ATOM     94  C   UNL A   1      44.860  34.556  28.410  1.00  0.00     0.148 A 
ATOM     95  C   UNL A   1      45.946  35.290  30.893  1.00  0.00     0.002 A 
ATOM     96  C   UNL A   1      45.264  35.866  28.638  1.00  0.00     0.091 A 
ATOM     97  F   UNL A   1      44.303  34.184  27.248  1.00  0.00    -0.205 F 
ATOM     98  C   UNL A   1      45.792  36.238  29.884  1.00  0.00     0.022 A 
BRANCH  96  99
ATOM     99  S   UNL A   1      45.198  37.127  27.360  1.00  0.00     0.127 S 
ATOM    100  O   UNL A   1      43.759  37.242  27.131  1.00  0.00    -0.237 OA
ATOM    101  O   UNL A   1      45.803  38.279  28.031  1.00  0.00    -0.237 OA
ATOM    102  O   UNL A   1      45.971  36.606  26.241  1.00  0.00    -0.744 OA
ENDBRANCH  96  99
ENDBRANCH  69  92
ENDBRANCH  43  44
ENDBRANCH  36  38
ENDBRANCH  35  36
ENDBRANCH  34  35
ENDBRANCH  33  34
ENDBRANCH  32  33
ENDBRANCH  31  32
ENDBRANCH  30  31
ENDBRANCH   1  30
TORSDOF 26
ENDMDL
