MODEL 1
REMARK VINA RESULT:      -7.1      0.000      0.000
REMARK SMILES Cc1ccccc1[C@@H](Cc1c(Cl)cccc1Cl)C(=O)OCCOCCOCCOCCOC(=O)c1ccc(-c2c3nc(c(-c4cccc(S(=O)(=O)[O-])c4F)c4ccc([nH]4)c(-c4cccc(S(=O)(=O)[O-])c4F)c4nc(c(-c5cccc(S(=O)(=O)[O-])c5F)c5ccc2[nH]5)C=C4)C=C3)cc1
REMARK SMILES IDX 27 1 26 2 25 3 24 4 23 5 22 6 21 7 20 8 18 9 19 10 8 11 7 12
REMARK SMILES IDX 1 13 2 14 3 15 4 16 6 17 5 18 9 19 10 20 11 21 16 22 12 23
REMARK SMILES IDX 13 24 15 25 17 26 14 27 28 28 29 29 30 30 31 31 32 32 33 33
REMARK SMILES IDX 34 34 35 35 36 36 97 37 37 38 96 39 38 40 39 41 40 42 90 43
REMARK SMILES IDX 41 44 95 45 89 46 91 47 42 48 94 49 88 50 87 51 43 53 75 54
REMARK SMILES IDX 55 55 74 56 56 57 59 58 73 59 92 60 57 61 58 62 72 64 93 65
REMARK SMILES IDX 60 66 44 67 45 68 53 69 46 70 48 71 54 72 47 73 49 74 50 75
REMARK SMILES IDX 51 76 52 77 76 78 77 79 85 80 78 81 80 82 86 83 79 84 81 85
REMARK SMILES IDX 82 86 83 87 84 88 61 89 62 90 70 91 63 92 65 93 71 94 64 95
REMARK SMILES IDX 66 96 67 97 68 98 69 99
REMARK H PARENT 91 52 59 63
REMARK Flexibility Score: inf
ROOT
ATOM      1  C   UNL A   1      40.791  21.356  27.745  1.00  0.00     0.188 C 
ENDROOT
BRANCH   1   2
ATOM      2  O   UNL A   1      40.882  20.051  27.220  1.00  0.00    -0.377 OA
BRANCH   2   3
ATOM      3  C   UNL A   1      42.203  19.570  27.067  1.00  0.00     0.188 C 
BRANCH   3   4
ATOM      4  C   UNL A   1      42.650  19.182  25.655  1.00  0.00     0.188 C 
BRANCH   4   5
ATOM      5  O   UNL A   1      43.497  20.098  24.968  1.00  0.00    -0.376 OA
BRANCH   5   6
ATOM      6  C   UNL A   1      43.889  21.275  25.669  1.00  0.00     0.202 C 
BRANCH   6   7
ATOM      7  C   UNL A   1      43.322  22.604  25.179  1.00  0.00     0.261 C 
BRANCH   7   8
ATOM      8  O   UNL A   1      44.345  23.560  24.811  1.00  0.00    -0.463 OA
BRANCH   8   9
ATOM      9  C   UNL A   1      44.187  24.789  25.349  1.00  0.00     0.313 C 
ATOM     10  O   UNL A   1      43.373  25.612  24.936  1.00  0.00    -0.252 OA
BRANCH   9  11
ATOM     11  C   UNL A   1      45.085  25.079  26.548  1.00  0.00     0.134 C 
BRANCH  11  12
ATOM     12  C   UNL A   1      46.434  25.703  26.130  1.00  0.00    -0.031 A 
ATOM     13  C   UNL A   1      45.360  28.001  25.620  1.00  0.00     0.044 C 
ATOM     14  C   UNL A   1      46.520  27.037  25.652  1.00  0.00    -0.047 A 
ATOM     15  C   UNL A   1      47.773  27.570  25.271  1.00  0.00     0.004 A 
ATOM     16  C   UNL A   1      48.944  26.833  25.413  1.00  0.00     0.000 A 
ATOM     17  C   UNL A   1      47.646  24.992  26.283  1.00  0.00     0.005 A 
ATOM     18  C   UNL A   1      48.881  25.548  25.930  1.00  0.00     0.000 A 
ENDBRANCH  11  12
BRANCH  11  19
ATOM     19  C   UNL A   1      44.368  25.773  27.741  1.00  0.00     0.058 C 
BRANCH  19  20
ATOM     20  C   UNL A   1      44.699  25.482  29.200  1.00  0.00    -0.010 A 
ATOM     21  C   UNL A   1      45.514  26.401  29.903  1.00  0.00     0.045 A 
ATOM     22  C   UNL A   1      44.247  24.375  29.935  1.00  0.00     0.045 A 
ATOM     23  Cl  UNL A   1      46.386  27.667  29.096  1.00  0.00    -0.084 Cl
ATOM     24  C   UNL A   1      45.683  26.322  31.291  1.00  0.00     0.021 A 
ATOM     25  C   UNL A   1      44.326  24.353  31.334  1.00  0.00     0.021 A 
ATOM     26  Cl  UNL A   1      43.754  22.893  29.198  1.00  0.00    -0.084 Cl
ATOM     27  C   UNL A   1      45.018  25.344  32.017  1.00  0.00     0.003 A 
ENDBRANCH  19  20
ENDBRANCH  11  19
ENDBRANCH   9  11
ENDBRANCH   8   9
ENDBRANCH   7   8
ENDBRANCH   6   7
ENDBRANCH   5   6
ENDBRANCH   4   5
ENDBRANCH   3   4
ENDBRANCH   2   3
ENDBRANCH   1   2
BRANCH   1  28
ATOM     28  C   UNL A   1      40.069  22.269  26.753  1.00  0.00     0.188 C 
BRANCH  28  29
ATOM     29  O   UNL A   1      39.170  23.224  27.303  1.00  0.00    -0.376 OA
BRANCH  29  30
ATOM     30  C   UNL A   1      39.097  24.512  26.696  1.00  0.00     0.202 C 
BRANCH  30  31
ATOM     31  C   UNL A   1      40.330  25.452  26.688  1.00  0.00     0.261 C 
BRANCH  31  32
ATOM     32  O   UNL A   1      39.987  26.834  26.941  1.00  0.00    -0.460 OA
BRANCH  32  33
ATOM     33  C   UNL A   1      40.146  27.262  28.230  1.00  0.00     0.338 C 
ATOM     34  O   UNL A   1      39.260  27.233  29.068  1.00  0.00    -0.246 OA
BRANCH  33  35
ATOM     35  C   UNL A   1      41.485  27.927  28.393  1.00  0.00     0.060 A 
ATOM     36  C   UNL A   1      42.045  28.056  29.664  1.00  0.00     0.016 A 
ATOM     37  C   UNL A   1      42.074  28.635  27.352  1.00  0.00     0.016 A 
ATOM     38  C   UNL A   1      42.986  29.072  29.931  1.00  0.00     0.010 A 
ATOM     39  C   UNL A   1      42.915  29.718  27.640  1.00  0.00     0.010 A 
ATOM     40  C   UNL A   1      43.309  30.017  28.954  1.00  0.00    -0.014 A 
BRANCH  40  41
ATOM     41  C   UNL A   1      43.796  31.396  29.268  1.00  0.00     0.031 A 
ATOM     42  C   UNL A   1      45.188  31.886  28.917  1.00  0.00     0.074 A 
ATOM     43  C   UNL A   1      42.869  32.357  29.564  1.00  0.00     0.049 A 
ATOM     44  N   UNL A   1      45.678  33.037  29.269  1.00  0.00    -0.248 NA
ATOM     45  C   UNL A   1      46.144  31.135  28.111  1.00  0.00     0.031 C 
ATOM     46  C   UNL A   1      43.039  33.787  29.312  1.00  0.00     0.029 A 
ATOM     47  N   UNL A   1      41.586  32.304  30.136  1.00  0.00    -0.354 N 
ATOM     48  C   UNL A   1      46.781  33.321  28.475  1.00  0.00     0.074 A 
ATOM     49  C   UNL A   1      47.068  32.063  27.831  1.00  0.00     0.031 C 
ATOM     50  C   UNL A   1      41.992  34.485  29.750  1.00  0.00     0.029 A 
ATOM     51  C   UNL A   1      41.233  33.593  30.585  1.00  0.00     0.049 A 
ATOM     52  H   UNL A   1      41.026  31.498  30.211  1.00  0.00     0.167 HD
ATOM     53  C   UNL A   1      47.226  34.613  28.342  1.00  0.00     0.034 A 
ATOM     54  C   UNL A   1      40.850  33.941  31.847  1.00  0.00     0.034 A 
ATOM     55  C   UNL A   1      46.439  35.551  29.178  1.00  0.00     0.049 A 
ATOM     56  C   UNL A   1      41.872  34.826  32.541  1.00  0.00     0.074 A 
ATOM     57  C   UNL A   1      45.600  36.611  28.870  1.00  0.00     0.029 A 
ATOM     58  N   UNL A   1      46.314  35.358  30.558  1.00  0.00    -0.354 N 
ATOM     59  N   UNL A   1      43.018  35.137  32.000  1.00  0.00    -0.248 NA
ATOM     60  C   UNL A   1      41.731  35.429  33.864  1.00  0.00     0.031 C 
ATOM     61  C   UNL A   1      44.870  36.951  30.026  1.00  0.00     0.029 A 
ATOM     62  C   UNL A   1      45.340  36.194  31.078  1.00  0.00     0.049 A 
ATOM     63  H   UNL A   1      46.843  34.718  31.085  1.00  0.00     0.167 HD
ATOM     64  C   UNL A   1      43.774  35.893  32.848  1.00  0.00     0.074 A 
ATOM     65  C   UNL A   1      42.913  36.066  34.004  1.00  0.00     0.031 C 
ATOM     66  C   UNL A   1      45.037  36.291  32.500  1.00  0.00     0.034 A 
BRANCH  53  67
ATOM     67  C   UNL A   1      48.186  35.144  27.245  1.00  0.00     0.023 A 
ATOM     68  C   UNL A   1      47.817  36.330  26.553  1.00  0.00     0.012 A 
ATOM     69  C   UNL A   1      49.402  34.569  26.805  1.00  0.00     0.148 A 
ATOM     70  C   UNL A   1      48.506  36.824  25.434  1.00  0.00     0.002 A 
ATOM     71  C   UNL A   1      50.083  35.046  25.670  1.00  0.00     0.091 A 
ATOM     72  F   UNL A   1      49.982  33.612  27.530  1.00  0.00    -0.205 F 
ATOM     73  C   UNL A   1      49.623  36.160  24.968  1.00  0.00     0.022 A 
BRANCH  71  74
ATOM     74  S   UNL A   1      51.565  34.245  25.021  1.00  0.00     0.127 S 
ATOM     75  O   UNL A   1      51.086  32.893  24.720  1.00  0.00    -0.237 OA
ATOM     76  O   UNL A   1      51.867  35.056  23.843  1.00  0.00    -0.237 OA
ATOM     77  O   UNL A   1      52.550  34.300  26.095  1.00  0.00    -0.744 OA
ENDBRANCH  71  74
ENDBRANCH  53  67
BRANCH  54  78
ATOM     78  C   UNL A   1      39.855  33.024  32.438  1.00  0.00     0.023 A 
ATOM     79  C   UNL A   1      40.310  32.286  33.557  1.00  0.00     0.012 A 
ATOM     80  C   UNL A   1      38.489  33.297  32.305  1.00  0.00     0.148 A 
ATOM     81  C   UNL A   1      39.451  31.999  34.616  1.00  0.00     0.002 A 
ATOM     82  C   UNL A   1      37.649  33.058  33.388  1.00  0.00     0.091 A 
ATOM     83  F   UNL A   1      38.071  33.925  31.199  1.00  0.00    -0.205 F 
ATOM     84  C   UNL A   1      38.133  32.439  34.555  1.00  0.00     0.022 A 
BRANCH  82  85
ATOM     85  S   UNL A   1      36.013  33.799  33.460  1.00  0.00     0.127 S 
ATOM     86  O   UNL A   1      35.522  33.329  34.750  1.00  0.00    -0.237 OA
ATOM     87  O   UNL A   1      36.321  35.226  33.395  1.00  0.00    -0.237 OA
ATOM     88  O   UNL A   1      35.328  33.287  32.280  1.00  0.00    -0.744 OA
ENDBRANCH  82  85
ENDBRANCH  54  78
BRANCH  66  89
ATOM     89  C   UNL A   1      46.055  36.947  33.407  1.00  0.00     0.023 A 
ATOM     90  C   UNL A   1      46.018  38.321  33.701  1.00  0.00     0.012 A 
ATOM     91  C   UNL A   1      47.007  36.162  34.118  1.00  0.00     0.148 A 
ATOM     92  C   UNL A   1      46.900  38.897  34.624  1.00  0.00     0.002 A 
ATOM     93  C   UNL A   1      47.806  36.722  35.108  1.00  0.00     0.091 A 
ATOM     94  F   UNL A   1      47.166  34.866  33.818  1.00  0.00    -0.205 F 
ATOM     95  C   UNL A   1      47.775  38.096  35.346  1.00  0.00     0.022 A 
BRANCH  93  96
ATOM     96  S   UNL A   1      48.805  35.705  36.207  1.00  0.00     0.127 S 
ATOM     97  O   UNL A   1      49.615  34.946  35.256  1.00  0.00    -0.237 OA
ATOM     98  O   UNL A   1      49.539  36.716  36.969  1.00  0.00    -0.237 OA
ATOM     99  O   UNL A   1      47.861  34.925  36.997  1.00  0.00    -0.744 OA
ENDBRANCH  93  96
ENDBRANCH  66  89
ENDBRANCH  40  41
ENDBRANCH  33  35
ENDBRANCH  32  33
ENDBRANCH  31  32
ENDBRANCH  30  31
ENDBRANCH  29  30
ENDBRANCH  28  29
ENDBRANCH   1  28
TORSDOF 26
ENDMDL
MODEL 2
REMARK VINA RESULT:      -7.0      1.909      3.059
REMARK SMILES Cc1ccccc1[C@@H](Cc1c(Cl)cccc1Cl)C(=O)OCCOCCOCCOCCOC(=O)c1ccc(-c2c3nc(c(-c4cccc(S(=O)(=O)[O-])c4F)c4ccc([nH]4)c(-c4cccc(S(=O)(=O)[O-])c4F)c4nc(c(-c5cccc(S(=O)(=O)[O-])c5F)c5ccc2[nH]5)C=C4)C=C3)cc1
REMARK SMILES IDX 27 1 26 2 25 3 24 4 23 5 22 6 21 7 20 8 18 9 19 10 8 11 7 12
REMARK SMILES IDX 1 13 2 14 3 15 4 16 6 17 5 18 9 19 10 20 11 21 16 22 12 23
REMARK SMILES IDX 13 24 15 25 17 26 14 27 28 28 29 29 30 30 31 31 32 32 33 33
REMARK SMILES IDX 34 34 35 35 36 36 97 37 37 38 96 39 38 40 39 41 40 42 90 43
REMARK SMILES IDX 41 44 95 45 89 46 91 47 42 48 94 49 88 50 87 51 43 53 75 54
REMARK SMILES IDX 55 55 74 56 56 57 59 58 73 59 92 60 57 61 58 62 72 64 93 65
REMARK SMILES IDX 60 66 44 67 45 68 53 69 46 70 48 71 54 72 47 73 49 74 50 75
REMARK SMILES IDX 51 76 52 77 76 78 77 79 85 80 78 81 80 82 86 83 79 84 81 85
REMARK SMILES IDX 82 86 83 87 84 88 61 89 62 90 70 91 63 92 65 93 71 94 64 95
REMARK SMILES IDX 66 96 67 97 68 98 69 99
REMARK H PARENT 91 52 59 63
REMARK Flexibility Score: inf
ROOT
ATOM      1  C   UNL A   1      41.026  21.428  27.196  1.00  0.00     0.188 C 
ENDROOT
BRANCH   1   2
ATOM      2  O   UNL A   1      41.220  20.206  26.519  1.00  0.00    -0.377 OA
BRANCH   2   3
ATOM      3  C   UNL A   1      42.521  19.667  26.642  1.00  0.00     0.188 C 
BRANCH   3   4
ATOM      4  C   UNL A   1      43.214  19.204  25.357  1.00  0.00     0.188 C 
BRANCH   4   5
ATOM      5  O   UNL A   1      43.949  20.182  24.628  1.00  0.00    -0.376 OA
BRANCH   5   6
ATOM      6  C   UNL A   1      44.331  21.365  25.327  1.00  0.00     0.202 C 
BRANCH   6   7
ATOM      7  C   UNL A   1      43.844  22.697  24.765  1.00  0.00     0.261 C 
BRANCH   7   8
ATOM      8  O   UNL A   1      44.912  23.653  24.559  1.00  0.00    -0.463 OA
BRANCH   8   9
ATOM      9  C   UNL A   1      44.661  24.892  25.038  1.00  0.00     0.313 C 
ATOM     10  O   UNL A   1      43.530  25.358  25.155  1.00  0.00    -0.252 OA
BRANCH   9  11
ATOM     11  C   UNL A   1      45.900  25.674  25.462  1.00  0.00     0.134 C 
BRANCH  11  12
ATOM     12  C   UNL A   1      45.850  26.085  26.950  1.00  0.00    -0.031 A 
ATOM     13  C   UNL A   1      45.737  28.606  26.383  1.00  0.00     0.044 C 
ATOM     14  C   UNL A   1      45.834  27.449  27.344  1.00  0.00    -0.047 A 
ATOM     15  C   UNL A   1      45.796  27.785  28.717  1.00  0.00     0.004 A 
ATOM     16  C   UNL A   1      45.713  26.803  29.699  1.00  0.00     0.000 A 
ATOM     17  C   UNL A   1      45.741  25.115  27.972  1.00  0.00     0.005 A 
ATOM     18  C   UNL A   1      45.674  25.469  29.325  1.00  0.00     0.000 A 
ENDBRANCH  11  12
BRANCH  11  19
ATOM     19  C   UNL A   1      47.246  25.065  24.981  1.00  0.00     0.058 C 
BRANCH  19  20
ATOM     20  C   UNL A   1      48.552  25.850  24.938  1.00  0.00    -0.010 A 
ATOM     21  C   UNL A   1      49.496  25.647  25.972  1.00  0.00     0.045 A 
ATOM     22  C   UNL A   1      48.925  26.761  23.937  1.00  0.00     0.045 A 
ATOM     23  Cl  UNL A   1      49.102  24.781  27.425  1.00  0.00    -0.084 Cl
ATOM     24  C   UNL A   1      50.798  26.158  25.891  1.00  0.00     0.021 A 
ATOM     25  C   UNL A   1      50.254  27.186  23.802  1.00  0.00     0.021 A 
ATOM     26  Cl  UNL A   1      47.780  27.582  22.938  1.00  0.00    -0.084 Cl
ATOM     27  C   UNL A   1      51.200  26.858  24.763  1.00  0.00     0.003 A 
ENDBRANCH  19  20
ENDBRANCH  11  19
ENDBRANCH   9  11
ENDBRANCH   8   9
ENDBRANCH   7   8
ENDBRANCH   6   7
ENDBRANCH   5   6
ENDBRANCH   4   5
ENDBRANCH   3   4
ENDBRANCH   2   3
ENDBRANCH   1   2
BRANCH   1  28
ATOM     28  C   UNL A   1      39.999  22.280  26.450  1.00  0.00     0.188 C 
BRANCH  28  29
ATOM     29  O   UNL A   1      39.348  23.299  27.202  1.00  0.00    -0.376 OA
BRANCH  29  30
ATOM     30  C   UNL A   1      39.263  24.605  26.637  1.00  0.00     0.202 C 
BRANCH  30  31
ATOM     31  C   UNL A   1      40.505  25.533  26.604  1.00  0.00     0.261 C 
BRANCH  31  32
ATOM     32  O   UNL A   1      40.186  26.911  26.903  1.00  0.00    -0.460 OA
BRANCH  32  33
ATOM     33  C   UNL A   1      40.232  27.261  28.224  1.00  0.00     0.338 C 
ATOM     34  O   UNL A   1      39.299  27.114  28.997  1.00  0.00    -0.246 OA
BRANCH  33  35
ATOM     35  C   UNL A   1      41.506  28.004  28.519  1.00  0.00     0.060 A 
ATOM     36  C   UNL A   1      41.990  28.059  29.827  1.00  0.00     0.016 A 
ATOM     37  C   UNL A   1      42.090  28.843  27.578  1.00  0.00     0.016 A 
ATOM     38  C   UNL A   1      42.835  29.112  30.233  1.00  0.00     0.010 A 
ATOM     39  C   UNL A   1      42.830  29.954  28.004  1.00  0.00     0.010 A 
ATOM     40  C   UNL A   1      43.133  30.162  29.359  1.00  0.00    -0.014 A 
BRANCH  40  41
ATOM     41  C   UNL A   1      43.496  31.539  29.817  1.00  0.00     0.031 A 
ATOM     42  C   UNL A   1      44.903  32.100  29.730  1.00  0.00     0.074 A 
ATOM     43  C   UNL A   1      42.488  32.446  29.998  1.00  0.00     0.049 A 
ATOM     44  N   UNL A   1      45.273  33.248  30.215  1.00  0.00    -0.248 NA
ATOM     45  C   UNL A   1      46.013  31.431  29.061  1.00  0.00     0.031 C 
ATOM     46  C   UNL A   1      42.631  33.893  29.848  1.00  0.00     0.029 A 
ATOM     47  N   UNL A   1      41.132  32.313  30.343  1.00  0.00    -0.354 N 
ATOM     48  C   UNL A   1      46.477  33.617  29.633  1.00  0.00     0.074 A 
ATOM     49  C   UNL A   1      46.927  32.408  28.987  1.00  0.00     0.031 C 
ATOM     50  C   UNL A   1      41.494  34.526  30.136  1.00  0.00     0.029 A 
ATOM     51  C   UNL A   1      40.650  33.561  30.788  1.00  0.00     0.049 A 
ATOM     52  H   UNL A   1      40.605  31.483  30.284  1.00  0.00     0.167 HD
ATOM     53  C   UNL A   1      46.878  34.930  29.639  1.00  0.00     0.034 A 
ATOM     54  C   UNL A   1      40.046  33.823  31.983  1.00  0.00     0.034 A 
ATOM     55  C   UNL A   1      45.920  35.790  30.374  1.00  0.00     0.049 A 
ATOM     56  C   UNL A   1      40.896  34.707  32.880  1.00  0.00     0.074 A 
ATOM     57  C   UNL A   1      45.095  36.833  29.981  1.00  0.00     0.029 A 
ATOM     58  N   UNL A   1      45.576  35.516  31.702  1.00  0.00    -0.354 N 
ATOM     59  N   UNL A   1      42.100  35.091  32.555  1.00  0.00    -0.248 NA
ATOM     60  C   UNL A   1      40.509  35.230  34.188  1.00  0.00     0.031 C 
ATOM     61  C   UNL A   1      44.168  37.080  31.012  1.00  0.00     0.029 A 
ATOM     62  C   UNL A   1      44.491  36.284  32.091  1.00  0.00     0.049 A 
ATOM     63  H   UNL A   1      46.040  34.868  32.280  1.00  0.00     0.167 HD
ATOM     64  C   UNL A   1      42.668  35.827  33.554  1.00  0.00     0.074 A 
ATOM     65  C   UNL A   1      41.620  35.903  34.555  1.00  0.00     0.031 C 
ATOM     66  C   UNL A   1      43.951  36.291  33.444  1.00  0.00     0.034 A 
BRANCH  53  67
ATOM     67  C   UNL A   1      47.981  35.557  28.746  1.00  0.00     0.023 A 
ATOM     68  C   UNL A   1      47.705  36.803  28.121  1.00  0.00     0.012 A 
ATOM     69  C   UNL A   1      49.253  35.020  28.436  1.00  0.00     0.148 A 
ATOM     70  C   UNL A   1      48.543  37.397  27.164  1.00  0.00     0.002 A 
ATOM     71  C   UNL A   1      50.087  35.598  27.461  1.00  0.00     0.091 A 
ATOM     72  F   UNL A   1      49.732  33.999  29.146  1.00  0.00    -0.205 F 
ATOM     73  C   UNL A   1      49.723  36.775  26.806  1.00  0.00     0.022 A 
BRANCH  71  74
ATOM     74  S   UNL A   1      51.655  34.856  26.961  1.00  0.00     0.127 S 
ATOM     75  O   UNL A   1      51.248  33.511  26.545  1.00  0.00    -0.237 OA
ATOM     76  O   UNL A   1      52.078  35.726  25.866  1.00  0.00    -0.237 OA
ATOM     77  O   UNL A   1      52.501  34.879  28.148  1.00  0.00    -0.744 OA
ENDBRANCH  71  74
ENDBRANCH  53  67
BRANCH  54  78
ATOM     78  C   UNL A   1      39.010  32.838  32.352  1.00  0.00     0.023 A 
ATOM     79  C   UNL A   1      39.303  32.063  33.500  1.00  0.00     0.012 A 
ATOM     80  C   UNL A   1      37.676  33.062  31.997  1.00  0.00     0.148 A 
ATOM     81  C   UNL A   1      38.290  31.689  34.381  1.00  0.00     0.002 A 
ATOM     82  C   UNL A   1      36.675  32.734  32.906  1.00  0.00     0.091 A 
ATOM     83  F   UNL A   1      37.423  33.727  30.862  1.00  0.00    -0.205 F 
ATOM     84  C   UNL A   1      36.983  32.077  34.111  1.00  0.00     0.022 A 
BRANCH  82  85
ATOM     85  S   UNL A   1      35.017  33.403  32.726  1.00  0.00     0.127 S 
ATOM     86  O   UNL A   1      34.294  32.274  32.153  1.00  0.00    -0.237 OA
ATOM     87  O   UNL A   1      34.667  33.729  34.107  1.00  0.00    -0.237 OA
ATOM     88  O   UNL A   1      35.184  34.569  31.867  1.00  0.00    -0.744 OA
ENDBRANCH  82  85
ENDBRANCH  54  78
BRANCH  66  89
ATOM     89  C   UNL A   1      44.772  36.934  34.541  1.00  0.00     0.023 A 
ATOM     90  C   UNL A   1      45.709  36.207  35.296  1.00  0.00     0.012 A 
ATOM     91  C   UNL A   1      44.731  38.342  34.749  1.00  0.00     0.148 A 
ATOM     92  C   UNL A   1      46.538  36.834  36.235  1.00  0.00     0.002 A 
ATOM     93  C   UNL A   1      45.629  38.970  35.604  1.00  0.00     0.091 A 
ATOM     94  F   UNL A   1      43.797  39.083  34.138  1.00  0.00    -0.205 F 
ATOM     95  C   UNL A   1      46.517  38.216  36.371  1.00  0.00     0.022 A 
BRANCH  93  96
ATOM     96  S   UNL A   1      45.782  40.762  35.667  1.00  0.00     0.127 S 
ATOM     97  O   UNL A   1      46.902  40.932  36.591  1.00  0.00    -0.237 OA
ATOM     98  O   UNL A   1      46.082  41.089  34.273  1.00  0.00    -0.237 OA
ATOM     99  O   UNL A   1      44.495  41.257  36.138  1.00  0.00    -0.744 OA
ENDBRANCH  93  96
ENDBRANCH  66  89
ENDBRANCH  40  41
ENDBRANCH  33  35
ENDBRANCH  32  33
ENDBRANCH  31  32
ENDBRANCH  30  31
ENDBRANCH  29  30
ENDBRANCH  28  29
ENDBRANCH   1  28
TORSDOF 26
ENDMDL
MODEL 3
REMARK VINA RESULT:      -6.8      6.542     13.135
REMARK SMILES Cc1ccccc1[C@@H](Cc1c(Cl)cccc1Cl)C(=O)OCCOCCOCCOCCOC(=O)c1ccc(-c2c3nc(c(-c4cccc(S(=O)(=O)[O-])c4F)c4ccc([nH]4)c(-c4cccc(S(=O)(=O)[O-])c4F)c4nc(c(-c5cccc(S(=O)(=O)[O-])c5F)c5ccc2[nH]5)C=C4)C=C3)cc1
REMARK SMILES IDX 27 1 26 2 25 3 24 4 23 5 22 6 21 7 20 8 18 9 19 10 8 11 7 12
REMARK SMILES IDX 1 13 2 14 3 15 4 16 6 17 5 18 9 19 10 20 11 21 16 22 12 23
REMARK SMILES IDX 13 24 15 25 17 26 14 27 28 28 29 29 30 30 31 31 32 32 33 33
REMARK SMILES IDX 34 34 35 35 36 36 97 37 37 38 96 39 38 40 39 41 40 42 90 43
REMARK SMILES IDX 41 44 95 45 89 46 91 47 42 48 94 49 88 50 87 51 43 53 75 54
REMARK SMILES IDX 55 55 74 56 56 57 59 58 73 59 92 60 57 61 58 62 72 64 93 65
REMARK SMILES IDX 60 66 44 67 45 68 53 69 46 70 48 71 54 72 47 73 49 74 50 75
REMARK SMILES IDX 51 76 52 77 76 78 77 79 85 80 78 81 80 82 86 83 79 84 81 85
REMARK SMILES IDX 82 86 83 87 84 88 61 89 62 90 70 91 63 92 65 93 71 94 64 95
REMARK SMILES IDX 66 96 67 97 68 98 69 99
REMARK H PARENT 91 52 59 63
REMARK Flexibility Score: inf
ROOT
ATOM      1  C   UNL A   1      52.133  41.788  32.795  1.00  0.00     0.188 C 
ENDROOT
BRANCH   1   2
ATOM      2  O   UNL A   1      51.872  40.435  32.499  1.00  0.00    -0.377 OA
BRANCH   2   3
ATOM      3  C   UNL A   1      52.432  39.982  31.282  1.00  0.00     0.188 C 
BRANCH   3   4
ATOM      4  C   UNL A   1      51.705  40.363  29.989  1.00  0.00     0.188 C 
BRANCH   4   5
ATOM      5  O   UNL A   1      50.345  39.957  29.866  1.00  0.00    -0.376 OA
BRANCH   5   6
ATOM      6  C   UNL A   1      49.542  40.648  28.912  1.00  0.00     0.202 C 
BRANCH   6   7
ATOM      7  C   UNL A   1      48.087  40.916  29.285  1.00  0.00     0.261 C 
BRANCH   7   8
ATOM      8  O   UNL A   1      47.261  41.261  28.147  1.00  0.00    -0.463 OA
BRANCH   8   9
ATOM      9  C   UNL A   1      45.946  41.397  28.425  1.00  0.00     0.313 C 
ATOM     10  O   UNL A   1      45.498  41.479  29.566  1.00  0.00    -0.252 OA
BRANCH   9  11
ATOM     11  C   UNL A   1      45.041  41.477  27.200  1.00  0.00     0.134 C 
BRANCH  11  12
ATOM     12  C   UNL A   1      43.987  40.349  27.177  1.00  0.00    -0.031 A 
ATOM     13  C   UNL A   1      45.690  38.601  26.318  1.00  0.00     0.044 C 
ATOM     14  C   UNL A   1      44.303  39.046  26.710  1.00  0.00    -0.047 A 
ATOM     15  C   UNL A   1      43.308  38.041  26.697  1.00  0.00     0.004 A 
ATOM     16  C   UNL A   1      42.031  38.283  27.192  1.00  0.00     0.000 A 
ATOM     17  C   UNL A   1      42.687  40.552  27.694  1.00  0.00     0.005 A 
ATOM     18  C   UNL A   1      41.725  39.536  27.700  1.00  0.00     0.000 A 
ENDBRANCH  11  12
BRANCH  11  19
ATOM     19  C   UNL A   1      44.503  42.901  26.884  1.00  0.00     0.058 C 
BRANCH  19  20
ATOM     20  C   UNL A   1      44.487  43.498  25.481  1.00  0.00    -0.010 A 
ATOM     21  C   UNL A   1      45.217  44.686  25.244  1.00  0.00     0.045 A 
ATOM     22  C   UNL A   1      43.817  42.958  24.372  1.00  0.00     0.045 A 
ATOM     23  Cl  UNL A   1      45.870  45.642  26.539  1.00  0.00    -0.084 Cl
ATOM     24  C   UNL A   1      45.431  45.173  23.949  1.00  0.00     0.021 A 
ATOM     25  C   UNL A   1      44.116  43.380  23.069  1.00  0.00     0.021 A 
ATOM     26  Cl  UNL A   1      42.458  41.902  24.515  1.00  0.00    -0.084 Cl
ATOM     27  C   UNL A   1      44.949  44.470  22.854  1.00  0.00     0.003 A 
ENDBRANCH  19  20
ENDBRANCH  11  19
ENDBRANCH   9  11
ENDBRANCH   8   9
ENDBRANCH   7   8
ENDBRANCH   6   7
ENDBRANCH   5   6
ENDBRANCH   4   5
ENDBRANCH   3   4
ENDBRANCH   2   3
ENDBRANCH   1   2
BRANCH   1  28
ATOM     28  C   UNL A   1      50.820  42.528  33.053  1.00  0.00     0.188 C 
BRANCH  28  29
ATOM     29  O   UNL A   1      49.899  42.591  31.969  1.00  0.00    -0.376 OA
BRANCH  29  30
ATOM     30  C   UNL A   1      48.569  43.031  32.236  1.00  0.00     0.202 C 
BRANCH  30  31
ATOM     31  C   UNL A   1      48.194  43.611  33.624  1.00  0.00     0.261 C 
BRANCH  31  32
ATOM     32  O   UNL A   1      47.363  42.719  34.401  1.00  0.00    -0.460 OA
BRANCH  32  33
ATOM     33  C   UNL A   1      46.017  42.812  34.179  1.00  0.00     0.338 C 
ATOM     34  O   UNL A   1      45.453  43.844  33.854  1.00  0.00    -0.246 OA
BRANCH  33  35
ATOM     35  C   UNL A   1      45.337  41.527  34.569  1.00  0.00     0.060 A 
ATOM     36  C   UNL A   1      46.103  40.394  34.844  1.00  0.00     0.016 A 
ATOM     37  C   UNL A   1      43.965  41.363  34.428  1.00  0.00     0.016 A 
ATOM     38  C   UNL A   1      45.546  39.105  34.706  1.00  0.00     0.010 A 
ATOM     39  C   UNL A   1      43.443  40.088  34.174  1.00  0.00     0.010 A 
ATOM     40  C   UNL A   1      44.250  38.940  34.212  1.00  0.00    -0.014 A 
BRANCH  40  41
ATOM     41  C   UNL A   1      43.789  37.706  33.502  1.00  0.00     0.031 A 
ATOM     42  C   UNL A   1      43.823  37.554  31.992  1.00  0.00     0.074 A 
ATOM     43  C   UNL A   1      43.656  36.555  34.227  1.00  0.00     0.049 A 
ATOM     44  N   UNL A   1      43.333  36.543  31.339  1.00  0.00    -0.248 NA
ATOM     45  C   UNL A   1      44.441  38.514  31.084  1.00  0.00     0.031 C 
ATOM     46  C   UNL A   1      43.812  35.205  33.687  1.00  0.00     0.029 A 
ATOM     47  N   UNL A   1      43.365  36.305  35.579  1.00  0.00    -0.354 N 
ATOM     48  C   UNL A   1      43.869  36.529  30.059  1.00  0.00     0.074 A 
ATOM     49  C   UNL A   1      44.487  37.827  29.936  1.00  0.00     0.031 C 
ATOM     50  C   UNL A   1      43.575  34.280  34.617  1.00  0.00     0.029 A 
ATOM     51  C   UNL A   1      42.950  34.964  35.717  1.00  0.00     0.049 A 
ATOM     52  H   UNL A   1      43.439  36.959  36.311  1.00  0.00     0.167 HD
ATOM     53  C   UNL A   1      43.858  35.375  29.314  1.00  0.00     0.034 A 
ATOM     54  C   UNL A   1      41.783  34.524  36.269  1.00  0.00     0.034 A 
ATOM     55  C   UNL A   1      43.168  34.272  30.026  1.00  0.00     0.049 A 
ATOM     56  C   UNL A   1      40.859  33.890  35.242  1.00  0.00     0.074 A 
ATOM     57  C   UNL A   1      43.603  33.051  30.518  1.00  0.00     0.029 A 
ATOM     58  N   UNL A   1      41.853  34.416  30.480  1.00  0.00    -0.354 N 
ATOM     59  N   UNL A   1      41.138  33.857  33.968  1.00  0.00    -0.248 NA
ATOM     60  C   UNL A   1      39.573  33.256  35.519  1.00  0.00     0.031 C 
ATOM     61  C   UNL A   1      42.612  32.540  31.379  1.00  0.00     0.029 A 
ATOM     62  C   UNL A   1      41.515  33.373  31.326  1.00  0.00     0.049 A 
ATOM     63  H   UNL A   1      41.252  35.155  30.234  1.00  0.00     0.167 HD
ATOM     64  C   UNL A   1      40.123  33.286  33.257  1.00  0.00     0.074 A 
ATOM     65  C   UNL A   1      39.166  32.906  34.280  1.00  0.00     0.031 C 
ATOM     66  C   UNL A   1      40.185  33.193  31.892  1.00  0.00     0.034 A 
BRANCH  53  67
ATOM     67  C   UNL A   1      44.709  35.092  28.049  1.00  0.00     0.023 A 
ATOM     68  C   UNL A   1      44.046  34.584  26.899  1.00  0.00     0.012 A 
ATOM     69  C   UNL A   1      46.107  35.245  27.894  1.00  0.00     0.148 A 
ATOM     70  C   UNL A   1      44.715  34.131  25.750  1.00  0.00     0.002 A 
ATOM     71  C   UNL A   1      46.786  34.772  26.755  1.00  0.00     0.091 A 
ATOM     72  F   UNL A   1      46.802  35.940  28.794  1.00  0.00    -0.205 F 
ATOM     73  C   UNL A   1      46.093  34.193  25.692  1.00  0.00     0.022 A 
BRANCH  71  74
ATOM     74  S   UNL A   1      48.583  34.843  26.597  1.00  0.00     0.127 S 
ATOM     75  O   UNL A   1      48.813  34.181  25.311  1.00  0.00    -0.237 OA
ATOM     76  O   UNL A   1      48.839  36.282  26.592  1.00  0.00    -0.237 OA
ATOM     77  O   UNL A   1      49.111  34.112  27.744  1.00  0.00    -0.744 OA
ENDBRANCH  71  74
ENDBRANCH  53  67
BRANCH  54  78
ATOM     78  C   UNL A   1      41.448  35.180  37.548  1.00  0.00     0.023 A 
ATOM     79  C   UNL A   1      40.380  36.107  37.484  1.00  0.00     0.012 A 
ATOM     80  C   UNL A   1      41.725  34.534  38.757  1.00  0.00     0.148 A 
ATOM     81  C   UNL A   1      39.488  36.236  38.547  1.00  0.00     0.002 A 
ATOM     82  C   UNL A   1      40.801  34.626  39.794  1.00  0.00     0.091 A 
ATOM     83  F   UNL A   1      42.791  33.725  38.816  1.00  0.00    -0.205 F 
ATOM     84  C   UNL A   1      39.667  35.450  39.679  1.00  0.00     0.022 A 
BRANCH  82  85
ATOM     85  S   UNL A   1      40.855  33.475  41.173  1.00  0.00     0.127 S 
ATOM     86  O   UNL A   1      39.669  33.854  41.932  1.00  0.00    -0.237 OA
ATOM     87  O   UNL A   1      40.773  32.182  40.497  1.00  0.00    -0.237 OA
ATOM     88  O   UNL A   1      42.140  33.728  41.811  1.00  0.00    -0.744 OA
ENDBRANCH  82  85
ENDBRANCH  54  78
BRANCH  66  89
ATOM     89  C   UNL A   1      39.061  32.779  30.967  1.00  0.00     0.023 A 
ATOM     90  C   UNL A   1      39.191  31.707  30.068  1.00  0.00     0.012 A 
ATOM     91  C   UNL A   1      37.772  33.373  31.079  1.00  0.00     0.148 A 
ATOM     92  C   UNL A   1      38.112  31.266  29.292  1.00  0.00     0.002 A 
ATOM     93  C   UNL A   1      36.681  32.862  30.386  1.00  0.00     0.091 A 
ATOM     94  F   UNL A   1      37.599  34.461  31.841  1.00  0.00    -0.205 F 
ATOM     95  C   UNL A   1      36.852  31.824  29.469  1.00  0.00     0.022 A 
BRANCH  93  96
ATOM     96  S   UNL A   1      35.001  33.410  30.725  1.00  0.00     0.127 S 
ATOM     97  O   UNL A   1      34.959  33.355  32.184  1.00  0.00    -0.237 OA
ATOM     98  O   UNL A   1      35.004  34.760  30.161  1.00  0.00    -0.237 OA
ATOM     99  O   UNL A   1      34.127  32.471  30.033  1.00  0.00    -0.744 OA
ENDBRANCH  93  96
ENDBRANCH  66  89
ENDBRANCH  40  41
ENDBRANCH  33  35
ENDBRANCH  32  33
ENDBRANCH  31  32
ENDBRANCH  30  31
ENDBRANCH  29  30
ENDBRANCH  28  29
ENDBRANCH   1  28
TORSDOF 26
ENDMDL
