MODEL 1
REMARK VINA RESULT:     -10.4      0.000      0.000
REMARK SMILES O=C(OCCOCCOCCOCCOC(=O)c1cc(N2C(=O)[C@H]3[C@@H]4C=C[C@@H]([C@@H]5C[C@H]45)[C@@H]3C2=O)ccc1Cl)c1ccc(-c2c3nc(c(-c4cccc(S(=O)(=O)[O-])c4F)c4ccc([nH]4)c(-c4cccc(S(=O)(=O)[O-])c4F)c4nc(c(-c5cccc(S(=O)(=O)[O-])c5F)c5ccc2[nH]5)C=C4)C=C3)cc1
REMARK SMILES IDX 8 1 7 2 6 3 5 4 4 5 3 6 2 7 1 8 39 9 40 10 101 11 41 12
REMARK SMILES IDX 100 13 42 14 43 15 44 16 94 17 45 18 99 19 93 20 95 21 46 22
REMARK SMILES IDX 98 23 92 24 91 25 47 27 79 28 59 29 78 30 60 31 63 32 77 33
REMARK SMILES IDX 96 34 61 35 62 36 76 38 97 39 64 40 48 41 49 42 57 43 50 44
REMARK SMILES IDX 52 45 58 46 51 47 53 48 54 49 55 50 56 51 80 52 81 53 89 54
REMARK SMILES IDX 82 55 84 56 90 57 83 58 85 59 86 60 87 61 88 62 65 63 66 64
REMARK SMILES IDX 74 65 67 66 69 67 75 68 68 69 70 70 71 71 72 72 73 73 9 74
REMARK SMILES IDX 10 75 11 76 12 77 13 78 14 79 15 80 16 81 17 82 18 83 19 84
REMARK SMILES IDX 37 85 20 86 36 87 38 88 35 89 21 90 22 91 33 92 23 93 24 94
REMARK SMILES IDX 32 95 34 96 25 97 28 98 26 99 31 100 27 101 29 102 30 103
REMARK H PARENT 95 26 63 37
REMARK Flexibility Score: inf
ROOT
ATOM      1  C   UNL A   1      34.598  32.917  29.205  1.00  0.00     0.188 C 
ENDROOT
BRANCH   1   2
ATOM      2  C   UNL A   1      34.688  34.440  29.083  1.00  0.00     0.188 C 
BRANCH   2   3
ATOM      3  O   UNL A   1      33.701  34.970  28.202  1.00  0.00    -0.376 OA
BRANCH   3   4
ATOM      4  C   UNL A   1      32.861  36.017  28.678  1.00  0.00     0.202 C 
BRANCH   4   5
ATOM      5  C   UNL A   1      33.319  36.728  29.948  1.00  0.00     0.261 C 
BRANCH   5   6
ATOM      6  O   UNL A   1      32.434  36.584  31.065  1.00  0.00    -0.460 OA
BRANCH   6   7
ATOM      7  C   UNL A   1      32.463  35.691  32.082  1.00  0.00     0.338 C 
ATOM      8  O   UNL A   1      31.401  35.453  32.658  1.00  0.00    -0.246 OA
BRANCH   7   9
ATOM      9  C   UNL A   1      33.688  34.986  32.571  1.00  0.00     0.060 A 
ATOM     10  C   UNL A   1      34.952  35.555  32.740  1.00  0.00     0.016 A 
ATOM     11  C   UNL A   1      33.514  33.656  32.986  1.00  0.00     0.016 A 
ATOM     12  C   UNL A   1      36.018  34.847  33.264  1.00  0.00     0.010 A 
ATOM     13  C   UNL A   1      34.580  32.923  33.508  1.00  0.00     0.010 A 
ATOM     14  C   UNL A   1      35.841  33.520  33.616  1.00  0.00    -0.014 A 
BRANCH  14  15
ATOM     15  C   UNL A   1      37.047  32.721  33.843  1.00  0.00     0.031 A 
ATOM     16  C   UNL A   1      37.720  32.888  35.164  1.00  0.00     0.074 A 
ATOM     17  C   UNL A   1      37.444  31.817  32.936  1.00  0.00     0.049 A 
ATOM     18  N   UNL A   1      38.874  32.447  35.567  1.00  0.00    -0.248 NA
ATOM     19  C   UNL A   1      36.982  33.668  36.178  1.00  0.00     0.031 C 
ATOM     20  C   UNL A   1      36.734  31.500  31.696  1.00  0.00     0.029 A 
ATOM     21  N   UNL A   1      38.550  31.015  32.911  1.00  0.00    -0.354 N 
ATOM     22  C   UNL A   1      39.043  32.972  36.842  1.00  0.00     0.074 A 
ATOM     23  C   UNL A   1      37.859  33.730  37.164  1.00  0.00     0.031 C 
ATOM     24  C   UNL A   1      37.451  30.601  31.003  1.00  0.00     0.029 A 
ATOM     25  C   UNL A   1      38.699  30.354  31.717  1.00  0.00     0.049 A 
ATOM     26  H   UNL A   1      39.172  30.921  33.668  1.00  0.00     0.167 HD
ATOM     27  C   UNL A   1      40.119  32.845  37.647  1.00  0.00     0.034 A 
ATOM     28  C   UNL A   1      39.770  29.701  31.232  1.00  0.00     0.034 A 
ATOM     29  C   UNL A   1      41.270  32.081  37.267  1.00  0.00     0.049 A 
ATOM     30  C   UNL A   1      40.988  29.622  32.111  1.00  0.00     0.074 A 
ATOM     31  C   UNL A   1      42.443  31.875  37.962  1.00  0.00     0.029 A 
ATOM     32  N   UNL A   1      41.389  31.409  36.054  1.00  0.00    -0.354 N 
ATOM     33  N   UNL A   1      41.163  30.123  33.313  1.00  0.00    -0.248 NA
ATOM     34  C   UNL A   1      42.144  28.889  31.589  1.00  0.00     0.031 C 
ATOM     35  C   UNL A   1      43.292  31.119  37.146  1.00  0.00     0.029 A 
ATOM     36  C   UNL A   1      42.624  30.801  35.969  1.00  0.00     0.049 A 
ATOM     37  H   UNL A   1      40.694  31.373  35.358  1.00  0.00     0.167 HD
ATOM     38  C   UNL A   1      42.436  29.736  33.709  1.00  0.00     0.074 A 
ATOM     39  C   UNL A   1      42.985  28.957  32.614  1.00  0.00     0.031 C 
ATOM     40  C   UNL A   1      43.094  29.996  34.866  1.00  0.00     0.034 A 
BRANCH  27  41
ATOM     41  C   UNL A   1      40.105  33.626  38.932  1.00  0.00     0.023 A 
ATOM     42  C   UNL A   1      39.672  33.032  40.135  1.00  0.00     0.012 A 
ATOM     43  C   UNL A   1      40.455  34.990  38.925  1.00  0.00     0.148 A 
ATOM     44  C   UNL A   1      39.527  33.797  41.293  1.00  0.00     0.002 A 
ATOM     45  C   UNL A   1      40.361  35.733  40.095  1.00  0.00     0.091 A 
ATOM     46  F   UNL A   1      40.831  35.549  37.766  1.00  0.00    -0.205 F 
ATOM     47  C   UNL A   1      39.877  35.144  41.275  1.00  0.00     0.022 A 
BRANCH  45  48
ATOM     48  S   UNL A   1      40.857  37.455  40.185  1.00  0.00     0.127 S 
ATOM     49  O   UNL A   1      39.864  38.095  39.322  1.00  0.00    -0.237 OA
ATOM     50  O   UNL A   1      40.700  37.743  41.611  1.00  0.00    -0.237 OA
ATOM     51  O   UNL A   1      42.230  37.506  39.703  1.00  0.00    -0.744 OA
ENDBRANCH  45  48
ENDBRANCH  27  41
BRANCH  28  52
ATOM     52  C   UNL A   1      39.729  29.139  29.854  1.00  0.00     0.023 A 
ATOM     53  C   UNL A   1      39.842  29.992  28.742  1.00  0.00     0.012 A 
ATOM     54  C   UNL A   1      39.664  27.744  29.647  1.00  0.00     0.148 A 
ATOM     55  C   UNL A   1      39.881  29.467  27.447  1.00  0.00     0.002 A 
ATOM     56  C   UNL A   1      39.758  27.226  28.361  1.00  0.00     0.091 A 
ATOM     57  F   UNL A   1      39.551  26.949  30.720  1.00  0.00    -0.205 F 
ATOM     58  C   UNL A   1      39.852  28.087  27.258  1.00  0.00     0.022 A 
BRANCH  56  59
ATOM     59  S   UNL A   1      39.861  25.463  28.031  1.00  0.00     0.127 S 
ATOM     60  O   UNL A   1      41.199  25.145  28.522  1.00  0.00    -0.237 OA
ATOM     61  O   UNL A   1      38.764  24.943  28.848  1.00  0.00    -0.237 OA
ATOM     62  O   UNL A   1      39.669  25.314  26.595  1.00  0.00    -0.744 OA
ENDBRANCH  56  59
ENDBRANCH  28  52
BRANCH  40  63
ATOM     63  C   UNL A   1      44.451  29.378  35.043  1.00  0.00     0.023 A 
ATOM     64  C   UNL A   1      45.610  30.104  34.716  1.00  0.00     0.012 A 
ATOM     65  C   UNL A   1      44.559  28.130  35.687  1.00  0.00     0.148 A 
ATOM     66  C   UNL A   1      46.866  29.588  35.022  1.00  0.00     0.002 A 
ATOM     67  C   UNL A   1      45.810  27.652  36.043  1.00  0.00     0.091 A 
ATOM     68  F   UNL A   1      43.434  27.458  35.969  1.00  0.00    -0.205 F 
ATOM     69  C   UNL A   1      46.965  28.374  35.702  1.00  0.00     0.022 A 
BRANCH  67  70
ATOM     70  S   UNL A   1      46.022  26.167  37.027  1.00  0.00     0.127 S 
ATOM     71  O   UNL A   1      44.637  25.795  37.307  1.00  0.00    -0.237 OA
ATOM     72  O   UNL A   1      46.717  25.279  36.095  1.00  0.00    -0.237 OA
ATOM     73  O   UNL A   1      46.806  26.558  38.191  1.00  0.00    -0.744 OA
ENDBRANCH  67  70
ENDBRANCH  40  63
ENDBRANCH  14  15
ENDBRANCH   7   9
ENDBRANCH   6   7
ENDBRANCH   5   6
ENDBRANCH   4   5
ENDBRANCH   3   4
ENDBRANCH   2   3
ENDBRANCH   1   2
BRANCH   1  74
ATOM     74  O   UNL A   1      35.480  32.172  28.367  1.00  0.00    -0.377 OA
BRANCH  74  75
ATOM     75  C   UNL A   1      34.895  31.100  27.635  1.00  0.00     0.188 C 
BRANCH  75  76
ATOM     76  C   UNL A   1      33.351  30.964  27.606  1.00  0.00     0.188 C 
BRANCH  76  77
ATOM     77  O   UNL A   1      32.894  29.662  27.302  1.00  0.00    -0.376 OA
BRANCH  77  78
ATOM     78  C   UNL A   1      33.361  29.074  26.094  1.00  0.00     0.202 C 
BRANCH  78  79
ATOM     79  C   UNL A   1      32.926  29.660  24.733  1.00  0.00     0.261 C 
BRANCH  79  80
ATOM     80  O   UNL A   1      32.681  28.717  23.670  1.00  0.00    -0.460 OA
BRANCH  80  81
ATOM     81  C   UNL A   1      31.562  28.815  22.920  1.00  0.00     0.339 C 
ATOM     82  O   UNL A   1      31.369  29.564  21.976  1.00  0.00    -0.246 OA
BRANCH  81  83
ATOM     83  C   UNL A   1      30.693  27.659  23.257  1.00  0.00     0.080 A 
ATOM     84  C   UNL A   1      31.325  26.473  23.702  1.00  0.00     0.044 A 
ATOM     85  C   UNL A   1      29.297  27.769  23.305  1.00  0.00     0.055 A 
ATOM     86  C   UNL A   1      30.561  25.439  24.252  1.00  0.00     0.053 A 
ATOM     87  C   UNL A   1      28.537  26.704  23.801  1.00  0.00     0.023 A 
ATOM     88  Cl  UNL A   1      28.448  29.178  22.786  1.00  0.00    -0.083 Cl
ATOM     89  C   UNL A   1      29.165  25.552  24.283  1.00  0.00     0.028 A 
BRANCH  86  90
ATOM     90  N   UNL A   1      31.169  24.320  24.864  1.00  0.00    -0.250 N 
ATOM     91  C   UNL A   1      31.811  23.320  24.099  1.00  0.00     0.238 C 
ATOM     92  C   UNL A   1      31.746  24.431  26.146  1.00  0.00     0.238 C 
ATOM     93  O   UNL A   1      31.785  23.125  22.897  1.00  0.00    -0.274 OA
ATOM     94  C   UNL A   1      32.564  22.520  25.117  1.00  0.00     0.100 C 
ATOM     95  C   UNL A   1      33.033  23.690  25.983  1.00  0.00     0.100 C 
ATOM     96  O   UNL A   1      31.434  25.150  27.078  1.00  0.00    -0.274 OA
ATOM     97  C   UNL A   1      33.714  21.506  24.954  1.00  0.00     0.028 C 
ATOM     98  C   UNL A   1      34.170  23.226  26.886  1.00  0.00     0.028 C 
ATOM     99  C   UNL A   1      33.737  20.886  26.375  1.00  0.00    -0.026 C 
ATOM    100  C   UNL A   1      35.118  22.113  24.795  1.00  0.00     0.001 C 
ATOM    101  C   UNL A   1      33.916  21.789  27.367  1.00  0.00    -0.026 C 
ATOM    102  C   UNL A   1      35.408  23.123  25.917  1.00  0.00     0.001 C 
ATOM    103  C   UNL A   1      35.474  23.526  24.441  1.00  0.00     0.009 C 
ENDBRANCH  86  90
ENDBRANCH  81  83
ENDBRANCH  80  81
ENDBRANCH  79  80
ENDBRANCH  78  79
ENDBRANCH  77  78
ENDBRANCH  76  77
ENDBRANCH  75  76
ENDBRANCH  74  75
ENDBRANCH   1  74
TORSDOF 24
ENDMDL
MODEL 2
REMARK VINA RESULT:     -10.0      1.974      2.383
REMARK SMILES O=C(OCCOCCOCCOCCOC(=O)c1cc(N2C(=O)[C@H]3[C@@H]4C=C[C@@H]([C@@H]5C[C@H]45)[C@@H]3C2=O)ccc1Cl)c1ccc(-c2c3nc(c(-c4cccc(S(=O)(=O)[O-])c4F)c4ccc([nH]4)c(-c4cccc(S(=O)(=O)[O-])c4F)c4nc(c(-c5cccc(S(=O)(=O)[O-])c5F)c5ccc2[nH]5)C=C4)C=C3)cc1
REMARK SMILES IDX 8 1 7 2 6 3 5 4 4 5 3 6 2 7 1 8 39 9 40 10 101 11 41 12
REMARK SMILES IDX 100 13 42 14 43 15 44 16 94 17 45 18 99 19 93 20 95 21 46 22
REMARK SMILES IDX 98 23 92 24 91 25 47 27 79 28 59 29 78 30 60 31 63 32 77 33
REMARK SMILES IDX 96 34 61 35 62 36 76 38 97 39 64 40 48 41 49 42 57 43 50 44
REMARK SMILES IDX 52 45 58 46 51 47 53 48 54 49 55 50 56 51 80 52 81 53 89 54
REMARK SMILES IDX 82 55 84 56 90 57 83 58 85 59 86 60 87 61 88 62 65 63 66 64
REMARK SMILES IDX 74 65 67 66 69 67 75 68 68 69 70 70 71 71 72 72 73 73 9 74
REMARK SMILES IDX 10 75 11 76 12 77 13 78 14 79 15 80 16 81 17 82 18 83 19 84
REMARK SMILES IDX 37 85 20 86 36 87 38 88 35 89 21 90 22 91 33 92 23 93 24 94
REMARK SMILES IDX 32 95 34 96 25 97 28 98 26 99 31 100 27 101 29 102 30 103
REMARK H PARENT 95 26 63 37
REMARK Flexibility Score: inf
ROOT
ATOM      1  C   UNL A   1      33.945  31.545  27.966  1.00  0.00     0.188 C 
ENDROOT
BRANCH   1   2
ATOM      2  C   UNL A   1      34.066  33.036  28.293  1.00  0.00     0.188 C 
BRANCH   2   3
ATOM      3  O   UNL A   1      32.944  33.782  27.830  1.00  0.00    -0.376 OA
BRANCH   3   4
ATOM      4  C   UNL A   1      32.626  35.004  28.488  1.00  0.00     0.202 C 
BRANCH   4   5
ATOM      5  C   UNL A   1      33.720  35.605  29.365  1.00  0.00     0.261 C 
BRANCH   5   6
ATOM      6  O   UNL A   1      33.335  35.837  30.725  1.00  0.00    -0.460 OA
BRANCH   6   7
ATOM      7  C   UNL A   1      33.435  35.023  31.802  1.00  0.00     0.338 C 
ATOM      8  O   UNL A   1      32.441  34.908  32.520  1.00  0.00    -0.246 OA
BRANCH   7   9
ATOM      9  C   UNL A   1      34.664  34.268  32.197  1.00  0.00     0.060 A 
ATOM     10  C   UNL A   1      34.754  32.888  32.390  1.00  0.00     0.016 A 
ATOM     11  C   UNL A   1      35.850  35.015  32.284  1.00  0.00     0.016 A 
ATOM     12  C   UNL A   1      35.950  32.259  32.688  1.00  0.00     0.010 A 
ATOM     13  C   UNL A   1      37.063  34.400  32.594  1.00  0.00     0.010 A 
ATOM     14  C   UNL A   1      37.098  33.020  32.824  1.00  0.00    -0.014 A 
BRANCH  14  15
ATOM     15  C   UNL A   1      38.252  32.382  33.461  1.00  0.00     0.031 A 
ATOM     16  C   UNL A   1      38.467  32.680  34.908  1.00  0.00     0.074 A 
ATOM     17  C   UNL A   1      38.998  31.496  32.785  1.00  0.00     0.049 A 
ATOM     18  N   UNL A   1      39.481  32.397  35.670  1.00  0.00    -0.248 NA
ATOM     19  C   UNL A   1      37.378  33.406  35.592  1.00  0.00     0.031 C 
ATOM     20  C   UNL A   1      38.738  31.047  31.416  1.00  0.00     0.029 A 
ATOM     21  N   UNL A   1      40.134  30.833  33.153  1.00  0.00    -0.354 N 
ATOM     22  C   UNL A   1      39.196  32.988  36.894  1.00  0.00     0.074 A 
ATOM     23  C   UNL A   1      37.900  33.611  36.789  1.00  0.00     0.031 C 
ATOM     24  C   UNL A   1      39.721  30.215  31.039  1.00  0.00     0.029 A 
ATOM     25  C   UNL A   1      40.708  30.147  32.110  1.00  0.00     0.049 A 
ATOM     26  H   UNL A   1      40.501  30.844  34.065  1.00  0.00     0.167 HD
ATOM     27  C   UNL A   1      39.981  33.024  37.992  1.00  0.00     0.034 A 
ATOM     28  C   UNL A   1      41.937  29.609  32.019  1.00  0.00     0.034 A 
ATOM     29  C   UNL A   1      41.265  32.388  38.031  1.00  0.00     0.049 A 
ATOM     30  C   UNL A   1      42.828  29.712  33.226  1.00  0.00     0.074 A 
ATOM     31  C   UNL A   1      42.184  32.353  39.060  1.00  0.00     0.029 A 
ATOM     32  N   UNL A   1      41.818  31.689  36.964  1.00  0.00    -0.354 N 
ATOM     33  N   UNL A   1      42.575  30.277  34.385  1.00  0.00    -0.248 NA
ATOM     34  C   UNL A   1      44.158  29.102  33.130  1.00  0.00     0.031 C 
ATOM     35  C   UNL A   1      43.314  31.672  38.594  1.00  0.00     0.029 A 
ATOM     36  C   UNL A   1      43.075  31.229  37.298  1.00  0.00     0.049 A 
ATOM     37  H   UNL A   1      41.377  31.542  36.095  1.00  0.00     0.167 HD
ATOM     38  C   UNL A   1      43.698  30.061  35.171  1.00  0.00     0.074 A 
ATOM     39  C   UNL A   1      44.633  29.311  34.352  1.00  0.00     0.031 C 
ATOM     40  C   UNL A   1      43.940  30.444  36.450  1.00  0.00     0.034 A 
BRANCH  27  41
ATOM     41  C   UNL A   1      39.495  33.847  39.151  1.00  0.00     0.023 A 
ATOM     42  C   UNL A   1      38.771  33.255  40.207  1.00  0.00     0.012 A 
ATOM     43  C   UNL A   1      39.694  35.242  39.152  1.00  0.00     0.148 A 
ATOM     44  C   UNL A   1      38.201  34.043  41.208  1.00  0.00     0.002 A 
ATOM     45  C   UNL A   1      39.171  36.014  40.181  1.00  0.00     0.091 A 
ATOM     46  F   UNL A   1      40.353  35.794  38.123  1.00  0.00    -0.205 F 
ATOM     47  C   UNL A   1      38.407  35.420  41.198  1.00  0.00     0.022 A 
BRANCH  45  48
ATOM     48  S   UNL A   1      39.444  37.784  40.291  1.00  0.00     0.127 S 
ATOM     49  O   UNL A   1      38.413  38.299  39.390  1.00  0.00    -0.237 OA
ATOM     50  O   UNL A   1      39.196  38.042  41.710  1.00  0.00    -0.237 OA
ATOM     51  O   UNL A   1      40.818  38.008  39.864  1.00  0.00    -0.744 OA
ENDBRANCH  45  48
ENDBRANCH  27  41
BRANCH  28  52
ATOM     52  C   UNL A   1      42.378  28.992  30.738  1.00  0.00     0.023 A 
ATOM     53  C   UNL A   1      41.903  27.721  30.368  1.00  0.00     0.012 A 
ATOM     54  C   UNL A   1      43.203  29.704  29.842  1.00  0.00     0.148 A 
ATOM     55  C   UNL A   1      42.250  27.165  29.134  1.00  0.00     0.002 A 
ATOM     56  C   UNL A   1      43.500  29.170  28.593  1.00  0.00     0.091 A 
ATOM     57  F   UNL A   1      43.651  30.911  30.216  1.00  0.00    -0.205 F 
ATOM     58  C   UNL A   1      43.036  27.894  28.243  1.00  0.00     0.022 A 
BRANCH  56  59
ATOM     59  S   UNL A   1      44.394  30.088  27.334  1.00  0.00     0.127 S 
ATOM     60  O   UNL A   1      43.601  31.310  27.236  1.00  0.00    -0.237 OA
ATOM     61  O   UNL A   1      45.706  30.252  27.960  1.00  0.00    -0.237 OA
ATOM     62  O   UNL A   1      44.392  29.243  26.148  1.00  0.00    -0.744 OA
ENDBRANCH  56  59
ENDBRANCH  28  52
BRANCH  40  63
ATOM     63  C   UNL A   1      45.233  30.001  37.071  1.00  0.00     0.023 A 
ATOM     64  C   UNL A   1      46.345  30.861  37.087  1.00  0.00     0.012 A 
ATOM     65  C   UNL A   1      45.275  28.782  37.776  1.00  0.00     0.148 A 
ATOM     66  C   UNL A   1      47.491  30.508  37.794  1.00  0.00     0.002 A 
ATOM     67  C   UNL A   1      46.395  28.466  38.526  1.00  0.00     0.091 A 
ATOM     68  F   UNL A   1      44.203  27.978  37.725  1.00  0.00    -0.205 F 
ATOM     69  C   UNL A   1      47.509  29.322  38.528  1.00  0.00     0.022 A 
BRANCH  67  70
ATOM     70  S   UNL A   1      46.455  27.028  39.598  1.00  0.00     0.127 S 
ATOM     71  O   UNL A   1      46.386  25.934  38.632  1.00  0.00    -0.237 OA
ATOM     72  O   UNL A   1      47.755  27.187  40.250  1.00  0.00    -0.237 OA
ATOM     73  O   UNL A   1      45.310  27.139  40.492  1.00  0.00    -0.744 OA
ENDBRANCH  67  70
ENDBRANCH  40  63
ENDBRANCH  14  15
ENDBRANCH   7   9
ENDBRANCH   6   7
ENDBRANCH   5   6
ENDBRANCH   4   5
ENDBRANCH   3   4
ENDBRANCH   2   3
ENDBRANCH   1   2
BRANCH   1  74
ATOM     74  O   UNL A   1      35.172  30.858  27.729  1.00  0.00    -0.377 OA
BRANCH  74  75
ATOM     75  C   UNL A   1      35.063  29.495  27.332  1.00  0.00     0.188 C 
BRANCH  75  76
ATOM     76  C   UNL A   1      33.831  29.051  26.501  1.00  0.00     0.188 C 
BRANCH  76  77
ATOM     77  O   UNL A   1      34.029  27.853  25.777  1.00  0.00    -0.376 OA
BRANCH  77  78
ATOM     78  C   UNL A   1      33.680  27.860  24.399  1.00  0.00     0.202 C 
BRANCH  78  79
ATOM     79  C   UNL A   1      32.781  28.984  23.837  1.00  0.00     0.261 C 
BRANCH  79  80
ATOM     80  O   UNL A   1      32.150  28.734  22.566  1.00  0.00    -0.460 OA
BRANCH  80  81
ATOM     81  C   UNL A   1      30.851  29.054  22.378  1.00  0.00     0.339 C 
ATOM     82  O   UNL A   1      30.405  29.955  21.685  1.00  0.00    -0.246 OA
BRANCH  81  83
ATOM     83  C   UNL A   1      30.030  27.951  22.938  1.00  0.00     0.080 A 
ATOM     84  C   UNL A   1      30.713  26.817  23.441  1.00  0.00     0.044 A 
ATOM     85  C   UNL A   1      28.648  28.076  23.129  1.00  0.00     0.055 A 
ATOM     86  C   UNL A   1      30.021  25.859  24.186  1.00  0.00     0.053 A 
ATOM     87  C   UNL A   1      27.953  27.080  23.824  1.00  0.00     0.023 A 
ATOM     88  Cl  UNL A   1      27.740  29.425  22.552  1.00  0.00    -0.083 Cl
ATOM     89  C   UNL A   1      28.636  25.985  24.359  1.00  0.00     0.028 A 
BRANCH  86  90
ATOM     90  N   UNL A   1      30.699  24.810  24.849  1.00  0.00    -0.250 N 
ATOM     91  C   UNL A   1      31.155  23.671  24.150  1.00  0.00     0.238 C 
ATOM     92  C   UNL A   1      31.509  25.079  25.971  1.00  0.00     0.238 C 
ATOM     93  O   UNL A   1      30.899  23.297  23.019  1.00  0.00    -0.274 OA
ATOM     94  C   UNL A   1      32.061  22.990  25.129  1.00  0.00     0.100 C 
ATOM     95  C   UNL A   1      32.720  24.247  25.699  1.00  0.00     0.100 C 
ATOM     96  O   UNL A   1      31.400  25.948  26.817  1.00  0.00    -0.274 OA
ATOM     97  C   UNL A   1      33.129  21.897  24.925  1.00  0.00     0.028 C 
ATOM     98  C   UNL A   1      33.991  23.859  26.443  1.00  0.00     0.028 C 
ATOM     99  C   UNL A   1      33.399  21.498  26.399  1.00  0.00    -0.026 C 
ATOM    100  C   UNL A   1      34.496  22.389  24.420  1.00  0.00     0.001 C 
ATOM    101  C   UNL A   1      33.789  22.529  27.185  1.00  0.00    -0.026 C 
ATOM    102  C   UNL A   1      35.022  23.537  25.296  1.00  0.00     0.001 C 
ATOM    103  C   UNL A   1      34.821  23.708  23.787  1.00  0.00     0.009 C 
ENDBRANCH  86  90
ENDBRANCH  81  83
ENDBRANCH  80  81
ENDBRANCH  79  80
ENDBRANCH  78  79
ENDBRANCH  77  78
ENDBRANCH  76  77
ENDBRANCH  75  76
ENDBRANCH  74  75
ENDBRANCH   1  74
TORSDOF 24
ENDMDL
MODEL 3
REMARK VINA RESULT:      -9.4      8.991     13.058
REMARK SMILES O=C(OCCOCCOCCOCCOC(=O)c1cc(N2C(=O)[C@H]3[C@@H]4C=C[C@@H]([C@@H]5C[C@H]45)[C@@H]3C2=O)ccc1Cl)c1ccc(-c2c3nc(c(-c4cccc(S(=O)(=O)[O-])c4F)c4ccc([nH]4)c(-c4cccc(S(=O)(=O)[O-])c4F)c4nc(c(-c5cccc(S(=O)(=O)[O-])c5F)c5ccc2[nH]5)C=C4)C=C3)cc1
REMARK SMILES IDX 8 1 7 2 6 3 5 4 4 5 3 6 2 7 1 8 39 9 40 10 101 11 41 12
REMARK SMILES IDX 100 13 42 14 43 15 44 16 94 17 45 18 99 19 93 20 95 21 46 22
REMARK SMILES IDX 98 23 92 24 91 25 47 27 79 28 59 29 78 30 60 31 63 32 77 33
REMARK SMILES IDX 96 34 61 35 62 36 76 38 97 39 64 40 48 41 49 42 57 43 50 44
REMARK SMILES IDX 52 45 58 46 51 47 53 48 54 49 55 50 56 51 80 52 81 53 89 54
REMARK SMILES IDX 82 55 84 56 90 57 83 58 85 59 86 60 87 61 88 62 65 63 66 64
REMARK SMILES IDX 74 65 67 66 69 67 75 68 68 69 70 70 71 71 72 72 73 73 9 74
REMARK SMILES IDX 10 75 11 76 12 77 13 78 14 79 15 80 16 81 17 82 18 83 19 84
REMARK SMILES IDX 37 85 20 86 36 87 38 88 35 89 21 90 22 91 33 92 23 93 24 94
REMARK SMILES IDX 32 95 34 96 25 97 28 98 26 99 31 100 27 101 29 102 30 103
REMARK H PARENT 95 26 63 37
REMARK Flexibility Score: inf
ROOT
ATOM      1  C   UNL A   1      39.608  23.032  27.112  1.00  0.00     0.188 C 
ENDROOT
BRANCH   1   2
ATOM      2  C   UNL A   1      39.862  21.754  26.309  1.00  0.00     0.188 C 
BRANCH   2   3
ATOM      3  O   UNL A   1      41.131  21.768  25.661  1.00  0.00    -0.376 OA
BRANCH   3   4
ATOM      4  C   UNL A   1      42.096  22.726  26.084  1.00  0.00     0.202 C 
BRANCH   4   5
ATOM      5  C   UNL A   1      43.330  22.176  26.793  1.00  0.00     0.261 C 
BRANCH   5   6
ATOM      6  O   UNL A   1      44.281  23.170  27.192  1.00  0.00    -0.460 OA
BRANCH   6   7
ATOM      7  C   UNL A   1      45.500  23.457  26.678  1.00  0.00     0.338 C 
ATOM      8  O   UNL A   1      46.170  22.517  26.249  1.00  0.00    -0.246 OA
BRANCH   7   9
ATOM      9  C   UNL A   1      46.101  24.824  26.606  1.00  0.00     0.060 A 
ATOM     10  C   UNL A   1      46.335  25.560  25.443  1.00  0.00     0.016 A 
ATOM     11  C   UNL A   1      46.362  25.452  27.835  1.00  0.00     0.016 A 
ATOM     12  C   UNL A   1      46.833  26.850  25.471  1.00  0.00     0.010 A 
ATOM     13  C   UNL A   1      46.874  26.749  27.883  1.00  0.00     0.010 A 
ATOM     14  C   UNL A   1      47.136  27.431  26.690  1.00  0.00    -0.014 A 
BRANCH  14  15
ATOM     15  C   UNL A   1      47.962  28.640  26.668  1.00  0.00     0.031 A 
ATOM     16  C   UNL A   1      47.238  29.945  26.713  1.00  0.00     0.074 A 
ATOM     17  C   UNL A   1      49.299  28.551  26.712  1.00  0.00     0.049 A 
ATOM     18  N   UNL A   1      47.693  31.151  26.538  1.00  0.00    -0.248 NA
ATOM     19  C   UNL A   1      45.790  29.878  26.995  1.00  0.00     0.031 C 
ATOM     20  C   UNL A   1      50.057  27.304  26.829  1.00  0.00     0.029 A 
ATOM     21  N   UNL A   1      50.253  29.526  26.645  1.00  0.00    -0.354 N 
ATOM     22  C   UNL A   1      46.577  31.975  26.595  1.00  0.00     0.074 A 
ATOM     23  C   UNL A   1      45.429  31.142  26.860  1.00  0.00     0.031 C 
ATOM     24  C   UNL A   1      51.368  27.586  26.775  1.00  0.00     0.029 A 
ATOM     25  C   UNL A   1      51.525  29.017  26.538  1.00  0.00     0.049 A 
ATOM     26  H   UNL A   1      50.053  30.489  26.671  1.00  0.00     0.167 HD
ATOM     27  C   UNL A   1      46.531  33.311  26.407  1.00  0.00     0.034 A 
ATOM     28  C   UNL A   1      52.666  29.640  26.195  1.00  0.00     0.034 A 
ATOM     29  C   UNL A   1      47.708  34.083  26.141  1.00  0.00     0.049 A 
ATOM     30  C   UNL A   1      52.593  31.117  25.922  1.00  0.00     0.074 A 
ATOM     31  C   UNL A   1      47.822  35.438  25.909  1.00  0.00     0.029 A 
ATOM     32  N   UNL A   1      48.987  33.543  26.051  1.00  0.00    -0.354 N 
ATOM     33  N   UNL A   1      51.542  31.905  25.963  1.00  0.00    -0.248 NA
ATOM     34  C   UNL A   1      53.844  31.796  25.572  1.00  0.00     0.031 C 
ATOM     35  C   UNL A   1      49.167  35.707  25.628  1.00  0.00     0.029 A 
ATOM     36  C   UNL A   1      49.899  34.532  25.748  1.00  0.00     0.049 A 
ATOM     37  H   UNL A   1      49.209  32.593  26.184  1.00  0.00     0.167 HD
ATOM     38  C   UNL A   1      52.008  33.181  25.679  1.00  0.00     0.074 A 
ATOM     39  C   UNL A   1      53.440  33.056  25.470  1.00  0.00     0.031 C 
ATOM     40  C   UNL A   1      51.324  34.350  25.598  1.00  0.00     0.034 A 
BRANCH  27  41
ATOM     41  C   UNL A   1      45.171  33.951  26.390  1.00  0.00     0.023 A 
ATOM     42  C   UNL A   1      44.406  33.994  25.205  1.00  0.00     0.012 A 
ATOM     43  C   UNL A   1      44.681  34.585  27.548  1.00  0.00     0.148 A 
ATOM     44  C   UNL A   1      43.209  34.710  25.158  1.00  0.00     0.002 A 
ATOM     45  C   UNL A   1      43.462  35.249  27.509  1.00  0.00     0.091 A 
ATOM     46  F   UNL A   1      45.437  34.566  28.656  1.00  0.00    -0.205 F 
ATOM     47  C   UNL A   1      42.735  35.332  26.310  1.00  0.00     0.022 A 
BRANCH  45  48
ATOM     48  S   UNL A   1      42.737  36.019  28.959  1.00  0.00     0.127 S 
ATOM     49  O   UNL A   1      41.356  35.543  28.888  1.00  0.00    -0.237 OA
ATOM     50  O   UNL A   1      43.528  35.432  30.042  1.00  0.00    -0.237 OA
ATOM     51  O   UNL A   1      42.915  37.453  28.786  1.00  0.00    -0.744 OA
ENDBRANCH  45  48
ENDBRANCH  27  41
BRANCH  28  52
ATOM     52  C   UNL A   1      53.921  28.852  26.049  1.00  0.00     0.023 A 
ATOM     53  C   UNL A   1      54.288  28.338  24.792  1.00  0.00     0.012 A 
ATOM     54  C   UNL A   1      54.797  28.684  27.142  1.00  0.00     0.148 A 
ATOM     55  C   UNL A   1      55.500  27.662  24.630  1.00  0.00     0.002 A 
ATOM     56  C   UNL A   1      56.025  28.059  26.962  1.00  0.00     0.091 A 
ATOM     57  F   UNL A   1      54.425  29.176  28.333  1.00  0.00    -0.205 F 
ATOM     58  C   UNL A   1      56.373  27.534  25.709  1.00  0.00     0.022 A 
BRANCH  56  59
ATOM     59  S   UNL A   1      57.265  27.965  28.259  1.00  0.00     0.127 S 
ATOM     60  O   UNL A   1      57.372  29.362  28.671  1.00  0.00    -0.237 OA
ATOM     61  O   UNL A   1      56.615  27.083  29.229  1.00  0.00    -0.237 OA
ATOM     62  O   UNL A   1      58.454  27.403  27.633  1.00  0.00    -0.744 OA
ENDBRANCH  56  59
ENDBRANCH  28  52
BRANCH  40  63
ATOM     63  C   UNL A   1      52.116  35.599  25.342  1.00  0.00     0.023 A 
ATOM     64  C   UNL A   1      52.366  36.023  24.024  1.00  0.00     0.012 A 
ATOM     65  C   UNL A   1      52.470  36.424  26.427  1.00  0.00     0.148 A 
ATOM     66  C   UNL A   1      52.968  37.256  23.790  1.00  0.00     0.002 A 
ATOM     67  C   UNL A   1      53.012  37.675  26.183  1.00  0.00     0.091 A 
ATOM     68  F   UNL A   1      52.232  35.981  27.669  1.00  0.00    -0.205 F 
ATOM     69  C   UNL A   1      53.273  38.089  24.867  1.00  0.00     0.022 A 
BRANCH  67  70
ATOM     70  S   UNL A   1      53.316  38.858  27.498  1.00  0.00     0.127 S 
ATOM     71  O   UNL A   1      53.838  40.003  26.753  1.00  0.00    -0.237 OA
ATOM     72  O   UNL A   1      51.977  39.049  28.054  1.00  0.00    -0.237 OA
ATOM     73  O   UNL A   1      54.265  38.225  28.404  1.00  0.00    -0.744 OA
ENDBRANCH  67  70
ENDBRANCH  40  63
ENDBRANCH  14  15
ENDBRANCH   7   9
ENDBRANCH   6   7
ENDBRANCH   5   6
ENDBRANCH   4   5
ENDBRANCH   3   4
ENDBRANCH   2   3
ENDBRANCH   1   2
BRANCH   1  74
ATOM     74  O   UNL A   1      39.046  24.123  26.386  1.00  0.00    -0.377 OA
BRANCH  74  75
ATOM     75  C   UNL A   1      37.867  23.840  25.639  1.00  0.00     0.188 C 
BRANCH  75  76
ATOM     76  C   UNL A   1      37.029  22.588  26.004  1.00  0.00     0.188 C 
BRANCH  76  77
ATOM     77  O   UNL A   1      36.663  21.797  24.891  1.00  0.00    -0.376 OA
BRANCH  77  78
ATOM     78  C   UNL A   1      36.566  20.393  25.093  1.00  0.00     0.202 C 
BRANCH  78  79
ATOM     79  C   UNL A   1      35.246  19.658  24.775  1.00  0.00     0.261 C 
BRANCH  79  80
ATOM     80  O   UNL A   1      34.164  19.835  25.710  1.00  0.00    -0.460 OA
BRANCH  80  81
ATOM     81  C   UNL A   1      32.885  19.672  25.309  1.00  0.00     0.339 C 
ATOM     82  O   UNL A   1      32.138  18.745  25.582  1.00  0.00    -0.246 OA
BRANCH  81  83
ATOM     83  C   UNL A   1      32.437  20.949  24.698  1.00  0.00     0.080 A 
ATOM     84  C   UNL A   1      32.480  22.111  25.506  1.00  0.00     0.044 A 
ATOM     85  C   UNL A   1      32.145  21.057  23.333  1.00  0.00     0.055 A 
ATOM     86  C   UNL A   1      32.298  23.370  24.928  1.00  0.00     0.053 A 
ATOM     87  C   UNL A   1      31.903  22.318  22.775  1.00  0.00     0.023 A 
ATOM     88  Cl  UNL A   1      32.075  19.694  22.277  1.00  0.00    -0.083 Cl
ATOM     89  C   UNL A   1      31.991  23.468  23.565  1.00  0.00     0.028 A 
BRANCH  86  90
ATOM     90  N   UNL A   1      32.506  24.557  25.668  1.00  0.00    -0.250 N 
ATOM     91  C   UNL A   1      33.634  25.377  25.441  1.00  0.00     0.238 C 
ATOM     92  C   UNL A   1      31.410  25.313  26.131  1.00  0.00     0.238 C 
ATOM     93  O   UNL A   1      34.646  25.149  24.802  1.00  0.00    -0.274 OA
ATOM     94  C   UNL A   1      33.312  26.639  26.180  1.00  0.00     0.100 C 
ATOM     95  C   UNL A   1      31.829  26.712  25.814  1.00  0.00     0.100 C 
ATOM     96  O   UNL A   1      30.297  24.945  26.462  1.00  0.00    -0.274 OA
ATOM     97  C   UNL A   1      33.934  28.047  26.091  1.00  0.00     0.028 C 
ATOM     98  C   UNL A   1      31.308  28.117  26.090  1.00  0.00     0.028 C 
ATOM     99  C   UNL A   1      33.308  28.704  27.348  1.00  0.00    -0.026 C 
ATOM    100  C   UNL A   1      33.433  28.923  24.929  1.00  0.00     0.001 C 
ATOM    101  C   UNL A   1      31.954  28.684  27.363  1.00  0.00    -0.026 C 
ATOM    102  C   UNL A   1      31.897  28.981  24.910  1.00  0.00     0.001 C 
ATOM    103  C   UNL A   1      32.696  28.485  23.700  1.00  0.00     0.009 C 
ENDBRANCH  86  90
ENDBRANCH  81  83
ENDBRANCH  80  81
ENDBRANCH  79  80
ENDBRANCH  78  79
ENDBRANCH  77  78
ENDBRANCH  76  77
ENDBRANCH  75  76
ENDBRANCH  74  75
ENDBRANCH   1  74
TORSDOF 24
ENDMDL
