MODEL 1
REMARK VINA RESULT:      -9.0      0.000      0.000
REMARK SMILES C[C@H](NC(=O)N(CC(=O)OCCOCCOCCOCCOC(=O)c1ccc(-c2c3nc(c(-c4cccc(S(=O)(=O)[O-])c4F)c4ccc([nH]4)c(-c4cccc(S(=O)(=O)[O-])c4F)c4nc(c(-c5cccc(S(=O)(=O)[O-])c5F)c5ccc2[nH]5)C=C4)C=C3)cc1)CC(F)(F)F)[C@@H]1CCCO1
REMARK SMILES IDX 15 1 14 2 13 3 12 4 11 5 10 6 8 7 9 8 7 9 6 10 4 11 3 12
REMARK SMILES IDX 5 14 2 15 1 16 93 17 94 18 97 19 95 20 96 21 88 22 89 23
REMARK SMILES IDX 90 24 91 25 92 26 16 27 17 28 18 29 19 30 20 31 21 32 22 33
REMARK SMILES IDX 23 34 24 35 25 36 26 37 87 38 27 39 86 40 28 41 29 42 30 43
REMARK SMILES IDX 80 44 31 45 85 46 79 47 81 48 32 49 84 50 78 51 77 52 33 54
REMARK SMILES IDX 65 55 45 56 64 57 46 58 49 59 63 60 82 61 47 62 48 63 62 65
REMARK SMILES IDX 83 66 50 67 34 68 35 69 43 70 36 71 38 72 44 73 37 74 39 75
REMARK SMILES IDX 40 76 41 77 42 78 66 79 67 80 75 81 68 82 70 83 76 84 69 85
REMARK SMILES IDX 71 86 72 87 73 88 74 89 51 90 52 91 60 92 53 93 55 94 61 95
REMARK SMILES IDX 54 96 56 97 57 98 58 99 59 100
REMARK H PARENT 3 13 81 53 49 64
REMARK Flexibility Score: inf
ROOT
ATOM      1  C   UNL A   1      42.017  20.012  26.894  1.00  0.00     0.188 C 
ENDROOT
BRANCH   1   2
ATOM      2  C   UNL A   1      40.569  20.489  27.095  1.00  0.00     0.188 C 
BRANCH   2   3
ATOM      3  O   UNL A   1      40.050  21.344  26.107  1.00  0.00    -0.376 OA
BRANCH   3   4
ATOM      4  C   UNL A   1      38.691  21.440  25.737  1.00  0.00     0.202 C 
BRANCH   4   5
ATOM      5  C   UNL A   1      37.854  22.730  25.722  1.00  0.00     0.261 C 
BRANCH   5   6
ATOM      6  O   UNL A   1      36.437  22.611  25.846  1.00  0.00    -0.462 OA
BRANCH   6   7
ATOM      7  C   UNL A   1      35.837  22.329  24.670  1.00  0.00     0.325 C 
ATOM      8  O   UNL A   1      36.282  22.658  23.569  1.00  0.00    -0.250 OA
BRANCH   7   9
ATOM      9  C   UNL A   1      34.502  21.598  24.755  1.00  0.00     0.244 C 
BRANCH   9  10
ATOM     10  N   UNL A   1      33.177  21.558  24.144  1.00  0.00    -0.305 N 
BRANCH  10  11
ATOM     11  C   UNL A   1      32.554  22.673  23.667  1.00  0.00     0.318 C 
ATOM     12  N   UNL A   1      31.538  23.271  24.320  1.00  0.00    -0.333 N 
ATOM     13  H   UNL A   1      30.915  23.685  23.680  1.00  0.00     0.165 HD
ATOM     14  O   UNL A   1      32.919  23.211  22.621  1.00  0.00    -0.249 OA
BRANCH  12  15
ATOM     15  C   UNL A   1      31.069  23.494  25.725  1.00  0.00     0.109 C 
ATOM     16  C   UNL A   1      32.079  23.302  26.881  1.00  0.00     0.034 C 
BRANCH  15  17
ATOM     17  C   UNL A   1      30.356  24.885  25.840  1.00  0.00     0.140 C 
ATOM     18  C   UNL A   1      30.264  25.693  24.538  1.00  0.00     0.036 C 
ATOM     19  O   UNL A   1      31.023  25.754  26.787  1.00  0.00    -0.376 OA
ATOM     20  C   UNL A   1      30.692  27.082  24.943  1.00  0.00     0.031 C 
ATOM     21  C   UNL A   1      31.687  26.770  26.027  1.00  0.00     0.160 C 
ENDBRANCH  15  17
ENDBRANCH  12  15
ENDBRANCH  10  11
BRANCH  10  22
ATOM     22  C   UNL A   1      32.549  20.265  23.765  1.00  0.00     0.237 C 
BRANCH  22  23
ATOM     23  C   UNL A   1      32.942  18.984  24.529  1.00  0.00     0.406 C 
ATOM     24  F   UNL A   1      32.254  17.899  24.109  1.00  0.00    -0.169 F 
ATOM     25  F   UNL A   1      34.252  18.704  24.284  1.00  0.00    -0.169 F 
ATOM     26  F   UNL A   1      32.790  19.102  25.862  1.00  0.00    -0.169 F 
ENDBRANCH  22  23
ENDBRANCH  10  22
ENDBRANCH   9  10
ENDBRANCH   7   9
ENDBRANCH   6   7
ENDBRANCH   5   6
ENDBRANCH   4   5
ENDBRANCH   3   4
ENDBRANCH   2   3
ENDBRANCH   1   2
BRANCH   1  27
ATOM     27  O   UNL A   1      42.770  20.163  25.711  1.00  0.00    -0.377 OA
BRANCH  27  28
ATOM     28  C   UNL A   1      43.403  19.024  25.163  1.00  0.00     0.188 C 
BRANCH  28  29
ATOM     29  C   UNL A   1      44.929  19.110  25.269  1.00  0.00     0.188 C 
BRANCH  29  30
ATOM     30  O   UNL A   1      45.570  19.945  24.321  1.00  0.00    -0.376 OA
BRANCH  30  31
ATOM     31  C   UNL A   1      45.876  21.302  24.609  1.00  0.00     0.202 C 
BRANCH  31  32
ATOM     32  C   UNL A   1      45.413  22.148  25.821  1.00  0.00     0.261 C 
BRANCH  32  33
ATOM     33  O   UNL A   1      44.931  23.476  25.628  1.00  0.00    -0.460 OA
BRANCH  33  34
ATOM     34  C   UNL A   1      43.617  23.620  25.379  1.00  0.00     0.338 C 
ATOM     35  O   UNL A   1      42.931  22.927  24.642  1.00  0.00    -0.246 OA
BRANCH  34  36
ATOM     36  C   UNL A   1      43.085  24.639  26.308  1.00  0.00     0.060 A 
ATOM     37  C   UNL A   1      43.704  25.895  26.337  1.00  0.00     0.016 A 
ATOM     38  C   UNL A   1      42.007  24.362  27.154  1.00  0.00     0.016 A 
ATOM     39  C   UNL A   1      43.296  26.854  27.257  1.00  0.00     0.010 A 
ATOM     40  C   UNL A   1      41.619  25.314  28.102  1.00  0.00     0.010 A 
ATOM     41  C   UNL A   1      42.301  26.541  28.192  1.00  0.00    -0.014 A 
BRANCH  41  42
ATOM     42  C   UNL A   1      42.204  27.387  29.405  1.00  0.00     0.031 A 
ATOM     43  C   UNL A   1      43.080  27.034  30.579  1.00  0.00     0.074 A 
ATOM     44  C   UNL A   1      41.435  28.490  29.437  1.00  0.00     0.049 A 
ATOM     45  N   UNL A   1      43.229  27.653  31.720  1.00  0.00    -0.248 NA
ATOM     46  C   UNL A   1      43.907  25.822  30.442  1.00  0.00     0.031 C 
ATOM     47  C   UNL A   1      40.571  28.953  28.353  1.00  0.00     0.029 A 
ATOM     48  N   UNL A   1      41.261  29.420  30.430  1.00  0.00    -0.354 N 
ATOM     49  C   UNL A   1      44.149  26.898  32.440  1.00  0.00     0.074 A 
ATOM     50  C   UNL A   1      44.508  25.765  31.619  1.00  0.00     0.031 C 
ATOM     51  C   UNL A   1      39.942  30.074  28.748  1.00  0.00     0.029 A 
ATOM     52  C   UNL A   1      40.345  30.395  30.117  1.00  0.00     0.049 A 
ATOM     53  H   UNL A   1      41.747  29.391  31.286  1.00  0.00     0.167 HD
ATOM     54  C   UNL A   1      44.668  27.137  33.667  1.00  0.00     0.034 A 
ATOM     55  C   UNL A   1      39.879  31.419  30.859  1.00  0.00     0.034 A 
ATOM     56  C   UNL A   1      44.315  28.267  34.481  1.00  0.00     0.049 A 
ATOM     57  C   UNL A   1      40.438  31.634  32.245  1.00  0.00     0.074 A 
ATOM     58  C   UNL A   1      44.788  28.605  35.737  1.00  0.00     0.029 A 
ATOM     59  N   UNL A   1      43.391  29.237  34.125  1.00  0.00    -0.354 N 
ATOM     60  N   UNL A   1      41.373  30.965  32.876  1.00  0.00    -0.248 NA
ATOM     61  C   UNL A   1      39.906  32.777  33.003  1.00  0.00     0.031 C 
ATOM     62  C   UNL A   1      44.127  29.765  36.153  1.00  0.00     0.029 A 
ATOM     63  C   UNL A   1      43.277  30.174  35.138  1.00  0.00     0.049 A 
ATOM     64  H   UNL A   1      42.892  29.257  33.278  1.00  0.00     0.167 HD
ATOM     65  C   UNL A   1      41.576  31.634  34.079  1.00  0.00     0.074 A 
ATOM     66  C   UNL A   1      40.678  32.770  34.080  1.00  0.00     0.031 C 
ATOM     67  C   UNL A   1      42.423  31.333  35.096  1.00  0.00     0.034 A 
BRANCH  54  68
ATOM     68  C   UNL A   1      45.682  26.155  34.196  1.00  0.00     0.023 A 
ATOM     69  C   UNL A   1      47.049  26.330  33.898  1.00  0.00     0.012 A 
ATOM     70  C   UNL A   1      45.286  25.083  35.018  1.00  0.00     0.148 A 
ATOM     71  C   UNL A   1      48.002  25.432  34.378  1.00  0.00     0.002 A 
ATOM     72  C   UNL A   1      46.246  24.222  35.535  1.00  0.00     0.091 A 
ATOM     73  F   UNL A   1      43.980  24.920  35.271  1.00  0.00    -0.205 F 
ATOM     74  C   UNL A   1      47.602  24.386  35.205  1.00  0.00     0.022 A 
BRANCH  72  75
ATOM     75  S   UNL A   1      45.844  22.893  36.674  1.00  0.00     0.127 S 
ATOM     76  O   UNL A   1      45.198  23.623  37.764  1.00  0.00    -0.237 OA
ATOM     77  O   UNL A   1      44.940  22.066  35.875  1.00  0.00    -0.237 OA
ATOM     78  O   UNL A   1      47.109  22.257  37.015  1.00  0.00    -0.744 OA
ENDBRANCH  72  75
ENDBRANCH  54  68
BRANCH  55  79
ATOM     79  C   UNL A   1      38.849  32.346  30.306  1.00  0.00     0.023 A 
ATOM     80  C   UNL A   1      39.252  33.492  29.591  1.00  0.00     0.012 A 
ATOM     81  C   UNL A   1      37.476  32.110  30.505  1.00  0.00     0.148 A 
ATOM     82  C   UNL A   1      38.308  34.408  29.124  1.00  0.00     0.002 A 
ATOM     83  C   UNL A   1      36.538  32.995  29.986  1.00  0.00     0.091 A 
ATOM     84  F   UNL A   1      37.112  31.024  31.200  1.00  0.00    -0.205 F 
ATOM     85  C   UNL A   1      36.953  34.156  29.315  1.00  0.00     0.022 A 
BRANCH  83  86
ATOM     86  S   UNL A   1      34.770  32.691  30.074  1.00  0.00     0.127 S 
ATOM     87  O   UNL A   1      34.599  32.329  31.480  1.00  0.00    -0.237 OA
ATOM     88  O   UNL A   1      34.223  33.995  29.702  1.00  0.00    -0.237 OA
ATOM     89  O   UNL A   1      34.503  31.630  29.113  1.00  0.00    -0.744 OA
ENDBRANCH  83  86
ENDBRANCH  55  79
BRANCH  67  90
ATOM     90  C   UNL A   1      42.478  32.284  36.266  1.00  0.00     0.023 A 
ATOM     91  C   UNL A   1      43.610  33.095  36.473  1.00  0.00     0.012 A 
ATOM     92  C   UNL A   1      41.374  32.407  37.134  1.00  0.00     0.148 A 
ATOM     93  C   UNL A   1      43.664  33.976  37.553  1.00  0.00     0.002 A 
ATOM     94  C   UNL A   1      41.411  33.327  38.174  1.00  0.00     0.091 A 
ATOM     95  F   UNL A   1      40.310  31.616  36.932  1.00  0.00    -0.205 F 
ATOM     96  C   UNL A   1      42.562  34.100  38.396  1.00  0.00     0.022 A 
BRANCH  94  97
ATOM     97  S   UNL A   1      39.999  33.625  39.243  1.00  0.00     0.127 S 
ATOM     98  O   UNL A   1      40.620  34.317  40.371  1.00  0.00    -0.237 OA
ATOM     99  O   UNL A   1      39.147  34.470  38.404  1.00  0.00    -0.237 OA
ATOM    100  O   UNL A   1      39.440  32.314  39.542  1.00  0.00    -0.744 OA
ENDBRANCH  94  97
ENDBRANCH  67  90
ENDBRANCH  41  42
ENDBRANCH  34  36
ENDBRANCH  33  34
ENDBRANCH  32  33
ENDBRANCH  31  32
ENDBRANCH  30  31
ENDBRANCH  29  30
ENDBRANCH  28  29
ENDBRANCH  27  28
ENDBRANCH   1  27
TORSDOF 29
ENDMDL
MODEL 2
REMARK VINA RESULT:      -8.6      2.112      2.387
REMARK SMILES C[C@H](NC(=O)N(CC(=O)OCCOCCOCCOCCOC(=O)c1ccc(-c2c3nc(c(-c4cccc(S(=O)(=O)[O-])c4F)c4ccc([nH]4)c(-c4cccc(S(=O)(=O)[O-])c4F)c4nc(c(-c5cccc(S(=O)(=O)[O-])c5F)c5ccc2[nH]5)C=C4)C=C3)cc1)CC(F)(F)F)[C@@H]1CCCO1
REMARK SMILES IDX 15 1 14 2 13 3 12 4 11 5 10 6 8 7 9 8 7 9 6 10 4 11 3 12
REMARK SMILES IDX 5 14 2 15 1 16 93 17 94 18 97 19 95 20 96 21 88 22 89 23
REMARK SMILES IDX 90 24 91 25 92 26 16 27 17 28 18 29 19 30 20 31 21 32 22 33
REMARK SMILES IDX 23 34 24 35 25 36 26 37 87 38 27 39 86 40 28 41 29 42 30 43
REMARK SMILES IDX 80 44 31 45 85 46 79 47 81 48 32 49 84 50 78 51 77 52 33 54
REMARK SMILES IDX 65 55 45 56 64 57 46 58 49 59 63 60 82 61 47 62 48 63 62 65
REMARK SMILES IDX 83 66 50 67 34 68 35 69 43 70 36 71 38 72 44 73 37 74 39 75
REMARK SMILES IDX 40 76 41 77 42 78 66 79 67 80 75 81 68 82 70 83 76 84 69 85
REMARK SMILES IDX 71 86 72 87 73 88 74 89 51 90 52 91 60 92 53 93 55 94 61 95
REMARK SMILES IDX 54 96 56 97 57 98 58 99 59 100
REMARK H PARENT 3 13 81 53 49 64
REMARK Flexibility Score: inf
ROOT
ATOM      1  C   UNL A   1      41.954  20.009  26.890  1.00  0.00     0.188 C 
ENDROOT
BRANCH   1   2
ATOM      2  C   UNL A   1      40.459  20.358  26.958  1.00  0.00     0.188 C 
BRANCH   2   3
ATOM      3  O   UNL A   1      40.040  21.462  26.196  1.00  0.00    -0.376 OA
BRANCH   3   4
ATOM      4  C   UNL A   1      38.782  21.596  25.569  1.00  0.00     0.202 C 
BRANCH   4   5
ATOM      5  C   UNL A   1      37.885  22.844  25.614  1.00  0.00     0.261 C 
BRANCH   5   6
ATOM      6  O   UNL A   1      36.471  22.651  25.664  1.00  0.00    -0.462 OA
BRANCH   6   7
ATOM      7  C   UNL A   1      35.952  22.325  24.462  1.00  0.00     0.325 C 
ATOM      8  O   UNL A   1      36.577  22.372  23.401  1.00  0.00    -0.250 OA
BRANCH   7   9
ATOM      9  C   UNL A   1      34.481  21.923  24.452  1.00  0.00     0.244 C 
BRANCH   9  10
ATOM     10  N   UNL A   1      33.294  21.941  23.602  1.00  0.00    -0.305 N 
BRANCH  10  11
ATOM     11  C   UNL A   1      32.970  23.006  22.815  1.00  0.00     0.318 C 
ATOM     12  N   UNL A   1      31.796  23.659  22.928  1.00  0.00    -0.333 N 
ATOM     13  H   UNL A   1      31.515  24.011  22.054  1.00  0.00     0.165 HD
ATOM     14  O   UNL A   1      33.758  23.446  21.978  1.00  0.00    -0.249 OA
BRANCH  12  15
ATOM     15  C   UNL A   1      30.791  24.010  23.982  1.00  0.00     0.109 C 
ATOM     16  C   UNL A   1      30.829  23.241  25.324  1.00  0.00     0.034 C 
BRANCH  15  17
ATOM     17  C   UNL A   1      30.791  25.557  24.232  1.00  0.00     0.140 C 
ATOM     18  C   UNL A   1      29.460  26.273  23.964  1.00  0.00     0.036 C 
ATOM     19  O   UNL A   1      31.767  26.236  23.405  1.00  0.00    -0.376 OA
ATOM     20  C   UNL A   1      29.856  27.485  23.158  1.00  0.00     0.031 C 
ATOM     21  C   UNL A   1      31.039  26.949  22.399  1.00  0.00     0.160 C 
ENDBRANCH  15  17
ENDBRANCH  12  15
ENDBRANCH  10  11
BRANCH  10  22
ATOM     22  C   UNL A   1      32.521  20.697  23.343  1.00  0.00     0.237 C 
BRANCH  22  23
ATOM     23  C   UNL A   1      32.678  19.499  24.302  1.00  0.00     0.406 C 
ATOM     24  F   UNL A   1      31.854  18.475  23.989  1.00  0.00    -0.169 F 
ATOM     25  F   UNL A   1      33.940  19.001  24.188  1.00  0.00    -0.169 F 
ATOM     26  F   UNL A   1      32.483  19.832  25.592  1.00  0.00    -0.169 F 
ENDBRANCH  22  23
ENDBRANCH  10  22
ENDBRANCH   9  10
ENDBRANCH   7   9
ENDBRANCH   6   7
ENDBRANCH   5   6
ENDBRANCH   4   5
ENDBRANCH   3   4
ENDBRANCH   2   3
ENDBRANCH   1   2
BRANCH   1  27
ATOM     27  O   UNL A   1      42.710  19.880  25.706  1.00  0.00    -0.377 OA
BRANCH  27  28
ATOM     28  C   UNL A   1      43.341  18.644  25.438  1.00  0.00     0.188 C 
BRANCH  28  29
ATOM     29  C   UNL A   1      44.869  18.766  25.457  1.00  0.00     0.188 C 
BRANCH  29  30
ATOM     30  O   UNL A   1      45.450  19.452  24.363  1.00  0.00    -0.376 OA
BRANCH  30  31
ATOM     31  C   UNL A   1      45.745  20.840  24.426  1.00  0.00     0.202 C 
BRANCH  31  32
ATOM     32  C   UNL A   1      45.426  21.833  25.572  1.00  0.00     0.261 C 
BRANCH  32  33
ATOM     33  O   UNL A   1      44.898  23.124  25.277  1.00  0.00    -0.460 OA
BRANCH  33  34
ATOM     34  C   UNL A   1      43.560  23.231  25.187  1.00  0.00     0.338 C 
ATOM     35  O   UNL A   1      42.812  22.533  24.520  1.00  0.00    -0.246 OA
BRANCH  34  36
ATOM     36  C   UNL A   1      43.112  24.214  26.197  1.00  0.00     0.060 A 
ATOM     37  C   UNL A   1      43.703  25.484  26.192  1.00  0.00     0.016 A 
ATOM     38  C   UNL A   1      42.141  23.889  27.149  1.00  0.00     0.016 A 
ATOM     39  C   UNL A   1      43.379  26.409  27.178  1.00  0.00     0.010 A 
ATOM     40  C   UNL A   1      41.839  24.808  28.159  1.00  0.00     0.010 A 
ATOM     41  C   UNL A   1      42.501  26.049  28.207  1.00  0.00    -0.014 A 
BRANCH  41  42
ATOM     42  C   UNL A   1      42.520  26.862  29.446  1.00  0.00     0.031 A 
ATOM     43  C   UNL A   1      43.433  26.421  30.561  1.00  0.00     0.074 A 
ATOM     44  C   UNL A   1      41.823  28.007  29.550  1.00  0.00     0.049 A 
ATOM     45  N   UNL A   1      43.680  26.994  31.708  1.00  0.00    -0.248 NA
ATOM     46  C   UNL A   1      44.175  25.166  30.346  1.00  0.00     0.031 C 
ATOM     47  C   UNL A   1      40.934  28.555  28.527  1.00  0.00     0.029 A 
ATOM     48  N   UNL A   1      41.759  28.916  30.576  1.00  0.00    -0.354 N 
ATOM     49  C   UNL A   1      44.588  26.164  32.357  1.00  0.00     0.074 A 
ATOM     50  C   UNL A   1      44.833  25.037  31.487  1.00  0.00     0.031 C 
ATOM     51  C   UNL A   1      40.397  29.699  28.987  1.00  0.00     0.029 A 
ATOM     52  C   UNL A   1      40.890  29.954  30.339  1.00  0.00     0.049 A 
ATOM     53  H   UNL A   1      42.287  28.832  31.403  1.00  0.00     0.167 HD
ATOM     54  C   UNL A   1      45.185  26.334  33.560  1.00  0.00     0.034 A 
ATOM     55  C   UNL A   1      40.528  30.980  31.134  1.00  0.00     0.034 A 
ATOM     56  C   UNL A   1      44.946  27.457  34.422  1.00  0.00     0.049 A 
ATOM     57  C   UNL A   1      41.172  31.120  32.492  1.00  0.00     0.074 A 
ATOM     58  C   UNL A   1      45.504  27.728  35.659  1.00  0.00     0.029 A 
ATOM     59  N   UNL A   1      44.067  28.492  34.143  1.00  0.00    -0.354 N 
ATOM     60  N   UNL A   1      42.095  30.376  33.053  1.00  0.00    -0.248 NA
ATOM     61  C   UNL A   1      40.752  32.268  33.309  1.00  0.00     0.031 C 
ATOM     62  C   UNL A   1      44.939  28.913  36.141  1.00  0.00     0.029 A 
ATOM     63  C   UNL A   1      44.064  29.404  35.186  1.00  0.00     0.049 A 
ATOM     64  H   UNL A   1      43.525  28.568  33.325  1.00  0.00     0.167 HD
ATOM     65  C   UNL A   1      42.403  30.994  34.261  1.00  0.00     0.074 A 
ATOM     66  C   UNL A   1      41.578  32.182  34.342  1.00  0.00     0.031 C 
ATOM     67  C   UNL A   1      43.282  30.613  35.222  1.00  0.00     0.034 A 
BRANCH  54  68
ATOM     68  C   UNL A   1      46.162  25.277  34.005  1.00  0.00     0.023 A 
ATOM     69  C   UNL A   1      45.726  24.222  34.833  1.00  0.00     0.012 A 
ATOM     70  C   UNL A   1      47.502  25.307  33.574  1.00  0.00     0.148 A 
ATOM     71  C   UNL A   1      46.616  23.235  35.256  1.00  0.00     0.002 A 
ATOM     72  C   UNL A   1      48.371  24.293  33.958  1.00  0.00     0.091 A 
ATOM     73  F   UNL A   1      47.904  26.331  32.807  1.00  0.00    -0.205 F 
ATOM     74  C   UNL A   1      47.934  23.265  34.809  1.00  0.00     0.022 A 
BRANCH  72  75
ATOM     75  S   UNL A   1      50.066  24.196  33.371  1.00  0.00     0.127 S 
ATOM     76  O   UNL A   1      50.779  24.951  34.400  1.00  0.00    -0.237 OA
ATOM     77  O   UNL A   1      50.314  22.755  33.390  1.00  0.00    -0.237 OA
ATOM     78  O   UNL A   1      50.068  24.796  32.045  1.00  0.00    -0.744 OA
ENDBRANCH  72  75
ENDBRANCH  54  68
BRANCH  55  79
ATOM     79  C   UNL A   1      39.531  31.985  30.663  1.00  0.00     0.023 A 
ATOM     80  C   UNL A   1      39.970  33.160  30.022  1.00  0.00     0.012 A 
ATOM     81  C   UNL A   1      38.151  31.791  30.867  1.00  0.00     0.148 A 
ATOM     82  C   UNL A   1      39.058  34.144  29.635  1.00  0.00     0.002 A 
ATOM     83  C   UNL A   1      37.244  32.746  30.426  1.00  0.00     0.091 A 
ATOM     84  F   UNL A   1      37.753  30.674  31.492  1.00  0.00    -0.205 F 
ATOM     85  C   UNL A   1      37.697  33.934  29.831  1.00  0.00     0.022 A 
BRANCH  83  86
ATOM     86  S   UNL A   1      35.466  32.507  30.522  1.00  0.00     0.127 S 
ATOM     87  O   UNL A   1      34.974  33.880  30.429  1.00  0.00    -0.237 OA
ATOM     88  O   UNL A   1      35.212  31.680  29.343  1.00  0.00    -0.237 OA
ATOM     89  O   UNL A   1      35.226  31.836  31.791  1.00  0.00    -0.744 OA
ENDBRANCH  83  86
ENDBRANCH  55  79
BRANCH  67  90
ATOM     90  C   UNL A   1      43.458  31.522  36.413  1.00  0.00     0.023 A 
ATOM     91  C   UNL A   1      42.643  31.371  37.551  1.00  0.00     0.012 A 
ATOM     92  C   UNL A   1      44.475  32.498  36.417  1.00  0.00     0.148 A 
ATOM     93  C   UNL A   1      42.804  32.209  38.655  1.00  0.00     0.002 A 
ATOM     94  C   UNL A   1      44.667  33.291  37.541  1.00  0.00     0.091 A 
ATOM     95  F   UNL A   1      45.232  32.639  35.319  1.00  0.00    -0.205 F 
ATOM     96  C   UNL A   1      43.821  33.161  38.654  1.00  0.00     0.022 A 
BRANCH  94  97
ATOM     97  S   UNL A   1      46.018  34.469  37.666  1.00  0.00     0.127 S 
ATOM     98  O   UNL A   1      47.182  33.608  37.473  1.00  0.00    -0.237 OA
ATOM     99  O   UNL A   1      45.740  35.378  36.553  1.00  0.00    -0.237 OA
ATOM    100  O   UNL A   1      45.898  35.077  38.984  1.00  0.00    -0.744 OA
ENDBRANCH  94  97
ENDBRANCH  67  90
ENDBRANCH  41  42
ENDBRANCH  34  36
ENDBRANCH  33  34
ENDBRANCH  32  33
ENDBRANCH  31  32
ENDBRANCH  30  31
ENDBRANCH  29  30
ENDBRANCH  28  29
ENDBRANCH  27  28
ENDBRANCH   1  27
TORSDOF 29
ENDMDL
MODEL 3
REMARK VINA RESULT:      -7.6      4.149      5.119
REMARK SMILES C[C@H](NC(=O)N(CC(=O)OCCOCCOCCOCCOC(=O)c1ccc(-c2c3nc(c(-c4cccc(S(=O)(=O)[O-])c4F)c4ccc([nH]4)c(-c4cccc(S(=O)(=O)[O-])c4F)c4nc(c(-c5cccc(S(=O)(=O)[O-])c5F)c5ccc2[nH]5)C=C4)C=C3)cc1)CC(F)(F)F)[C@@H]1CCCO1
REMARK SMILES IDX 15 1 14 2 13 3 12 4 11 5 10 6 8 7 9 8 7 9 6 10 4 11 3 12
REMARK SMILES IDX 5 14 2 15 1 16 93 17 94 18 97 19 95 20 96 21 88 22 89 23
REMARK SMILES IDX 90 24 91 25 92 26 16 27 17 28 18 29 19 30 20 31 21 32 22 33
REMARK SMILES IDX 23 34 24 35 25 36 26 37 87 38 27 39 86 40 28 41 29 42 30 43
REMARK SMILES IDX 80 44 31 45 85 46 79 47 81 48 32 49 84 50 78 51 77 52 33 54
REMARK SMILES IDX 65 55 45 56 64 57 46 58 49 59 63 60 82 61 47 62 48 63 62 65
REMARK SMILES IDX 83 66 50 67 34 68 35 69 43 70 36 71 38 72 44 73 37 74 39 75
REMARK SMILES IDX 40 76 41 77 42 78 66 79 67 80 75 81 68 82 70 83 76 84 69 85
REMARK SMILES IDX 71 86 72 87 73 88 74 89 51 90 52 91 60 92 53 93 55 94 61 95
REMARK SMILES IDX 54 96 56 97 57 98 58 99 59 100
REMARK H PARENT 3 13 81 53 49 64
REMARK Flexibility Score: inf
ROOT
ATOM      1  C   UNL A   1      41.959  20.222  26.786  1.00  0.00     0.188 C 
ENDROOT
BRANCH   1   2
ATOM      2  C   UNL A   1      40.707  21.106  26.904  1.00  0.00     0.188 C 
BRANCH   2   3
ATOM      3  O   UNL A   1      39.904  21.209  25.755  1.00  0.00    -0.376 OA
BRANCH   3   4
ATOM      4  C   UNL A   1      38.492  21.243  25.741  1.00  0.00     0.202 C 
BRANCH   4   5
ATOM      5  C   UNL A   1      37.628  22.480  25.444  1.00  0.00     0.261 C 
BRANCH   5   6
ATOM      6  O   UNL A   1      36.311  22.525  25.994  1.00  0.00    -0.462 OA
BRANCH   6   7
ATOM      7  C   UNL A   1      35.646  23.648  25.652  1.00  0.00     0.325 C 
ATOM      8  O   UNL A   1      36.188  24.726  25.405  1.00  0.00    -0.250 OA
BRANCH   7   9
ATOM      9  C   UNL A   1      34.125  23.547  25.626  1.00  0.00     0.244 C 
BRANCH   9  10
ATOM     10  N   UNL A   1      33.034  22.614  25.889  1.00  0.00    -0.305 N 
BRANCH  10  11
ATOM     11  C   UNL A   1      33.169  21.539  26.717  1.00  0.00     0.318 C 
ATOM     12  N   UNL A   1      33.187  20.271  26.261  1.00  0.00    -0.333 N 
ATOM     13  H   UNL A   1      32.797  19.662  26.928  1.00  0.00     0.165 HD
ATOM     14  O   UNL A   1      33.318  21.682  27.931  1.00  0.00    -0.249 OA
BRANCH  12  15
ATOM     15  C   UNL A   1      33.619  19.510  25.046  1.00  0.00     0.109 C 
ATOM     16  C   UNL A   1      35.125  19.217  24.854  1.00  0.00     0.034 C 
BRANCH  15  17
ATOM     17  C   UNL A   1      32.779  18.193  24.909  1.00  0.00     0.140 C 
ATOM     18  C   UNL A   1      33.325  16.976  25.669  1.00  0.00     0.036 C 
ATOM     19  O   UNL A   1      32.666  17.768  23.529  1.00  0.00    -0.376 OA
ATOM     20  C   UNL A   1      33.250  15.856  24.659  1.00  0.00     0.031 C 
ATOM     21  C   UNL A   1      33.493  16.608  23.380  1.00  0.00     0.160 C 
ENDBRANCH  15  17
ENDBRANCH  12  15
ENDBRANCH  10  11
BRANCH  10  22
ATOM     22  C   UNL A   1      31.640  22.935  25.483  1.00  0.00     0.237 C 
BRANCH  22  23
ATOM     23  C   UNL A   1      30.810  23.909  26.343  1.00  0.00     0.406 C 
ATOM     24  F   UNL A   1      30.204  24.864  25.604  1.00  0.00    -0.169 F 
ATOM     25  F   UNL A   1      29.803  23.220  26.948  1.00  0.00    -0.169 F 
ATOM     26  F   UNL A   1      31.536  24.505  27.308  1.00  0.00    -0.169 F 
ENDBRANCH  22  23
ENDBRANCH  10  22
ENDBRANCH   9  10
ENDBRANCH   7   9
ENDBRANCH   6   7
ENDBRANCH   5   6
ENDBRANCH   4   5
ENDBRANCH   3   4
ENDBRANCH   2   3
ENDBRANCH   1   2
BRANCH   1  27
ATOM     27  O   UNL A   1      42.751  20.079  25.628  1.00  0.00    -0.377 OA
BRANCH  27  28
ATOM     28  C   UNL A   1      43.335  18.819  25.361  1.00  0.00     0.188 C 
BRANCH  28  29
ATOM     29  C   UNL A   1      44.857  18.845  25.538  1.00  0.00     0.188 C 
BRANCH  29  30
ATOM     30  O   UNL A   1      45.596  19.404  24.467  1.00  0.00    -0.376 OA
BRANCH  30  31
ATOM     31  C   UNL A   1      45.432  20.760  24.075  1.00  0.00     0.202 C 
BRANCH  31  32
ATOM     32  C   UNL A   1      45.814  22.035  24.868  1.00  0.00     0.261 C 
BRANCH  32  33
ATOM     33  O   UNL A   1      45.393  23.318  24.409  1.00  0.00    -0.460 OA
BRANCH  33  34
ATOM     34  C   UNL A   1      44.140  23.697  24.718  1.00  0.00     0.338 C 
ATOM     35  O   UNL A   1      43.115  23.060  24.529  1.00  0.00    -0.246 OA
BRANCH  34  36
ATOM     36  C   UNL A   1      44.222  24.938  25.518  1.00  0.00     0.060 A 
ATOM     37  C   UNL A   1      45.480  25.531  25.691  1.00  0.00     0.016 A 
ATOM     38  C   UNL A   1      43.087  25.501  26.107  1.00  0.00     0.016 A 
ATOM     39  C   UNL A   1      45.618  26.647  26.509  1.00  0.00     0.010 A 
ATOM     40  C   UNL A   1      43.231  26.603  26.956  1.00  0.00     0.010 A 
ATOM     41  C   UNL A   1      44.507  27.143  27.202  1.00  0.00    -0.014 A 
BRANCH  41  42
ATOM     42  C   UNL A   1      44.759  28.017  28.372  1.00  0.00     0.031 A 
ATOM     43  C   UNL A   1      45.259  27.370  29.638  1.00  0.00     0.074 A 
ATOM     44  C   UNL A   1      44.639  29.354  28.293  1.00  0.00     0.049 A 
ATOM     45  N   UNL A   1      45.615  27.920  30.767  1.00  0.00    -0.248 NA
ATOM     46  C   UNL A   1      45.381  25.901  29.621  1.00  0.00     0.031 C 
ATOM     47  C   UNL A   1      44.198  30.097  27.115  1.00  0.00     0.029 A 
ATOM     48  N   UNL A   1      44.881  30.322  29.234  1.00  0.00    -0.354 N 
ATOM     49  C   UNL A   1      45.986  26.868  31.599  1.00  0.00     0.074 A 
ATOM     50  C   UNL A   1      45.791  25.646  30.854  1.00  0.00     0.031 C 
ATOM     51  C   UNL A   1      44.183  31.410  27.411  1.00  0.00     0.029 A 
ATOM     52  C   UNL A   1      44.595  31.595  28.801  1.00  0.00     0.049 A 
ATOM     53  H   UNL A   1      45.227  30.124  30.135  1.00  0.00     0.167 HD
ATOM     54  C   UNL A   1      46.467  26.914  32.863  1.00  0.00     0.034 A 
ATOM     55  C   UNL A   1      44.648  32.769  29.461  1.00  0.00     0.034 A 
ATOM     56  C   UNL A   1      46.667  28.130  33.602  1.00  0.00     0.049 A 
ATOM     57  C   UNL A   1      45.142  32.787  30.888  1.00  0.00     0.074 A 
ATOM     58  C   UNL A   1      47.156  28.287  34.886  1.00  0.00     0.029 A 
ATOM     59  N   UNL A   1      46.375  29.398  33.126  1.00  0.00    -0.354 N 
ATOM     60  N   UNL A   1      45.574  31.795  31.629  1.00  0.00    -0.248 NA
ATOM     61  C   UNL A   1      45.196  34.097  31.553  1.00  0.00     0.031 C 
ATOM     62  C   UNL A   1      47.131  29.650  35.198  1.00  0.00     0.029 A 
ATOM     63  C   UNL A   1      46.670  30.345  34.092  1.00  0.00     0.049 A 
ATOM     64  H   UNL A   1      46.011  29.597  32.233  1.00  0.00     0.167 HD
ATOM     65  C   UNL A   1      45.998  32.367  32.825  1.00  0.00     0.074 A 
ATOM     66  C   UNL A   1      45.785  33.794  32.701  1.00  0.00     0.031 C 
ATOM     67  C   UNL A   1      46.510  31.767  33.929  1.00  0.00     0.034 A 
BRANCH  54  68
ATOM     68  C   UNL A   1      46.820  25.605  33.520  1.00  0.00     0.023 A 
ATOM     69  C   UNL A   1      48.139  25.112  33.440  1.00  0.00     0.012 A 
ATOM     70  C   UNL A   1      45.856  24.881  34.248  1.00  0.00     0.148 A 
ATOM     71  C   UNL A   1      48.484  23.903  34.042  1.00  0.00     0.002 A 
ATOM     72  C   UNL A   1      46.219  23.702  34.887  1.00  0.00     0.091 A 
ATOM     73  F   UNL A   1      44.602  25.353  34.292  1.00  0.00    -0.205 F 
ATOM     74  C   UNL A   1      47.527  23.204  34.774  1.00  0.00     0.022 A 
BRANCH  72  75
ATOM     75  S   UNL A   1      45.083  22.771  35.922  1.00  0.00     0.127 S 
ATOM     76  O   UNL A   1      44.818  23.722  36.999  1.00  0.00    -0.237 OA
ATOM     77  O   UNL A   1      43.957  22.546  35.016  1.00  0.00    -0.237 OA
ATOM     78  O   UNL A   1      45.796  21.564  36.318  1.00  0.00    -0.744 OA
ENDBRANCH  72  75
ENDBRANCH  54  68
BRANCH  55  79
ATOM     79  C   UNL A   1      44.258  34.037  28.780  1.00  0.00     0.023 A 
ATOM     80  C   UNL A   1      42.897  34.391  28.688  1.00  0.00     0.012 A 
ATOM     81  C   UNL A   1      45.226  34.882  28.206  1.00  0.00     0.148 A 
ATOM     82  C   UNL A   1      42.505  35.539  27.996  1.00  0.00     0.002 A 
ATOM     83  C   UNL A   1      44.834  36.054  27.570  1.00  0.00     0.091 A 
ATOM     84  F   UNL A   1      46.514  34.522  28.290  1.00  0.00    -0.205 F 
ATOM     85  C   UNL A   1      43.473  36.373  27.444  1.00  0.00     0.022 A 
BRANCH  83  86
ATOM     86  S   UNL A   1      46.014  37.251  26.937  1.00  0.00     0.127 S 
ATOM     87  O   UNL A   1      46.597  36.529  25.809  1.00  0.00    -0.237 OA
ATOM     88  O   UNL A   1      45.142  38.366  26.571  1.00  0.00    -0.237 OA
ATOM     89  O   UNL A   1      46.920  37.535  28.042  1.00  0.00    -0.744 OA
ENDBRANCH  83  86
ENDBRANCH  55  79
BRANCH  67  90
ATOM     90  C   UNL A   1      46.948  32.654  35.068  1.00  0.00     0.023 A 
ATOM     91  C   UNL A   1      48.269  33.139  35.127  1.00  0.00     0.012 A 
ATOM     92  C   UNL A   1      46.024  33.048  36.057  1.00  0.00     0.148 A 
ATOM     93  C   UNL A   1      48.677  33.961  36.178  1.00  0.00     0.002 A 
ATOM     94  C   UNL A   1      46.422  33.912  37.070  1.00  0.00     0.091 A 
ATOM     95  F   UNL A   1      44.775  32.565  35.996  1.00  0.00    -0.205 F 
ATOM     96  C   UNL A   1      47.752  34.355  37.142  1.00  0.00     0.022 A 
BRANCH  94  97
ATOM     97  S   UNL A   1      45.272  34.552  38.292  1.00  0.00     0.127 S 
ATOM     98  O   UNL A   1      44.653  35.659  37.567  1.00  0.00    -0.237 OA
ATOM     99  O   UNL A   1      44.392  33.405  38.522  1.00  0.00    -0.237 OA
ATOM    100  O   UNL A   1      46.081  34.931  39.443  1.00  0.00    -0.744 OA
ENDBRANCH  94  97
ENDBRANCH  67  90
ENDBRANCH  41  42
ENDBRANCH  34  36
ENDBRANCH  33  34
ENDBRANCH  32  33
ENDBRANCH  31  32
ENDBRANCH  30  31
ENDBRANCH  29  30
ENDBRANCH  28  29
ENDBRANCH  27  28
ENDBRANCH   1  27
TORSDOF 29
ENDMDL
