MODEL 1
REMARK VINA RESULT:      -9.4      0.000      0.000
REMARK SMILES CS(=O)(=O)[C@@H]1CCC[C@@H](Sc2ccc(C(=O)OCCOCCOCCOCCOC(=O)c3ccc(-c4c5nc(c(-c6cccc(S(=O)(=O)[O-])c6F)c6ccc([nH]6)c(-c6cccc(S(=O)(=O)[O-])c6F)c6nc(c(-c7cccc(S(=O)(=O)[O-])c7F)c7ccc4[nH]7)C=C6)C=C5)cc3)cn2)C1
REMARK SMILES IDX 23 1 22 2 21 3 20 4 19 5 18 6 17 7 15 8 16 9 14 10 11 11
REMARK SMILES IDX 12 12 96 13 13 14 95 15 10 16 9 17 5 18 6 19 97 20 7 21 8 22
REMARK SMILES IDX 2 23 1 24 3 25 4 26 24 27 25 28 26 29 27 30 28 31 29 32
REMARK SMILES IDX 30 33 31 34 32 35 33 36 94 37 34 38 93 39 35 40 36 41 37 42
REMARK SMILES IDX 87 43 38 44 92 45 86 46 88 47 39 48 91 49 85 50 84 51 40 53
REMARK SMILES IDX 72 54 52 55 71 56 53 57 56 58 70 59 89 60 54 61 55 62 69 64
REMARK SMILES IDX 90 65 57 66 41 67 42 68 50 69 43 70 45 71 51 72 44 73 46 74
REMARK SMILES IDX 47 75 48 76 49 77 73 78 74 79 82 80 75 81 77 82 83 83 76 84
REMARK SMILES IDX 78 85 79 86 80 87 81 88 58 89 59 90 67 91 60 92 62 93 68 94
REMARK SMILES IDX 61 95 63 96 64 97 65 98 66 99
REMARK H PARENT 88 52 56 63
REMARK Flexibility Score: inf
ROOT
ATOM      1  O   UNL A   1      33.291  37.189  30.031  1.00  0.00    -0.377 OA
ENDROOT
BRANCH   1   2
ATOM      2  C   UNL A   1      33.127  36.057  29.188  1.00  0.00     0.188 C 
BRANCH   2   3
ATOM      3  C   UNL A   1      34.383  35.762  28.345  1.00  0.00     0.188 C 
BRANCH   3   4
ATOM      4  O   UNL A   1      34.326  34.510  27.672  1.00  0.00    -0.376 OA
BRANCH   4   5
ATOM      5  C   UNL A   1      34.370  33.309  28.431  1.00  0.00     0.202 C 
BRANCH   5   6
ATOM      6  C   UNL A   1      35.128  32.098  27.880  1.00  0.00     0.261 C 
BRANCH   6   7
ATOM      7  O   UNL A   1      34.398  30.867  27.882  1.00  0.00    -0.460 OA
BRANCH   7   8
ATOM      8  C   UNL A   1      34.935  29.724  27.405  1.00  0.00     0.339 C 
ATOM      9  O   UNL A   1      36.081  29.331  27.518  1.00  0.00    -0.246 OA
BRANCH   8  10
ATOM     10  C   UNL A   1      33.795  28.938  26.887  1.00  0.00     0.078 A 
ATOM     11  C   UNL A   1      31.651  27.284  26.244  1.00  0.00     0.096 A 
ATOM     12  C   UNL A   1      31.448  28.508  26.838  1.00  0.00     0.036 A 
ATOM     13  N   UNL A   1      32.913  26.865  25.978  1.00  0.00    -0.249 NA
ATOM     14  C   UNL A   1      32.499  29.361  27.123  1.00  0.00     0.020 A 
ATOM     15  C   UNL A   1      33.956  27.688  26.313  1.00  0.00     0.128 A 
BRANCH  11  16
ATOM     16  S   UNL A   1      30.348  26.118  25.918  1.00  0.00    -0.103 SA
BRANCH  16  17
ATOM     17  C   UNL A   1      30.009  25.980  24.079  1.00  0.00     0.054 C 
ATOM     18  C   UNL A   1      29.493  28.312  23.213  1.00  0.00     0.109 C 
ATOM     19  C   UNL A   1      30.616  28.197  22.167  1.00  0.00     0.020 C 
ATOM     20  C   UNL A   1      28.930  26.940  23.553  1.00  0.00     0.034 C 
ATOM     21  C   UNL A   1      31.666  27.099  22.400  1.00  0.00     0.002 C 
ATOM     22  C   UNL A   1      31.186  25.834  23.113  1.00  0.00     0.015 C 
BRANCH  18  23
ATOM     23  S   UNL A   1      28.224  29.489  22.715  1.00  0.00     0.150 S 
ATOM     24  C   UNL A   1      28.670  30.947  23.642  1.00  0.00     0.158 C 
ATOM     25  O   UNL A   1      26.951  29.030  23.239  1.00  0.00    -0.229 OA
ATOM     26  O   UNL A   1      28.377  29.776  21.304  1.00  0.00    -0.229 OA
ENDBRANCH  18  23
ENDBRANCH  16  17
ENDBRANCH  11  16
ENDBRANCH   8  10
ENDBRANCH   7   8
ENDBRANCH   6   7
ENDBRANCH   5   6
ENDBRANCH   4   5
ENDBRANCH   3   4
ENDBRANCH   2   3
ENDBRANCH   1   2
BRANCH   1  27
ATOM     27  C   UNL A   1      33.313  36.943  31.442  1.00  0.00     0.188 C 
BRANCH  27  28
ATOM     28  C   UNL A   1      32.739  35.628  32.021  1.00  0.00     0.188 C 
BRANCH  28  29
ATOM     29  O   UNL A   1      33.397  34.457  31.540  1.00  0.00    -0.376 OA
BRANCH  29  30
ATOM     30  C   UNL A   1      34.625  34.099  32.157  1.00  0.00     0.202 C 
BRANCH  30  31
ATOM     31  C   UNL A   1      35.011  32.630  31.954  1.00  0.00     0.261 C 
BRANCH  31  32
ATOM     32  O   UNL A   1      36.387  32.416  31.606  1.00  0.00    -0.460 OA
BRANCH  32  33
ATOM     33  C   UNL A   1      36.944  31.262  32.035  1.00  0.00     0.338 C 
ATOM     34  O   UNL A   1      36.392  30.354  32.630  1.00  0.00    -0.246 OA
BRANCH  33  35
ATOM     35  C   UNL A   1      38.311  31.188  31.487  1.00  0.00     0.060 A 
ATOM     36  C   UNL A   1      39.396  31.298  32.365  1.00  0.00     0.016 A 
ATOM     37  C   UNL A   1      38.514  31.037  30.114  1.00  0.00     0.016 A 
ATOM     38  C   UNL A   1      40.694  31.321  31.862  1.00  0.00     0.010 A 
ATOM     39  C   UNL A   1      39.814  31.071  29.610  1.00  0.00     0.010 A 
ATOM     40  C   UNL A   1      40.903  31.263  30.478  1.00  0.00    -0.014 A 
BRANCH  40  41
ATOM     41  C   UNL A   1      42.224  31.639  29.925  1.00  0.00     0.031 A 
ATOM     42  C   UNL A   1      42.512  33.102  29.716  1.00  0.00     0.074 A 
ATOM     43  C   UNL A   1      43.147  30.711  29.621  1.00  0.00     0.049 A 
ATOM     44  N   UNL A   1      43.589  33.676  29.253  1.00  0.00    -0.248 NA
ATOM     45  C   UNL A   1      41.437  34.042  30.078  1.00  0.00     0.031 C 
ATOM     46  C   UNL A   1      42.983  29.268  29.787  1.00  0.00     0.029 A 
ATOM     47  N   UNL A   1      44.403  30.851  29.091  1.00  0.00    -0.354 N 
ATOM     48  C   UNL A   1      43.315  35.038  29.242  1.00  0.00     0.074 A 
ATOM     49  C   UNL A   1      41.962  35.204  29.727  1.00  0.00     0.031 C 
ATOM     50  C   UNL A   1      44.097  28.653  29.350  1.00  0.00     0.029 A 
ATOM     51  C   UNL A   1      45.039  29.656  28.856  1.00  0.00     0.049 A 
ATOM     52  H   UNL A   1      44.811  31.727  28.896  1.00  0.00     0.167 HD
ATOM     53  C   UNL A   1      44.120  36.064  28.879  1.00  0.00     0.034 A 
ATOM     54  C   UNL A   1      46.240  29.407  28.299  1.00  0.00     0.034 A 
ATOM     55  C   UNL A   1      45.467  35.897  28.408  1.00  0.00     0.049 A 
ATOM     56  C   UNL A   1      47.106  30.565  27.869  1.00  0.00     0.074 A 
ATOM     57  C   UNL A   1      46.382  36.872  28.055  1.00  0.00     0.029 A 
ATOM     58  N   UNL A   1      46.087  34.674  28.209  1.00  0.00    -0.354 N 
ATOM     59  N   UNL A   1      46.882  31.854  27.981  1.00  0.00    -0.248 NA
ATOM     60  C   UNL A   1      48.407  30.236  27.269  1.00  0.00     0.031 C 
ATOM     61  C   UNL A   1      47.547  36.236  27.613  1.00  0.00     0.029 A 
ATOM     62  C   UNL A   1      47.368  34.865  27.724  1.00  0.00     0.049 A 
ATOM     63  H   UNL A   1      45.676  33.797  28.386  1.00  0.00     0.167 HD
ATOM     64  C   UNL A   1      48.030  32.485  27.511  1.00  0.00     0.074 A 
ATOM     65  C   UNL A   1      48.951  31.437  27.125  1.00  0.00     0.031 C 
ATOM     66  C   UNL A   1      48.295  33.811  27.399  1.00  0.00     0.034 A 
BRANCH  53  67
ATOM     67  C   UNL A   1      43.561  37.457  28.996  1.00  0.00     0.023 A 
ATOM     68  C   UNL A   1      42.730  37.966  27.977  1.00  0.00     0.012 A 
ATOM     69  C   UNL A   1      43.840  38.255  30.123  1.00  0.00     0.148 A 
ATOM     70  C   UNL A   1      42.219  39.261  28.057  1.00  0.00     0.002 A 
ATOM     71  C   UNL A   1      43.289  39.527  30.218  1.00  0.00     0.091 A 
ATOM     72  F   UNL A   1      44.656  37.764  31.067  1.00  0.00    -0.205 F 
ATOM     73  C   UNL A   1      42.491  40.037  29.180  1.00  0.00     0.022 A 
BRANCH  71  74
ATOM     74  S   UNL A   1      43.519  40.571  31.661  1.00  0.00     0.127 S 
ATOM     75  O   UNL A   1      44.975  40.685  31.714  1.00  0.00    -0.237 OA
ATOM     76  O   UNL A   1      42.824  41.797  31.268  1.00  0.00    -0.237 OA
ATOM     77  O   UNL A   1      42.904  39.858  32.771  1.00  0.00    -0.744 OA
ENDBRANCH  71  74
ENDBRANCH  53  67
BRANCH  54  78
ATOM     78  C   UNL A   1      46.726  28.005  28.161  1.00  0.00     0.023 A 
ATOM     79  C   UNL A   1      47.549  27.457  29.165  1.00  0.00     0.012 A 
ATOM     80  C   UNL A   1      46.373  27.210  27.053  1.00  0.00     0.148 A 
ATOM     81  C   UNL A   1      48.040  26.156  29.052  1.00  0.00     0.002 A 
ATOM     82  C   UNL A   1      46.820  25.896  26.975  1.00  0.00     0.091 A 
ATOM     83  F   UNL A   1      45.601  27.753  26.103  1.00  0.00    -0.205 F 
ATOM     84  C   UNL A   1      47.669  25.373  27.962  1.00  0.00     0.022 A 
BRANCH  82  85
ATOM     85  S   UNL A   1      46.291  24.773  25.676  1.00  0.00     0.127 S 
ATOM     86  O   UNL A   1      46.896  23.514  26.104  1.00  0.00    -0.237 OA
ATOM     87  O   UNL A   1      44.834  24.832  25.804  1.00  0.00    -0.237 OA
ATOM     88  O   UNL A   1      46.807  25.333  24.435  1.00  0.00    -0.744 OA
ENDBRANCH  82  85
ENDBRANCH  54  78
BRANCH  66  89
ATOM     89  C   UNL A   1      49.654  34.214  26.887  1.00  0.00     0.023 A 
ATOM     90  C   UNL A   1      49.845  34.468  25.514  1.00  0.00     0.012 A 
ATOM     91  C   UNL A   1      50.726  34.412  27.781  1.00  0.00     0.148 A 
ATOM     92  C   UNL A   1      51.088  34.878  25.035  1.00  0.00     0.002 A 
ATOM     93  C   UNL A   1      51.948  34.871  27.303  1.00  0.00     0.091 A 
ATOM     94  F   UNL A   1      50.532  34.148  29.081  1.00  0.00    -0.205 F 
ATOM     95  C   UNL A   1      52.135  35.091  25.930  1.00  0.00     0.022 A 
BRANCH  93  96
ATOM     96  S   UNL A   1      53.317  35.267  28.396  1.00  0.00     0.127 S 
ATOM     97  O   UNL A   1      52.719  36.270  29.273  1.00  0.00    -0.237 OA
ATOM     98  O   UNL A   1      53.587  33.979  29.037  1.00  0.00    -0.237 OA
ATOM     99  O   UNL A   1      54.390  35.747  27.534  1.00  0.00    -0.744 OA
ENDBRANCH  93  96
ENDBRANCH  66  89
ENDBRANCH  40  41
ENDBRANCH  33  35
ENDBRANCH  32  33
ENDBRANCH  31  32
ENDBRANCH  30  31
ENDBRANCH  29  30
ENDBRANCH  28  29
ENDBRANCH  27  28
ENDBRANCH   1  27
TORSDOF 26
ENDMDL
MODEL 2
REMARK VINA RESULT:      -8.8      1.534      2.108
REMARK SMILES CS(=O)(=O)[C@@H]1CCC[C@@H](Sc2ccc(C(=O)OCCOCCOCCOCCOC(=O)c3ccc(-c4c5nc(c(-c6cccc(S(=O)(=O)[O-])c6F)c6ccc([nH]6)c(-c6cccc(S(=O)(=O)[O-])c6F)c6nc(c(-c7cccc(S(=O)(=O)[O-])c7F)c7ccc4[nH]7)C=C6)C=C5)cc3)cn2)C1
REMARK SMILES IDX 23 1 22 2 21 3 20 4 19 5 18 6 17 7 15 8 16 9 14 10 11 11
REMARK SMILES IDX 12 12 96 13 13 14 95 15 10 16 9 17 5 18 6 19 97 20 7 21 8 22
REMARK SMILES IDX 2 23 1 24 3 25 4 26 24 27 25 28 26 29 27 30 28 31 29 32
REMARK SMILES IDX 30 33 31 34 32 35 33 36 94 37 34 38 93 39 35 40 36 41 37 42
REMARK SMILES IDX 87 43 38 44 92 45 86 46 88 47 39 48 91 49 85 50 84 51 40 53
REMARK SMILES IDX 72 54 52 55 71 56 53 57 56 58 70 59 89 60 54 61 55 62 69 64
REMARK SMILES IDX 90 65 57 66 41 67 42 68 50 69 43 70 45 71 51 72 44 73 46 74
REMARK SMILES IDX 47 75 48 76 49 77 73 78 74 79 82 80 75 81 77 82 83 83 76 84
REMARK SMILES IDX 78 85 79 86 80 87 81 88 58 89 59 90 67 91 60 92 62 93 68 94
REMARK SMILES IDX 61 95 63 96 64 97 65 98 66 99
REMARK H PARENT 88 52 56 63
REMARK Flexibility Score: inf
ROOT
ATOM      1  O   UNL A   1      33.363  37.187  30.403  1.00  0.00    -0.377 OA
ENDROOT
BRANCH   1   2
ATOM      2  C   UNL A   1      33.101  36.124  29.499  1.00  0.00     0.188 C 
BRANCH   2   3
ATOM      3  C   UNL A   1      34.221  35.948  28.454  1.00  0.00     0.188 C 
BRANCH   3   4
ATOM      4  O   UNL A   1      34.216  34.666  27.837  1.00  0.00    -0.376 OA
BRANCH   4   5
ATOM      5  C   UNL A   1      34.019  33.509  28.639  1.00  0.00     0.202 C 
BRANCH   5   6
ATOM      6  C   UNL A   1      34.949  32.305  28.464  1.00  0.00     0.261 C 
BRANCH   6   7
ATOM      7  O   UNL A   1      34.606  31.417  27.395  1.00  0.00    -0.460 OA
BRANCH   7   8
ATOM      8  C   UNL A   1      34.725  30.078  27.521  1.00  0.00     0.339 C 
ATOM      9  O   UNL A   1      35.337  29.457  28.369  1.00  0.00    -0.246 OA
BRANCH   8  10
ATOM     10  C   UNL A   1      33.786  29.504  26.532  1.00  0.00     0.078 A 
ATOM     11  C   UNL A   1      32.134  28.699  24.443  1.00  0.00     0.096 A 
ATOM     12  C   UNL A   1      33.412  28.207  24.565  1.00  0.00     0.036 A 
ATOM     13  N   UNL A   1      31.670  29.601  25.344  1.00  0.00    -0.249 NA
ATOM     14  C   UNL A   1      34.230  28.563  25.621  1.00  0.00     0.020 A 
ATOM     15  C   UNL A   1      32.503  29.994  26.358  1.00  0.00     0.128 A 
BRANCH  11  16
ATOM     16  S   UNL A   1      31.062  28.333  23.071  1.00  0.00    -0.103 SA
BRANCH  16  17
ATOM     17  C   UNL A   1      30.306  26.626  23.241  1.00  0.00     0.054 C 
ATOM     18  C   UNL A   1      32.163  25.020  23.888  1.00  0.00     0.109 C 
ATOM     19  C   UNL A   1      31.379  24.579  25.137  1.00  0.00     0.020 C 
ATOM     20  C   UNL A   1      31.217  25.474  22.788  1.00  0.00     0.034 C 
ATOM     21  C   UNL A   1      30.239  25.501  25.596  1.00  0.00     0.002 C 
ATOM     22  C   UNL A   1      29.511  26.285  24.503  1.00  0.00     0.015 C 
BRANCH  18  23
ATOM     23  S   UNL A   1      33.324  23.756  23.339  1.00  0.00     0.150 S 
ATOM     24  C   UNL A   1      34.825  24.223  24.186  1.00  0.00     0.158 C 
ATOM     25  O   UNL A   1      33.564  23.948  21.921  1.00  0.00    -0.229 OA
ATOM     26  O   UNL A   1      32.892  22.470  23.844  1.00  0.00    -0.229 OA
ENDBRANCH  18  23
ENDBRANCH  16  17
ENDBRANCH  11  16
ENDBRANCH   8  10
ENDBRANCH   7   8
ENDBRANCH   6   7
ENDBRANCH   5   6
ENDBRANCH   4   5
ENDBRANCH   3   4
ENDBRANCH   2   3
ENDBRANCH   1   2
BRANCH   1  27
ATOM     27  C   UNL A   1      33.037  36.957  31.779  1.00  0.00     0.188 C 
BRANCH  27  28
ATOM     28  C   UNL A   1      32.566  35.564  32.255  1.00  0.00     0.188 C 
BRANCH  28  29
ATOM     29  O   UNL A   1      33.353  34.489  31.743  1.00  0.00    -0.376 OA
BRANCH  29  30
ATOM     30  C   UNL A   1      34.508  34.118  32.480  1.00  0.00     0.202 C 
BRANCH  30  31
ATOM     31  C   UNL A   1      34.971  32.681  32.217  1.00  0.00     0.261 C 
BRANCH  31  32
ATOM     32  O   UNL A   1      36.351  32.557  31.842  1.00  0.00    -0.460 OA
BRANCH  32  33
ATOM     33  C   UNL A   1      37.053  31.572  32.445  1.00  0.00     0.338 C 
ATOM     34  O   UNL A   1      36.644  30.776  33.271  1.00  0.00    -0.246 OA
BRANCH  33  35
ATOM     35  C   UNL A   1      38.371  31.489  31.790  1.00  0.00     0.060 A 
ATOM     36  C   UNL A   1      39.519  31.429  32.589  1.00  0.00     0.016 A 
ATOM     37  C   UNL A   1      38.468  31.496  30.396  1.00  0.00     0.016 A 
ATOM     38  C   UNL A   1      40.778  31.440  31.994  1.00  0.00     0.010 A 
ATOM     39  C   UNL A   1      39.729  31.518  29.802  1.00  0.00     0.010 A 
ATOM     40  C   UNL A   1      40.886  31.540  30.601  1.00  0.00    -0.014 A 
BRANCH  40  41
ATOM     41  C   UNL A   1      42.187  31.905  29.997  1.00  0.00     0.031 A 
ATOM     42  C   UNL A   1      42.454  33.361  29.720  1.00  0.00     0.074 A 
ATOM     43  C   UNL A   1      43.112  30.974  29.707  1.00  0.00     0.049 A 
ATOM     44  N   UNL A   1      43.512  33.926  29.204  1.00  0.00    -0.248 NA
ATOM     45  C   UNL A   1      41.379  34.305  30.072  1.00  0.00     0.031 C 
ATOM     46  C   UNL A   1      42.969  29.538  29.937  1.00  0.00     0.029 A 
ATOM     47  N   UNL A   1      44.351  31.105  29.137  1.00  0.00    -0.354 N 
ATOM     48  C   UNL A   1      43.223  35.283  29.143  1.00  0.00     0.074 A 
ATOM     49  C   UNL A   1      41.882  35.456  29.658  1.00  0.00     0.031 C 
ATOM     50  C   UNL A   1      44.077  28.916  29.496  1.00  0.00     0.029 A 
ATOM     51  C   UNL A   1      44.994  29.907  28.934  1.00  0.00     0.049 A 
ATOM     52  H   UNL A   1      44.745  31.975  28.895  1.00  0.00     0.167 HD
ATOM     53  C   UNL A   1      44.006  36.301  28.717  1.00  0.00     0.034 A 
ATOM     54  C   UNL A   1      46.183  29.647  28.355  1.00  0.00     0.034 A 
ATOM     55  C   UNL A   1      45.342  36.127  28.216  1.00  0.00     0.049 A 
ATOM     56  C   UNL A   1      47.024  30.794  27.854  1.00  0.00     0.074 A 
ATOM     57  C   UNL A   1      46.236  37.096  27.798  1.00  0.00     0.029 A 
ATOM     58  N   UNL A   1      45.970  34.903  28.051  1.00  0.00    -0.354 N 
ATOM     59  N   UNL A   1      46.789  32.084  27.919  1.00  0.00    -0.248 NA
ATOM     60  C   UNL A   1      48.311  30.452  27.233  1.00  0.00     0.031 C 
ATOM     61  C   UNL A   1      47.396  36.453  27.351  1.00  0.00     0.029 A 
ATOM     62  C   UNL A   1      47.235  35.086  27.524  1.00  0.00     0.049 A 
ATOM     63  H   UNL A   1      45.573  34.031  28.275  1.00  0.00     0.167 HD
ATOM     64  C   UNL A   1      47.917  32.706  27.391  1.00  0.00     0.074 A 
ATOM     65  C   UNL A   1      48.838  31.651  27.024  1.00  0.00     0.031 C 
ATOM     66  C   UNL A   1      48.164  34.029  27.217  1.00  0.00     0.034 A 
BRANCH  53  67
ATOM     67  C   UNL A   1      43.436  37.692  28.790  1.00  0.00     0.023 A 
ATOM     68  C   UNL A   1      42.786  38.243  27.667  1.00  0.00     0.012 A 
ATOM     69  C   UNL A   1      43.523  38.446  29.977  1.00  0.00     0.148 A 
ATOM     70  C   UNL A   1      42.269  39.537  27.709  1.00  0.00     0.002 A 
ATOM     71  C   UNL A   1      42.964  39.717  30.027  1.00  0.00     0.091 A 
ATOM     72  F   UNL A   1      44.170  37.916  31.025  1.00  0.00    -0.205 F 
ATOM     73  C   UNL A   1      42.350  40.270  28.891  1.00  0.00     0.022 A 
BRANCH  71  74
ATOM     74  S   UNL A   1      42.950  40.706  31.526  1.00  0.00     0.127 S 
ATOM     75  O   UNL A   1      44.128  41.548  31.335  1.00  0.00    -0.237 OA
ATOM     76  O   UNL A   1      41.672  41.411  31.418  1.00  0.00    -0.237 OA
ATOM     77  O   UNL A   1      43.027  39.759  32.629  1.00  0.00    -0.744 OA
ENDBRANCH  71  74
ENDBRANCH  53  67
BRANCH  54  78
ATOM     78  C   UNL A   1      46.680  28.244  28.263  1.00  0.00     0.023 A 
ATOM     79  C   UNL A   1      47.465  27.719  29.308  1.00  0.00     0.012 A 
ATOM     80  C   UNL A   1      46.374  27.427  27.157  1.00  0.00     0.148 A 
ATOM     81  C   UNL A   1      47.966  26.419  29.238  1.00  0.00     0.002 A 
ATOM     82  C   UNL A   1      46.830  26.115  27.120  1.00  0.00     0.091 A 
ATOM     83  F   UNL A   1      45.638  27.949  26.166  1.00  0.00    -0.205 F 
ATOM     84  C   UNL A   1      47.641  25.614  28.150  1.00  0.00     0.022 A 
BRANCH  82  85
ATOM     85  S   UNL A   1      46.358  24.965  25.822  1.00  0.00     0.127 S 
ATOM     86  O   UNL A   1      47.060  23.751  26.227  1.00  0.00    -0.237 OA
ATOM     87  O   UNL A   1      44.904  24.918  25.978  1.00  0.00    -0.237 OA
ATOM     88  O   UNL A   1      46.808  25.570  24.576  1.00  0.00    -0.744 OA
ENDBRANCH  82  85
ENDBRANCH  54  78
BRANCH  66  89
ATOM     89  C   UNL A   1      49.505  34.423  26.651  1.00  0.00     0.023 A 
ATOM     90  C   UNL A   1      49.666  34.578  25.260  1.00  0.00     0.012 A 
ATOM     91  C   UNL A   1      50.586  34.712  27.508  1.00  0.00     0.148 A 
ATOM     92  C   UNL A   1      50.891  34.979  24.730  1.00  0.00     0.002 A 
ATOM     93  C   UNL A   1      51.788  35.161  26.976  1.00  0.00     0.091 A 
ATOM     94  F   UNL A   1      50.420  34.541  28.828  1.00  0.00    -0.205 F 
ATOM     95  C   UNL A   1      51.947  35.282  25.586  1.00  0.00     0.022 A 
BRANCH  93  96
ATOM     96  S   UNL A   1      53.166  35.670  28.010  1.00  0.00     0.127 S 
ATOM     97  O   UNL A   1      52.568  36.747  28.795  1.00  0.00    -0.237 OA
ATOM     98  O   UNL A   1      53.452  34.450  28.768  1.00  0.00    -0.237 OA
ATOM     99  O   UNL A   1      54.225  36.073  27.095  1.00  0.00    -0.744 OA
ENDBRANCH  93  96
ENDBRANCH  66  89
ENDBRANCH  40  41
ENDBRANCH  33  35
ENDBRANCH  32  33
ENDBRANCH  31  32
ENDBRANCH  30  31
ENDBRANCH  29  30
ENDBRANCH  28  29
ENDBRANCH  27  28
ENDBRANCH   1  27
TORSDOF 26
ENDMDL
MODEL 3
REMARK VINA RESULT:      -8.7      3.662      5.320
REMARK SMILES CS(=O)(=O)[C@@H]1CCC[C@@H](Sc2ccc(C(=O)OCCOCCOCCOCCOC(=O)c3ccc(-c4c5nc(c(-c6cccc(S(=O)(=O)[O-])c6F)c6ccc([nH]6)c(-c6cccc(S(=O)(=O)[O-])c6F)c6nc(c(-c7cccc(S(=O)(=O)[O-])c7F)c7ccc4[nH]7)C=C6)C=C5)cc3)cn2)C1
REMARK SMILES IDX 23 1 22 2 21 3 20 4 19 5 18 6 17 7 15 8 16 9 14 10 11 11
REMARK SMILES IDX 12 12 96 13 13 14 95 15 10 16 9 17 5 18 6 19 97 20 7 21 8 22
REMARK SMILES IDX 2 23 1 24 3 25 4 26 24 27 25 28 26 29 27 30 28 31 29 32
REMARK SMILES IDX 30 33 31 34 32 35 33 36 94 37 34 38 93 39 35 40 36 41 37 42
REMARK SMILES IDX 87 43 38 44 92 45 86 46 88 47 39 48 91 49 85 50 84 51 40 53
REMARK SMILES IDX 72 54 52 55 71 56 53 57 56 58 70 59 89 60 54 61 55 62 69 64
REMARK SMILES IDX 90 65 57 66 41 67 42 68 50 69 43 70 45 71 51 72 44 73 46 74
REMARK SMILES IDX 47 75 48 76 49 77 73 78 74 79 82 80 75 81 77 82 83 83 76 84
REMARK SMILES IDX 78 85 79 86 80 87 81 88 58 89 59 90 67 91 60 92 62 93 68 94
REMARK SMILES IDX 61 95 63 96 64 97 65 98 66 99
REMARK H PARENT 88 52 56 63
REMARK Flexibility Score: inf
ROOT
ATOM      1  O   UNL A   1      36.826  34.319  32.229  1.00  0.00    -0.377 OA
ENDROOT
BRANCH   1   2
ATOM      2  C   UNL A   1      35.406  34.316  32.255  1.00  0.00     0.188 C 
BRANCH   2   3
ATOM      3  C   UNL A   1      34.804  33.115  31.498  1.00  0.00     0.188 C 
BRANCH   3   4
ATOM      4  O   UNL A   1      33.996  33.498  30.392  1.00  0.00    -0.376 OA
BRANCH   4   5
ATOM      5  C   UNL A   1      34.591  34.190  29.302  1.00  0.00     0.202 C 
BRANCH   5   6
ATOM      6  C   UNL A   1      35.838  33.608  28.632  1.00  0.00     0.261 C 
BRANCH   6   7
ATOM      7  O   UNL A   1      35.593  32.572  27.675  1.00  0.00    -0.460 OA
BRANCH   7   8
ATOM      8  C   UNL A   1      35.106  31.368  28.044  1.00  0.00     0.339 C 
ATOM      9  O   UNL A   1      33.961  30.965  27.961  1.00  0.00    -0.246 OA
BRANCH   8  10
ATOM     10  C   UNL A   1      36.292  30.552  28.385  1.00  0.00     0.078 A 
ATOM     11  C   UNL A   1      38.330  28.725  28.885  1.00  0.00     0.096 A 
ATOM     12  C   UNL A   1      38.266  29.405  27.692  1.00  0.00     0.036 A 
ATOM     13  N   UNL A   1      37.381  28.933  29.831  1.00  0.00    -0.249 NA
ATOM     14  C   UNL A   1      37.286  30.349  27.445  1.00  0.00     0.020 A 
ATOM     15  C   UNL A   1      36.379  29.827  29.562  1.00  0.00     0.128 A 
BRANCH  11  16
ATOM     16  S   UNL A   1      39.525  27.453  29.233  1.00  0.00    -0.103 SA
BRANCH  16  17
ATOM     17  C   UNL A   1      39.842  26.392  27.720  1.00  0.00     0.054 C 
ATOM     18  C   UNL A   1      42.203  26.876  26.920  1.00  0.00     0.109 C 
ATOM     19  C   UNL A   1      42.566  25.384  27.013  1.00  0.00     0.020 C 
ATOM     20  C   UNL A   1      40.718  27.055  26.646  1.00  0.00     0.034 C 
ATOM     21  C   UNL A   1      41.635  24.499  27.857  1.00  0.00     0.002 C 
ATOM     22  C   UNL A   1      40.162  24.907  27.905  1.00  0.00     0.015 C 
BRANCH  18  23
ATOM     23  S   UNL A   1      43.246  27.753  25.741  1.00  0.00     0.150 S 
ATOM     24  C   UNL A   1      44.646  26.657  25.581  1.00  0.00     0.158 C 
ATOM     25  O   UNL A   1      43.730  28.964  26.377  1.00  0.00    -0.229 OA
ATOM     26  O   UNL A   1      42.562  27.816  24.465  1.00  0.00    -0.229 OA
ENDBRANCH  18  23
ENDBRANCH  16  17
ENDBRANCH  11  16
ENDBRANCH   8  10
ENDBRANCH   7   8
ENDBRANCH   6   7
ENDBRANCH   5   6
ENDBRANCH   4   5
ENDBRANCH   3   4
ENDBRANCH   2   3
ENDBRANCH   1   2
BRANCH   1  27
ATOM     27  C   UNL A   1      37.492  33.817  33.393  1.00  0.00     0.188 C 
BRANCH  27  28
ATOM     28  C   UNL A   1      36.764  33.761  34.756  1.00  0.00     0.188 C 
BRANCH  28  29
ATOM     29  O   UNL A   1      36.987  32.548  35.474  1.00  0.00    -0.376 OA
BRANCH  29  30
ATOM     30  C   UNL A   1      38.246  31.914  35.305  1.00  0.00     0.202 C 
BRANCH  30  31
ATOM     31  C   UNL A   1      38.155  30.527  34.658  1.00  0.00     0.261 C 
BRANCH  31  32
ATOM     32  O   UNL A   1      39.408  29.835  34.549  1.00  0.00    -0.460 OA
BRANCH  32  33
ATOM     33  C   UNL A   1      39.688  29.283  33.348  1.00  0.00     0.338 C 
ATOM     34  O   UNL A   1      39.182  28.290  32.858  1.00  0.00    -0.246 OA
BRANCH  33  35
ATOM     35  C   UNL A   1      40.585  30.203  32.626  1.00  0.00     0.060 A 
ATOM     36  C   UNL A   1      40.456  30.317  31.236  1.00  0.00     0.016 A 
ATOM     37  C   UNL A   1      41.561  30.926  33.316  1.00  0.00     0.016 A 
ATOM     38  C   UNL A   1      41.349  31.112  30.521  1.00  0.00     0.010 A 
ATOM     39  C   UNL A   1      42.461  31.711  32.598  1.00  0.00     0.010 A 
ATOM     40  C   UNL A   1      42.388  31.766  31.195  1.00  0.00    -0.014 A 
BRANCH  40  41
ATOM     41  C   UNL A   1      43.528  32.309  30.422  1.00  0.00     0.031 A 
ATOM     42  C   UNL A   1      43.466  33.750  29.990  1.00  0.00     0.074 A 
ATOM     43  C   UNL A   1      44.593  31.549  30.114  1.00  0.00     0.049 A 
ATOM     44  N   UNL A   1      44.336  34.451  29.313  1.00  0.00    -0.248 NA
ATOM     45  C   UNL A   1      42.257  34.500  30.374  1.00  0.00     0.031 C 
ATOM     46  C   UNL A   1      44.766  30.146  30.484  1.00  0.00     0.029 A 
ATOM     47  N   UNL A   1      45.723  31.855  29.403  1.00  0.00    -0.354 N 
ATOM     48  C   UNL A   1      43.771  35.712  29.166  1.00  0.00     0.074 A 
ATOM     49  C   UNL A   1      42.476  35.675  29.808  1.00  0.00     0.031 C 
ATOM     50  C   UNL A   1      45.933  29.707  29.980  1.00  0.00     0.029 A 
ATOM     51  C   UNL A   1      46.575  30.790  29.237  1.00  0.00     0.049 A 
ATOM     52  H   UNL A   1      45.907  32.754  29.043  1.00  0.00     0.167 HD
ATOM     53  C   UNL A   1      44.290  36.809  28.568  1.00  0.00     0.034 A 
ATOM     54  C   UNL A   1      47.735  30.704  28.555  1.00  0.00     0.034 A 
ATOM     55  C   UNL A   1      45.582  36.845  27.941  1.00  0.00     0.049 A 
ATOM     56  C   UNL A   1      48.276  31.932  27.867  1.00  0.00     0.074 A 
ATOM     57  C   UNL A   1      46.219  37.918  27.344  1.00  0.00     0.029 A 
ATOM     58  N   UNL A   1      46.429  35.756  27.816  1.00  0.00    -0.354 N 
ATOM     59  N   UNL A   1      47.790  33.151  27.843  1.00  0.00    -0.248 NA
ATOM     60  C   UNL A   1      49.545  31.781  27.140  1.00  0.00     0.031 C 
ATOM     61  C   UNL A   1      47.440  37.468  26.831  1.00  0.00     0.029 A 
ATOM     62  C   UNL A   1      47.577  36.123  27.139  1.00  0.00     0.049 A 
ATOM     63  H   UNL A   1      46.240  34.852  28.159  1.00  0.00     0.167 HD
ATOM     64  C   UNL A   1      48.715  33.919  27.142  1.00  0.00     0.074 A 
ATOM     65  C   UNL A   1      49.795  33.030  26.770  1.00  0.00     0.031 C 
ATOM     66  C   UNL A   1      48.671  35.238  26.827  1.00  0.00     0.034 A 
BRANCH  53  67
ATOM     67  C   UNL A   1      43.456  38.063  28.582  1.00  0.00     0.023 A 
ATOM     68  C   UNL A   1      42.565  38.324  27.522  1.00  0.00     0.012 A 
ATOM     69  C   UNL A   1      43.540  38.974  29.654  1.00  0.00     0.148 A 
ATOM     70  C   UNL A   1      41.799  39.489  27.506  1.00  0.00     0.002 A 
ATOM     71  C   UNL A   1      42.740  40.110  29.654  1.00  0.00     0.091 A 
ATOM     72  F   UNL A   1      44.415  38.724  30.638  1.00  0.00    -0.205 F 
ATOM     73  C   UNL A   1      41.880  40.377  28.576  1.00  0.00     0.022 A 
BRANCH  71  74
ATOM     74  S   UNL A   1      42.717  41.272  31.023  1.00  0.00     0.127 S 
ATOM     75  O   UNL A   1      43.986  41.973  30.836  1.00  0.00    -0.237 OA
ATOM     76  O   UNL A   1      41.529  42.073  30.729  1.00  0.00    -0.237 OA
ATOM     77  O   UNL A   1      42.619  40.464  32.231  1.00  0.00    -0.744 OA
ENDBRANCH  71  74
ENDBRANCH  53  67
BRANCH  54  78
ATOM     78  C   UNL A   1      48.497  29.423  28.533  1.00  0.00     0.023 A 
ATOM     79  C   UNL A   1      49.399  29.137  29.576  1.00  0.00     0.012 A 
ATOM     80  C   UNL A   1      48.329  28.486  27.494  1.00  0.00     0.148 A 
ATOM     81  C   UNL A   1      50.145  27.958  29.569  1.00  0.00     0.002 A 
ATOM     82  C   UNL A   1      49.035  27.289  27.522  1.00  0.00     0.091 A 
ATOM     83  F   UNL A   1      47.477  28.783  26.503  1.00  0.00    -0.205 F 
ATOM     84  C   UNL A   1      49.957  27.031  28.548  1.00  0.00     0.022 A 
BRANCH  82  85
ATOM     85  S   UNL A   1      48.764  25.981  26.321  1.00  0.00     0.127 S 
ATOM     86  O   UNL A   1      47.787  25.141  27.008  1.00  0.00    -0.237 OA
ATOM     87  O   UNL A   1      48.240  26.728  25.177  1.00  0.00    -0.237 OA
ATOM     88  O   UNL A   1      50.070  25.376  26.095  1.00  0.00    -0.744 OA
ENDBRANCH  82  85
ENDBRANCH  54  78
BRANCH  66  89
ATOM     89  C   UNL A   1      49.847  35.822  26.085  1.00  0.00     0.023 A 
ATOM     90  C   UNL A   1      49.899  35.751  24.678  1.00  0.00     0.012 A 
ATOM     91  C   UNL A   1      50.863  36.506  26.780  1.00  0.00     0.148 A 
ATOM     92  C   UNL A   1      50.964  36.320  23.980  1.00  0.00     0.002 A 
ATOM     93  C   UNL A   1      51.893  37.116  26.074  1.00  0.00     0.091 A 
ATOM     94  F   UNL A   1      50.806  36.548  28.120  1.00  0.00    -0.205 F 
ATOM     95  C   UNL A   1      51.952  37.012  24.676  1.00  0.00     0.022 A 
BRANCH  93  96
ATOM     96  S   UNL A   1      53.152  38.112  26.881  1.00  0.00     0.127 S 
ATOM     97  O   UNL A   1      53.580  37.231  27.965  1.00  0.00    -0.237 OA
ATOM     98  O   UNL A   1      54.139  38.289  25.814  1.00  0.00    -0.237 OA
ATOM     99  O   UNL A   1      52.486  39.339  27.295  1.00  0.00    -0.744 OA
ENDBRANCH  93  96
ENDBRANCH  66  89
ENDBRANCH  40  41
ENDBRANCH  33  35
ENDBRANCH  32  33
ENDBRANCH  31  32
ENDBRANCH  30  31
ENDBRANCH  29  30
ENDBRANCH  28  29
ENDBRANCH  27  28
ENDBRANCH   1  27
TORSDOF 26
ENDMDL
