MODEL 1
REMARK VINA RESULT:      -9.3      0.000      0.000
REMARK SMILES CCc1cccc(C)c1Nc1ccccc1CC(=O)OCCOCCOCCOCCOC(=O)c1ccc(-c2c3nc(c(-c4cccc(S(=O)(=O)[O-])c4F)c4ccc([nH]4)c(-c4cccc(S(=O)(=O)[O-])c4F)c4nc(c(-c5cccc(S(=O)(=O)[O-])c5F)c5ccc2[nH]5)C=C4)C=C3)cc1
REMARK SMILES IDX 25 1 24 2 23 3 22 4 21 5 20 6 18 7 19 8 17 9 16 10 11 11
REMARK SMILES IDX 12 12 13 13 15 14 14 15 10 16 9 18 3 19 4 20 5 21 7 22 6 23
REMARK SMILES IDX 8 24 2 25 1 26 26 27 27 28 28 29 29 30 30 31 31 32 32 33
REMARK SMILES IDX 33 34 34 35 35 36 36 37 97 38 37 39 96 40 38 41 39 42 40 43
REMARK SMILES IDX 90 44 41 45 95 46 89 47 91 48 42 49 94 50 88 51 87 52 43 54
REMARK SMILES IDX 75 55 55 56 74 57 56 58 59 59 73 60 92 61 57 62 58 63 72 65
REMARK SMILES IDX 93 66 60 67 44 68 45 69 53 70 46 71 48 72 54 73 47 74 49 75
REMARK SMILES IDX 50 76 51 77 52 78 76 79 77 80 85 81 78 82 80 83 86 84 79 85
REMARK SMILES IDX 81 86 82 87 83 88 84 89 61 90 62 91 70 92 63 93 65 94 71 95
REMARK SMILES IDX 64 96 66 97 67 98 68 99 69 100
REMARK H PARENT 10 17 91 53 59 64
REMARK Flexibility Score: inf
ROOT
ATOM      1  C   UNL A   1      41.925  22.578  28.601  1.00  0.00     0.188 C 
ENDROOT
BRANCH   1   2
ATOM      2  C   UNL A   1      42.394  24.619  28.549  1.00  0.00     0.188 C 
BRANCH   2   3
ATOM      3  O   UNL A   1      41.003  25.754  27.526  1.00  0.00    -0.376 OA
BRANCH   3   4
ATOM      4  C   UNL A   1      40.704  27.672  27.526  1.00  0.00     0.202 C 
BRANCH   4   5
ATOM      5  C   UNL A   1      40.092  28.901  29.127  1.00  0.00     0.261 C 
BRANCH   5   6
ATOM      6  O   UNL A   1      39.316  27.867  30.648  1.00  0.00    -0.463 OA
BRANCH   6   7
ATOM      7  C   UNL A   1      38.853  28.337  32.347  1.00  0.00     0.310 C 
ATOM      8  O   UNL A   1      38.296  27.467  33.040  1.00  0.00    -0.252 OA
BRANCH   7   9
ATOM      9  C   UNL A   1      38.968  29.979  33.474  1.00  0.00     0.160 C 
BRANCH   9  10
ATOM     10  C   UNL A   1      38.160  31.519  34.340  1.00  0.00    -0.013 A 
ATOM     11  C   UNL A   1      38.523  32.575  35.716  1.00  0.00     0.042 A 
ATOM     12  C   UNL A   1      37.477  33.476  36.092  1.00  0.00     0.026 A 
ATOM     13  C   UNL A   1      36.469  33.763  35.128  1.00  0.00     0.002 A 
ATOM     14  C   UNL A   1      37.047  31.909  33.551  1.00  0.00     0.006 A 
ATOM     15  C   UNL A   1      36.300  33.053  33.903  1.00  0.00     0.000 A 
BRANCH  11  16
ATOM     16  N   UNL A   1      39.992  33.705  35.985  1.00  0.00    -0.355 N 
ATOM     17  H   UNL A   1      40.817  33.263  36.292  1.00  0.00     0.167 HD
BRANCH  16  18
ATOM     18  C   UNL A   1      40.118  35.648  35.744  1.00  0.00     0.045 A 
ATOM     19  C   UNL A   1      40.125  35.808  37.514  1.00  0.00    -0.024 A 
ATOM     20  C   UNL A   1      41.503  35.629  38.320  1.00  0.00     0.006 A 
ATOM     21  C   UNL A   1      42.889  35.300  37.524  1.00  0.00     0.001 A 
ATOM     22  C   UNL A   1      41.769  35.925  34.712  1.00  0.00    -0.027 A 
ATOM     23  C   UNL A   1      43.187  35.401  35.655  1.00  0.00     0.005 A 
ATOM     24  C   UNL A   1      42.389  35.820  33.243  1.00  0.00     0.046 C 
BRANCH  19  25
ATOM     25  C   UNL A   1      38.977  35.625  38.499  1.00  0.00     0.034 C 
ATOM     26  C   UNL A   1      39.117  36.362  39.817  1.00  0.00     0.009 C 
ENDBRANCH  19  25
ENDBRANCH  16  18
ENDBRANCH  11  16
ENDBRANCH   9  10
ENDBRANCH   7   9
ENDBRANCH   6   7
ENDBRANCH   5   6
ENDBRANCH   4   5
ENDBRANCH   3   4
ENDBRANCH   2   3
ENDBRANCH   1   2
BRANCH   1  27
ATOM     27  O   UNL A   1      42.278  21.581  27.261  1.00  0.00    -0.377 OA
BRANCH  27  28
ATOM     28  C   UNL A   1      43.125  21.827  26.039  1.00  0.00     0.188 C 
BRANCH  28  29
ATOM     29  C   UNL A   1      44.052  20.796  25.301  1.00  0.00     0.188 C 
BRANCH  29  30
ATOM     30  O   UNL A   1      45.115  21.331  24.546  1.00  0.00    -0.376 OA
BRANCH  30  31
ATOM     31  C   UNL A   1      44.902  22.529  23.848  1.00  0.00     0.202 C 
BRANCH  31  32
ATOM     32  C   UNL A   1      46.116  23.367  24.147  1.00  0.00     0.261 C 
BRANCH  32  33
ATOM     33  O   UNL A   1      45.651  24.405  25.076  1.00  0.00    -0.460 OA
BRANCH  33  34
ATOM     34  C   UNL A   1      46.150  24.352  26.362  1.00  0.00     0.338 C 
ATOM     35  O   UNL A   1      46.591  23.309  26.825  1.00  0.00    -0.246 OA
BRANCH  34  36
ATOM     36  C   UNL A   1      46.016  25.665  27.149  1.00  0.00     0.060 A 
ATOM     37  C   UNL A   1      46.864  26.006  28.214  1.00  0.00     0.016 A 
ATOM     38  C   UNL A   1      44.945  26.525  26.979  1.00  0.00     0.016 A 
ATOM     39  C   UNL A   1      46.483  26.986  29.225  1.00  0.00     0.010 A 
ATOM     40  C   UNL A   1      44.548  27.418  28.022  1.00  0.00     0.010 A 
ATOM     41  C   UNL A   1      45.136  27.484  29.314  1.00  0.00    -0.014 A 
BRANCH  41  42
ATOM     42  C   UNL A   1      44.120  27.916  30.850  1.00  0.00     0.031 A 
ATOM     43  C   UNL A   1      44.497  29.565  30.588  1.00  0.00     0.074 A 
ATOM     44  C   UNL A   1      43.581  27.013  32.351  1.00  0.00     0.049 A 
ATOM     45  N   UNL A   1      44.698  30.466  31.495  1.00  0.00    -0.248 NA
ATOM     46  C   UNL A   1      45.003  30.153  29.309  1.00  0.00     0.031 C 
ATOM     47  C   UNL A   1      42.808  27.308  33.901  1.00  0.00     0.029 A 
ATOM     48  N   UNL A   1      44.060  25.651  33.048  1.00  0.00    -0.354 N 
ATOM     49  C   UNL A   1      44.546  31.673  30.882  1.00  0.00     0.074 A 
ATOM     50  C   UNL A   1      45.082  31.454  29.590  1.00  0.00     0.031 C 
ATOM     51  C   UNL A   1      42.870  26.357  34.829  1.00  0.00     0.029 A 
ATOM     52  C   UNL A   1      43.931  25.529  34.437  1.00  0.00     0.049 A 
ATOM     53  H   UNL A   1      44.436  24.916  32.510  1.00  0.00     0.167 HD
ATOM     54  C   UNL A   1      43.713  32.576  31.460  1.00  0.00     0.034 A 
ATOM     55  C   UNL A   1      45.017  25.347  35.230  1.00  0.00     0.034 A 
ATOM     56  C   UNL A   1      43.394  32.190  32.899  1.00  0.00     0.049 A 
ATOM     57  C   UNL A   1      45.350  26.766  35.788  1.00  0.00     0.074 A 
ATOM     58  C   UNL A   1      42.241  32.115  33.677  1.00  0.00     0.029 A 
ATOM     59  N   UNL A   1      44.352  31.464  33.659  1.00  0.00    -0.354 N 
ATOM     60  N   UNL A   1      45.166  27.916  35.156  1.00  0.00    -0.248 NA
ATOM     61  C   UNL A   1      45.468  26.973  37.232  1.00  0.00     0.031 C 
ATOM     62  C   UNL A   1      42.480  31.201  34.776  1.00  0.00     0.029 A 
ATOM     63  C   UNL A   1      43.820  30.802  34.767  1.00  0.00     0.049 A 
ATOM     64  H   UNL A   1      45.308  31.429  33.423  1.00  0.00     0.167 HD
ATOM     65  C   UNL A   1      45.051  28.973  36.050  1.00  0.00     0.074 A 
ATOM     66  C   UNL A   1      45.235  28.294  37.338  1.00  0.00     0.031 C 
ATOM     67  C   UNL A   1      44.704  30.304  35.840  1.00  0.00     0.034 A 
BRANCH  54  68
ATOM     68  C   UNL A   1      42.997  33.638  30.594  1.00  0.00     0.023 A 
ATOM     69  C   UNL A   1      41.606  33.494  30.448  1.00  0.00     0.012 A 
ATOM     70  C   UNL A   1      43.561  34.746  29.873  1.00  0.00     0.148 A 
ATOM     71  C   UNL A   1      40.826  34.371  29.679  1.00  0.00     0.002 A 
ATOM     72  C   UNL A   1      42.771  35.678  29.185  1.00  0.00     0.091 A 
ATOM     73  F   UNL A   1      44.881  34.897  29.751  1.00  0.00    -0.205 F 
ATOM     74  C   UNL A   1      41.398  35.480  29.074  1.00  0.00     0.022 A 
BRANCH  72  75
ATOM     75  S   UNL A   1      43.423  37.201  28.453  1.00  0.00     0.127 S 
ATOM     76  O   UNL A   1      44.049  36.718  27.222  1.00  0.00    -0.237 OA
ATOM     77  O   UNL A   1      42.206  37.986  28.241  1.00  0.00    -0.237 OA
ATOM     78  O   UNL A   1      44.350  37.774  29.422  1.00  0.00    -0.744 OA
ENDBRANCH  72  75
ENDBRANCH  54  68
BRANCH  55  79
ATOM     79  C   UNL A   1      45.744  24.151  34.661  1.00  0.00     0.023 A 
ATOM     80  C   UNL A   1      47.081  24.447  34.205  1.00  0.00     0.012 A 
ATOM     81  C   UNL A   1      45.476  22.837  35.042  1.00  0.00     0.148 A 
ATOM     82  C   UNL A   1      48.143  23.553  34.385  1.00  0.00     0.002 A 
ATOM     83  C   UNL A   1      46.548  21.948  35.222  1.00  0.00     0.091 A 
ATOM     84  F   UNL A   1      44.211  22.495  35.312  1.00  0.00    -0.205 F 
ATOM     85  C   UNL A   1      47.879  22.317  34.947  1.00  0.00     0.022 A 
BRANCH  83  86
ATOM     86  S   UNL A   1      46.309  20.373  36.051  1.00  0.00     0.127 S 
ATOM     87  O   UNL A   1      47.679  19.882  36.150  1.00  0.00    -0.237 OA
ATOM     88  O   UNL A   1      45.704  20.784  37.318  1.00  0.00    -0.237 OA
ATOM     89  O   UNL A   1      45.412  19.637  35.172  1.00  0.00    -0.744 OA
ENDBRANCH  83  86
ENDBRANCH  55  79
BRANCH  67  90
ATOM     90  C   UNL A   1      45.280  31.440  36.710  1.00  0.00     0.023 A 
ATOM     91  C   UNL A   1      46.032  32.491  36.168  1.00  0.00     0.012 A 
ATOM     92  C   UNL A   1      44.881  31.605  38.075  1.00  0.00     0.148 A 
ATOM     93  C   UNL A   1      46.400  33.604  36.929  1.00  0.00     0.002 A 
ATOM     94  C   UNL A   1      45.111  32.776  38.773  1.00  0.00     0.091 A 
ATOM     95  F   UNL A   1      44.310  30.616  38.765  1.00  0.00    -0.205 F 
ATOM     96  C   UNL A   1      45.906  33.768  38.215  1.00  0.00     0.022 A 
BRANCH  94  97
ATOM     97  S   UNL A   1      44.297  33.105  40.344  1.00  0.00     0.127 S 
ATOM     98  O   UNL A   1      44.581  34.527  40.528  1.00  0.00    -0.237 OA
ATOM     99  O   UNL A   1      42.902  32.795  40.027  1.00  0.00    -0.237 OA
ATOM    100  O   UNL A   1      44.900  32.208  41.320  1.00  0.00    -0.744 OA
ENDBRANCH  94  97
ENDBRANCH  67  90
ENDBRANCH  41  42
ENDBRANCH  34  36
ENDBRANCH  33  34
ENDBRANCH  32  33
ENDBRANCH  31  32
ENDBRANCH  30  31
ENDBRANCH  29  30
ENDBRANCH  28  29
ENDBRANCH  27  28
ENDBRANCH   1  27
TORSDOF 27
ENDMDL
MODEL 2
REMARK VINA RESULT:      -9.1      4.533     12.186
REMARK SMILES CCc1cccc(C)c1Nc1ccccc1CC(=O)OCCOCCOCCOCCOC(=O)c1ccc(-c2c3nc(c(-c4cccc(S(=O)(=O)[O-])c4F)c4ccc([nH]4)c(-c4cccc(S(=O)(=O)[O-])c4F)c4nc(c(-c5cccc(S(=O)(=O)[O-])c5F)c5ccc2[nH]5)C=C4)C=C3)cc1
REMARK SMILES IDX 25 1 24 2 23 3 22 4 21 5 20 6 18 7 19 8 17 9 16 10 11 11
REMARK SMILES IDX 12 12 13 13 15 14 14 15 10 16 9 18 3 19 4 20 5 21 7 22 6 23
REMARK SMILES IDX 8 24 2 25 1 26 26 27 27 28 28 29 29 30 30 31 31 32 32 33
REMARK SMILES IDX 33 34 34 35 35 36 36 37 97 38 37 39 96 40 38 41 39 42 40 43
REMARK SMILES IDX 90 44 41 45 95 46 89 47 91 48 42 49 94 50 88 51 87 52 43 54
REMARK SMILES IDX 75 55 55 56 74 57 56 58 59 59 73 60 92 61 57 62 58 63 72 65
REMARK SMILES IDX 93 66 60 67 44 68 45 69 53 70 46 71 48 72 54 73 47 74 49 75
REMARK SMILES IDX 50 76 51 77 52 78 76 79 77 80 85 81 78 82 80 83 86 84 79 85
REMARK SMILES IDX 81 86 82 87 83 88 84 89 61 90 62 91 70 92 63 93 65 94 71 95
REMARK SMILES IDX 64 96 66 97 67 98 68 99 69 100
REMARK H PARENT 10 17 91 53 59 64
REMARK Flexibility Score: inf
ROOT
ATOM      1  C   UNL A   1      43.129  35.955  29.110  1.00  0.00     0.188 C 
ENDROOT
BRANCH   1   2
ATOM      2  C   UNL A   1      41.659  34.519  29.519  1.00  0.00     0.188 C 
BRANCH   2   3
ATOM      3  O   UNL A   1      39.747  35.301  29.596  1.00  0.00    -0.376 OA
BRANCH   3   4
ATOM      4  C   UNL A   1      38.066  34.461  30.080  1.00  0.00     0.202 C 
BRANCH   4   5
ATOM      5  C   UNL A   1      36.810  33.262  28.883  1.00  0.00     0.261 C 
BRANCH   5   6
ATOM      6  O   UNL A   1      36.588  31.412  29.600  1.00  0.00    -0.463 OA
BRANCH   6   7
ATOM      7  C   UNL A   1      37.437  29.840  29.236  1.00  0.00     0.310 C 
ATOM      8  O   UNL A   1      36.861  29.056  28.462  1.00  0.00    -0.252 OA
BRANCH   7   9
ATOM      9  C   UNL A   1      39.132  28.950  29.797  1.00  0.00     0.160 C 
BRANCH   9  10
ATOM     10  C   UNL A   1      41.068  28.899  29.949  1.00  0.00    -0.013 A 
ATOM     11  C   UNL A   1      42.306  27.711  30.389  1.00  0.00     0.042 A 
ATOM     12  C   UNL A   1      43.629  28.233  30.553  1.00  0.00     0.026 A 
ATOM     13  C   UNL A   1      43.926  29.489  29.952  1.00  0.00     0.002 A 
ATOM     14  C   UNL A   1      41.560  30.141  29.467  1.00  0.00     0.006 A 
ATOM     15  C   UNL A   1      42.951  30.367  29.393  1.00  0.00     0.000 A 
BRANCH  11  16
ATOM     16  N   UNL A   1      42.735  26.086  29.561  1.00  0.00    -0.355 N 
ATOM     17  H   UNL A   1      42.834  25.316  30.167  1.00  0.00     0.167 HD
BRANCH  16  18
ATOM     18  C   UNL A   1      43.015  25.705  27.658  1.00  0.00     0.045 A 
ATOM     19  C   UNL A   1      42.035  24.238  27.868  1.00  0.00    -0.024 A 
ATOM     20  C   UNL A   1      40.433  24.339  27.805  1.00  0.00     0.006 A 
ATOM     21  C   UNL A   1      39.706  25.779  27.553  1.00  0.00     0.001 A 
ATOM     22  C   UNL A   1      42.282  27.266  26.714  1.00  0.00    -0.027 A 
ATOM     23  C   UNL A   1      40.527  27.393  26.991  1.00  0.00     0.005 A 
ATOM     24  C   UNL A   1      42.588  28.788  26.335  1.00  0.00     0.046 C 
BRANCH  19  25
ATOM     25  C   UNL A   1      42.396  22.935  28.570  1.00  0.00     0.034 C 
ATOM     26  C   UNL A   1      42.353  21.688  27.707  1.00  0.00     0.009 C 
ENDBRANCH  19  25
ENDBRANCH  16  18
ENDBRANCH  11  16
ENDBRANCH   9  10
ENDBRANCH   7   9
ENDBRANCH   6   7
ENDBRANCH   5   6
ENDBRANCH   4   5
ENDBRANCH   3   4
ENDBRANCH   2   3
ENDBRANCH   1   2
BRANCH   1  27
ATOM     27  O   UNL A   1      42.684  37.498  28.532  1.00  0.00    -0.377 OA
BRANCH  27  28
ATOM     28  C   UNL A   1      42.427  37.995  27.132  1.00  0.00     0.188 C 
BRANCH  28  29
ATOM     29  C   UNL A   1      41.931  39.423  26.705  1.00  0.00     0.188 C 
BRANCH  29  30
ATOM     30  O   UNL A   1      42.416  40.510  27.459  1.00  0.00    -0.376 OA
BRANCH  30  31
ATOM     31  C   UNL A   1      43.305  41.405  26.844  1.00  0.00     0.202 C 
BRANCH  31  32
ATOM     32  C   UNL A   1      44.254  40.529  26.070  1.00  0.00     0.261 C 
BRANCH  32  33
ATOM     33  O   UNL A   1      45.541  41.236  26.097  1.00  0.00    -0.460 OA
BRANCH  33  34
ATOM     34  C   UNL A   1      46.596  40.624  25.450  1.00  0.00     0.338 C 
ATOM     35  O   UNL A   1      47.117  41.136  24.469  1.00  0.00    -0.246 OA
BRANCH  34  36
ATOM     36  C   UNL A   1      46.974  39.246  26.016  1.00  0.00     0.060 A 
ATOM     37  C   UNL A   1      46.074  38.172  26.073  1.00  0.00     0.016 A 
ATOM     38  C   UNL A   1      48.173  39.017  26.668  1.00  0.00     0.016 A 
ATOM     39  C   UNL A   1      46.262  37.049  26.986  1.00  0.00     0.010 A 
ATOM     40  C   UNL A   1      48.301  37.957  27.617  1.00  0.00     0.010 A 
ATOM     41  C   UNL A   1      47.250  37.094  28.031  1.00  0.00    -0.014 A 
BRANCH  41  42
ATOM     42  C   UNL A   1      47.162  36.404  29.790  1.00  0.00     0.031 A 
ATOM     43  C   UNL A   1      46.849  34.858  29.127  1.00  0.00     0.074 A 
ATOM     44  C   UNL A   1      46.831  37.108  31.450  1.00  0.00     0.049 A 
ATOM     45  N   UNL A   1      46.082  33.943  29.627  1.00  0.00    -0.248 NA
ATOM     46  C   UNL A   1      47.110  34.444  27.713  1.00  0.00     0.031 C 
ATOM     47  C   UNL A   1      46.548  36.591  33.105  1.00  0.00     0.029 A 
ATOM     48  N   UNL A   1      46.171  38.480  31.952  1.00  0.00    -0.354 N 
ATOM     49  C   UNL A   1      46.442  32.770  29.034  1.00  0.00     0.074 A 
ATOM     50  C   UNL A   1      46.763  33.157  27.710  1.00  0.00     0.031 C 
ATOM     51  C   UNL A   1      46.058  37.476  33.969  1.00  0.00     0.029 A 
ATOM     52  C   UNL A   1      45.495  38.487  33.178  1.00  0.00     0.049 A 
ATOM     53  H   UNL A   1      46.239  39.299  31.409  1.00  0.00     0.167 HD
ATOM     54  C   UNL A   1      46.706  31.709  29.839  1.00  0.00     0.034 A 
ATOM     55  C   UNL A   1      44.173  38.788  33.250  1.00  0.00     0.034 A 
ATOM     56  C   UNL A   1      46.183  31.943  31.250  1.00  0.00     0.049 A 
ATOM     57  C   UNL A   1      43.449  37.407  33.316  1.00  0.00     0.074 A 
ATOM     58  C   UNL A   1      46.686  31.781  32.538  1.00  0.00     0.029 A 
ATOM     59  N   UNL A   1      45.035  32.762  31.444  1.00  0.00    -0.354 N 
ATOM     60  N   UNL A   1      43.852  36.287  32.733  1.00  0.00    -0.248 NA
ATOM     61  C   UNL A   1      42.509  37.126  34.402  1.00  0.00     0.031 C 
ATOM     62  C   UNL A   1      45.950  32.646  33.438  1.00  0.00     0.029 A 
ATOM     63  C   UNL A   1      44.900  33.255  32.744  1.00  0.00     0.049 A 
ATOM     64  H   UNL A   1      44.393  32.964  30.726  1.00  0.00     0.167 HD
ATOM     65  C   UNL A   1      43.336  35.168  33.376  1.00  0.00     0.074 A 
ATOM     66  C   UNL A   1      42.515  35.781  34.427  1.00  0.00     0.031 C 
ATOM     67  C   UNL A   1      43.613  33.816  33.203  1.00  0.00     0.034 A 
BRANCH  54  68
ATOM     68  C   UNL A   1      47.685  30.606  29.374  1.00  0.00     0.023 A 
ATOM     69  C   UNL A   1      49.013  30.716  29.821  1.00  0.00     0.012 A 
ATOM     70  C   UNL A   1      47.439  29.487  28.504  1.00  0.00     0.148 A 
ATOM     71  C   UNL A   1      50.015  29.799  29.466  1.00  0.00     0.002 A 
ATOM     72  C   UNL A   1      48.414  28.519  28.229  1.00  0.00     0.091 A 
ATOM     73  F   UNL A   1      46.287  29.360  27.843  1.00  0.00    -0.205 F 
ATOM     74  C   UNL A   1      49.713  28.684  28.699  1.00  0.00     0.022 A 
BRANCH  72  75
ATOM     75  S   UNL A   1      48.079  26.987  27.321  1.00  0.00     0.127 S 
ATOM     76  O   UNL A   1      49.345  26.262  27.445  1.00  0.00    -0.237 OA
ATOM     77  O   UNL A   1      46.977  26.408  28.091  1.00  0.00    -0.237 OA
ATOM     78  O   UNL A   1      47.729  27.370  25.959  1.00  0.00    -0.744 OA
ENDBRANCH  72  75
ENDBRANCH  54  68
BRANCH  55  79
ATOM     79  C   UNL A   1      44.017  40.120  32.554  1.00  0.00     0.023 A 
ATOM     80  C   UNL A   1      43.290  40.044  31.310  1.00  0.00     0.012 A 
ATOM     81  C   UNL A   1      44.004  41.341  33.228  1.00  0.00     0.148 A 
ATOM     82  C   UNL A   1      42.387  41.037  30.914  1.00  0.00     0.002 A 
ATOM     83  C   UNL A   1      43.092  42.330  32.825  1.00  0.00     0.091 A 
ATOM     84  F   UNL A   1      44.797  41.492  34.293  1.00  0.00    -0.205 F 
ATOM     85  C   UNL A   1      42.251  42.161  31.708  1.00  0.00     0.022 A 
BRANCH  83  86
ATOM     86  S   UNL A   1      42.772  43.762  33.859  1.00  0.00     0.127 S 
ATOM     87  O   UNL A   1      42.136  44.672  32.912  1.00  0.00    -0.237 OA
ATOM     88  O   UNL A   1      41.883  43.208  34.880  1.00  0.00    -0.237 OA
ATOM     89  O   UNL A   1      44.084  44.148  34.356  1.00  0.00    -0.744 OA
ENDBRANCH  83  86
ENDBRANCH  55  79
BRANCH  67  90
ATOM     90  C   UNL A   1      42.540  32.731  33.430  1.00  0.00     0.023 A 
ATOM     91  C   UNL A   1      41.549  32.447  32.481  1.00  0.00     0.012 A 
ATOM     92  C   UNL A   1      42.640  31.803  34.515  1.00  0.00     0.148 A 
ATOM     93  C   UNL A   1      40.692  31.351  32.613  1.00  0.00     0.002 A 
ATOM     94  C   UNL A   1      41.898  30.637  34.558  1.00  0.00     0.091 A 
ATOM     95  F   UNL A   1      43.420  32.039  35.572  1.00  0.00    -0.205 F 
ATOM     96  C   UNL A   1      40.892  30.424  33.626  1.00  0.00     0.022 A 
BRANCH  94  97
ATOM     97  S   UNL A   1      42.289  29.321  35.721  1.00  0.00     0.127 S 
ATOM     98  O   UNL A   1      43.700  29.081  35.428  1.00  0.00    -0.237 OA
ATOM     99  O   UNL A   1      42.033  29.973  37.006  1.00  0.00    -0.237 OA
ATOM    100  O   UNL A   1      41.384  28.219  35.421  1.00  0.00    -0.744 OA
ENDBRANCH  94  97
ENDBRANCH  67  90
ENDBRANCH  41  42
ENDBRANCH  34  36
ENDBRANCH  33  34
ENDBRANCH  32  33
ENDBRANCH  31  32
ENDBRANCH  30  31
ENDBRANCH  29  30
ENDBRANCH  28  29
ENDBRANCH  27  28
ENDBRANCH   1  27
TORSDOF 27
ENDMDL
MODEL 3
REMARK VINA RESULT:      -8.8      4.043     12.556
REMARK SMILES CCc1cccc(C)c1Nc1ccccc1CC(=O)OCCOCCOCCOCCOC(=O)c1ccc(-c2c3nc(c(-c4cccc(S(=O)(=O)[O-])c4F)c4ccc([nH]4)c(-c4cccc(S(=O)(=O)[O-])c4F)c4nc(c(-c5cccc(S(=O)(=O)[O-])c5F)c5ccc2[nH]5)C=C4)C=C3)cc1
REMARK SMILES IDX 25 1 24 2 23 3 22 4 21 5 20 6 18 7 19 8 17 9 16 10 11 11
REMARK SMILES IDX 12 12 13 13 15 14 14 15 10 16 9 18 3 19 4 20 5 21 7 22 6 23
REMARK SMILES IDX 8 24 2 25 1 26 26 27 27 28 28 29 29 30 30 31 31 32 32 33
REMARK SMILES IDX 33 34 34 35 35 36 36 37 97 38 37 39 96 40 38 41 39 42 40 43
REMARK SMILES IDX 90 44 41 45 95 46 89 47 91 48 42 49 94 50 88 51 87 52 43 54
REMARK SMILES IDX 75 55 55 56 74 57 56 58 59 59 73 60 92 61 57 62 58 63 72 65
REMARK SMILES IDX 93 66 60 67 44 68 45 69 53 70 46 71 48 72 54 73 47 74 49 75
REMARK SMILES IDX 50 76 51 77 52 78 76 79 77 80 85 81 78 82 80 83 86 84 79 85
REMARK SMILES IDX 81 86 82 87 83 88 84 89 61 90 62 91 70 92 63 93 65 94 71 95
REMARK SMILES IDX 64 96 66 97 67 98 68 99 69 100
REMARK H PARENT 10 17 91 53 59 64
REMARK Flexibility Score: inf
ROOT
ATOM      1  C   UNL A   1      42.234  33.888  29.785  1.00  0.00     0.188 C 
ENDROOT
BRANCH   1   2
ATOM      2  C   UNL A   1      42.270  35.725  28.779  1.00  0.00     0.188 C 
BRANCH   2   3
ATOM      3  O   UNL A   1      43.313  35.663  26.996  1.00  0.00    -0.376 OA
BRANCH   3   4
ATOM      4  C   UNL A   1      44.513  34.310  26.291  1.00  0.00     0.202 C 
BRANCH   4   5
ATOM      5  C   UNL A   1      44.276  32.214  26.307  1.00  0.00     0.261 C 
BRANCH   5   6
ATOM      6  O   UNL A   1      45.847  31.248  25.545  1.00  0.00    -0.463 OA
BRANCH   6   7
ATOM      7  C   UNL A   1      46.941  29.954  26.217  1.00  0.00     0.310 C 
ATOM      8  O   UNL A   1      47.450  29.167  25.398  1.00  0.00    -0.252 OA
BRANCH   7   9
ATOM      9  C   UNL A   1      47.567  29.386  28.023  1.00  0.00     0.160 C 
BRANCH   9  10
ATOM     10  C   UNL A   1      48.936  29.253  29.396  1.00  0.00    -0.013 A 
ATOM     11  C   UNL A   1      48.999  29.007  31.149  1.00  0.00     0.042 A 
ATOM     12  C   UNL A   1      50.283  29.199  31.751  1.00  0.00     0.026 A 
ATOM     13  C   UNL A   1      51.429  29.131  30.909  1.00  0.00     0.002 A 
ATOM     14  C   UNL A   1      50.194  29.263  28.737  1.00  0.00     0.006 A 
ATOM     15  C   UNL A   1      51.381  29.109  29.484  1.00  0.00     0.000 A 
BRANCH  11  16
ATOM     16  N   UNL A   1      48.419  27.540  32.159  1.00  0.00    -0.355 N 
ATOM     17  H   UNL A   1      48.511  27.635  33.136  1.00  0.00     0.167 HD
BRANCH  16  18
ATOM     18  C   UNL A   1      47.656  25.841  31.546  1.00  0.00     0.045 A 
ATOM     19  C   UNL A   1      49.314  25.245  31.320  1.00  0.00    -0.024 A 
ATOM     20  C   UNL A   1      50.120  24.646  32.575  1.00  0.00     0.006 A 
ATOM     21  C   UNL A   1      49.424  24.588  34.050  1.00  0.00     0.001 A 
ATOM     22  C   UNL A   1      46.564  25.202  33.052  1.00  0.00    -0.027 A 
ATOM     23  C   UNL A   1      47.595  24.858  34.465  1.00  0.00     0.005 A 
ATOM     24  C   UNL A   1      45.172  25.423  33.804  1.00  0.00     0.046 C 
BRANCH  19  25
ATOM     25  C   UNL A   1      50.327  25.612  30.243  1.00  0.00     0.034 C 
ATOM     26  C   UNL A   1      49.881  25.379  28.812  1.00  0.00     0.009 C 
ENDBRANCH  19  25
ENDBRANCH  16  18
ENDBRANCH  11  16
ENDBRANCH   9  10
ENDBRANCH   7   9
ENDBRANCH   6   7
ENDBRANCH   5   6
ENDBRANCH   4   5
ENDBRANCH   3   4
ENDBRANCH   2   3
ENDBRANCH   1   2
BRANCH   1  27
ATOM     27  O   UNL A   1      43.573  33.395  30.722  1.00  0.00    -0.377 OA
BRANCH  27  28
ATOM     28  C   UNL A   1      44.882  32.762  30.322  1.00  0.00     0.188 C 
BRANCH  28  29
ATOM     29  C   UNL A   1      46.236  33.494  30.010  1.00  0.00     0.188 C 
BRANCH  29  30
ATOM     30  O   UNL A   1      46.435  34.744  30.629  1.00  0.00    -0.376 OA
BRANCH  30  31
ATOM     31  C   UNL A   1      46.234  34.843  32.014  1.00  0.00     0.202 C 
BRANCH  31  32
ATOM     32  C   UNL A   1      46.720  36.222  32.373  1.00  0.00     0.261 C 
BRANCH  32  33
ATOM     33  O   UNL A   1      45.508  36.991  32.682  1.00  0.00    -0.460 OA
BRANCH  33  34
ATOM     34  C   UNL A   1      44.991  36.846  33.954  1.00  0.00     0.338 C 
ATOM     35  O   UNL A   1      45.700  36.982  34.943  1.00  0.00    -0.246 OA
BRANCH  34  36
ATOM     36  C   UNL A   1      43.513  36.425  33.995  1.00  0.00     0.060 A 
ATOM     37  C   UNL A   1      42.831  36.152  35.190  1.00  0.00     0.016 A 
ATOM     38  C   UNL A   1      42.799  36.117  32.850  1.00  0.00     0.016 A 
ATOM     39  C   UNL A   1      41.618  35.342  35.223  1.00  0.00     0.010 A 
ATOM     40  C   UNL A   1      41.661  35.255  32.906  1.00  0.00     0.010 A 
ATOM     41  C   UNL A   1      41.188  34.594  34.071  1.00  0.00    -0.014 A 
BRANCH  41  42
ATOM     42  C   UNL A   1      40.376  32.887  33.989  1.00  0.00     0.031 A 
ATOM     43  C   UNL A   1      41.928  32.204  33.755  1.00  0.00     0.074 A 
ATOM     44  C   UNL A   1      38.698  32.261  33.602  1.00  0.00     0.049 A 
ATOM     45  N   UNL A   1      42.218  31.176  33.024  1.00  0.00    -0.248 NA
ATOM     46  C   UNL A   1      43.232  32.873  34.055  1.00  0.00     0.031 C 
ATOM     47  C   UNL A   1      37.853  30.747  33.320  1.00  0.00     0.029 A 
ATOM     48  N   UNL A   1      37.423  32.905  32.874  1.00  0.00    -0.354 N 
ATOM     49  C   UNL A   1      43.435  30.733  33.444  1.00  0.00     0.074 A 
ATOM     50  C   UNL A   1      44.125  31.927  33.767  1.00  0.00     0.031 C 
ATOM     51  C   UNL A   1      36.638  30.793  32.778  1.00  0.00     0.029 A 
ATOM     52  C   UNL A   1      36.550  32.058  32.181  1.00  0.00     0.049 A 
ATOM     53  H   UNL A   1      37.259  33.876  32.914  1.00  0.00     0.167 HD
ATOM     54  C   UNL A   1      43.559  29.415  33.745  1.00  0.00     0.034 A 
ATOM     55  C   UNL A   1      36.347  32.199  30.846  1.00  0.00     0.034 A 
ATOM     56  C   UNL A   1      42.391  28.610  33.190  1.00  0.00     0.049 A 
ATOM     57  C   UNL A   1      37.270  31.128  30.185  1.00  0.00     0.074 A 
ATOM     58  C   UNL A   1      41.539  27.624  33.682  1.00  0.00     0.029 A 
ATOM     59  N   UNL A   1      41.738  29.049  32.005  1.00  0.00    -0.354 N 
ATOM     60  N   UNL A   1      38.443  30.716  30.645  1.00  0.00    -0.248 NA
ATOM     61  C   UNL A   1      36.706  30.159  29.243  1.00  0.00     0.031 C 
ATOM     62  C   UNL A   1      40.322  27.625  32.895  1.00  0.00     0.029 A 
ATOM     63  C   UNL A   1      40.458  28.519  31.829  1.00  0.00     0.049 A 
ATOM     64  H   UNL A   1      42.151  29.672  31.365  1.00  0.00     0.167 HD
ATOM     65  C   UNL A   1      38.757  29.449  30.171  1.00  0.00     0.074 A 
ATOM     66  C   UNL A   1      37.605  29.160  29.308  1.00  0.00     0.031 C 
ATOM     67  C   UNL A   1      39.793  28.585  30.512  1.00  0.00     0.034 A 
BRANCH  54  68
ATOM     68  C   UNL A   1      44.611  28.949  34.778  1.00  0.00     0.023 A 
ATOM     69  C   UNL A   1      45.938  28.855  34.325  1.00  0.00     0.012 A 
ATOM     70  C   UNL A   1      44.418  28.553  36.148  1.00  0.00     0.148 A 
ATOM     71  C   UNL A   1      46.995  28.430  35.145  1.00  0.00     0.002 A 
ATOM     72  C   UNL A   1      45.487  28.223  36.993  1.00  0.00     0.091 A 
ATOM     73  F   UNL A   1      43.197  28.398  36.662  1.00  0.00    -0.205 F 
ATOM     74  C   UNL A   1      46.779  28.146  36.485  1.00  0.00     0.022 A 
BRANCH  72  75
ATOM     75  S   UNL A   1      45.306  27.935  38.773  1.00  0.00     0.127 S 
ATOM     76  O   UNL A   1      46.665  27.565  39.173  1.00  0.00    -0.237 OA
ATOM     77  O   UNL A   1      44.875  29.248  39.255  1.00  0.00    -0.237 OA
ATOM     78  O   UNL A   1      44.316  26.878  38.933  1.00  0.00    -0.744 OA
ENDBRANCH  72  75
ENDBRANCH  54  68
BRANCH  55  79
ATOM     79  C   UNL A   1      35.954  33.642  30.641  1.00  0.00     0.023 A 
ATOM     80  C   UNL A   1      35.947  34.051  29.256  1.00  0.00     0.012 A 
ATOM     81  C   UNL A   1      35.131  34.346  31.519  1.00  0.00     0.148 A 
ATOM     82  C   UNL A   1      34.976  34.918  28.742  1.00  0.00     0.002 A 
ATOM     83  C   UNL A   1      34.158  35.212  30.993  1.00  0.00     0.091 A 
ATOM     84  F   UNL A   1      35.236  34.102  32.829  1.00  0.00    -0.205 F 
ATOM     85  C   UNL A   1      34.044  35.457  29.611  1.00  0.00     0.022 A 
BRANCH  83  86
ATOM     86  S   UNL A   1      32.845  35.860  32.032  1.00  0.00     0.127 S 
ATOM     87  O   UNL A   1      31.940  36.431  31.040  1.00  0.00    -0.237 OA
ATOM     88  O   UNL A   1      32.356  34.651  32.695  1.00  0.00    -0.237 OA
ATOM     89  O   UNL A   1      33.518  36.797  32.919  1.00  0.00    -0.744 OA
ENDBRANCH  83  86
ENDBRANCH  55  79
BRANCH  67  90
ATOM     90  C   UNL A   1      40.410  27.613  29.485  1.00  0.00     0.023 A 
ATOM     91  C   UNL A   1      39.899  26.326  29.271  1.00  0.00     0.012 A 
ATOM     92  C   UNL A   1      41.386  28.057  28.536  1.00  0.00     0.148 A 
ATOM     93  C   UNL A   1      40.348  25.519  28.222  1.00  0.00     0.002 A 
ATOM     94  C   UNL A   1      41.709  27.319  27.412  1.00  0.00     0.091 A 
ATOM     95  F   UNL A   1      42.075  29.185  28.712  1.00  0.00    -0.205 F 
ATOM     96  C   UNL A   1      41.220  26.028  27.270  1.00  0.00     0.022 A 
BRANCH  94  97
ATOM     97  S   UNL A   1      42.651  28.038  26.059  1.00  0.00     0.127 S 
ATOM     98  O   UNL A   1      44.021  27.714  26.451  1.00  0.00    -0.237 OA
ATOM     99  O   UNL A   1      42.148  27.282  24.910  1.00  0.00    -0.237 OA
ATOM    100  O   UNL A   1      42.320  29.456  26.029  1.00  0.00    -0.744 OA
ENDBRANCH  94  97
ENDBRANCH  67  90
ENDBRANCH  41  42
ENDBRANCH  34  36
ENDBRANCH  33  34
ENDBRANCH  32  33
ENDBRANCH  31  32
ENDBRANCH  30  31
ENDBRANCH  29  30
ENDBRANCH  28  29
ENDBRANCH  27  28
ENDBRANCH   1  27
TORSDOF 27
ENDMDL
