MODEL 1
REMARK VINA RESULT:      -8.3      0.000      0.000
REMARK SMILES COc1ccc(C(=O)c2ccccc2)cc1[C@@H](C)C(=O)OCCOCCOCCOCCOC(=O)c1ccc(-c2c3nc(c(-c4cccc(S(=O)(=O)[O-])c4F)c4ccc([nH]4)c(-c4cccc(S(=O)(=O)[O-])c4F)c4nc(c(-c5cccc(S(=O)(=O)[O-])c5F)c5ccc2[nH]5)C=C4)C=C3)cc1
REMARK SMILES IDX 27 1 26 2 25 3 24 4 23 5 22 6 21 7 19 8 20 9 17 10 18 11
REMARK SMILES IDX 16 12 3 13 4 14 5 15 15 16 6 17 2 18 1 19 7 20 8 21 9 22
REMARK SMILES IDX 10 23 14 24 11 25 13 26 12 27 28 28 29 29 30 30 31 31 32 32
REMARK SMILES IDX 33 33 34 34 35 35 36 36 37 37 98 38 38 39 97 40 39 41 40 42
REMARK SMILES IDX 41 43 91 44 42 45 96 46 90 47 92 48 43 49 95 50 89 51 88 52
REMARK SMILES IDX 44 54 76 55 56 56 75 57 57 58 60 59 74 60 93 61 58 62 59 63
REMARK SMILES IDX 73 65 94 66 61 67 45 68 46 69 54 70 47 71 49 72 55 73 48 74
REMARK SMILES IDX 50 75 51 76 52 77 53 78 77 79 78 80 86 81 79 82 81 83 87 84
REMARK SMILES IDX 80 85 82 86 83 87 84 88 85 89 62 90 63 91 71 92 64 93 66 94
REMARK SMILES IDX 72 95 65 96 67 97 68 98 69 99 70 100
REMARK H PARENT 92 53 60 64
REMARK Flexibility Score: inf
ROOT
ATOM      1  O   UNL A   1      33.900  31.086  27.937  1.00  0.00    -0.377 OA
ENDROOT
BRANCH   1   2
ATOM      2  C   UNL A   1      32.743  31.475  27.228  1.00  0.00     0.188 C 
BRANCH   2   3
ATOM      3  C   UNL A   1      32.010  30.339  26.498  1.00  0.00     0.188 C 
BRANCH   3   4
ATOM      4  O   UNL A   1      31.681  30.442  25.120  1.00  0.00    -0.376 OA
BRANCH   4   5
ATOM      5  C   UNL A   1      30.425  29.970  24.655  1.00  0.00     0.202 C 
BRANCH   5   6
ATOM      6  C   UNL A   1      30.291  29.278  23.283  1.00  0.00     0.261 C 
BRANCH   6   7
ATOM      7  O   UNL A   1      31.500  28.825  22.640  1.00  0.00    -0.463 OA
BRANCH   7   8
ATOM      8  C   UNL A   1      31.896  27.554  22.902  1.00  0.00     0.313 C 
ATOM      9  O   UNL A   1      31.534  26.582  22.243  1.00  0.00    -0.252 OA
BRANCH   8  10
ATOM     10  C   UNL A   1      32.786  27.390  24.136  1.00  0.00     0.130 C 
ATOM     11  C   UNL A   1      34.037  28.242  23.948  1.00  0.00     0.025 C 
BRANCH  10  12
ATOM     12  C   UNL A   1      33.143  25.985  24.618  1.00  0.00     0.009 A 
ATOM     13  C   UNL A   1      32.453  25.354  25.671  1.00  0.00     0.122 A 
ATOM     14  C   UNL A   1      32.820  24.082  26.132  1.00  0.00     0.047 A 
ATOM     15  C   UNL A   1      33.863  23.391  25.518  1.00  0.00     0.016 A 
ATOM     16  C   UNL A   1      34.185  25.258  24.009  1.00  0.00     0.020 A 
ATOM     17  C   UNL A   1      34.550  23.971  24.450  1.00  0.00     0.023 A 
BRANCH  13  18
ATOM     18  O   UNL A   1      31.415  25.975  26.315  1.00  0.00    -0.496 OA
ATOM     19  C   UNL A   1      30.165  25.590  25.739  1.00  0.00     0.278 C 
ENDBRANCH  13  18
BRANCH  17  20
ATOM     20  C   UNL A   1      35.609  23.166  23.772  1.00  0.00     0.193 C 
ATOM     21  O   UNL A   1      35.521  22.905  22.576  1.00  0.00    -0.289 OA
BRANCH  20  22
ATOM     22  C   UNL A   1      36.818  22.773  24.520  1.00  0.00     0.022 A 
ATOM     23  C   UNL A   1      37.416  23.729  25.335  1.00  0.00     0.012 A 
ATOM     24  C   UNL A   1      37.276  21.450  24.512  1.00  0.00     0.012 A 
ATOM     25  C   UNL A   1      38.431  23.331  26.197  1.00  0.00     0.001 A 
ATOM     26  C   UNL A   1      38.316  21.074  25.361  1.00  0.00     0.001 A 
ATOM     27  C   UNL A   1      38.888  22.014  26.211  1.00  0.00     0.000 A 
ENDBRANCH  20  22
ENDBRANCH  17  20
ENDBRANCH  10  12
ENDBRANCH   8  10
ENDBRANCH   7   8
ENDBRANCH   6   7
ENDBRANCH   5   6
ENDBRANCH   4   5
ENDBRANCH   3   4
ENDBRANCH   2   3
ENDBRANCH   1   2
BRANCH   1  28
ATOM     28  C   UNL A   1      34.920  32.066  28.040  1.00  0.00     0.188 C 
BRANCH  28  29
ATOM     29  C   UNL A   1      35.047  32.785  29.397  1.00  0.00     0.188 C 
BRANCH  29  30
ATOM     30  O   UNL A   1      34.873  34.197  29.318  1.00  0.00    -0.376 OA
BRANCH  30  31
ATOM     31  C   UNL A   1      33.559  34.731  29.371  1.00  0.00     0.202 C 
BRANCH  31  32
ATOM     32  C   UNL A   1      33.057  35.347  30.690  1.00  0.00     0.261 C 
BRANCH  32  33
ATOM     33  O   UNL A   1      33.523  34.754  31.911  1.00  0.00    -0.460 OA
BRANCH  33  34
ATOM     34  C   UNL A   1      34.515  35.363  32.589  1.00  0.00     0.338 C 
ATOM     35  O   UNL A   1      34.411  36.344  33.309  1.00  0.00    -0.246 OA
BRANCH  34  36
ATOM     36  C   UNL A   1      35.725  34.515  32.489  1.00  0.00     0.060 A 
ATOM     37  C   UNL A   1      35.711  33.232  33.059  1.00  0.00     0.016 A 
ATOM     38  C   UNL A   1      36.866  34.979  31.834  1.00  0.00     0.016 A 
ATOM     39  C   UNL A   1      36.857  32.432  33.032  1.00  0.00     0.010 A 
ATOM     40  C   UNL A   1      38.017  34.187  31.828  1.00  0.00     0.010 A 
ATOM     41  C   UNL A   1      38.035  32.932  32.469  1.00  0.00    -0.014 A 
BRANCH  41  42
ATOM     42  C   UNL A   1      39.353  32.302  32.744  1.00  0.00     0.031 A 
ATOM     43  C   UNL A   1      39.760  31.146  31.882  1.00  0.00     0.074 A 
ATOM     44  C   UNL A   1      40.148  32.683  33.759  1.00  0.00     0.049 A 
ATOM     45  N   UNL A   1      40.757  30.318  32.032  1.00  0.00    -0.248 NA
ATOM     46  C   UNL A   1      38.952  30.913  30.673  1.00  0.00     0.031 C 
ATOM     47  C   UNL A   1      39.959  33.876  34.566  1.00  0.00     0.029 A 
ATOM     48  N   UNL A   1      41.233  32.065  34.331  1.00  0.00    -0.354 N 
ATOM     49  C   UNL A   1      40.697  29.464  30.941  1.00  0.00     0.074 A 
ATOM     50  C   UNL A   1      39.545  29.849  30.156  1.00  0.00     0.031 C 
ATOM     51  C   UNL A   1      40.779  33.824  35.630  1.00  0.00     0.029 A 
ATOM     52  C   UNL A   1      41.571  32.601  35.554  1.00  0.00     0.049 A 
ATOM     53  H   UNL A   1      41.718  31.317  33.911  1.00  0.00     0.167 HD
ATOM     54  C   UNL A   1      41.547  28.467  30.610  1.00  0.00     0.034 A 
ATOM     55  C   UNL A   1      42.400  32.141  36.512  1.00  0.00     0.034 A 
ATOM     56  C   UNL A   1      42.679  28.089  31.407  1.00  0.00     0.049 A 
ATOM     57  C   UNL A   1      43.235  30.924  36.211  1.00  0.00     0.074 A 
ATOM     58  C   UNL A   1      43.623  27.114  31.149  1.00  0.00     0.029 A 
ATOM     59  N   UNL A   1      43.003  28.651  32.632  1.00  0.00    -0.354 N 
ATOM     60  N   UNL A   1      43.237  30.180  35.131  1.00  0.00    -0.248 NA
ATOM     61  C   UNL A   1      44.235  30.528  37.213  1.00  0.00     0.031 C 
ATOM     62  C   UNL A   1      44.491  27.052  32.242  1.00  0.00     0.029 A 
ATOM     63  C   UNL A   1      44.121  28.027  33.154  1.00  0.00     0.049 A 
ATOM     64  H   UNL A   1      42.511  29.384  33.066  1.00  0.00     0.167 HD
ATOM     65  C   UNL A   1      44.295  29.293  35.282  1.00  0.00     0.074 A 
ATOM     66  C   UNL A   1      44.890  29.568  36.572  1.00  0.00     0.031 C 
ATOM     67  C   UNL A   1      44.743  28.354  34.413  1.00  0.00     0.034 A 
BRANCH  54  68
ATOM     68  C   UNL A   1      41.276  27.728  29.332  1.00  0.00     0.023 A 
ATOM     69  C   UNL A   1      40.248  26.764  29.282  1.00  0.00     0.012 A 
ATOM     70  C   UNL A   1      42.024  28.007  28.174  1.00  0.00     0.148 A 
ATOM     71  C   UNL A   1      39.996  26.059  28.106  1.00  0.00     0.002 A 
ATOM     72  C   UNL A   1      41.734  27.336  26.994  1.00  0.00     0.091 A 
ATOM     73  F   UNL A   1      43.014  28.907  28.253  1.00  0.00    -0.205 F 
ATOM     74  C   UNL A   1      40.731  26.352  26.961  1.00  0.00     0.022 A 
BRANCH  72  75
ATOM     75  S   UNL A   1      42.572  27.696  25.448  1.00  0.00     0.127 S 
ATOM     76  O   UNL A   1      42.246  26.514  24.654  1.00  0.00    -0.237 OA
ATOM     77  O   UNL A   1      41.903  28.924  25.018  1.00  0.00    -0.237 OA
ATOM     78  O   UNL A   1      43.981  27.854  25.780  1.00  0.00    -0.744 OA
ENDBRANCH  72  75
ENDBRANCH  54  68
BRANCH  55  79
ATOM     79  C   UNL A   1      42.533  32.861  37.811  1.00  0.00     0.023 A 
ATOM     80  C   UNL A   1      43.649  33.691  38.032  1.00  0.00     0.012 A 
ATOM     81  C   UNL A   1      41.569  32.721  38.832  1.00  0.00     0.148 A 
ATOM     82  C   UNL A   1      43.828  34.334  39.258  1.00  0.00     0.002 A 
ATOM     83  C   UNL A   1      41.734  33.396  40.038  1.00  0.00     0.091 A 
ATOM     84  F   UNL A   1      40.511  31.932  38.602  1.00  0.00    -0.205 F 
ATOM     85  C   UNL A   1      42.872  34.188  40.259  1.00  0.00     0.022 A 
BRANCH  83  86
ATOM     86  S   UNL A   1      40.522  33.348  41.366  1.00  0.00     0.127 S 
ATOM     87  O   UNL A   1      40.997  32.220  42.166  1.00  0.00    -0.237 OA
ATOM     88  O   UNL A   1      40.708  34.662  41.983  1.00  0.00    -0.237 OA
ATOM     89  O   UNL A   1      39.230  33.155  40.725  1.00  0.00    -0.744 OA
ENDBRANCH  83  86
ENDBRANCH  55  79
BRANCH  67  90
ATOM     90  C   UNL A   1      45.998  27.603  34.762  1.00  0.00     0.023 A 
ATOM     91  C   UNL A   1      45.929  26.355  35.409  1.00  0.00     0.012 A 
ATOM     92  C   UNL A   1      47.247  28.088  34.318  1.00  0.00     0.148 A 
ATOM     93  C   UNL A   1      47.087  25.606  35.621  1.00  0.00     0.002 A 
ATOM     94  C   UNL A   1      48.385  27.312  34.481  1.00  0.00     0.091 A 
ATOM     95  F   UNL A   1      47.287  29.288  33.720  1.00  0.00    -0.205 F 
ATOM     96  C   UNL A   1      48.309  26.076  35.142  1.00  0.00     0.022 A 
BRANCH  94  97
ATOM     97  S   UNL A   1      49.979  27.783  33.800  1.00  0.00     0.127 S 
ATOM     98  O   UNL A   1      50.348  28.908  34.657  1.00  0.00    -0.237 OA
ATOM     99  O   UNL A   1      50.770  26.570  34.009  1.00  0.00    -0.237 OA
ATOM    100  O   UNL A   1      49.741  28.121  32.403  1.00  0.00    -0.744 OA
ENDBRANCH  94  97
ENDBRANCH  67  90
ENDBRANCH  41  42
ENDBRANCH  34  36
ENDBRANCH  33  34
ENDBRANCH  32  33
ENDBRANCH  31  32
ENDBRANCH  30  31
ENDBRANCH  29  30
ENDBRANCH  28  29
ENDBRANCH   1  28
TORSDOF 27
ENDMDL
MODEL 2
REMARK VINA RESULT:      -7.9      3.200      4.864
REMARK SMILES COc1ccc(C(=O)c2ccccc2)cc1[C@@H](C)C(=O)OCCOCCOCCOCCOC(=O)c1ccc(-c2c3nc(c(-c4cccc(S(=O)(=O)[O-])c4F)c4ccc([nH]4)c(-c4cccc(S(=O)(=O)[O-])c4F)c4nc(c(-c5cccc(S(=O)(=O)[O-])c5F)c5ccc2[nH]5)C=C4)C=C3)cc1
REMARK SMILES IDX 27 1 26 2 25 3 24 4 23 5 22 6 21 7 19 8 20 9 17 10 18 11
REMARK SMILES IDX 16 12 3 13 4 14 5 15 15 16 6 17 2 18 1 19 7 20 8 21 9 22
REMARK SMILES IDX 10 23 14 24 11 25 13 26 12 27 28 28 29 29 30 30 31 31 32 32
REMARK SMILES IDX 33 33 34 34 35 35 36 36 37 37 98 38 38 39 97 40 39 41 40 42
REMARK SMILES IDX 41 43 91 44 42 45 96 46 90 47 92 48 43 49 95 50 89 51 88 52
REMARK SMILES IDX 44 54 76 55 56 56 75 57 57 58 60 59 74 60 93 61 58 62 59 63
REMARK SMILES IDX 73 65 94 66 61 67 45 68 46 69 54 70 47 71 49 72 55 73 48 74
REMARK SMILES IDX 50 75 51 76 52 77 53 78 77 79 78 80 86 81 79 82 81 83 87 84
REMARK SMILES IDX 80 85 82 86 83 87 84 88 85 89 62 90 63 91 71 92 64 93 66 94
REMARK SMILES IDX 72 95 65 96 67 97 68 98 69 99 70 100
REMARK H PARENT 92 53 60 64
REMARK Flexibility Score: inf
ROOT
ATOM      1  O   UNL A   1      34.351  31.212  27.836  1.00  0.00    -0.377 OA
ENDROOT
BRANCH   1   2
ATOM      2  C   UNL A   1      33.178  31.683  27.208  1.00  0.00     0.188 C 
BRANCH   2   3
ATOM      3  C   UNL A   1      32.175  30.596  26.793  1.00  0.00     0.188 C 
BRANCH   3   4
ATOM      4  O   UNL A   1      31.995  30.244  25.429  1.00  0.00    -0.376 OA
BRANCH   4   5
ATOM      5  C   UNL A   1      30.685  30.172  24.884  1.00  0.00     0.202 C 
BRANCH   5   6
ATOM      6  C   UNL A   1      30.426  29.507  23.516  1.00  0.00     0.261 C 
BRANCH   6   7
ATOM      7  O   UNL A   1      31.529  28.828  22.881  1.00  0.00    -0.463 OA
BRANCH   7   8
ATOM      8  C   UNL A   1      31.785  27.559  23.288  1.00  0.00     0.313 C 
ATOM      9  O   UNL A   1      31.177  26.577  22.869  1.00  0.00    -0.252 OA
BRANCH   8  10
ATOM     10  C   UNL A   1      32.854  27.427  24.376  1.00  0.00     0.130 C 
ATOM     11  C   UNL A   1      34.079  28.230  23.950  1.00  0.00     0.025 C 
BRANCH  10  12
ATOM     12  C   UNL A   1      33.250  26.036  24.868  1.00  0.00     0.009 A 
ATOM     13  C   UNL A   1      32.528  25.361  25.871  1.00  0.00     0.122 A 
ATOM     14  C   UNL A   1      32.928  24.105  26.345  1.00  0.00     0.047 A 
ATOM     15  C   UNL A   1      34.041  23.472  25.794  1.00  0.00     0.016 A 
ATOM     16  C   UNL A   1      34.363  25.369  24.322  1.00  0.00     0.020 A 
ATOM     17  C   UNL A   1      34.764  24.097  24.776  1.00  0.00     0.023 A 
BRANCH  13  18
ATOM     18  O   UNL A   1      31.420  25.924  26.452  1.00  0.00    -0.496 OA
ATOM     19  C   UNL A   1      30.231  25.275  25.997  1.00  0.00     0.278 C 
ENDBRANCH  13  18
BRANCH  17  20
ATOM     20  C   UNL A   1      35.903  23.353  24.161  1.00  0.00     0.193 C 
ATOM     21  O   UNL A   1      35.959  23.198  22.945  1.00  0.00    -0.289 OA
BRANCH  20  22
ATOM     22  C   UNL A   1      37.017  22.892  25.011  1.00  0.00     0.022 A 
ATOM     23  C   UNL A   1      37.434  21.572  24.874  1.00  0.00     0.012 A 
ATOM     24  C   UNL A   1      37.716  23.783  25.835  1.00  0.00     0.012 A 
ATOM     25  C   UNL A   1      38.602  21.171  25.513  1.00  0.00     0.001 A 
ATOM     26  C   UNL A   1      38.867  23.356  26.493  1.00  0.00     0.001 A 
ATOM     27  C   UNL A   1      39.315  22.050  26.325  1.00  0.00     0.000 A 
ENDBRANCH  20  22
ENDBRANCH  17  20
ENDBRANCH  10  12
ENDBRANCH   8  10
ENDBRANCH   7   8
ENDBRANCH   6   7
ENDBRANCH   5   6
ENDBRANCH   4   5
ENDBRANCH   3   4
ENDBRANCH   2   3
ENDBRANCH   1   2
BRANCH   1  28
ATOM     28  C   UNL A   1      35.389  32.163  28.001  1.00  0.00     0.188 C 
BRANCH  28  29
ATOM     29  C   UNL A   1      35.859  32.423  29.446  1.00  0.00     0.188 C 
BRANCH  29  30
ATOM     30  O   UNL A   1      35.776  33.789  29.842  1.00  0.00    -0.376 OA
BRANCH  30  31
ATOM     31  C   UNL A   1      34.500  34.404  29.923  1.00  0.00     0.202 C 
BRANCH  31  32
ATOM     32  C   UNL A   1      33.869  34.631  31.309  1.00  0.00     0.261 C 
BRANCH  32  33
ATOM     33  O   UNL A   1      34.606  34.169  32.450  1.00  0.00    -0.460 OA
BRANCH  33  34
ATOM     34  C   UNL A   1      35.165  35.079  33.271  1.00  0.00     0.338 C 
ATOM     35  O   UNL A   1      34.657  36.118  33.663  1.00  0.00    -0.246 OA
BRANCH  34  36
ATOM     36  C   UNL A   1      36.425  34.505  33.799  1.00  0.00     0.060 A 
ATOM     37  C   UNL A   1      36.436  33.947  35.088  1.00  0.00     0.016 A 
ATOM     38  C   UNL A   1      37.587  34.513  33.028  1.00  0.00     0.016 A 
ATOM     39  C   UNL A   1      37.623  33.452  35.635  1.00  0.00     0.010 A 
ATOM     40  C   UNL A   1      38.777  34.038  33.585  1.00  0.00     0.010 A 
ATOM     41  C   UNL A   1      38.813  33.551  34.908  1.00  0.00    -0.014 A 
BRANCH  41  42
ATOM     42  C   UNL A   1      40.137  33.402  35.565  1.00  0.00     0.031 A 
ATOM     43  C   UNL A   1      40.724  32.024  35.633  1.00  0.00     0.074 A 
ATOM     44  C   UNL A   1      40.786  34.425  36.146  1.00  0.00     0.049 A 
ATOM     45  N   UNL A   1      41.758  31.601  36.305  1.00  0.00    -0.248 NA
ATOM     46  C   UNL A   1      40.071  30.993  34.807  1.00  0.00     0.031 C 
ATOM     47  C   UNL A   1      40.420  35.825  36.021  1.00  0.00     0.029 A 
ATOM     48  N   UNL A   1      41.847  34.437  37.019  1.00  0.00    -0.354 N 
ATOM     49  C   UNL A   1      41.883  30.257  35.987  1.00  0.00     0.074 A 
ATOM     50  C   UNL A   1      40.797  29.924  35.092  1.00  0.00     0.031 C 
ATOM     51  C   UNL A   1      41.121  36.547  36.913  1.00  0.00     0.029 A 
ATOM     52  C   UNL A   1      42.007  35.653  37.649  1.00  0.00     0.049 A 
ATOM     53  H   UNL A   1      42.430  33.660  37.178  1.00  0.00     0.167 HD
ATOM     54  C   UNL A   1      42.838  29.388  36.385  1.00  0.00     0.034 A 
ATOM     55  C   UNL A   1      42.760  35.993  38.713  1.00  0.00     0.034 A 
ATOM     56  C   UNL A   1      43.902  29.731  37.285  1.00  0.00     0.049 A 
ATOM     57  C   UNL A   1      43.713  34.970  39.272  1.00  0.00     0.074 A 
ATOM     58  C   UNL A   1      44.940  28.935  37.729  1.00  0.00     0.029 A 
ATOM     59  N   UNL A   1      44.047  30.965  37.900  1.00  0.00    -0.354 N 
ATOM     60  N   UNL A   1      43.890  33.726  38.897  1.00  0.00    -0.248 NA
ATOM     61  C   UNL A   1      44.626  35.408  40.338  1.00  0.00     0.031 C 
ATOM     62  C   UNL A   1      45.686  29.673  38.652  1.00  0.00     0.029 A 
ATOM     63  C   UNL A   1      45.146  30.947  38.738  1.00  0.00     0.049 A 
ATOM     64  H   UNL A   1      43.456  31.739  37.760  1.00  0.00     0.167 HD
ATOM     65  C   UNL A   1      44.990  33.265  39.609  1.00  0.00     0.074 A 
ATOM     66  C   UNL A   1      45.419  34.351  40.464  1.00  0.00     0.031 C 
ATOM     67  C   UNL A   1      45.601  32.057  39.536  1.00  0.00     0.034 A 
BRANCH  54  68
ATOM     68  C   UNL A   1      42.765  27.990  35.842  1.00  0.00     0.023 A 
ATOM     69  C   UNL A   1      41.797  27.093  36.340  1.00  0.00     0.012 A 
ATOM     70  C   UNL A   1      43.639  27.574  34.822  1.00  0.00     0.148 A 
ATOM     71  C   UNL A   1      41.728  25.787  35.856  1.00  0.00     0.002 A 
ATOM     72  C   UNL A   1      43.532  26.288  34.311  1.00  0.00     0.091 A 
ATOM     73  F   UNL A   1      44.568  28.436  34.385  1.00  0.00    -0.205 F 
ATOM     74  C   UNL A   1      42.587  25.389  34.836  1.00  0.00     0.022 A 
BRANCH  72  75
ATOM     75  S   UNL A   1      44.540  25.705  32.946  1.00  0.00     0.127 S 
ATOM     76  O   UNL A   1      44.122  26.598  31.868  1.00  0.00    -0.237 OA
ATOM     77  O   UNL A   1      45.895  25.944  33.445  1.00  0.00    -0.237 OA
ATOM     78  O   UNL A   1      44.198  24.302  32.761  1.00  0.00    -0.744 OA
ENDBRANCH  72  75
ENDBRANCH  54  68
BRANCH  55  79
ATOM     79  C   UNL A   1      42.696  37.371  39.280  1.00  0.00     0.023 A 
ATOM     80  C   UNL A   1      43.525  38.377  38.749  1.00  0.00     0.012 A 
ATOM     81  C   UNL A   1      41.828  37.689  40.346  1.00  0.00     0.148 A 
ATOM     82  C   UNL A   1      43.526  39.662  39.295  1.00  0.00     0.002 A 
ATOM     83  C   UNL A   1      41.805  38.982  40.860  1.00  0.00     0.091 A 
ATOM     84  F   UNL A   1      41.041  36.720  40.834  1.00  0.00    -0.205 F 
ATOM     85  C   UNL A   1      42.667  39.964  40.347  1.00  0.00     0.022 A 
BRANCH  83  86
ATOM     86  S   UNL A   1      40.677  39.505  42.159  1.00  0.00     0.127 S 
ATOM     87  O   UNL A   1      39.375  39.219  41.561  1.00  0.00    -0.237 OA
ATOM     88  O   UNL A   1      41.060  38.616  43.257  1.00  0.00    -0.237 OA
ATOM     89  O   UNL A   1      40.958  40.914  42.393  1.00  0.00    -0.744 OA
ENDBRANCH  83  86
ENDBRANCH  55  79
BRANCH  67  90
ATOM     90  C   UNL A   1      46.864  31.850  40.326  1.00  0.00     0.023 A 
ATOM     91  C   UNL A   1      46.819  31.286  41.614  1.00  0.00     0.012 A 
ATOM     92  C   UNL A   1      48.113  32.099  39.718  1.00  0.00     0.148 A 
ATOM     93  C   UNL A   1      48.000  30.982  42.291  1.00  0.00     0.002 A 
ATOM     94  C   UNL A   1      49.282  31.742  40.375  1.00  0.00     0.091 A 
ATOM     95  F   UNL A   1      48.128  32.654  38.497  1.00  0.00    -0.205 F 
ATOM     96  C   UNL A   1      49.228  31.193  41.666  1.00  0.00     0.022 A 
BRANCH  94  97
ATOM     97  S   UNL A   1      50.899  31.873  39.604  1.00  0.00     0.127 S 
ATOM     98  O   UNL A   1      51.030  33.319  39.432  1.00  0.00    -0.237 OA
ATOM     99  O   UNL A   1      51.772  31.299  40.628  1.00  0.00    -0.237 OA
ATOM    100  O   UNL A   1      50.825  31.107  38.368  1.00  0.00    -0.744 OA
ENDBRANCH  94  97
ENDBRANCH  67  90
ENDBRANCH  41  42
ENDBRANCH  34  36
ENDBRANCH  33  34
ENDBRANCH  32  33
ENDBRANCH  31  32
ENDBRANCH  30  31
ENDBRANCH  29  30
ENDBRANCH  28  29
ENDBRANCH   1  28
TORSDOF 27
ENDMDL
MODEL 3
REMARK VINA RESULT:      -7.8      2.927      7.966
REMARK SMILES COc1ccc(C(=O)c2ccccc2)cc1[C@@H](C)C(=O)OCCOCCOCCOCCOC(=O)c1ccc(-c2c3nc(c(-c4cccc(S(=O)(=O)[O-])c4F)c4ccc([nH]4)c(-c4cccc(S(=O)(=O)[O-])c4F)c4nc(c(-c5cccc(S(=O)(=O)[O-])c5F)c5ccc2[nH]5)C=C4)C=C3)cc1
REMARK SMILES IDX 27 1 26 2 25 3 24 4 23 5 22 6 21 7 19 8 20 9 17 10 18 11
REMARK SMILES IDX 16 12 3 13 4 14 5 15 15 16 6 17 2 18 1 19 7 20 8 21 9 22
REMARK SMILES IDX 10 23 14 24 11 25 13 26 12 27 28 28 29 29 30 30 31 31 32 32
REMARK SMILES IDX 33 33 34 34 35 35 36 36 37 37 98 38 38 39 97 40 39 41 40 42
REMARK SMILES IDX 41 43 91 44 42 45 96 46 90 47 92 48 43 49 95 50 89 51 88 52
REMARK SMILES IDX 44 54 76 55 56 56 75 57 57 58 60 59 74 60 93 61 58 62 59 63
REMARK SMILES IDX 73 65 94 66 61 67 45 68 46 69 54 70 47 71 49 72 55 73 48 74
REMARK SMILES IDX 50 75 51 76 52 77 53 78 77 79 78 80 86 81 79 82 81 83 87 84
REMARK SMILES IDX 80 85 82 86 83 87 84 88 85 89 62 90 63 91 71 92 64 93 66 94
REMARK SMILES IDX 72 95 65 96 67 97 68 98 69 99 70 100
REMARK H PARENT 92 53 60 64
REMARK Flexibility Score: inf
ROOT
ATOM      1  O   UNL A   1      34.562  31.335  28.402  1.00  0.00    -0.377 OA
ENDROOT
BRANCH   1   2
ATOM      2  C   UNL A   1      33.380  31.304  27.632  1.00  0.00     0.188 C 
BRANCH   2   3
ATOM      3  C   UNL A   1      33.138  29.999  26.857  1.00  0.00     0.188 C 
BRANCH   3   4
ATOM      4  O   UNL A   1      33.072  29.989  25.438  1.00  0.00    -0.376 OA
BRANCH   4   5
ATOM      5  C   UNL A   1      31.899  29.521  24.788  1.00  0.00     0.202 C 
BRANCH   5   6
ATOM      6  C   UNL A   1      31.972  28.836  23.408  1.00  0.00     0.261 C 
BRANCH   6   7
ATOM      7  O   UNL A   1      33.118  28.006  23.131  1.00  0.00    -0.463 OA
BRANCH   7   8
ATOM      8  C   UNL A   1      33.004  26.684  23.417  1.00  0.00     0.313 C 
ATOM      9  O   UNL A   1      32.876  25.813  22.559  1.00  0.00    -0.252 OA
BRANCH   8  10
ATOM     10  C   UNL A   1      32.973  26.340  24.908  1.00  0.00     0.130 C 
ATOM     11  C   UNL A   1      34.400  26.386  25.444  1.00  0.00     0.025 C 
BRANCH  10  12
ATOM     12  C   UNL A   1      32.252  25.074  25.367  1.00  0.00     0.009 A 
ATOM     13  C   UNL A   1      30.883  25.067  25.698  1.00  0.00     0.122 A 
ATOM     14  C   UNL A   1      30.245  23.908  26.160  1.00  0.00     0.047 A 
ATOM     15  C   UNL A   1      30.954  22.713  26.262  1.00  0.00     0.016 A 
ATOM     16  C   UNL A   1      32.941  23.850  25.469  1.00  0.00     0.020 A 
ATOM     17  C   UNL A   1      32.305  22.674  25.913  1.00  0.00     0.023 A 
BRANCH  13  18
ATOM     18  O   UNL A   1      30.125  26.207  25.616  1.00  0.00    -0.496 OA
ATOM     19  C   UNL A   1      29.218  26.127  24.514  1.00  0.00     0.278 C 
ENDBRANCH  13  18
BRANCH  17  20
ATOM     20  C   UNL A   1      33.008  21.357  25.964  1.00  0.00     0.193 C 
ATOM     21  O   UNL A   1      33.806  21.114  26.864  1.00  0.00    -0.289 OA
BRANCH  20  22
ATOM     22  C   UNL A   1      32.663  20.307  24.987  1.00  0.00     0.022 A 
ATOM     23  C   UNL A   1      32.461  20.692  23.665  1.00  0.00     0.012 A 
ATOM     24  C   UNL A   1      32.663  18.954  25.348  1.00  0.00     0.012 A 
ATOM     25  C   UNL A   1      32.332  19.705  22.695  1.00  0.00     0.001 A 
ATOM     26  C   UNL A   1      32.501  17.978  24.367  1.00  0.00     0.001 A 
ATOM     27  C   UNL A   1      32.344  18.354  23.038  1.00  0.00     0.000 A 
ENDBRANCH  20  22
ENDBRANCH  17  20
ENDBRANCH  10  12
ENDBRANCH   8  10
ENDBRANCH   7   8
ENDBRANCH   6   7
ENDBRANCH   5   6
ENDBRANCH   4   5
ENDBRANCH   3   4
ENDBRANCH   2   3
ENDBRANCH   1   2
BRANCH   1  28
ATOM     28  C   UNL A   1      35.384  32.478  28.228  1.00  0.00     0.188 C 
BRANCH  28  29
ATOM     29  C   UNL A   1      36.415  32.758  29.339  1.00  0.00     0.188 C 
BRANCH  29  30
ATOM     30  O   UNL A   1      36.174  33.965  30.057  1.00  0.00    -0.376 OA
BRANCH  30  31
ATOM     31  C   UNL A   1      34.975  34.091  30.806  1.00  0.00     0.202 C 
BRANCH  31  32
ATOM     32  C   UNL A   1      34.962  33.623  32.273  1.00  0.00     0.261 C 
BRANCH  32  33
ATOM     33  O   UNL A   1      36.152  33.000  32.775  1.00  0.00    -0.460 OA
BRANCH  33  34
ATOM     34  C   UNL A   1      36.922  33.683  33.645  1.00  0.00     0.338 C 
ATOM     35  O   UNL A   1      36.626  34.717  34.225  1.00  0.00    -0.246 OA
BRANCH  34  36
ATOM     36  C   UNL A   1      38.111  32.856  33.951  1.00  0.00     0.060 A 
ATOM     37  C   UNL A   1      39.374  33.285  33.512  1.00  0.00     0.016 A 
ATOM     38  C   UNL A   1      37.984  31.667  34.669  1.00  0.00     0.016 A 
ATOM     39  C   UNL A   1      40.507  32.495  33.735  1.00  0.00     0.010 A 
ATOM     40  C   UNL A   1      39.113  30.869  34.870  1.00  0.00     0.010 A 
ATOM     41  C   UNL A   1      40.371  31.253  34.362  1.00  0.00    -0.014 A 
BRANCH  41  42
ATOM     42  C   UNL A   1      41.441  30.225  34.285  1.00  0.00     0.031 A 
ATOM     43  C   UNL A   1      42.494  30.242  35.352  1.00  0.00     0.074 A 
ATOM     44  C   UNL A   1      41.534  29.339  33.279  1.00  0.00     0.049 A 
ATOM     45  N   UNL A   1      43.619  29.585  35.410  1.00  0.00    -0.248 NA
ATOM     46  C   UNL A   1      42.224  31.092  36.525  1.00  0.00     0.031 C 
ATOM     47  C   UNL A   1      40.511  29.104  32.275  1.00  0.00     0.029 A 
ATOM     48  N   UNL A   1      42.570  28.523  32.893  1.00  0.00    -0.354 N 
ATOM     49  C   UNL A   1      44.194  29.941  36.620  1.00  0.00     0.074 A 
ATOM     50  C   UNL A   1      43.315  30.901  37.250  1.00  0.00     0.031 C 
ATOM     51  C   UNL A   1      41.022  28.341  31.293  1.00  0.00     0.029 A 
ATOM     52  C   UNL A   1      42.404  28.013  31.624  1.00  0.00     0.049 A 
ATOM     53  H   UNL A   1      43.349  28.325  33.463  1.00  0.00     0.167 HD
ATOM     54  C   UNL A   1      45.341  29.483  37.168  1.00  0.00     0.034 A 
ATOM     55  C   UNL A   1      43.277  27.381  30.814  1.00  0.00     0.034 A 
ATOM     56  C   UNL A   1      46.211  28.540  36.525  1.00  0.00     0.049 A 
ATOM     57  C   UNL A   1      44.628  27.012  31.368  1.00  0.00     0.074 A 
ATOM     58  C   UNL A   1      47.382  27.986  37.004  1.00  0.00     0.029 A 
ATOM     59  N   UNL A   1      46.017  28.033  35.249  1.00  0.00    -0.354 N 
ATOM     60  N   UNL A   1      45.125  27.272  32.554  1.00  0.00    -0.248 NA
ATOM     61  C   UNL A   1      45.507  26.198  30.517  1.00  0.00     0.031 C 
ATOM     62  C   UNL A   1      47.923  27.181  35.999  1.00  0.00     0.029 A 
ATOM     63  C   UNL A   1      47.059  27.190  34.915  1.00  0.00     0.049 A 
ATOM     64  H   UNL A   1      45.252  28.244  34.667  1.00  0.00     0.167 HD
ATOM     65  C   UNL A   1      46.326  26.577  32.625  1.00  0.00     0.074 A 
ATOM     66  C   UNL A   1      46.499  25.913  31.351  1.00  0.00     0.031 C 
ATOM     67  C   UNL A   1      47.189  26.482  33.666  1.00  0.00     0.034 A 
BRANCH  54  68
ATOM     68  C   UNL A   1      45.707  30.000  38.530  1.00  0.00     0.023 A 
ATOM     69  C   UNL A   1      45.323  29.281  39.681  1.00  0.00     0.012 A 
ATOM     70  C   UNL A   1      46.452  31.185  38.667  1.00  0.00     0.148 A 
ATOM     71  C   UNL A   1      45.643  29.757  40.951  1.00  0.00     0.002 A 
ATOM     72  C   UNL A   1      46.809  31.625  39.934  1.00  0.00     0.091 A 
ATOM     73  F   UNL A   1      46.782  31.865  37.561  1.00  0.00    -0.205 F 
ATOM     74  C   UNL A   1      46.393  30.922  41.077  1.00  0.00     0.022 A 
BRANCH  72  75
ATOM     75  S   UNL A   1      47.838  33.072  40.198  1.00  0.00     0.127 S 
ATOM     76  O   UNL A   1      46.866  34.154  40.064  1.00  0.00    -0.237 OA
ATOM     77  O   UNL A   1      48.325  32.855  41.561  1.00  0.00    -0.237 OA
ATOM     78  O   UNL A   1      48.868  33.029  39.169  1.00  0.00    -0.744 OA
ENDBRANCH  72  75
ENDBRANCH  54  68
BRANCH  55  79
ATOM     79  C   UNL A   1      42.887  27.000  29.426  1.00  0.00     0.023 A 
ATOM     80  C   UNL A   1      42.689  25.642  29.111  1.00  0.00     0.012 A 
ATOM     81  C   UNL A   1      42.720  27.970  28.416  1.00  0.00     0.148 A 
ATOM     82  C   UNL A   1      42.377  25.250  27.808  1.00  0.00     0.002 A 
ATOM     83  C   UNL A   1      42.370  27.577  27.128  1.00  0.00     0.091 A 
ATOM     84  F   UNL A   1      42.906  29.258  28.736  1.00  0.00    -0.205 F 
ATOM     85  C   UNL A   1      42.216  26.216  26.818  1.00  0.00     0.022 A 
BRANCH  83  86
ATOM     86  S   UNL A   1      42.055  28.742  25.794  1.00  0.00     0.127 S 
ATOM     87  O   UNL A   1      42.308  27.921  24.612  1.00  0.00    -0.237 OA
ATOM     88  O   UNL A   1      40.648  29.077  26.022  1.00  0.00    -0.237 OA
ATOM     89  O   UNL A   1      42.983  29.845  25.996  1.00  0.00    -0.744 OA
ENDBRANCH  83  86
ENDBRANCH  55  79
BRANCH  67  90
ATOM     90  C   UNL A   1      48.365  25.554  33.532  1.00  0.00     0.023 A 
ATOM     91  C   UNL A   1      49.591  26.021  33.026  1.00  0.00     0.012 A 
ATOM     92  C   UNL A   1      48.277  24.242  34.043  1.00  0.00     0.148 A 
ATOM     93  C   UNL A   1      50.712  25.191  33.018  1.00  0.00     0.002 A 
ATOM     94  C   UNL A   1      49.410  23.442  34.084  1.00  0.00     0.091 A 
ATOM     95  F   UNL A   1      47.091  23.815  34.503  1.00  0.00    -0.205 F 
ATOM     96  C   UNL A   1      50.626  23.910  33.563  1.00  0.00     0.022 A 
BRANCH  94  97
ATOM     97  S   UNL A   1      49.420  21.825  34.867  1.00  0.00     0.127 S 
ATOM     98  O   UNL A   1      48.099  21.312  34.506  1.00  0.00    -0.237 OA
ATOM     99  O   UNL A   1      50.537  21.166  34.190  1.00  0.00    -0.237 OA
ATOM    100  O   UNL A   1      49.624  22.062  36.290  1.00  0.00    -0.744 OA
ENDBRANCH  94  97
ENDBRANCH  67  90
ENDBRANCH  41  42
ENDBRANCH  34  36
ENDBRANCH  33  34
ENDBRANCH  32  33
ENDBRANCH  31  32
ENDBRANCH  30  31
ENDBRANCH  29  30
ENDBRANCH  28  29
ENDBRANCH   1  28
TORSDOF 27
ENDMDL
