MODEL 1
REMARK VINA RESULT:      -9.3      0.000      0.000
REMARK SMILES O=C(OCCOCCOCCOCCOC(=O)c1ccn(CC(F)(F)F)c1)c1ccc(-c2c3nc(c(-c4cccc(S(=O)(=O)[O-])c4F)c4ccc([nH]4)c(-c4cccc(S(=O)(=O)[O-])c4F)c4nc(c(-c5cccc(S(=O)(=O)[O-])c5F)c5ccc2[nH]5)C=C4)C=C3)cc1
REMARK SMILES IDX 8 1 7 2 6 3 5 4 4 5 3 6 2 7 1 8 28 9 29 10 90 11 30 12 89 13
REMARK SMILES IDX 31 14 32 15 33 16 83 17 34 18 88 19 82 20 84 21 35 22 87 23
REMARK SMILES IDX 81 24 80 25 36 27 68 28 48 29 67 30 49 31 52 32 66 33 85 34
REMARK SMILES IDX 50 35 51 36 65 38 86 39 53 40 37 41 38 42 46 43 39 44 41 45
REMARK SMILES IDX 47 46 40 47 42 48 43 49 44 50 45 51 69 52 70 53 78 54 71 55
REMARK SMILES IDX 73 56 79 57 72 58 74 59 75 60 76 61 77 62 54 63 55 64 63 65
REMARK SMILES IDX 56 66 58 67 64 68 57 69 59 70 60 71 61 72 62 73 9 74 10 75
REMARK SMILES IDX 11 76 12 77 13 78 14 79 15 80 16 81 17 82 18 83 19 84 27 85
REMARK SMILES IDX 20 86 21 87 22 88 23 89 24 90 25 91 26 92
REMARK H PARENT 84 26 52 37
REMARK Flexibility Score: inf
ROOT
ATOM      1  C   UNL A   1      40.121  20.285  26.263  1.00  0.00     0.188 C 
ENDROOT
BRANCH   1   2
ATOM      2  C   UNL A   1      41.198  20.155  27.346  1.00  0.00     0.188 C 
BRANCH   2   3
ATOM      3  O   UNL A   1      42.453  19.539  27.070  1.00  0.00    -0.376 OA
BRANCH   3   4
ATOM      4  C   UNL A   1      43.100  19.521  25.807  1.00  0.00     0.202 C 
BRANCH   4   5
ATOM      5  C   UNL A   1      44.130  20.580  25.380  1.00  0.00     0.261 C 
BRANCH   5   6
ATOM      6  O   UNL A   1      43.998  21.830  26.063  1.00  0.00    -0.460 OA
BRANCH   6   7
ATOM      7  C   UNL A   1      43.371  22.954  25.633  1.00  0.00     0.338 C 
ATOM      8  O   UNL A   1      43.045  23.042  24.453  1.00  0.00    -0.246 OA
BRANCH   7   9
ATOM      9  C   UNL A   1      43.053  24.055  26.573  1.00  0.00     0.060 A 
ATOM     10  C   UNL A   1      42.327  23.875  27.753  1.00  0.00     0.016 A 
ATOM     11  C   UNL A   1      43.550  25.326  26.264  1.00  0.00     0.016 A 
ATOM     12  C   UNL A   1      41.914  24.953  28.501  1.00  0.00     0.010 A 
ATOM     13  C   UNL A   1      43.211  26.413  27.060  1.00  0.00     0.010 A 
ATOM     14  C   UNL A   1      42.345  26.223  28.141  1.00  0.00    -0.014 A 
BRANCH  14  15
ATOM     15  C   UNL A   1      41.899  27.319  29.011  1.00  0.00     0.031 A 
ATOM     16  C   UNL A   1      42.745  27.423  30.282  1.00  0.00     0.074 A 
ATOM     17  C   UNL A   1      40.764  27.956  28.606  1.00  0.00     0.049 A 
ATOM     18  N   UNL A   1      42.400  27.766  31.488  1.00  0.00    -0.248 NA
ATOM     19  C   UNL A   1      44.147  26.920  30.241  1.00  0.00     0.031 C 
ATOM     20  C   UNL A   1      40.031  27.640  27.361  1.00  0.00     0.029 A 
ATOM     21  N   UNL A   1      39.985  28.960  29.137  1.00  0.00    -0.354 N 
ATOM     22  C   UNL A   1      43.585  27.762  32.259  1.00  0.00     0.074 A 
ATOM     23  C   UNL A   1      44.569  27.057  31.498  1.00  0.00     0.031 C 
ATOM     24  C   UNL A   1      38.913  28.384  27.261  1.00  0.00     0.029 A 
ATOM     25  C   UNL A   1      38.822  29.278  28.399  1.00  0.00     0.049 A 
ATOM     26  H   UNL A   1      40.222  29.424  29.972  1.00  0.00     0.167 HD
ATOM     27  C   UNL A   1      43.741  28.494  33.399  1.00  0.00     0.034 A 
ATOM     28  C   UNL A   1      37.832  30.176  28.687  1.00  0.00     0.034 A 
ATOM     29  C   UNL A   1      42.566  29.267  33.650  1.00  0.00     0.049 A 
ATOM     30  C   UNL A   1      38.265  30.890  29.902  1.00  0.00     0.074 A 
ATOM     31  C   UNL A   1      41.348  28.996  34.211  1.00  0.00     0.029 A 
ATOM     32  N   UNL A   1      42.510  30.481  33.008  1.00  0.00    -0.354 N 
ATOM     33  N   UNL A   1      39.239  31.751  29.943  1.00  0.00    -0.248 NA
ATOM     34  C   UNL A   1      37.663  30.537  31.194  1.00  0.00     0.031 C 
ATOM     35  C   UNL A   1      40.468  29.929  33.615  1.00  0.00     0.029 A 
ATOM     36  C   UNL A   1      41.190  30.771  32.761  1.00  0.00     0.049 A 
ATOM     37  H   UNL A   1      43.281  31.045  32.768  1.00  0.00     0.167 HD
ATOM     38  C   UNL A   1      39.586  31.746  31.274  1.00  0.00     0.074 A 
ATOM     39  C   UNL A   1      38.426  31.276  31.994  1.00  0.00     0.031 C 
ATOM     40  C   UNL A   1      40.891  31.632  31.634  1.00  0.00     0.034 A 
BRANCH  27  41
ATOM     41  C   UNL A   1      44.947  28.805  34.254  1.00  0.00     0.023 A 
ATOM     42  C   UNL A   1      44.857  28.394  35.614  1.00  0.00     0.012 A 
ATOM     43  C   UNL A   1      46.011  29.659  33.913  1.00  0.00     0.148 A 
ATOM     44  C   UNL A   1      45.716  28.873  36.602  1.00  0.00     0.002 A 
ATOM     45  C   UNL A   1      46.904  30.095  34.899  1.00  0.00     0.091 A 
ATOM     46  F   UNL A   1      46.112  30.128  32.666  1.00  0.00    -0.205 F 
ATOM     47  C   UNL A   1      46.739  29.731  36.243  1.00  0.00     0.022 A 
BRANCH  45  48
ATOM     48  S   UNL A   1      48.318  31.141  34.525  1.00  0.00     0.127 S 
ATOM     49  O   UNL A   1      48.832  30.535  33.300  1.00  0.00    -0.237 OA
ATOM     50  O   UNL A   1      47.691  32.452  34.334  1.00  0.00    -0.237 OA
ATOM     51  O   UNL A   1      49.173  31.066  35.701  1.00  0.00    -0.744 OA
ENDBRANCH  45  48
ENDBRANCH  27  41
BRANCH  28  52
ATOM     52  C   UNL A   1      36.459  30.469  28.128  1.00  0.00     0.023 A 
ATOM     53  C   UNL A   1      35.574  29.483  27.664  1.00  0.00     0.012 A 
ATOM     54  C   UNL A   1      35.958  31.801  28.114  1.00  0.00     0.148 A 
ATOM     55  C   UNL A   1      34.241  29.784  27.328  1.00  0.00     0.002 A 
ATOM     56  C   UNL A   1      34.616  32.087  27.882  1.00  0.00     0.091 A 
ATOM     57  F   UNL A   1      36.796  32.828  28.293  1.00  0.00    -0.205 F 
ATOM     58  C   UNL A   1      33.748  31.076  27.480  1.00  0.00     0.022 A 
BRANCH  56  59
ATOM     59  S   UNL A   1      33.916  33.710  28.230  1.00  0.00     0.127 S 
ATOM     60  O   UNL A   1      34.155  33.850  29.664  1.00  0.00    -0.237 OA
ATOM     61  O   UNL A   1      34.742  34.572  27.382  1.00  0.00    -0.237 OA
ATOM     62  O   UNL A   1      32.515  33.645  27.835  1.00  0.00    -0.744 OA
ENDBRANCH  56  59
ENDBRANCH  28  52
BRANCH  40  63
ATOM     63  C   UNL A   1      41.873  32.111  30.563  1.00  0.00     0.023 A 
ATOM     64  C   UNL A   1      42.582  31.134  29.838  1.00  0.00     0.012 A 
ATOM     65  C   UNL A   1      42.224  33.462  30.333  1.00  0.00     0.148 A 
ATOM     66  C   UNL A   1      43.604  31.481  28.948  1.00  0.00     0.002 A 
ATOM     67  C   UNL A   1      43.254  33.812  29.458  1.00  0.00     0.091 A 
ATOM     68  F   UNL A   1      41.542  34.406  30.971  1.00  0.00    -0.205 F 
ATOM     69  C   UNL A   1      43.944  32.816  28.761  1.00  0.00     0.022 A 
BRANCH  67  70
ATOM     70  S   UNL A   1      43.819  35.506  29.198  1.00  0.00     0.127 S 
ATOM     71  O   UNL A   1      42.560  36.237  29.039  1.00  0.00    -0.237 OA
ATOM     72  O   UNL A   1      44.524  35.788  30.445  1.00  0.00    -0.237 OA
ATOM     73  O   UNL A   1      44.649  35.491  28.000  1.00  0.00    -0.744 OA
ENDBRANCH  67  70
ENDBRANCH  40  63
ENDBRANCH  14  15
ENDBRANCH   7   9
ENDBRANCH   6   7
ENDBRANCH   5   6
ENDBRANCH   4   5
ENDBRANCH   3   4
ENDBRANCH   2   3
ENDBRANCH   1   2
BRANCH   1  74
ATOM     74  O   UNL A   1      39.781  21.620  25.917  1.00  0.00    -0.377 OA
BRANCH  74  75
ATOM     75  C   UNL A   1      38.404  21.848  25.688  1.00  0.00     0.188 C 
BRANCH  75  76
ATOM     76  C   UNL A   1      37.889  23.233  26.126  1.00  0.00     0.188 C 
BRANCH  76  77
ATOM     77  O   UNL A   1      36.795  23.884  25.481  1.00  0.00    -0.376 OA
BRANCH  77  78
ATOM     78  C   UNL A   1      35.464  23.518  25.800  1.00  0.00     0.202 C 
BRANCH  78  79
ATOM     79  C   UNL A   1      34.426  24.258  24.945  1.00  0.00     0.261 C 
BRANCH  79  80
ATOM     80  O   UNL A   1      33.086  23.745  25.054  1.00  0.00    -0.460 OA
BRANCH  80  81
ATOM     81  C   UNL A   1      32.653  22.979  24.010  1.00  0.00     0.339 C 
ATOM     82  O   UNL A   1      32.361  23.395  22.895  1.00  0.00    -0.246 OA
BRANCH  81  83
ATOM     83  C   UNL A   1      32.677  21.553  24.337  1.00  0.00     0.077 A 
ATOM     84  C   UNL A   1      32.923  20.919  25.587  1.00  0.00     0.035 A 
ATOM     85  C   UNL A   1      32.528  20.527  23.415  1.00  0.00     0.101 A 
ATOM     86  C   UNL A   1      32.908  19.555  25.384  1.00  0.00     0.087 A 
ATOM     87  N   UNL A   1      32.742  19.327  24.045  1.00  0.00    -0.344 N 
BRANCH  87  88
ATOM     88  C   UNL A   1      32.749  18.049  23.355  1.00  0.00     0.236 C 
BRANCH  88  89
ATOM     89  C   UNL A   1      33.859  17.086  23.723  1.00  0.00     0.406 C 
ATOM     90  F   UNL A   1      35.010  17.724  24.031  1.00  0.00    -0.169 F 
ATOM     91  F   UNL A   1      33.502  16.375  24.822  1.00  0.00    -0.169 F 
ATOM     92  F   UNL A   1      34.116  16.196  22.742  1.00  0.00    -0.169 F 
ENDBRANCH  88  89
ENDBRANCH  87  88
ENDBRANCH  81  83
ENDBRANCH  80  81
ENDBRANCH  79  80
ENDBRANCH  78  79
ENDBRANCH  77  78
ENDBRANCH  76  77
ENDBRANCH  75  76
ENDBRANCH  74  75
ENDBRANCH   1  74
TORSDOF 25
ENDMDL
MODEL 2
REMARK VINA RESULT:      -9.2      2.995      3.824
REMARK SMILES O=C(OCCOCCOCCOCCOC(=O)c1ccn(CC(F)(F)F)c1)c1ccc(-c2c3nc(c(-c4cccc(S(=O)(=O)[O-])c4F)c4ccc([nH]4)c(-c4cccc(S(=O)(=O)[O-])c4F)c4nc(c(-c5cccc(S(=O)(=O)[O-])c5F)c5ccc2[nH]5)C=C4)C=C3)cc1
REMARK SMILES IDX 8 1 7 2 6 3 5 4 4 5 3 6 2 7 1 8 28 9 29 10 90 11 30 12 89 13
REMARK SMILES IDX 31 14 32 15 33 16 83 17 34 18 88 19 82 20 84 21 35 22 87 23
REMARK SMILES IDX 81 24 80 25 36 27 68 28 48 29 67 30 49 31 52 32 66 33 85 34
REMARK SMILES IDX 50 35 51 36 65 38 86 39 53 40 37 41 38 42 46 43 39 44 41 45
REMARK SMILES IDX 47 46 40 47 42 48 43 49 44 50 45 51 69 52 70 53 78 54 71 55
REMARK SMILES IDX 73 56 79 57 72 58 74 59 75 60 76 61 77 62 54 63 55 64 63 65
REMARK SMILES IDX 56 66 58 67 64 68 57 69 59 70 60 71 61 72 62 73 9 74 10 75
REMARK SMILES IDX 11 76 12 77 13 78 14 79 15 80 16 81 17 82 18 83 19 84 27 85
REMARK SMILES IDX 20 86 21 87 22 88 23 89 24 90 25 91 26 92
REMARK H PARENT 84 26 52 37
REMARK Flexibility Score: inf
ROOT
ATOM      1  C   UNL A   1      39.914  21.408  26.352  1.00  0.00     0.188 C 
ENDROOT
BRANCH   1   2
ATOM      2  C   UNL A   1      40.885  21.018  27.473  1.00  0.00     0.188 C 
BRANCH   2   3
ATOM      3  O   UNL A   1      42.146  20.419  27.183  1.00  0.00    -0.376 OA
BRANCH   3   4
ATOM      4  C   UNL A   1      42.730  20.318  25.894  1.00  0.00     0.202 C 
BRANCH   4   5
ATOM      5  C   UNL A   1      44.068  20.982  25.528  1.00  0.00     0.261 C 
BRANCH   5   6
ATOM      6  O   UNL A   1      44.219  22.309  26.039  1.00  0.00    -0.460 OA
BRANCH   6   7
ATOM      7  C   UNL A   1      43.583  23.437  25.635  1.00  0.00     0.338 C 
ATOM      8  O   UNL A   1      43.295  23.568  24.449  1.00  0.00    -0.246 OA
BRANCH   7   9
ATOM      9  C   UNL A   1      43.213  24.492  26.607  1.00  0.00     0.060 A 
ATOM     10  C   UNL A   1      42.531  24.236  27.799  1.00  0.00     0.016 A 
ATOM     11  C   UNL A   1      43.610  25.802  26.316  1.00  0.00     0.016 A 
ATOM     12  C   UNL A   1      42.062  25.265  28.581  1.00  0.00     0.010 A 
ATOM     13  C   UNL A   1      43.215  26.845  27.145  1.00  0.00     0.010 A 
ATOM     14  C   UNL A   1      42.392  26.570  28.242  1.00  0.00    -0.014 A 
BRANCH  14  15
ATOM     15  C   UNL A   1      41.892  27.613  29.147  1.00  0.00     0.031 A 
ATOM     16  C   UNL A   1      42.685  27.665  30.455  1.00  0.00     0.074 A 
ATOM     17  C   UNL A   1      40.762  28.251  28.729  1.00  0.00     0.049 A 
ATOM     18  N   UNL A   1      42.286  27.940  31.662  1.00  0.00    -0.248 NA
ATOM     19  C   UNL A   1      44.095  27.188  30.445  1.00  0.00     0.031 C 
ATOM     20  C   UNL A   1      40.086  27.988  27.441  1.00  0.00     0.029 A 
ATOM     21  N   UNL A   1      39.945  29.214  29.277  1.00  0.00    -0.354 N 
ATOM     22  C   UNL A   1      43.439  27.916  32.479  1.00  0.00     0.074 A 
ATOM     23  C   UNL A   1      44.465  27.267  31.724  1.00  0.00     0.031 C 
ATOM     24  C   UNL A   1      38.959  28.717  27.333  1.00  0.00     0.029 A 
ATOM     25  C   UNL A   1      38.806  29.550  28.510  1.00  0.00     0.049 A 
ATOM     26  H   UNL A   1      40.139  29.638  30.144  1.00  0.00     0.167 HD
ATOM     27  C   UNL A   1      43.535  28.591  33.660  1.00  0.00     0.034 A 
ATOM     28  C   UNL A   1      37.789  30.416  28.803  1.00  0.00     0.034 A 
ATOM     29  C   UNL A   1      42.337  29.330  33.902  1.00  0.00     0.049 A 
ATOM     30  C   UNL A   1      38.160  31.073  30.068  1.00  0.00     0.074 A 
ATOM     31  C   UNL A   1      41.103  29.011  34.398  1.00  0.00     0.029 A 
ATOM     32  N   UNL A   1      42.284  30.575  33.320  1.00  0.00    -0.354 N 
ATOM     33  N   UNL A   1      39.116  31.947  30.193  1.00  0.00    -0.248 NA
ATOM     34  C   UNL A   1      37.514  30.645  31.315  1.00  0.00     0.031 C 
ATOM     35  C   UNL A   1      40.231  29.959  33.815  1.00  0.00     0.029 A 
ATOM     36  C   UNL A   1      40.970  30.855  33.034  1.00  0.00     0.049 A 
ATOM     37  H   UNL A   1      43.054  31.163  33.141  1.00  0.00     0.167 HD
ATOM     38  C   UNL A   1      39.409  31.879  31.535  1.00  0.00     0.074 A 
ATOM     39  C   UNL A   1      38.230  31.354  32.182  1.00  0.00     0.031 C 
ATOM     40  C   UNL A   1      40.701  31.768  31.942  1.00  0.00     0.034 A 
BRANCH  27  41
ATOM     41  C   UNL A   1      44.700  28.877  34.578  1.00  0.00     0.023 A 
ATOM     42  C   UNL A   1      44.511  28.513  35.941  1.00  0.00     0.012 A 
ATOM     43  C   UNL A   1      45.820  29.675  34.279  1.00  0.00     0.148 A 
ATOM     44  C   UNL A   1      45.330  28.986  36.966  1.00  0.00     0.002 A 
ATOM     45  C   UNL A   1      46.670  30.103  35.305  1.00  0.00     0.091 A 
ATOM     46  F   UNL A   1      46.016  30.100  33.027  1.00  0.00    -0.205 F 
ATOM     47  C   UNL A   1      46.409  29.788  36.647  1.00  0.00     0.022 A 
BRANCH  45  48
ATOM     48  S   UNL A   1      48.148  31.076  34.988  1.00  0.00     0.127 S 
ATOM     49  O   UNL A   1      48.615  31.374  36.340  1.00  0.00    -0.237 OA
ATOM     50  O   UNL A   1      48.990  30.129  34.253  1.00  0.00    -0.237 OA
ATOM     51  O   UNL A   1      47.699  32.207  34.187  1.00  0.00    -0.744 OA
ENDBRANCH  45  48
ENDBRANCH  27  41
BRANCH  28  52
ATOM     52  C   UNL A   1      36.435  30.714  28.203  1.00  0.00     0.023 A 
ATOM     53  C   UNL A   1      35.559  29.733  27.714  1.00  0.00     0.012 A 
ATOM     54  C   UNL A   1      35.940  32.050  28.174  1.00  0.00     0.148 A 
ATOM     55  C   UNL A   1      34.238  30.040  27.339  1.00  0.00     0.002 A 
ATOM     56  C   UNL A   1      34.607  32.341  27.903  1.00  0.00     0.091 A 
ATOM     57  F   UNL A   1      36.777  33.072  28.376  1.00  0.00    -0.205 F 
ATOM     58  C   UNL A   1      33.746  31.334  27.477  1.00  0.00     0.022 A 
BRANCH  56  59
ATOM     59  S   UNL A   1      33.905  33.968  28.229  1.00  0.00     0.127 S 
ATOM     60  O   UNL A   1      34.644  34.817  27.298  1.00  0.00    -0.237 OA
ATOM     61  O   UNL A   1      32.499  33.754  27.884  1.00  0.00    -0.237 OA
ATOM     62  O   UNL A   1      34.141  34.240  29.641  1.00  0.00    -0.744 OA
ENDBRANCH  56  59
ENDBRANCH  28  52
BRANCH  40  63
ATOM     63  C   UNL A   1      41.716  32.318  30.937  1.00  0.00     0.023 A 
ATOM     64  C   UNL A   1      42.468  31.391  30.190  1.00  0.00     0.012 A 
ATOM     65  C   UNL A   1      42.054  33.683  30.794  1.00  0.00     0.148 A 
ATOM     66  C   UNL A   1      43.517  31.799  29.360  1.00  0.00     0.002 A 
ATOM     67  C   UNL A   1      43.112  34.094  29.980  1.00  0.00     0.091 A 
ATOM     68  F   UNL A   1      41.334  34.583  31.453  1.00  0.00    -0.205 F 
ATOM     69  C   UNL A   1      43.844  33.147  29.258  1.00  0.00     0.022 A 
BRANCH  67  70
ATOM     70  S   UNL A   1      43.660  35.807  29.833  1.00  0.00     0.127 S 
ATOM     71  O   UNL A   1      43.553  36.291  31.211  1.00  0.00    -0.237 OA
ATOM     72  O   UNL A   1      45.031  35.650  29.356  1.00  0.00    -0.237 OA
ATOM     73  O   UNL A   1      42.745  36.460  28.905  1.00  0.00    -0.744 OA
ENDBRANCH  67  70
ENDBRANCH  40  63
ENDBRANCH  14  15
ENDBRANCH   7   9
ENDBRANCH   6   7
ENDBRANCH   5   6
ENDBRANCH   4   5
ENDBRANCH   3   4
ENDBRANCH   2   3
ENDBRANCH   1   2
BRANCH   1  74
ATOM     74  O   UNL A   1      39.507  22.769  26.361  1.00  0.00    -0.377 OA
BRANCH  74  75
ATOM     75  C   UNL A   1      38.173  22.999  25.952  1.00  0.00     0.188 C 
BRANCH  75  76
ATOM     76  C   UNL A   1      37.547  21.875  25.102  1.00  0.00     0.188 C 
BRANCH  76  77
ATOM     77  O   UNL A   1      36.212  21.946  24.601  1.00  0.00    -0.376 OA
BRANCH  77  78
ATOM     78  C   UNL A   1      35.855  22.957  23.675  1.00  0.00     0.202 C 
BRANCH  78  79
ATOM     79  C   UNL A   1      34.463  23.543  23.947  1.00  0.00     0.261 C 
BRANCH  79  80
ATOM     80  O   UNL A   1      34.401  24.980  23.911  1.00  0.00    -0.460 OA
BRANCH  80  81
ATOM     81  C   UNL A   1      33.739  25.523  22.848  1.00  0.00     0.339 C 
ATOM     82  O   UNL A   1      33.538  24.966  21.775  1.00  0.00    -0.246 OA
BRANCH  81  83
ATOM     83  C   UNL A   1      33.184  26.839  23.169  1.00  0.00     0.077 A 
ATOM     84  C   UNL A   1      33.851  28.012  23.618  1.00  0.00     0.035 A 
ATOM     85  C   UNL A   1      31.833  27.150  23.157  1.00  0.00     0.101 A 
ATOM     86  C   UNL A   1      32.898  28.981  23.853  1.00  0.00     0.087 A 
ATOM     87  N   UNL A   1      31.665  28.423  23.641  1.00  0.00    -0.344 N 
BRANCH  87  88
ATOM     88  C   UNL A   1      30.366  29.039  23.847  1.00  0.00     0.236 C 
BRANCH  88  89
ATOM     89  C   UNL A   1      29.746  29.729  22.649  1.00  0.00     0.406 C 
ATOM     90  F   UNL A   1      29.254  30.949  22.957  1.00  0.00    -0.169 F 
ATOM     91  F   UNL A   1      30.688  29.920  21.692  1.00  0.00    -0.169 F 
ATOM     92  F   UNL A   1      28.756  29.001  22.091  1.00  0.00    -0.169 F 
ENDBRANCH  88  89
ENDBRANCH  87  88
ENDBRANCH  81  83
ENDBRANCH  80  81
ENDBRANCH  79  80
ENDBRANCH  78  79
ENDBRANCH  77  78
ENDBRANCH  76  77
ENDBRANCH  75  76
ENDBRANCH  74  75
ENDBRANCH   1  74
TORSDOF 25
ENDMDL
MODEL 3
REMARK VINA RESULT:      -9.1      2.741      3.464
REMARK SMILES O=C(OCCOCCOCCOCCOC(=O)c1ccn(CC(F)(F)F)c1)c1ccc(-c2c3nc(c(-c4cccc(S(=O)(=O)[O-])c4F)c4ccc([nH]4)c(-c4cccc(S(=O)(=O)[O-])c4F)c4nc(c(-c5cccc(S(=O)(=O)[O-])c5F)c5ccc2[nH]5)C=C4)C=C3)cc1
REMARK SMILES IDX 8 1 7 2 6 3 5 4 4 5 3 6 2 7 1 8 28 9 29 10 90 11 30 12 89 13
REMARK SMILES IDX 31 14 32 15 33 16 83 17 34 18 88 19 82 20 84 21 35 22 87 23
REMARK SMILES IDX 81 24 80 25 36 27 68 28 48 29 67 30 49 31 52 32 66 33 85 34
REMARK SMILES IDX 50 35 51 36 65 38 86 39 53 40 37 41 38 42 46 43 39 44 41 45
REMARK SMILES IDX 47 46 40 47 42 48 43 49 44 50 45 51 69 52 70 53 78 54 71 55
REMARK SMILES IDX 73 56 79 57 72 58 74 59 75 60 76 61 77 62 54 63 55 64 63 65
REMARK SMILES IDX 56 66 58 67 64 68 57 69 59 70 60 71 61 72 62 73 9 74 10 75
REMARK SMILES IDX 11 76 12 77 13 78 14 79 15 80 16 81 17 82 18 83 19 84 27 85
REMARK SMILES IDX 20 86 21 87 22 88 23 89 24 90 25 91 26 92
REMARK H PARENT 84 26 52 37
REMARK Flexibility Score: inf
ROOT
ATOM      1  C   UNL A   1      39.644  21.373  26.134  1.00  0.00     0.188 C 
ENDROOT
BRANCH   1   2
ATOM      2  C   UNL A   1      40.606  21.369  27.327  1.00  0.00     0.188 C 
BRANCH   2   3
ATOM      3  O   UNL A   1      41.909  20.802  27.225  1.00  0.00    -0.376 OA
BRANCH   3   4
ATOM      4  C   UNL A   1      42.568  20.471  26.013  1.00  0.00     0.202 C 
BRANCH   4   5
ATOM      5  C   UNL A   1      43.949  21.029  25.632  1.00  0.00     0.261 C 
BRANCH   5   6
ATOM      6  O   UNL A   1      44.214  22.335  26.151  1.00  0.00    -0.460 OA
BRANCH   6   7
ATOM      7  C   UNL A   1      43.702  23.520  25.732  1.00  0.00     0.338 C 
ATOM      8  O   UNL A   1      43.571  23.721  24.528  1.00  0.00    -0.246 OA
BRANCH   7   9
ATOM      9  C   UNL A   1      43.277  24.553  26.706  1.00  0.00     0.060 A 
ATOM     10  C   UNL A   1      42.492  24.277  27.828  1.00  0.00     0.016 A 
ATOM     11  C   UNL A   1      43.731  25.860  26.493  1.00  0.00     0.016 A 
ATOM     12  C   UNL A   1      41.985  25.293  28.603  1.00  0.00     0.010 A 
ATOM     13  C   UNL A   1      43.293  26.885  27.323  1.00  0.00     0.010 A 
ATOM     14  C   UNL A   1      42.375  26.599  28.337  1.00  0.00    -0.014 A 
BRANCH  14  15
ATOM     15  C   UNL A   1      41.827  27.626  29.234  1.00  0.00     0.031 A 
ATOM     16  C   UNL A   1      42.589  27.695  30.559  1.00  0.00     0.074 A 
ATOM     17  C   UNL A   1      40.690  28.234  28.792  1.00  0.00     0.049 A 
ATOM     18  N   UNL A   1      42.156  27.956  31.757  1.00  0.00    -0.248 NA
ATOM     19  C   UNL A   1      44.012  27.257  30.579  1.00  0.00     0.031 C 
ATOM     20  C   UNL A   1      40.049  27.956  27.488  1.00  0.00     0.029 A 
ATOM     21  N   UNL A   1      39.835  29.173  29.324  1.00  0.00    -0.354 N 
ATOM     22  C   UNL A   1      43.291  27.961  32.600  1.00  0.00     0.074 A 
ATOM     23  C   UNL A   1      44.351  27.342  31.867  1.00  0.00     0.031 C 
ATOM     24  C   UNL A   1      38.906  28.655  27.357  1.00  0.00     0.029 A 
ATOM     25  C   UNL A   1      38.705  29.481  28.533  1.00  0.00     0.049 A 
ATOM     26  H   UNL A   1      39.999  29.600  30.196  1.00  0.00     0.167 HD
ATOM     27  C   UNL A   1      43.343  28.635  33.784  1.00  0.00     0.034 A 
ATOM     28  C   UNL A   1      37.659  30.318  28.804  1.00  0.00     0.034 A 
ATOM     29  C   UNL A   1      42.121  29.341  34.001  1.00  0.00     0.049 A 
ATOM     30  C   UNL A   1      37.984  30.982  30.079  1.00  0.00     0.074 A 
ATOM     31  C   UNL A   1      40.885  28.988  34.468  1.00  0.00     0.029 A 
ATOM     32  N   UNL A   1      42.047  30.586  33.421  1.00  0.00    -0.354 N 
ATOM     33  N   UNL A   1      38.913  31.880  30.226  1.00  0.00    -0.248 NA
ATOM     34  C   UNL A   1      37.322  30.532  31.311  1.00  0.00     0.031 C 
ATOM     35  C   UNL A   1      40.001  29.913  33.868  1.00  0.00     0.029 A 
ATOM     36  C   UNL A   1      40.733  30.832  33.106  1.00  0.00     0.049 A 
ATOM     37  H   UNL A   1      42.805  31.195  33.260  1.00  0.00     0.167 HD
ATOM     38  C   UNL A   1      39.178  31.817  31.575  1.00  0.00     0.074 A 
ATOM     39  C   UNL A   1      38.000  31.259  32.194  1.00  0.00     0.031 C 
ATOM     40  C   UNL A   1      40.463  31.740  32.009  1.00  0.00     0.034 A 
BRANCH  27  41
ATOM     41  C   UNL A   1      44.480  28.951  34.728  1.00  0.00     0.023 A 
ATOM     42  C   UNL A   1      45.597  29.610  34.143  1.00  0.00     0.012 A 
ATOM     43  C   UNL A   1      44.645  28.446  36.031  1.00  0.00     0.148 A 
ATOM     44  C   UNL A   1      46.839  29.687  34.773  1.00  0.00     0.002 A 
ATOM     45  C   UNL A   1      45.878  28.573  36.680  1.00  0.00     0.091 A 
ATOM     46  F   UNL A   1      43.652  27.763  36.608  1.00  0.00    -0.205 F 
ATOM     47  C   UNL A   1      46.980  29.161  36.043  1.00  0.00     0.022 A 
BRANCH  45  48
ATOM     48  S   UNL A   1      46.143  28.002  38.365  1.00  0.00     0.127 S 
ATOM     49  O   UNL A   1      45.183  28.805  39.116  1.00  0.00    -0.237 OA
ATOM     50  O   UNL A   1      45.798  26.581  38.267  1.00  0.00    -0.237 OA
ATOM     51  O   UNL A   1      47.554  28.245  38.636  1.00  0.00    -0.744 OA
ENDBRANCH  45  48
ENDBRANCH  27  41
BRANCH  28  52
ATOM     52  C   UNL A   1      36.311  30.581  28.176  1.00  0.00     0.023 A 
ATOM     53  C   UNL A   1      35.476  29.579  27.658  1.00  0.00     0.012 A 
ATOM     54  C   UNL A   1      35.777  31.901  28.146  1.00  0.00     0.148 A 
ATOM     55  C   UNL A   1      34.155  29.849  27.254  1.00  0.00     0.002 A 
ATOM     56  C   UNL A   1      34.442  32.155  27.846  1.00  0.00     0.091 A 
ATOM     57  F   UNL A   1      36.578  32.947  28.376  1.00  0.00    -0.205 F 
ATOM     58  C   UNL A   1      33.622  31.127  27.391  1.00  0.00     0.022 A 
BRANCH  56  59
ATOM     59  S   UNL A   1      33.685  33.757  28.169  1.00  0.00     0.127 S 
ATOM     60  O   UNL A   1      33.751  33.844  29.626  1.00  0.00    -0.237 OA
ATOM     61  O   UNL A   1      34.591  34.659  27.456  1.00  0.00    -0.237 OA
ATOM     62  O   UNL A   1      32.340  33.694  27.610  1.00  0.00    -0.744 OA
ENDBRANCH  56  59
ENDBRANCH  28  52
BRANCH  40  63
ATOM     63  C   UNL A   1      41.485  32.319  31.029  1.00  0.00     0.023 A 
ATOM     64  C   UNL A   1      42.167  31.421  30.185  1.00  0.00     0.012 A 
ATOM     65  C   UNL A   1      41.896  33.672  30.993  1.00  0.00     0.148 A 
ATOM     66  C   UNL A   1      43.219  31.843  29.365  1.00  0.00     0.002 A 
ATOM     67  C   UNL A   1      42.957  34.094  30.190  1.00  0.00     0.091 A 
ATOM     68  F   UNL A   1      41.242  34.548  31.747  1.00  0.00    -0.205 F 
ATOM     69  C   UNL A   1      43.618  33.175  29.371  1.00  0.00     0.022 A 
BRANCH  67  70
ATOM     70  S   UNL A   1      43.596  35.782  30.176  1.00  0.00     0.127 S 
ATOM     71  O   UNL A   1      42.664  36.464  29.276  1.00  0.00    -0.237 OA
ATOM     72  O   UNL A   1      43.469  36.168  31.578  1.00  0.00    -0.237 OA
ATOM     73  O   UNL A   1      44.960  35.707  29.668  1.00  0.00    -0.744 OA
ENDBRANCH  67  70
ENDBRANCH  40  63
ENDBRANCH  14  15
ENDBRANCH   7   9
ENDBRANCH   6   7
ENDBRANCH   5   6
ENDBRANCH   4   5
ENDBRANCH   3   4
ENDBRANCH   2   3
ENDBRANCH   1   2
BRANCH   1  74
ATOM     74  O   UNL A   1      38.913  22.577  25.959  1.00  0.00    -0.377 OA
BRANCH  74  75
ATOM     75  C   UNL A   1      37.517  22.414  25.800  1.00  0.00     0.188 C 
BRANCH  75  76
ATOM     76  C   UNL A   1      37.090  21.163  25.008  1.00  0.00     0.188 C 
BRANCH  76  77
ATOM     77  O   UNL A   1      35.900  20.435  25.306  1.00  0.00    -0.376 OA
BRANCH  77  78
ATOM     78  C   UNL A   1      34.637  20.956  24.931  1.00  0.00     0.202 C 
BRANCH  78  79
ATOM     79  C   UNL A   1      33.616  20.915  26.077  1.00  0.00     0.261 C 
BRANCH  79  80
ATOM     80  O   UNL A   1      32.360  21.551  25.781  1.00  0.00    -0.460 OA
BRANCH  80  81
ATOM     81  C   UNL A   1      32.062  22.658  26.523  1.00  0.00     0.339 C 
ATOM     82  O   UNL A   1      32.285  22.794  27.720  1.00  0.00    -0.246 OA
BRANCH  81  83
ATOM     83  C   UNL A   1      31.529  23.740  25.693  1.00  0.00     0.077 A 
ATOM     84  C   UNL A   1      31.087  23.704  24.341  1.00  0.00     0.035 A 
ATOM     85  C   UNL A   1      31.434  25.066  26.090  1.00  0.00     0.101 A 
ATOM     86  C   UNL A   1      30.738  24.987  23.973  1.00  0.00     0.087 A 
ATOM     87  N   UNL A   1      31.023  25.821  25.020  1.00  0.00    -0.344 N 
BRANCH  87  88
ATOM     88  C   UNL A   1      30.901  27.268  25.060  1.00  0.00     0.236 C 
BRANCH  88  89
ATOM     89  C   UNL A   1      32.027  28.061  24.429  1.00  0.00     0.406 C 
ATOM     90  F   UNL A   1      31.992  28.016  23.079  1.00  0.00    -0.169 F 
ATOM     91  F   UNL A   1      31.918  29.368  24.778  1.00  0.00    -0.169 F 
ATOM     92  F   UNL A   1      33.243  27.643  24.836  1.00  0.00    -0.169 F 
ENDBRANCH  88  89
ENDBRANCH  87  88
ENDBRANCH  81  83
ENDBRANCH  80  81
ENDBRANCH  79  80
ENDBRANCH  78  79
ENDBRANCH  77  78
ENDBRANCH  76  77
ENDBRANCH  75  76
ENDBRANCH  74  75
ENDBRANCH   1  74
TORSDOF 25
ENDMDL
