MODEL 1
REMARK VINA RESULT:      -8.5      0.000      0.000
REMARK SMILES CC(C)C[C@H](NC(=O)[C@H](C)NC(=O)[C@@H](NC(=O)CNC(=O)OCc1ccccc1)C(C)C)C(=O)OCCOCCOCCOCCOC(=O)c1ccc(-c2c3nc(c(-c4cccc(S(=O)(=O)[O-])c4F)c4ccc([nH]4)c(-c4cccc(S(=O)(=O)[O-])c4F)c4nc(c(-c5cccc(S(=O)(=O)[O-])c5F)c5ccc2[nH]5)C=C4)C=C3)cc1
REMARK SMILES IDX 37 1 36 2 35 3 33 4 34 5 5 6 4 7 2 8 1 9 3 10 6 11 7 12 8 14
REMARK SMILES IDX 9 15 10 16 11 17 12 18 13 20 14 21 15 22 16 23 17 25 18 26
REMARK SMILES IDX 19 27 20 28 21 30 22 31 23 32 24 33 25 34 29 35 26 36 28 37
REMARK SMILES IDX 27 38 30 39 31 40 32 41 38 42 39 43 40 44 41 45 42 46 43 47
REMARK SMILES IDX 44 48 45 49 46 50 47 51 48 52 49 53 50 54 51 55 112 56 52 57
REMARK SMILES IDX 111 58 53 59 54 60 55 61 105 62 56 63 110 64 104 65 106 66
REMARK SMILES IDX 57 67 109 68 103 69 102 70 58 72 90 73 70 74 89 75 71 76
REMARK SMILES IDX 74 77 88 78 107 79 72 80 73 81 87 83 108 84 75 85 59 86
REMARK SMILES IDX 60 87 68 88 61 89 63 90 69 91 62 92 64 93 65 94 66 95 67 96
REMARK SMILES IDX 91 97 92 98 100 99 93 100 95 101 101 102 94 103 96 104
REMARK SMILES IDX 97 105 98 106 99 107 76 108 77 109 85 110 78 111 80 112
REMARK SMILES IDX 86 113 79 114 81 115 82 116 83 117 84 118
REMARK H PARENT 6 13 11 19 15 24 19 29 106 71 74 82
REMARK Flexibility Score: inf
ROOT
ATOM      1  C   UNL A   1      36.739  22.733  23.470  1.00  0.00     0.202 C 
ENDROOT
BRANCH   1   2
ATOM      2  C   UNL A   1      35.263  22.866  23.871  1.00  0.00     0.261 C 
BRANCH   2   3
ATOM      3  O   UNL A   1      34.501  23.960  23.360  1.00  0.00    -0.462 OA
BRANCH   3   4
ATOM      4  C   UNL A   1      33.402  23.708  22.611  1.00  0.00     0.328 C 
ATOM      5  O   UNL A   1      33.410  23.499  21.406  1.00  0.00    -0.250 OA
BRANCH   4   6
ATOM      6  C   UNL A   1      32.136  23.852  23.465  1.00  0.00     0.192 C 
BRANCH   6   7
ATOM      7  C   UNL A   1      31.623  22.445  23.822  1.00  0.00     0.040 C 
BRANCH   7   8
ATOM      8  C   UNL A   1      31.721  21.875  25.263  1.00  0.00    -0.015 C 
ATOM      9  C   UNL A   1      32.661  20.684  25.420  1.00  0.00     0.007 C 
ATOM     10  C   UNL A   1      32.205  22.987  26.209  1.00  0.00     0.007 C 
ENDBRANCH   7   8
ENDBRANCH   6   7
BRANCH   6  11
ATOM     11  N   UNL A   1      31.112  24.701  22.774  1.00  0.00    -0.341 N 
ATOM     12  C   UNL A   1      30.997  26.069  22.763  1.00  0.00     0.242 C 
ATOM     13  H   UNL A   1      30.430  24.211  22.259  1.00  0.00     0.164 HD
ATOM     14  O   UNL A   1      31.288  26.646  21.710  1.00  0.00    -0.273 OA
BRANCH  12  15
ATOM     15  C   UNL A   1      30.101  26.765  23.830  1.00  0.00     0.168 C 
ATOM     16  C   UNL A   1      29.781  25.838  25.011  1.00  0.00     0.041 C 
BRANCH  15  17
ATOM     17  N   UNL A   1      28.879  27.376  23.352  1.00  0.00    -0.343 N 
ATOM     18  C   UNL A   1      28.553  28.674  23.109  1.00  0.00     0.243 C 
ATOM     19  H   UNL A   1      28.152  26.737  23.170  1.00  0.00     0.164 HD
ATOM     20  O   UNL A   1      27.398  28.854  22.697  1.00  0.00    -0.273 OA
BRANCH  18  21
ATOM     21  C   UNL A   1      29.488  29.897  23.341  1.00  0.00     0.174 C 
BRANCH  21  22
ATOM     22  N   UNL A   1      30.875  29.443  23.046  1.00  0.00    -0.343 N 
ATOM     23  C   UNL A   1      32.096  29.467  23.646  1.00  0.00     0.240 C 
ATOM     24  H   UNL A   1      30.921  28.999  22.167  1.00  0.00     0.164 HD
ATOM     25  O   UNL A   1      33.042  29.179  22.899  1.00  0.00    -0.273 OA
BRANCH  23  26
ATOM     26  C   UNL A   1      32.384  29.768  25.142  1.00  0.00     0.219 C 
BRANCH  26  27
ATOM     27  N   UNL A   1      33.418  28.971  25.796  1.00  0.00    -0.312 N 
ATOM     28  C   UNL A   1      34.289  29.416  26.758  1.00  0.00     0.407 C 
ATOM     29  H   UNL A   1      33.498  28.029  25.520  1.00  0.00     0.167 HD
ATOM     30  O   UNL A   1      35.282  28.760  27.052  1.00  0.00    -0.225 OA
BRANCH  28  31
ATOM     31  O   UNL A   1      33.977  30.658  27.220  1.00  0.00    -0.445 OA
BRANCH  31  32
ATOM     32  C   UNL A   1      34.918  31.358  28.074  1.00  0.00     0.270 C 
BRANCH  32  33
ATOM     33  C   UNL A   1      34.107  32.415  28.762  1.00  0.00    -0.011 A 
ATOM     34  C   UNL A   1      33.332  33.255  27.963  1.00  0.00     0.007 A 
ATOM     35  C   UNL A   1      34.538  32.820  30.035  1.00  0.00     0.007 A 
ATOM     36  C   UNL A   1      33.294  34.595  28.297  1.00  0.00     0.000 A 
ATOM     37  C   UNL A   1      34.450  34.158  30.376  1.00  0.00     0.000 A 
ATOM     38  C   UNL A   1      33.909  35.051  29.463  1.00  0.00     0.000 A 
ENDBRANCH  32  33
ENDBRANCH  31  32
ENDBRANCH  28  31
ENDBRANCH  26  27
ENDBRANCH  23  26
ENDBRANCH  21  22
BRANCH  21  39
ATOM     39  C   UNL A   1      29.172  31.297  22.818  1.00  0.00     0.015 C 
ATOM     40  C   UNL A   1      27.955  31.621  21.979  1.00  0.00     0.010 C 
ATOM     41  C   UNL A   1      29.266  32.340  23.937  1.00  0.00     0.010 C 
ENDBRANCH  21  39
ENDBRANCH  18  21
ENDBRANCH  15  17
ENDBRANCH  12  15
ENDBRANCH   6  11
ENDBRANCH   4   6
ENDBRANCH   3   4
ENDBRANCH   2   3
ENDBRANCH   1   2
BRANCH   1  42
ATOM     42  O   UNL A   1      37.829  22.718  24.376  1.00  0.00    -0.376 OA
BRANCH  42  43
ATOM     43  C   UNL A   1      37.683  22.864  25.779  1.00  0.00     0.188 C 
BRANCH  43  44
ATOM     44  C   UNL A   1      39.004  22.775  26.556  1.00  0.00     0.188 C 
BRANCH  44  45
ATOM     45  O   UNL A   1      40.070  22.154  25.862  1.00  0.00    -0.377 OA
BRANCH  45  46
ATOM     46  C   UNL A   1      40.510  20.925  26.408  1.00  0.00     0.188 C 
BRANCH  46  47
ATOM     47  C   UNL A   1      42.030  20.741  26.351  1.00  0.00     0.188 C 
BRANCH  47  48
ATOM     48  O   UNL A   1      42.822  21.432  25.399  1.00  0.00    -0.376 OA
BRANCH  48  49
ATOM     49  C   UNL A   1      44.171  21.087  25.136  1.00  0.00     0.202 C 
BRANCH  49  50
ATOM     50  C   UNL A   1      45.400  21.850  25.676  1.00  0.00     0.261 C 
BRANCH  50  51
ATOM     51  O   UNL A   1      45.270  23.221  26.051  1.00  0.00    -0.460 OA
BRANCH  51  52
ATOM     52  C   UNL A   1      45.841  24.138  25.235  1.00  0.00     0.338 C 
ATOM     53  O   UNL A   1      46.359  23.952  24.161  1.00  0.00    -0.246 OA
BRANCH  52  54
ATOM     54  C   UNL A   1      45.664  25.458  25.884  1.00  0.00     0.060 A 
ATOM     55  C   UNL A   1      45.123  26.534  25.169  1.00  0.00     0.016 A 
ATOM     56  C   UNL A   1      46.012  25.611  27.225  1.00  0.00     0.016 A 
ATOM     57  C   UNL A   1      44.933  27.774  25.796  1.00  0.00     0.010 A 
ATOM     58  C   UNL A   1      45.815  26.849  27.846  1.00  0.00     0.010 A 
ATOM     59  C   UNL A   1      45.296  27.952  27.137  1.00  0.00    -0.014 A 
BRANCH  59  60
ATOM     60  C   UNL A   1      45.355  29.308  27.759  1.00  0.00     0.031 A 
ATOM     61  C   UNL A   1      44.096  29.821  28.410  1.00  0.00     0.074 A 
ATOM     62  C   UNL A   1      46.451  30.097  27.747  1.00  0.00     0.049 A 
ATOM     63  N   UNL A   1      43.876  30.961  29.011  1.00  0.00    -0.248 NA
ATOM     64  C   UNL A   1      42.924  28.929  28.371  1.00  0.00     0.031 C 
ATOM     65  C   UNL A   1      47.744  29.750  27.170  1.00  0.00     0.029 A 
ATOM     66  N   UNL A   1      46.638  31.380  28.215  1.00  0.00    -0.354 N 
ATOM     67  C   UNL A   1      42.546  30.921  29.405  1.00  0.00     0.074 A 
ATOM     68  C   UNL A   1      41.985  29.688  28.907  1.00  0.00     0.031 C 
ATOM     69  C   UNL A   1      48.572  30.808  27.260  1.00  0.00     0.029 A 
ATOM     70  C   UNL A   1      47.879  31.908  27.925  1.00  0.00     0.049 A 
ATOM     71  H   UNL A   1      45.949  31.876  28.712  1.00  0.00     0.167 HD
ATOM     72  C   UNL A   1      41.855  31.798  30.168  1.00  0.00     0.034 A 
ATOM     73  C   UNL A   1      48.399  33.129  28.173  1.00  0.00     0.034 A 
ATOM     74  C   UNL A   1      42.401  33.016  30.688  1.00  0.00     0.049 A 
ATOM     75  C   UNL A   1      47.591  34.125  28.974  1.00  0.00     0.074 A 
ATOM     76  C   UNL A   1      41.797  33.940  31.520  1.00  0.00     0.029 A 
ATOM     77  N   UNL A   1      43.671  33.493  30.409  1.00  0.00    -0.354 N 
ATOM     78  N   UNL A   1      46.390  33.995  29.484  1.00  0.00    -0.248 NA
ATOM     79  C   UNL A   1      48.235  35.410  29.292  1.00  0.00     0.031 C 
ATOM     80  C   UNL A   1      42.688  35.001  31.708  1.00  0.00     0.029 A 
ATOM     81  C   UNL A   1      43.864  34.711  31.034  1.00  0.00     0.049 A 
ATOM     82  H   UNL A   1      44.337  33.033  29.847  1.00  0.00     0.167 HD
ATOM     83  C   UNL A   1      46.164  35.145  30.235  1.00  0.00     0.074 A 
ATOM     84  C   UNL A   1      47.354  35.961  30.116  1.00  0.00     0.031 C 
ATOM     85  C   UNL A   1      45.072  35.490  30.960  1.00  0.00     0.034 A 
BRANCH  72  86
ATOM     86  C   UNL A   1      40.435  31.433  30.500  1.00  0.00     0.023 A 
ATOM     87  C   UNL A   1      39.401  31.745  29.592  1.00  0.00     0.012 A 
ATOM     88  C   UNL A   1      40.125  30.794  31.713  1.00  0.00     0.148 A 
ATOM     89  C   UNL A   1      38.072  31.475  29.911  1.00  0.00     0.002 A 
ATOM     90  C   UNL A   1      38.804  30.478  31.999  1.00  0.00     0.091 A 
ATOM     91  F   UNL A   1      41.120  30.534  32.572  1.00  0.00    -0.205 F 
ATOM     92  C   UNL A   1      37.775  30.834  31.111  1.00  0.00     0.022 A 
BRANCH  90  93
ATOM     93  S   UNL A   1      38.328  29.580  33.478  1.00  0.00     0.127 S 
ATOM     94  O   UNL A   1      37.922  30.667  34.366  1.00  0.00    -0.237 OA
ATOM     95  O   UNL A   1      37.228  28.749  32.987  1.00  0.00    -0.237 OA
ATOM     96  O   UNL A   1      39.509  28.840  33.898  1.00  0.00    -0.744 OA
ENDBRANCH  90  93
ENDBRANCH  72  86
BRANCH  73  97
ATOM     97  C   UNL A   1      49.791  33.473  27.747  1.00  0.00     0.023 A 
ATOM     98  C   UNL A   1      50.849  33.347  28.671  1.00  0.00     0.012 A 
ATOM     99  C   UNL A   1      50.069  33.961  26.455  1.00  0.00     0.148 A 
ATOM    100  C   UNL A   1      52.144  33.748  28.337  1.00  0.00     0.002 A 
ATOM    101  C   UNL A   1      51.372  34.311  26.111  1.00  0.00     0.091 A 
ATOM    102  F   UNL A   1      49.054  34.082  25.589  1.00  0.00    -0.205 F 
ATOM    103  C   UNL A   1      52.406  34.226  27.057  1.00  0.00     0.022 A 
BRANCH 101 104
ATOM    104  S   UNL A   1      51.836  34.832  24.455  1.00  0.00     0.127 S 
ATOM    105  O   UNL A   1      51.735  33.582  23.704  1.00  0.00    -0.237 OA
ATOM    106  O   UNL A   1      50.800  35.820  24.152  1.00  0.00    -0.237 OA
ATOM    107  O   UNL A   1      53.177  35.388  24.574  1.00  0.00    -0.744 OA
ENDBRANCH 101 104
ENDBRANCH  73  97
BRANCH  85 108
ATOM    108  C   UNL A   1      45.117  36.776  31.747  1.00  0.00     0.023 A 
ATOM    109  C   UNL A   1      45.763  36.824  32.997  1.00  0.00     0.012 A 
ATOM    110  C   UNL A   1      44.592  37.963  31.196  1.00  0.00     0.148 A 
ATOM    111  C   UNL A   1      45.853  38.025  33.703  1.00  0.00     0.002 A 
ATOM    112  C   UNL A   1      44.735  39.165  31.877  1.00  0.00     0.091 A 
ATOM    113  F   UNL A   1      43.965  37.896  30.011  1.00  0.00    -0.205 F 
ATOM    114  C   UNL A   1      45.352  39.195  33.138  1.00  0.00     0.022 A 
BRANCH 112 115
ATOM    115  S   UNL A   1      44.219  40.737  31.178  1.00  0.00     0.127 S 
ATOM    116  O   UNL A   1      43.129  40.326  30.292  1.00  0.00    -0.237 OA
ATOM    117  O   UNL A   1      43.793  41.479  32.365  1.00  0.00    -0.237 OA
ATOM    118  O   UNL A   1      45.392  41.286  30.510  1.00  0.00    -0.744 OA
ENDBRANCH 112 115
ENDBRANCH  85 108
ENDBRANCH  59  60
ENDBRANCH  52  54
ENDBRANCH  51  52
ENDBRANCH  50  51
ENDBRANCH  49  50
ENDBRANCH  48  49
ENDBRANCH  47  48
ENDBRANCH  46  47
ENDBRANCH  45  46
ENDBRANCH  44  45
ENDBRANCH  43  44
ENDBRANCH  42  43
ENDBRANCH   1  42
TORSDOF 36
ENDMDL
MODEL 2
REMARK VINA RESULT:      -7.7      3.017      6.120
REMARK SMILES CC(C)C[C@H](NC(=O)[C@H](C)NC(=O)[C@@H](NC(=O)CNC(=O)OCc1ccccc1)C(C)C)C(=O)OCCOCCOCCOCCOC(=O)c1ccc(-c2c3nc(c(-c4cccc(S(=O)(=O)[O-])c4F)c4ccc([nH]4)c(-c4cccc(S(=O)(=O)[O-])c4F)c4nc(c(-c5cccc(S(=O)(=O)[O-])c5F)c5ccc2[nH]5)C=C4)C=C3)cc1
REMARK SMILES IDX 37 1 36 2 35 3 33 4 34 5 5 6 4 7 2 8 1 9 3 10 6 11 7 12 8 14
REMARK SMILES IDX 9 15 10 16 11 17 12 18 13 20 14 21 15 22 16 23 17 25 18 26
REMARK SMILES IDX 19 27 20 28 21 30 22 31 23 32 24 33 25 34 29 35 26 36 28 37
REMARK SMILES IDX 27 38 30 39 31 40 32 41 38 42 39 43 40 44 41 45 42 46 43 47
REMARK SMILES IDX 44 48 45 49 46 50 47 51 48 52 49 53 50 54 51 55 112 56 52 57
REMARK SMILES IDX 111 58 53 59 54 60 55 61 105 62 56 63 110 64 104 65 106 66
REMARK SMILES IDX 57 67 109 68 103 69 102 70 58 72 90 73 70 74 89 75 71 76
REMARK SMILES IDX 74 77 88 78 107 79 72 80 73 81 87 83 108 84 75 85 59 86
REMARK SMILES IDX 60 87 68 88 61 89 63 90 69 91 62 92 64 93 65 94 66 95 67 96
REMARK SMILES IDX 91 97 92 98 100 99 93 100 95 101 101 102 94 103 96 104
REMARK SMILES IDX 97 105 98 106 99 107 76 108 77 109 85 110 78 111 80 112
REMARK SMILES IDX 86 113 79 114 81 115 82 116 83 117 84 118
REMARK H PARENT 6 13 11 19 15 24 19 29 106 71 74 82
REMARK Flexibility Score: inf
ROOT
ATOM      1  C   UNL A   1      35.654  23.210  22.776  1.00  0.00     0.202 C 
ENDROOT
BRANCH   1   2
ATOM      2  C   UNL A   1      34.263  23.390  23.401  1.00  0.00     0.261 C 
BRANCH   2   3
ATOM      3  O   UNL A   1      33.725  24.706  23.531  1.00  0.00    -0.462 OA
BRANCH   3   4
ATOM      4  C   UNL A   1      33.328  25.371  22.420  1.00  0.00     0.328 C 
ATOM      5  O   UNL A   1      33.045  24.843  21.354  1.00  0.00    -0.250 OA
BRANCH   4   6
ATOM      6  C   UNL A   1      33.409  26.885  22.653  1.00  0.00     0.192 C 
BRANCH   6   7
ATOM      7  C   UNL A   1      33.655  27.138  24.151  1.00  0.00     0.040 C 
BRANCH   7   8
ATOM      8  C   UNL A   1      33.934  28.560  24.709  1.00  0.00    -0.015 C 
ATOM      9  C   UNL A   1      34.565  28.592  26.097  1.00  0.00     0.007 C 
ATOM     10  C   UNL A   1      34.873  29.302  23.744  1.00  0.00     0.007 C 
ENDBRANCH   7   8
ENDBRANCH   6   7
BRANCH   6  11
ATOM     11  N   UNL A   1      32.190  27.578  22.124  1.00  0.00    -0.341 N 
ATOM     12  C   UNL A   1      31.548  28.685  22.623  1.00  0.00     0.242 C 
ATOM     13  H   UNL A   1      31.797  27.187  21.310  1.00  0.00     0.164 HD
ATOM     14  O   UNL A   1      31.667  29.735  21.983  1.00  0.00    -0.273 OA
BRANCH  12  15
ATOM     15  C   UNL A   1      30.371  28.493  23.626  1.00  0.00     0.168 C 
ATOM     16  C   UNL A   1      29.352  29.639  23.549  1.00  0.00     0.041 C 
BRANCH  15  17
ATOM     17  N   UNL A   1      30.729  28.258  25.008  1.00  0.00    -0.343 N 
ATOM     18  C   UNL A   1      30.895  27.108  25.715  1.00  0.00     0.243 C 
ATOM     19  H   UNL A   1      30.880  29.079  25.532  1.00  0.00     0.164 HD
ATOM     20  O   UNL A   1      31.209  27.267  26.903  1.00  0.00    -0.273 OA
BRANCH  18  21
ATOM     21  C   UNL A   1      30.688  25.669  25.158  1.00  0.00     0.174 C 
BRANCH  21  22
ATOM     22  N   UNL A   1      30.230  24.826  26.295  1.00  0.00    -0.343 N 
ATOM     23  C   UNL A   1      30.391  23.548  26.736  1.00  0.00     0.240 C 
ATOM     24  H   UNL A   1      29.645  25.338  26.901  1.00  0.00     0.164 HD
ATOM     25  O   UNL A   1      29.598  23.208  27.626  1.00  0.00    -0.273 OA
BRANCH  23  26
ATOM     26  C   UNL A   1      31.472  22.538  26.265  1.00  0.00     0.219 C 
BRANCH  26  27
ATOM     27  N   UNL A   1      31.368  22.040  24.896  1.00  0.00    -0.312 N 
ATOM     28  C   UNL A   1      32.074  20.989  24.367  1.00  0.00     0.407 C 
ATOM     29  H   UNL A   1      30.734  22.500  24.300  1.00  0.00     0.167 HD
ATOM     30  O   UNL A   1      32.116  20.815  23.154  1.00  0.00    -0.225 OA
BRANCH  28  31
ATOM     31  O   UNL A   1      32.767  20.291  25.307  1.00  0.00    -0.445 OA
BRANCH  31  32
ATOM     32  C   UNL A   1      34.061  19.728  24.967  1.00  0.00     0.270 C 
BRANCH  32  33
ATOM     33  C   UNL A   1      33.785  18.295  24.624  1.00  0.00    -0.011 A 
ATOM     34  C   UNL A   1      32.575  17.752  25.054  1.00  0.00     0.007 A 
ATOM     35  C   UNL A   1      34.896  17.478  24.364  1.00  0.00     0.007 A 
ATOM     36  C   UNL A   1      32.595  16.459  25.545  1.00  0.00     0.000 A 
ATOM     37  C   UNL A   1      34.885  16.171  24.819  1.00  0.00     0.000 A 
ATOM     38  C   UNL A   1      33.764  15.701  25.488  1.00  0.00     0.000 A 
ENDBRANCH  32  33
ENDBRANCH  31  32
ENDBRANCH  28  31
ENDBRANCH  26  27
ENDBRANCH  23  26
ENDBRANCH  21  22
BRANCH  21  39
ATOM     39  C   UNL A   1      29.962  25.383  23.844  1.00  0.00     0.015 C 
ATOM     40  C   UNL A   1      30.041  24.059  23.116  1.00  0.00     0.010 C 
ATOM     41  C   UNL A   1      28.486  25.790  23.927  1.00  0.00     0.010 C 
ENDBRANCH  21  39
ENDBRANCH  18  21
ENDBRANCH  15  17
ENDBRANCH  12  15
ENDBRANCH   6  11
ENDBRANCH   4   6
ENDBRANCH   3   4
ENDBRANCH   2   3
ENDBRANCH   1   2
BRANCH   1  42
ATOM     42  O   UNL A   1      36.856  23.040  23.506  1.00  0.00    -0.376 OA
BRANCH  42  43
ATOM     43  C   UNL A   1      37.215  21.831  24.155  1.00  0.00     0.188 C 
BRANCH  43  44
ATOM     44  C   UNL A   1      37.197  21.917  25.688  1.00  0.00     0.188 C 
BRANCH  44  45
ATOM     45  O   UNL A   1      37.821  23.065  26.234  1.00  0.00    -0.377 OA
BRANCH  45  46
ATOM     46  C   UNL A   1      39.167  22.890  26.628  1.00  0.00     0.188 C 
BRANCH  46  47
ATOM     47  C   UNL A   1      39.776  24.131  27.291  1.00  0.00     0.188 C 
BRANCH  47  48
ATOM     48  O   UNL A   1      40.405  25.143  26.524  1.00  0.00    -0.376 OA
BRANCH  48  49
ATOM     49  C   UNL A   1      41.534  25.862  26.990  1.00  0.00     0.202 C 
BRANCH  49  50
ATOM     50  C   UNL A   1      42.989  25.609  26.539  1.00  0.00     0.261 C 
BRANCH  50  51
ATOM     51  O   UNL A   1      44.044  26.399  27.086  1.00  0.00    -0.460 OA
BRANCH  51  52
ATOM     52  C   UNL A   1      44.096  26.506  28.435  1.00  0.00     0.338 C 
ATOM     53  O   UNL A   1      44.006  25.621  29.250  1.00  0.00    -0.246 OA
BRANCH  52  54
ATOM     54  C   UNL A   1      44.346  27.933  28.742  1.00  0.00     0.060 A 
ATOM     55  C   UNL A   1      45.330  28.298  29.669  1.00  0.00     0.016 A 
ATOM     56  C   UNL A   1      43.613  28.912  28.074  1.00  0.00     0.016 A 
ATOM     57  C   UNL A   1      45.581  29.652  29.936  1.00  0.00     0.010 A 
ATOM     58  C   UNL A   1      43.871  30.262  28.342  1.00  0.00     0.010 A 
ATOM     59  C   UNL A   1      44.840  30.650  29.291  1.00  0.00    -0.014 A 
BRANCH  59  60
ATOM     60  C   UNL A   1      44.892  32.075  29.734  1.00  0.00     0.031 A 
ATOM     61  C   UNL A   1      43.922  32.496  30.807  1.00  0.00     0.074 A 
ATOM     62  C   UNL A   1      45.731  32.997  29.214  1.00  0.00     0.049 A 
ATOM     63  N   UNL A   1      43.753  33.668  31.361  1.00  0.00    -0.248 NA
ATOM     64  C   UNL A   1      43.014  31.455  31.320  1.00  0.00     0.031 C 
ATOM     65  C   UNL A   1      46.731  32.753  28.181  1.00  0.00     0.029 A 
ATOM     66  N   UNL A   1      45.851  34.346  29.470  1.00  0.00    -0.354 N 
ATOM     67  C   UNL A   1      42.718  33.502  32.271  1.00  0.00     0.074 A 
ATOM     68  C   UNL A   1      42.241  32.146  32.138  1.00  0.00     0.031 C 
ATOM     69  C   UNL A   1      47.319  33.916  27.845  1.00  0.00     0.029 A 
ATOM     70  C   UNL A   1      46.757  34.993  28.656  1.00  0.00     0.049 A 
ATOM     71  H   UNL A   1      45.335  34.807  30.170  1.00  0.00     0.167 HD
ATOM     72  C   UNL A   1      42.237  34.373  33.186  1.00  0.00     0.034 A 
ATOM     73  C   UNL A   1      47.101  36.296  28.579  1.00  0.00     0.034 A 
ATOM     74  C   UNL A   1      42.712  35.716  33.345  1.00  0.00     0.049 A 
ATOM     75  C   UNL A   1      46.508  37.274  29.569  1.00  0.00     0.074 A 
ATOM     76  C   UNL A   1      42.328  36.655  34.284  1.00  0.00     0.029 A 
ATOM     77  N   UNL A   1      43.659  36.318  32.533  1.00  0.00    -0.354 N 
ATOM     78  N   UNL A   1      45.651  37.054  30.536  1.00  0.00    -0.248 NA
ATOM     79  C   UNL A   1      46.979  38.667  29.499  1.00  0.00     0.031 C 
ATOM     80  C   UNL A   1      43.011  37.844  34.010  1.00  0.00     0.029 A 
ATOM     81  C   UNL A   1      43.857  37.627  32.935  1.00  0.00     0.049 A 
ATOM     82  H   UNL A   1      44.121  35.880  31.782  1.00  0.00     0.167 HD
ATOM     83  C   UNL A   1      45.535  38.256  31.228  1.00  0.00     0.074 A 
ATOM     84  C   UNL A   1      46.410  39.202  30.571  1.00  0.00     0.031 C 
ATOM     85  C   UNL A   1      44.774  38.546  32.312  1.00  0.00     0.034 A 
BRANCH  72  86
ATOM     86  C   UNL A   1      41.156  33.867  34.099  1.00  0.00     0.023 A 
ATOM     87  C   UNL A   1      41.500  33.285  35.338  1.00  0.00     0.012 A 
ATOM     88  C   UNL A   1      39.803  33.955  33.725  1.00  0.00     0.148 A 
ATOM     89  C   UNL A   1      40.517  32.750  36.167  1.00  0.00     0.002 A 
ATOM     90  C   UNL A   1      38.826  33.470  34.583  1.00  0.00     0.091 A 
ATOM     91  F   UNL A   1      39.502  34.485  32.532  1.00  0.00    -0.205 F 
ATOM     92  C   UNL A   1      39.180  32.851  35.793  1.00  0.00     0.022 A 
BRANCH  90  93
ATOM     93  S   UNL A   1      37.073  33.626  34.231  1.00  0.00     0.127 S 
ATOM     94  O   UNL A   1      36.480  33.256  35.515  1.00  0.00    -0.237 OA
ATOM     95  O   UNL A   1      36.957  35.044  33.890  1.00  0.00    -0.237 OA
ATOM     96  O   UNL A   1      36.800  32.711  33.132  1.00  0.00    -0.744 OA
ENDBRANCH  90  93
ENDBRANCH  72  86
BRANCH  73  97
ATOM     97  C   UNL A   1      48.123  36.765  27.594  1.00  0.00     0.023 A 
ATOM     98  C   UNL A   1      47.734  37.028  26.263  1.00  0.00     0.012 A 
ATOM     99  C   UNL A   1      49.478  36.914  27.949  1.00  0.00     0.148 A 
ATOM    100  C   UNL A   1      48.679  37.377  25.296  1.00  0.00     0.002 A 
ATOM    101  C   UNL A   1      50.408  37.312  26.991  1.00  0.00     0.091 A 
ATOM    102  F   UNL A   1      49.836  36.656  29.214  1.00  0.00    -0.205 F 
ATOM    103  C   UNL A   1      50.014  37.522  25.660  1.00  0.00     0.022 A 
BRANCH 101 104
ATOM    104  S   UNL A   1      52.132  37.636  27.382  1.00  0.00     0.127 S 
ATOM    105  O   UNL A   1      52.762  36.359  27.054  1.00  0.00    -0.237 OA
ATOM    106  O   UNL A   1      52.445  38.733  26.465  1.00  0.00    -0.237 OA
ATOM    107  O   UNL A   1      52.157  38.007  28.791  1.00  0.00    -0.744 OA
ENDBRANCH 101 104
ENDBRANCH  73  97
BRANCH  85 108
ATOM    108  C   UNL A   1      44.891  39.923  32.916  1.00  0.00     0.023 A 
ATOM    109  C   UNL A   1      45.819  40.174  33.945  1.00  0.00     0.012 A 
ATOM    110  C   UNL A   1      44.136  40.993  32.392  1.00  0.00     0.148 A 
ATOM    111  C   UNL A   1      45.967  41.459  34.468  1.00  0.00     0.002 A 
ATOM    112  C   UNL A   1      44.329  42.280  32.878  1.00  0.00     0.091 A 
ATOM    113  F   UNL A   1      43.245  40.734  31.424  1.00  0.00    -0.205 F 
ATOM    114  C   UNL A   1      45.233  42.512  33.927  1.00  0.00     0.022 A 
BRANCH 112 115
ATOM    115  S   UNL A   1      43.510  43.712  32.168  1.00  0.00     0.127 S 
ATOM    116  O   UNL A   1      42.191  43.644  32.799  1.00  0.00    -0.237 OA
ATOM    117  O   UNL A   1      44.353  44.814  32.635  1.00  0.00    -0.237 OA
ATOM    118  O   UNL A   1      43.523  43.510  30.726  1.00  0.00    -0.744 OA
ENDBRANCH 112 115
ENDBRANCH  85 108
ENDBRANCH  59  60
ENDBRANCH  52  54
ENDBRANCH  51  52
ENDBRANCH  50  51
ENDBRANCH  49  50
ENDBRANCH  48  49
ENDBRANCH  47  48
ENDBRANCH  46  47
ENDBRANCH  45  46
ENDBRANCH  44  45
ENDBRANCH  43  44
ENDBRANCH  42  43
ENDBRANCH   1  42
TORSDOF 36
ENDMDL
MODEL 3
REMARK VINA RESULT:      -7.6      4.751      8.614
REMARK SMILES CC(C)C[C@H](NC(=O)[C@H](C)NC(=O)[C@@H](NC(=O)CNC(=O)OCc1ccccc1)C(C)C)C(=O)OCCOCCOCCOCCOC(=O)c1ccc(-c2c3nc(c(-c4cccc(S(=O)(=O)[O-])c4F)c4ccc([nH]4)c(-c4cccc(S(=O)(=O)[O-])c4F)c4nc(c(-c5cccc(S(=O)(=O)[O-])c5F)c5ccc2[nH]5)C=C4)C=C3)cc1
REMARK SMILES IDX 37 1 36 2 35 3 33 4 34 5 5 6 4 7 2 8 1 9 3 10 6 11 7 12 8 14
REMARK SMILES IDX 9 15 10 16 11 17 12 18 13 20 14 21 15 22 16 23 17 25 18 26
REMARK SMILES IDX 19 27 20 28 21 30 22 31 23 32 24 33 25 34 29 35 26 36 28 37
REMARK SMILES IDX 27 38 30 39 31 40 32 41 38 42 39 43 40 44 41 45 42 46 43 47
REMARK SMILES IDX 44 48 45 49 46 50 47 51 48 52 49 53 50 54 51 55 112 56 52 57
REMARK SMILES IDX 111 58 53 59 54 60 55 61 105 62 56 63 110 64 104 65 106 66
REMARK SMILES IDX 57 67 109 68 103 69 102 70 58 72 90 73 70 74 89 75 71 76
REMARK SMILES IDX 74 77 88 78 107 79 72 80 73 81 87 83 108 84 75 85 59 86
REMARK SMILES IDX 60 87 68 88 61 89 63 90 69 91 62 92 64 93 65 94 66 95 67 96
REMARK SMILES IDX 91 97 92 98 100 99 93 100 95 101 101 102 94 103 96 104
REMARK SMILES IDX 97 105 98 106 99 107 76 108 77 109 85 110 78 111 80 112
REMARK SMILES IDX 86 113 79 114 81 115 82 116 83 117 84 118
REMARK H PARENT 6 13 11 19 15 24 19 29 106 71 74 82
REMARK Flexibility Score: inf
ROOT
ATOM      1  C   UNL A   1      36.646  22.578  23.432  1.00  0.00     0.202 C 
ENDROOT
BRANCH   1   2
ATOM      2  C   UNL A   1      35.133  22.836  23.421  1.00  0.00     0.261 C 
BRANCH   2   3
ATOM      3  O   UNL A   1      34.621  23.997  24.075  1.00  0.00    -0.462 OA
BRANCH   3   4
ATOM      4  C   UNL A   1      33.865  24.874  23.373  1.00  0.00     0.328 C 
ATOM      5  O   UNL A   1      33.633  24.792  22.175  1.00  0.00    -0.250 OA
BRANCH   4   6
ATOM      6  C   UNL A   1      33.454  26.051  24.266  1.00  0.00     0.192 C 
BRANCH   6   7
ATOM      7  C   UNL A   1      32.572  25.515  25.407  1.00  0.00     0.040 C 
BRANCH   7   8
ATOM      8  C   UNL A   1      31.299  24.668  25.135  1.00  0.00    -0.015 C 
ATOM      9  C   UNL A   1      31.244  23.337  25.876  1.00  0.00     0.007 C 
ATOM     10  C   UNL A   1      30.059  25.485  25.535  1.00  0.00     0.007 C 
ENDBRANCH   7   8
ENDBRANCH   6   7
BRANCH   6  11
ATOM     11  N   UNL A   1      32.797  27.133  23.463  1.00  0.00    -0.341 N 
ATOM     12  C   UNL A   1      32.532  28.431  23.825  1.00  0.00     0.242 C 
ATOM     13  H   UNL A   1      32.516  26.878  22.553  1.00  0.00     0.164 HD
ATOM     14  O   UNL A   1      33.222  29.309  23.297  1.00  0.00    -0.273 OA
BRANCH  12  15
ATOM     15  C   UNL A   1      31.152  28.776  24.460  1.00  0.00     0.168 C 
ATOM     16  C   UNL A   1      29.979  28.293  23.595  1.00  0.00     0.041 C 
BRANCH  15  17
ATOM     17  N   UNL A   1      30.938  30.158  24.834  1.00  0.00    -0.343 N 
ATOM     18  C   UNL A   1      31.536  30.944  25.770  1.00  0.00     0.243 C 
ATOM     19  H   UNL A   1      30.231  30.611  24.319  1.00  0.00     0.164 HD
ATOM     20  O   UNL A   1      31.104  32.103  25.831  1.00  0.00    -0.273 OA
BRANCH  18  21
ATOM     21  C   UNL A   1      32.655  30.485  26.750  1.00  0.00     0.174 C 
BRANCH  21  22
ATOM     22  N   UNL A   1      33.016  31.667  27.579  1.00  0.00    -0.343 N 
ATOM     23  C   UNL A   1      34.139  32.229  28.105  1.00  0.00     0.240 C 
ATOM     24  H   UNL A   1      32.215  32.191  27.813  1.00  0.00     0.164 HD
ATOM     25  O   UNL A   1      33.925  33.102  28.959  1.00  0.00    -0.273 OA
BRANCH  23  26
ATOM     26  C   UNL A   1      35.605  31.912  27.704  1.00  0.00     0.219 C 
BRANCH  26  27
ATOM     27  N   UNL A   1      36.064  30.538  27.889  1.00  0.00    -0.312 N 
ATOM     28  C   UNL A   1      36.477  29.980  29.073  1.00  0.00     0.407 C 
ATOM     29  H   UNL A   1      36.078  29.960  27.092  1.00  0.00     0.167 HD
ATOM     30  O   UNL A   1      37.087  28.917  29.082  1.00  0.00    -0.225 OA
BRANCH  28  31
ATOM     31  O   UNL A   1      36.233  30.780  30.147  1.00  0.00    -0.445 OA
BRANCH  31  32
ATOM     32  C   UNL A   1      37.181  31.824  30.488  1.00  0.00     0.270 C 
BRANCH  32  33
ATOM     33  C   UNL A   1      36.647  32.439  31.747  1.00  0.00    -0.011 A 
ATOM     34  C   UNL A   1      35.275  32.339  31.981  1.00  0.00     0.007 A 
ATOM     35  C   UNL A   1      37.409  33.465  32.326  1.00  0.00     0.007 A 
ATOM     36  C   UNL A   1      34.635  33.448  32.500  1.00  0.00     0.000 A 
ATOM     37  C   UNL A   1      36.754  34.549  32.886  1.00  0.00     0.000 A 
ATOM     38  C   UNL A   1      35.367  34.570  32.886  1.00  0.00     0.000 A 
ENDBRANCH  32  33
ENDBRANCH  31  32
ENDBRANCH  28  31
ENDBRANCH  26  27
ENDBRANCH  23  26
ENDBRANCH  21  22
BRANCH  21  39
ATOM     39  C   UNL A   1      32.587  29.176  27.536  1.00  0.00     0.015 C 
ATOM     40  C   UNL A   1      31.329  28.347  27.672  1.00  0.00     0.010 C 
ATOM     41  C   UNL A   1      33.734  28.236  27.147  1.00  0.00     0.010 C 
ENDBRANCH  21  39
ENDBRANCH  18  21
ENDBRANCH  15  17
ENDBRANCH  12  15
ENDBRANCH   6  11
ENDBRANCH   4   6
ENDBRANCH   3   4
ENDBRANCH   2   3
ENDBRANCH   1   2
BRANCH   1  42
ATOM     42  O   UNL A   1      37.456  22.550  24.594  1.00  0.00    -0.376 OA
BRANCH  42  43
ATOM     43  C   UNL A   1      37.047  23.074  25.847  1.00  0.00     0.188 C 
BRANCH  43  44
ATOM     44  C   UNL A   1      38.065  24.028  26.487  1.00  0.00     0.188 C 
BRANCH  44  45
ATOM     45  O   UNL A   1      39.408  23.580  26.463  1.00  0.00    -0.377 OA
BRANCH  45  46
ATOM     46  C   UNL A   1      40.074  23.604  27.711  1.00  0.00     0.188 C 
BRANCH  46  47
ATOM     47  C   UNL A   1      41.575  23.312  27.607  1.00  0.00     0.188 C 
BRANCH  47  48
ATOM     48  O   UNL A   1      42.054  22.062  27.142  1.00  0.00    -0.376 OA
BRANCH  48  49
ATOM     49  C   UNL A   1      43.430  21.807  26.922  1.00  0.00     0.202 C 
BRANCH  49  50
ATOM     50  C   UNL A   1      44.059  21.478  25.551  1.00  0.00     0.261 C 
BRANCH  50  51
ATOM     51  O   UNL A   1      45.388  21.913  25.262  1.00  0.00    -0.460 OA
BRANCH  51  52
ATOM     52  C   UNL A   1      45.526  22.891  24.336  1.00  0.00     0.338 C 
ATOM     53  O   UNL A   1      44.963  22.987  23.272  1.00  0.00    -0.246 OA
BRANCH  52  54
ATOM     54  C   UNL A   1      46.475  23.880  24.896  1.00  0.00     0.060 A 
ATOM     55  C   UNL A   1      46.663  23.979  26.280  1.00  0.00     0.016 A 
ATOM     56  C   UNL A   1      47.206  24.690  24.030  1.00  0.00     0.016 A 
ATOM     57  C   UNL A   1      47.582  24.898  26.805  1.00  0.00     0.010 A 
ATOM     58  C   UNL A   1      48.126  25.602  24.559  1.00  0.00     0.010 A 
ATOM     59  C   UNL A   1      48.311  25.736  25.951  1.00  0.00    -0.014 A 
BRANCH  59  60
ATOM     60  C   UNL A   1      49.096  26.895  26.471  1.00  0.00     0.031 A 
ATOM     61  C   UNL A   1      50.574  26.688  26.676  1.00  0.00     0.074 A 
ATOM     62  C   UNL A   1      48.554  28.091  26.787  1.00  0.00     0.049 A 
ATOM     63  N   UNL A   1      51.476  27.521  27.121  1.00  0.00    -0.248 NA
ATOM     64  C   UNL A   1      51.105  25.355  26.337  1.00  0.00     0.031 C 
ATOM     65  C   UNL A   1      47.150  28.456  26.642  1.00  0.00     0.029 A 
ATOM     66  N   UNL A   1      49.129  29.220  27.332  1.00  0.00    -0.354 N 
ATOM     67  C   UNL A   1      52.668  26.810  27.126  1.00  0.00     0.074 A 
ATOM     68  C   UNL A   1      52.365  25.458  26.721  1.00  0.00     0.031 C 
ATOM     69  C   UNL A   1      46.956  29.693  27.140  1.00  0.00     0.029 A 
ATOM     70  C   UNL A   1      48.229  30.224  27.620  1.00  0.00     0.049 A 
ATOM     71  H   UNL A   1      50.095  29.302  27.500  1.00  0.00     0.167 HD
ATOM     72  C   UNL A   1      53.922  27.246  27.383  1.00  0.00     0.034 A 
ATOM     73  C   UNL A   1      48.410  31.433  28.195  1.00  0.00     0.034 A 
ATOM     74  C   UNL A   1      54.244  28.589  27.767  1.00  0.00     0.049 A 
ATOM     75  C   UNL A   1      49.812  31.885  28.536  1.00  0.00     0.074 A 
ATOM     76  C   UNL A   1      55.491  29.140  27.990  1.00  0.00     0.029 A 
ATOM     77  N   UNL A   1      53.312  29.585  28.005  1.00  0.00    -0.354 N 
ATOM     78  N   UNL A   1      50.947  31.250  28.371  1.00  0.00    -0.248 NA
ATOM     79  C   UNL A   1      49.964  33.244  29.081  1.00  0.00     0.031 C 
ATOM     80  C   UNL A   1      55.311  30.462  28.410  1.00  0.00     0.029 A 
ATOM     81  C   UNL A   1      53.954  30.745  28.396  1.00  0.00     0.049 A 
ATOM     82  H   UNL A   1      52.337  29.482  27.910  1.00  0.00     0.167 HD
ATOM     83  C   UNL A   1      51.947  32.153  28.723  1.00  0.00     0.074 A 
ATOM     84  C   UNL A   1      51.283  33.380  29.110  1.00  0.00     0.031 C 
ATOM     85  C   UNL A   1      53.291  31.981  28.723  1.00  0.00     0.034 A 
BRANCH  72  86
ATOM     86  C   UNL A   1      55.032  26.245  27.222  1.00  0.00     0.023 A 
ATOM     87  C   UNL A   1      55.675  26.107  25.973  1.00  0.00     0.012 A 
ATOM     88  C   UNL A   1      55.428  25.435  28.300  1.00  0.00     0.148 A 
ATOM     89  C   UNL A   1      56.659  25.140  25.785  1.00  0.00     0.002 A 
ATOM     90  C   UNL A   1      56.449  24.512  28.120  1.00  0.00     0.091 A 
ATOM     91  F   UNL A   1      54.784  25.564  29.468  1.00  0.00    -0.205 F 
ATOM     92  C   UNL A   1      57.052  24.349  26.861  1.00  0.00     0.022 A 
BRANCH  90  93
ATOM     93  S   UNL A   1      57.083  23.504  29.462  1.00  0.00     0.127 S 
ATOM     94  O   UNL A   1      56.557  22.185  29.115  1.00  0.00    -0.237 OA
ATOM     95  O   UNL A   1      58.528  23.650  29.294  1.00  0.00    -0.237 OA
ATOM     96  O   UNL A   1      56.551  24.084  30.688  1.00  0.00    -0.744 OA
ENDBRANCH  90  93
ENDBRANCH  72  86
BRANCH  73  97
ATOM     97  C   UNL A   1      47.257  32.361  28.411  1.00  0.00     0.023 A 
ATOM     98  C   UNL A   1      46.630  32.404  29.675  1.00  0.00     0.012 A 
ATOM     99  C   UNL A   1      46.752  33.168  27.373  1.00  0.00     0.148 A 
ATOM    100  C   UNL A   1      45.494  33.189  29.884  1.00  0.00     0.002 A 
ATOM    101  C   UNL A   1      45.650  33.988  27.603  1.00  0.00     0.091 A 
ATOM    102  F   UNL A   1      47.353  33.114  26.176  1.00  0.00    -0.205 F 
ATOM    103  C   UNL A   1      45.007  33.983  28.851  1.00  0.00     0.022 A 
BRANCH 101 104
ATOM    104  S   UNL A   1      45.013  35.132  26.372  1.00  0.00     0.127 S 
ATOM    105  O   UNL A   1      43.805  35.635  27.023  1.00  0.00    -0.237 OA
ATOM    106  O   UNL A   1      46.106  36.098  26.268  1.00  0.00    -0.237 OA
ATOM    107  O   UNL A   1      44.796  34.340  25.168  1.00  0.00    -0.744 OA
ENDBRANCH 101 104
ENDBRANCH  73  97
BRANCH  85 108
ATOM    108  C   UNL A   1      54.161  33.159  29.086  1.00  0.00     0.023 A 
ATOM    109  C   UNL A   1      54.603  34.051  28.091  1.00  0.00     0.012 A 
ATOM    110  C   UNL A   1      54.461  33.428  30.437  1.00  0.00     0.148 A 
ATOM    111  C   UNL A   1      55.362  35.172  28.430  1.00  0.00     0.002 A 
ATOM    112  C   UNL A   1      55.169  34.575  30.774  1.00  0.00     0.091 A 
ATOM    113  F   UNL A   1      54.046  32.558  31.370  1.00  0.00    -0.205 F 
ATOM    114  C   UNL A   1      55.633  35.440  29.771  1.00  0.00     0.022 A 
BRANCH 112 115
ATOM    115  S   UNL A   1      55.469  35.058  32.478  1.00  0.00     0.127 S 
ATOM    116  O   UNL A   1      55.843  36.464  32.327  1.00  0.00    -0.237 OA
ATOM    117  O   UNL A   1      54.161  34.837  33.096  1.00  0.00    -0.237 OA
ATOM    118  O   UNL A   1      56.524  34.180  32.965  1.00  0.00    -0.744 OA
ENDBRANCH 112 115
ENDBRANCH  85 108
ENDBRANCH  59  60
ENDBRANCH  52  54
ENDBRANCH  51  52
ENDBRANCH  50  51
ENDBRANCH  49  50
ENDBRANCH  48  49
ENDBRANCH  47  48
ENDBRANCH  46  47
ENDBRANCH  45  46
ENDBRANCH  44  45
ENDBRANCH  43  44
ENDBRANCH  42  43
ENDBRANCH   1  42
TORSDOF 36
ENDMDL
