MODEL 1
REMARK VINA RESULT:     -10.5      0.000      0.000
REMARK SMILES Cc1cc2nc(NC(=O)[C@H]3[C@@H](C(=O)OCCOCCOCCOCCOC(=O)c4ccc(-c5c6nc(c(-c7cccc(S(=O)(=O)[O-])c7F)c7ccc([nH]7)c(-c7cccc(S(=O)(=O)[O-])c7F)c7nc(c(-c8cccc(S(=O)(=O)[O-])c8F)c8ccc5[nH]8)C=C7)C=C6)cc4)[C@@H]4C=C[C@H]3C4)sc2cc1C
REMARK SMILES IDX 21 1 20 2 19 3 18 4 17 5 16 6 15 7 14 8 12 9 13 10 11 11
REMARK SMILES IDX 10 12 95 13 92 14 94 15 96 16 93 17 8 18 7 19 9 21 6 22 1 23
REMARK SMILES IDX 2 24 3 25 100 26 4 27 99 28 101 29 5 30 98 31 97 32 22 33
REMARK SMILES IDX 23 34 24 35 25 36 26 37 27 38 28 39 29 40 30 41 91 42 31 43
REMARK SMILES IDX 90 44 32 45 33 46 34 47 84 48 35 49 89 50 83 51 85 52 36 53
REMARK SMILES IDX 88 54 82 55 81 56 37 58 69 59 49 60 68 61 50 62 53 63 67 64
REMARK SMILES IDX 86 65 51 66 52 67 66 69 87 70 54 71 38 72 39 73 47 74 40 75
REMARK SMILES IDX 42 76 48 77 41 78 43 79 44 80 45 81 46 82 70 83 71 84 79 85
REMARK SMILES IDX 72 86 74 87 80 88 73 89 75 90 76 91 77 92 78 93 55 94 56 95
REMARK SMILES IDX 64 96 57 97 59 98 65 99 58 100 60 101 61 102 62 103 63 104
REMARK H PARENT 7 20 85 57 53 68
REMARK Flexibility Score: inf
ROOT
ATOM      1  C   UNL A   1      35.305  33.910  28.947  1.00  0.00     0.188 C 
ENDROOT
BRANCH   1   2
ATOM      2  O   UNL A   1      34.922  33.269  27.737  1.00  0.00    -0.377 OA
BRANCH   2   3
ATOM      3  C   UNL A   1      34.652  31.884  27.745  1.00  0.00     0.188 C 
BRANCH   3   4
ATOM      4  C   UNL A   1      33.197  31.455  27.551  1.00  0.00     0.188 C 
BRANCH   4   5
ATOM      5  O   UNL A   1      32.940  30.087  27.348  1.00  0.00    -0.376 OA
BRANCH   5   6
ATOM      6  C   UNL A   1      33.963  29.233  26.868  1.00  0.00     0.202 C 
BRANCH   6   7
ATOM      7  C   UNL A   1      33.794  28.167  25.777  1.00  0.00     0.261 C 
BRANCH   7   8
ATOM      8  O   UNL A   1      33.696  26.796  26.204  1.00  0.00    -0.463 OA
BRANCH   8   9
ATOM      9  C   UNL A   1      32.449  26.295  26.113  1.00  0.00     0.310 C 
ATOM     10  O   UNL A   1      31.444  26.999  25.984  1.00  0.00    -0.252 OA
BRANCH   9  11
ATOM     11  C   UNL A   1      32.290  24.798  26.178  1.00  0.00     0.119 C 
ATOM     12  C   UNL A   1      33.019  23.683  25.341  1.00  0.00     0.100 C 
ATOM     13  C   UNL A   1      31.837  22.821  24.875  1.00  0.00     0.025 C 
ATOM     14  C   UNL A   1      30.780  24.492  25.915  1.00  0.00     0.027 C 
ATOM     15  C   UNL A   1      31.087  22.232  26.056  1.00  0.00    -0.027 C 
ATOM     16  C   UNL A   1      30.836  23.922  24.507  1.00  0.00     0.017 C 
ATOM     17  C   UNL A   1      30.419  23.229  26.650  1.00  0.00    -0.027 C 
BRANCH  12  18
ATOM     18  C   UNL A   1      34.103  24.060  24.323  1.00  0.00     0.230 C 
ATOM     19  N   UNL A   1      33.977  24.746  23.155  1.00  0.00    -0.302 N 
ATOM     20  H   UNL A   1      34.716  24.590  22.524  1.00  0.00     0.172 HD
ATOM     21  O   UNL A   1      35.240  23.589  24.505  1.00  0.00    -0.274 OA
BRANCH  19  22
ATOM     22  C   UNL A   1      33.029  25.610  22.680  1.00  0.00     0.190 A 
ATOM     23  C   UNL A   1      27.762  28.247  23.416  1.00  0.00     0.044 C 
ATOM     24  C   UNL A   1      29.237  28.138  23.138  1.00  0.00    -0.046 A 
ATOM     25  C   UNL A   1      29.738  26.872  22.787  1.00  0.00     0.033 A 
ATOM     26  C   UNL A   1      30.114  29.237  23.184  1.00  0.00    -0.047 A 
ATOM     27  C   UNL A   1      31.119  26.677  22.599  1.00  0.00     0.084 A 
ATOM     28  C   UNL A   1      31.473  29.074  22.834  1.00  0.00     0.025 A 
ATOM     29  C   UNL A   1      29.687  30.571  23.742  1.00  0.00     0.044 C 
ATOM     30  N   UNL A   1      31.749  25.459  22.496  1.00  0.00    -0.220 NA
ATOM     31  C   UNL A   1      31.965  27.778  22.597  1.00  0.00     0.057 A 
ATOM     32  S   UNL A   1      33.585  27.202  22.362  1.00  0.00    -0.097 S 
ENDBRANCH  19  22
ENDBRANCH  12  18
ENDBRANCH   9  11
ENDBRANCH   8   9
ENDBRANCH   7   8
ENDBRANCH   6   7
ENDBRANCH   5   6
ENDBRANCH   4   5
ENDBRANCH   3   4
ENDBRANCH   2   3
ENDBRANCH   1   2
BRANCH   1  33
ATOM     33  C   UNL A   1      34.365  33.929  30.170  1.00  0.00     0.188 C 
BRANCH  33  34
ATOM     34  O   UNL A   1      34.282  32.765  30.991  1.00  0.00    -0.376 OA
BRANCH  34  35
ATOM     35  C   UNL A   1      34.588  32.934  32.366  1.00  0.00     0.202 C 
BRANCH  35  36
ATOM     36  C   UNL A   1      35.940  32.373  32.822  1.00  0.00     0.261 C 
BRANCH  36  37
ATOM     37  O   UNL A   1      36.632  31.809  31.701  1.00  0.00    -0.460 OA
BRANCH  37  38
ATOM     38  C   UNL A   1      37.691  32.520  31.252  1.00  0.00     0.338 C 
ATOM     39  O   UNL A   1      37.788  33.737  31.192  1.00  0.00    -0.246 OA
BRANCH  38  40
ATOM     40  C   UNL A   1      38.805  31.558  31.256  1.00  0.00     0.060 A 
ATOM     41  C   UNL A   1      40.123  31.963  31.020  1.00  0.00     0.016 A 
ATOM     42  C   UNL A   1      38.443  30.206  31.216  1.00  0.00     0.016 A 
ATOM     43  C   UNL A   1      41.073  30.998  30.692  1.00  0.00     0.010 A 
ATOM     44  C   UNL A   1      39.378  29.252  30.842  1.00  0.00     0.010 A 
ATOM     45  C   UNL A   1      40.697  29.643  30.588  1.00  0.00    -0.014 A 
BRANCH  45  46
ATOM     46  C   UNL A   1      41.751  28.621  30.676  1.00  0.00     0.031 A 
ATOM     47  C   UNL A   1      42.265  28.549  32.064  1.00  0.00     0.074 A 
ATOM     48  C   UNL A   1      42.112  27.718  29.739  1.00  0.00     0.049 A 
ATOM     49  N   UNL A   1      43.450  28.852  32.472  1.00  0.00    -0.248 NA
ATOM     50  C   UNL A   1      41.288  28.339  33.149  1.00  0.00     0.031 C 
ATOM     51  C   UNL A   1      41.478  27.541  28.445  1.00  0.00     0.029 A 
ATOM     52  N   UNL A   1      43.033  26.700  29.763  1.00  0.00    -0.354 N 
ATOM     53  C   UNL A   1      43.425  28.592  33.837  1.00  0.00     0.074 A 
ATOM     54  C   UNL A   1      42.044  28.559  34.222  1.00  0.00     0.031 C 
ATOM     55  C   UNL A   1      41.925  26.419  27.850  1.00  0.00     0.029 A 
ATOM     56  C   UNL A   1      42.869  25.766  28.730  1.00  0.00     0.049 A 
ATOM     57  H   UNL A   1      43.743  26.632  30.441  1.00  0.00     0.167 HD
ATOM     58  C   UNL A   1      44.521  28.076  34.450  1.00  0.00     0.034 A 
ATOM     59  C   UNL A   1      43.378  24.510  28.612  1.00  0.00     0.034 A 
ATOM     60  C   UNL A   1      45.711  28.321  33.670  1.00  0.00     0.049 A 
ATOM     61  C   UNL A   1      44.566  24.443  29.489  1.00  0.00     0.074 A 
ATOM     62  C   UNL A   1      46.309  29.451  33.148  1.00  0.00     0.029 A 
ATOM     63  N   UNL A   1      46.248  27.253  32.992  1.00  0.00    -0.354 N 
ATOM     64  N   UNL A   1      45.667  25.095  29.245  1.00  0.00    -0.248 NA
ATOM     65  C   UNL A   1      44.367  24.032  30.869  1.00  0.00     0.031 C 
ATOM     66  C   UNL A   1      46.845  29.043  31.895  1.00  0.00     0.029 A 
ATOM     67  C   UNL A   1      46.622  27.673  31.746  1.00  0.00     0.049 A 
ATOM     68  H   UNL A   1      46.347  26.340  33.346  1.00  0.00     0.167 HD
ATOM     69  C   UNL A   1      46.026  25.611  30.481  1.00  0.00     0.074 A 
ATOM     70  C   UNL A   1      45.261  24.833  31.456  1.00  0.00     0.031 C 
ATOM     71  C   UNL A   1      46.661  26.815  30.581  1.00  0.00     0.034 A 
BRANCH  58  72
ATOM     72  C   UNL A   1      44.461  27.003  35.516  1.00  0.00     0.023 A 
ATOM     73  C   UNL A   1      43.634  25.892  35.242  1.00  0.00     0.012 A 
ATOM     74  C   UNL A   1      44.932  27.133  36.846  1.00  0.00     0.148 A 
ATOM     75  C   UNL A   1      43.240  25.005  36.248  1.00  0.00     0.002 A 
ATOM     76  C   UNL A   1      44.610  26.201  37.822  1.00  0.00     0.091 A 
ATOM     77  F   UNL A   1      45.593  28.224  37.232  1.00  0.00    -0.205 F 
ATOM     78  C   UNL A   1      43.732  25.155  37.538  1.00  0.00     0.022 A 
BRANCH  76  79
ATOM     79  S   UNL A   1      45.270  26.316  39.492  1.00  0.00     0.127 S 
ATOM     80  O   UNL A   1      46.632  26.778  39.238  1.00  0.00    -0.237 OA
ATOM     81  O   UNL A   1      44.379  27.307  40.093  1.00  0.00    -0.237 OA
ATOM     82  O   UNL A   1      45.148  24.980  40.063  1.00  0.00    -0.744 OA
ENDBRANCH  76  79
ENDBRANCH  58  72
BRANCH  59  83
ATOM     83  C   UNL A   1      42.811  23.303  27.938  1.00  0.00     0.023 A 
ATOM     84  C   UNL A   1      41.422  23.050  27.979  1.00  0.00     0.012 A 
ATOM     85  C   UNL A   1      43.581  22.525  27.041  1.00  0.00     0.148 A 
ATOM     86  C   UNL A   1      40.826  22.091  27.141  1.00  0.00     0.002 A 
ATOM     87  C   UNL A   1      42.990  21.568  26.217  1.00  0.00     0.091 A 
ATOM     88  F   UNL A   1      44.889  22.778  26.917  1.00  0.00    -0.205 F 
ATOM     89  C   UNL A   1      41.608  21.356  26.255  1.00  0.00     0.022 A 
BRANCH  87  90
ATOM     90  S   UNL A   1      43.947  20.620  25.024  1.00  0.00     0.127 S 
ATOM     91  O   UNL A   1      44.119  21.580  23.933  1.00  0.00    -0.237 OA
ATOM     92  O   UNL A   1      45.162  20.326  25.778  1.00  0.00    -0.237 OA
ATOM     93  O   UNL A   1      43.121  19.468  24.679  1.00  0.00    -0.744 OA
ENDBRANCH  87  90
ENDBRANCH  59  83
BRANCH  71  94
ATOM     94  C   UNL A   1      47.240  27.443  29.334  1.00  0.00     0.023 A 
ATOM     95  C   UNL A   1      48.533  27.140  28.858  1.00  0.00     0.012 A 
ATOM     96  C   UNL A   1      46.358  28.154  28.499  1.00  0.00     0.148 A 
ATOM     97  C   UNL A   1      48.932  27.534  27.575  1.00  0.00     0.002 A 
ATOM     98  C   UNL A   1      46.735  28.487  27.205  1.00  0.00     0.091 A 
ATOM     99  F   UNL A   1      45.136  28.441  28.973  1.00  0.00    -0.205 F 
ATOM    100  C   UNL A   1      48.024  28.186  26.741  1.00  0.00     0.022 A 
BRANCH  98 101
ATOM    101  S   UNL A   1      45.557  29.174  26.037  1.00  0.00     0.127 S 
ATOM    102  O   UNL A   1      46.431  29.867  25.093  1.00  0.00    -0.237 OA
ATOM    103  O   UNL A   1      44.907  27.975  25.504  1.00  0.00    -0.237 OA
ATOM    104  O   UNL A   1      44.672  30.032  26.815  1.00  0.00    -0.744 OA
ENDBRANCH  98 101
ENDBRANCH  71  94
ENDBRANCH  45  46
ENDBRANCH  38  40
ENDBRANCH  37  38
ENDBRANCH  36  37
ENDBRANCH  35  36
ENDBRANCH  34  35
ENDBRANCH  33  34
ENDBRANCH   1  33
TORSDOF 25
ENDMDL
MODEL 2
REMARK VINA RESULT:     -10.2      3.054      5.832
REMARK SMILES Cc1cc2nc(NC(=O)[C@H]3[C@@H](C(=O)OCCOCCOCCOCCOC(=O)c4ccc(-c5c6nc(c(-c7cccc(S(=O)(=O)[O-])c7F)c7ccc([nH]7)c(-c7cccc(S(=O)(=O)[O-])c7F)c7nc(c(-c8cccc(S(=O)(=O)[O-])c8F)c8ccc5[nH]8)C=C7)C=C6)cc4)[C@@H]4C=C[C@H]3C4)sc2cc1C
REMARK SMILES IDX 21 1 20 2 19 3 18 4 17 5 16 6 15 7 14 8 12 9 13 10 11 11
REMARK SMILES IDX 10 12 95 13 92 14 94 15 96 16 93 17 8 18 7 19 9 21 6 22 1 23
REMARK SMILES IDX 2 24 3 25 100 26 4 27 99 28 101 29 5 30 98 31 97 32 22 33
REMARK SMILES IDX 23 34 24 35 25 36 26 37 27 38 28 39 29 40 30 41 91 42 31 43
REMARK SMILES IDX 90 44 32 45 33 46 34 47 84 48 35 49 89 50 83 51 85 52 36 53
REMARK SMILES IDX 88 54 82 55 81 56 37 58 69 59 49 60 68 61 50 62 53 63 67 64
REMARK SMILES IDX 86 65 51 66 52 67 66 69 87 70 54 71 38 72 39 73 47 74 40 75
REMARK SMILES IDX 42 76 48 77 41 78 43 79 44 80 45 81 46 82 70 83 71 84 79 85
REMARK SMILES IDX 72 86 74 87 80 88 73 89 75 90 76 91 77 92 78 93 55 94 56 95
REMARK SMILES IDX 64 96 57 97 59 98 65 99 58 100 60 101 61 102 62 103 63 104
REMARK H PARENT 7 20 85 57 53 68
REMARK Flexibility Score: inf
ROOT
ATOM      1  C   UNL A   1      33.154  27.285  24.429  1.00  0.00     0.188 C 
ENDROOT
BRANCH   1   2
ATOM      2  O   UNL A   1      33.107  26.843  23.078  1.00  0.00    -0.377 OA
BRANCH   2   3
ATOM      3  C   UNL A   1      31.894  26.341  22.557  1.00  0.00     0.188 C 
BRANCH   3   4
ATOM      4  C   UNL A   1      31.659  26.505  21.055  1.00  0.00     0.188 C 
BRANCH   4   5
ATOM      5  O   UNL A   1      31.922  25.398  20.228  1.00  0.00    -0.376 OA
BRANCH   5   6
ATOM      6  C   UNL A   1      33.078  24.607  20.441  1.00  0.00     0.202 C 
BRANCH   6   7
ATOM      7  C   UNL A   1      33.093  23.205  21.066  1.00  0.00     0.261 C 
BRANCH   7   8
ATOM      8  O   UNL A   1      32.700  23.095  22.447  1.00  0.00    -0.463 OA
BRANCH   8   9
ATOM      9  C   UNL A   1      33.735  23.178  23.306  1.00  0.00     0.310 C 
ATOM     10  O   UNL A   1      34.914  23.086  22.956  1.00  0.00    -0.252 OA
BRANCH   9  11
ATOM     11  C   UNL A   1      33.418  23.389  24.764  1.00  0.00     0.119 C 
ATOM     12  C   UNL A   1      33.704  22.446  25.991  1.00  0.00     0.100 C 
ATOM     13  C   UNL A   1      32.337  22.422  26.690  1.00  0.00     0.025 C 
ATOM     14  C   UNL A   1      31.875  23.619  24.862  1.00  0.00     0.027 C 
ATOM     15  C   UNL A   1      31.923  23.812  27.138  1.00  0.00    -0.027 C 
ATOM     16  C   UNL A   1      31.419  22.303  25.469  1.00  0.00     0.017 C 
ATOM     17  C   UNL A   1      31.604  24.512  26.042  1.00  0.00    -0.027 C 
BRANCH  12  18
ATOM     18  C   UNL A   1      34.457  21.124  25.795  1.00  0.00     0.230 C 
ATOM     19  N   UNL A   1      35.751  20.924  25.428  1.00  0.00    -0.302 N 
ATOM     20  H   UNL A   1      35.921  20.029  25.055  1.00  0.00     0.172 HD
ATOM     21  O   UNL A   1      33.789  20.076  25.861  1.00  0.00    -0.274 OA
BRANCH  19  22
ATOM     22  C   UNL A   1      36.865  21.717  25.471  1.00  0.00     0.190 A 
ATOM     23  C   UNL A   1      40.123  25.709  28.416  1.00  0.00     0.044 C 
ATOM     24  C   UNL A   1      39.826  24.452  27.644  1.00  0.00    -0.046 A 
ATOM     25  C   UNL A   1      38.626  24.410  26.913  1.00  0.00     0.033 A 
ATOM     26  C   UNL A   1      40.699  23.350  27.601  1.00  0.00    -0.047 A 
ATOM     27  C   UNL A   1      38.242  23.236  26.239  1.00  0.00     0.084 A 
ATOM     28  C   UNL A   1      40.392  22.234  26.791  1.00  0.00     0.025 A 
ATOM     29  C   UNL A   1      41.897  23.248  28.511  1.00  0.00     0.044 C 
ATOM     30  N   UNL A   1      36.999  22.991  25.702  1.00  0.00    -0.220 NA
ATOM     31  C   UNL A   1      39.135  22.175  26.162  1.00  0.00     0.057 A 
ATOM     32  S   UNL A   1      38.357  20.890  25.292  1.00  0.00    -0.097 S 
ENDBRANCH  19  22
ENDBRANCH  12  18
ENDBRANCH   9  11
ENDBRANCH   8   9
ENDBRANCH   7   8
ENDBRANCH   6   7
ENDBRANCH   5   6
ENDBRANCH   4   5
ENDBRANCH   3   4
ENDBRANCH   2   3
ENDBRANCH   1   2
BRANCH   1  33
ATOM     33  C   UNL A   1      31.902  27.867  25.120  1.00  0.00     0.188 C 
BRANCH  33  34
ATOM     34  O   UNL A   1      31.995  28.263  26.487  1.00  0.00    -0.376 OA
BRANCH  34  35
ATOM     35  C   UNL A   1      33.300  28.329  27.042  1.00  0.00     0.202 C 
BRANCH  35  36
ATOM     36  C   UNL A   1      33.831  29.737  27.332  1.00  0.00     0.261 C 
BRANCH  36  37
ATOM     37  O   UNL A   1      35.096  29.648  28.001  1.00  0.00    -0.460 OA
BRANCH  37  38
ATOM     38  C   UNL A   1      35.501  30.774  28.632  1.00  0.00     0.338 C 
ATOM     39  O   UNL A   1      34.796  31.690  29.029  1.00  0.00    -0.246 OA
BRANCH  38  40
ATOM     40  C   UNL A   1      36.863  30.461  29.095  1.00  0.00     0.060 A 
ATOM     41  C   UNL A   1      37.649  31.413  29.752  1.00  0.00     0.016 A 
ATOM     42  C   UNL A   1      37.423  29.282  28.589  1.00  0.00     0.016 A 
ATOM     43  C   UNL A   1      39.021  31.195  29.856  1.00  0.00     0.010 A 
ATOM     44  C   UNL A   1      38.796  29.088  28.650  1.00  0.00     0.010 A 
ATOM     45  C   UNL A   1      39.598  30.039  29.291  1.00  0.00    -0.014 A 
BRANCH  45  46
ATOM     46  C   UNL A   1      40.922  29.616  29.773  1.00  0.00     0.031 A 
ATOM     47  C   UNL A   1      40.826  29.186  31.188  1.00  0.00     0.074 A 
ATOM     48  C   UNL A   1      42.048  29.433  29.052  1.00  0.00     0.049 A 
ATOM     49  N   UNL A   1      41.370  29.750  32.212  1.00  0.00    -0.248 NA
ATOM     50  C   UNL A   1      39.829  28.153  31.526  1.00  0.00     0.031 C 
ATOM     51  C   UNL A   1      42.163  29.574  27.611  1.00  0.00     0.029 A 
ATOM     52  N   UNL A   1      43.296  28.986  29.410  1.00  0.00    -0.354 N 
ATOM     53  C   UNL A   1      40.995  28.953  33.287  1.00  0.00     0.074 A 
ATOM     54  C   UNL A   1      39.860  28.191  32.856  1.00  0.00     0.031 C 
ATOM     55  C   UNL A   1      43.352  29.107  27.185  1.00  0.00     0.029 A 
ATOM     56  C   UNL A   1      44.091  28.601  28.321  1.00  0.00     0.049 A 
ATOM     57  H   UNL A   1      43.604  28.940  30.343  1.00  0.00     0.167 HD
ATOM     58  C   UNL A   1      41.866  28.735  34.305  1.00  0.00     0.034 A 
ATOM     59  C   UNL A   1      45.226  27.850  28.302  1.00  0.00     0.034 A 
ATOM     60  C   UNL A   1      42.887  29.756  34.340  1.00  0.00     0.049 A 
ATOM     61  C   UNL A   1      45.810  27.919  29.658  1.00  0.00     0.074 A 
ATOM     62  C   UNL A   1      42.873  31.135  34.405  1.00  0.00     0.029 A 
ATOM     63  N   UNL A   1      44.141  29.404  33.902  1.00  0.00    -0.354 N 
ATOM     64  N   UNL A   1      46.334  29.005  30.151  1.00  0.00    -0.248 NA
ATOM     65  C   UNL A   1      45.389  26.923  30.629  1.00  0.00     0.031 C 
ATOM     66  C   UNL A   1      43.961  31.557  33.594  1.00  0.00     0.029 A 
ATOM     67  C   UNL A   1      44.636  30.424  33.137  1.00  0.00     0.049 A 
ATOM     68  H   UNL A   1      44.604  28.560  34.106  1.00  0.00     0.167 HD
ATOM     69  C   UNL A   1      45.845  29.048  31.448  1.00  0.00     0.074 A 
ATOM     70  C   UNL A   1      45.368  27.692  31.721  1.00  0.00     0.031 C 
ATOM     71  C   UNL A   1      45.586  30.240  32.061  1.00  0.00     0.034 A 
BRANCH  58  72
ATOM     72  C   UNL A   1      42.041  27.395  34.988  1.00  0.00     0.023 A 
ATOM     73  C   UNL A   1      41.616  27.314  36.331  1.00  0.00     0.012 A 
ATOM     74  C   UNL A   1      42.821  26.316  34.501  1.00  0.00     0.148 A 
ATOM     75  C   UNL A   1      42.007  26.259  37.162  1.00  0.00     0.002 A 
ATOM     76  C   UNL A   1      43.132  25.227  35.304  1.00  0.00     0.091 A 
ATOM     77  F   UNL A   1      43.389  26.374  33.296  1.00  0.00    -0.205 F 
ATOM     78  C   UNL A   1      42.760  25.212  36.648  1.00  0.00     0.022 A 
BRANCH  76  79
ATOM     79  S   UNL A   1      44.053  23.818  34.669  1.00  0.00     0.127 S 
ATOM     80  O   UNL A   1      43.024  23.113  33.910  1.00  0.00    -0.237 OA
ATOM     81  O   UNL A   1      45.079  24.477  33.861  1.00  0.00    -0.237 OA
ATOM     82  O   UNL A   1      44.571  23.120  35.838  1.00  0.00    -0.744 OA
ENDBRANCH  76  79
ENDBRANCH  58  72
BRANCH  59  83
ATOM     83  C   UNL A   1      45.749  26.927  27.251  1.00  0.00     0.023 A 
ATOM     84  C   UNL A   1      45.186  25.641  27.086  1.00  0.00     0.012 A 
ATOM     85  C   UNL A   1      46.629  27.379  26.239  1.00  0.00     0.148 A 
ATOM     86  C   UNL A   1      45.461  24.861  25.950  1.00  0.00     0.002 A 
ATOM     87  C   UNL A   1      46.907  26.599  25.117  1.00  0.00     0.091 A 
ATOM     88  F   UNL A   1      47.130  28.617  26.316  1.00  0.00    -0.205 F 
ATOM     89  C   UNL A   1      46.316  25.342  24.962  1.00  0.00     0.022 A 
BRANCH  87  90
ATOM     90  S   UNL A   1      47.970  27.190  23.789  1.00  0.00     0.127 S 
ATOM     91  O   UNL A   1      47.097  28.135  23.092  1.00  0.00    -0.237 OA
ATOM     92  O   UNL A   1      49.067  27.803  24.533  1.00  0.00    -0.237 OA
ATOM     93  O   UNL A   1      48.317  26.010  23.005  1.00  0.00    -0.744 OA
ENDBRANCH  87  90
ENDBRANCH  59  83
BRANCH  71  94
ATOM     94  C   UNL A   1      46.113  31.513  31.438  1.00  0.00     0.023 A 
ATOM     95  C   UNL A   1      47.434  31.967  31.634  1.00  0.00     0.012 A 
ATOM     96  C   UNL A   1      45.328  32.115  30.438  1.00  0.00     0.148 A 
ATOM     97  C   UNL A   1      47.960  32.995  30.842  1.00  0.00     0.002 A 
ATOM     98  C   UNL A   1      45.874  33.091  29.613  1.00  0.00     0.091 A 
ATOM     99  F   UNL A   1      44.070  31.677  30.273  1.00  0.00    -0.205 F 
ATOM    100  C   UNL A   1      47.187  33.540  29.817  1.00  0.00     0.022 A 
BRANCH  98 101
ATOM    101  S   UNL A   1      44.986  33.704  28.178  1.00  0.00     0.127 S 
ATOM    102  O   UNL A   1      45.963  34.610  27.578  1.00  0.00    -0.237 OA
ATOM    103  O   UNL A   1      44.737  32.479  27.415  1.00  0.00    -0.237 OA
ATOM    104  O   UNL A   1      43.778  34.337  28.692  1.00  0.00    -0.744 OA
ENDBRANCH  98 101
ENDBRANCH  71  94
ENDBRANCH  45  46
ENDBRANCH  38  40
ENDBRANCH  37  38
ENDBRANCH  36  37
ENDBRANCH  35  36
ENDBRANCH  34  35
ENDBRANCH  33  34
ENDBRANCH   1  33
TORSDOF 25
ENDMDL
MODEL 3
REMARK VINA RESULT:     -10.0      2.669      6.545
REMARK SMILES Cc1cc2nc(NC(=O)[C@H]3[C@@H](C(=O)OCCOCCOCCOCCOC(=O)c4ccc(-c5c6nc(c(-c7cccc(S(=O)(=O)[O-])c7F)c7ccc([nH]7)c(-c7cccc(S(=O)(=O)[O-])c7F)c7nc(c(-c8cccc(S(=O)(=O)[O-])c8F)c8ccc5[nH]8)C=C7)C=C6)cc4)[C@@H]4C=C[C@H]3C4)sc2cc1C
REMARK SMILES IDX 21 1 20 2 19 3 18 4 17 5 16 6 15 7 14 8 12 9 13 10 11 11
REMARK SMILES IDX 10 12 95 13 92 14 94 15 96 16 93 17 8 18 7 19 9 21 6 22 1 23
REMARK SMILES IDX 2 24 3 25 100 26 4 27 99 28 101 29 5 30 98 31 97 32 22 33
REMARK SMILES IDX 23 34 24 35 25 36 26 37 27 38 28 39 29 40 30 41 91 42 31 43
REMARK SMILES IDX 90 44 32 45 33 46 34 47 84 48 35 49 89 50 83 51 85 52 36 53
REMARK SMILES IDX 88 54 82 55 81 56 37 58 69 59 49 60 68 61 50 62 53 63 67 64
REMARK SMILES IDX 86 65 51 66 52 67 66 69 87 70 54 71 38 72 39 73 47 74 40 75
REMARK SMILES IDX 42 76 48 77 41 78 43 79 44 80 45 81 46 82 70 83 71 84 79 85
REMARK SMILES IDX 72 86 74 87 80 88 73 89 75 90 76 91 77 92 78 93 55 94 56 95
REMARK SMILES IDX 64 96 57 97 59 98 65 99 58 100 60 101 61 102 62 103 63 104
REMARK H PARENT 7 20 85 57 53 68
REMARK Flexibility Score: inf
ROOT
ATOM      1  C   UNL A   1      36.451  33.617  28.710  1.00  0.00     0.188 C 
ENDROOT
BRANCH   1   2
ATOM      2  O   UNL A   1      35.351  33.211  27.905  1.00  0.00    -0.377 OA
BRANCH   2   3
ATOM      3  C   UNL A   1      35.118  31.835  27.698  1.00  0.00     0.188 C 
BRANCH   3   4
ATOM      4  C   UNL A   1      33.664  31.362  27.723  1.00  0.00     0.188 C 
BRANCH   4   5
ATOM      5  O   UNL A   1      33.413  30.003  27.460  1.00  0.00    -0.376 OA
BRANCH   5   6
ATOM      6  C   UNL A   1      32.139  29.589  26.998  1.00  0.00     0.202 C 
BRANCH   6   7
ATOM      7  C   UNL A   1      31.505  28.214  27.248  1.00  0.00     0.261 C 
BRANCH   7   8
ATOM      8  O   UNL A   1      31.508  27.278  26.153  1.00  0.00    -0.463 OA
BRANCH   8   9
ATOM      9  C   UNL A   1      32.566  26.446  26.164  1.00  0.00     0.310 C 
ATOM     10  O   UNL A   1      33.736  26.837  26.146  1.00  0.00    -0.252 OA
BRANCH   9  11
ATOM     11  C   UNL A   1      32.290  24.964  26.194  1.00  0.00     0.119 C 
ATOM     12  C   UNL A   1      32.934  23.815  25.334  1.00  0.00     0.100 C 
ATOM     13  C   UNL A   1      31.690  23.059  24.845  1.00  0.00     0.025 C 
ATOM     14  C   UNL A   1      30.762  24.784  25.918  1.00  0.00     0.027 C 
ATOM     15  C   UNL A   1      30.889  22.504  26.009  1.00  0.00    -0.027 C 
ATOM     16  C   UNL A   1      30.781  24.244  24.499  1.00  0.00     0.017 C 
ATOM     17  C   UNL A   1      30.299  23.538  26.623  1.00  0.00    -0.027 C 
BRANCH  12  18
ATOM     18  C   UNL A   1      34.050  24.128  24.328  1.00  0.00     0.230 C 
ATOM     19  N   UNL A   1      33.985  24.854  23.179  1.00  0.00    -0.302 N 
ATOM     20  H   UNL A   1      34.711  24.654  22.546  1.00  0.00     0.172 HD
ATOM     21  O   UNL A   1      35.143  23.560  24.500  1.00  0.00    -0.274 OA
BRANCH  19  22
ATOM     22  C   UNL A   1      33.113  25.805  22.726  1.00  0.00     0.190 A 
ATOM     23  C   UNL A   1      27.866  28.527  23.262  1.00  0.00     0.044 C 
ATOM     24  C   UNL A   1      29.359  28.398  23.121  1.00  0.00    -0.046 A 
ATOM     25  C   UNL A   1      29.861  27.167  22.663  1.00  0.00     0.033 A 
ATOM     26  C   UNL A   1      30.252  29.449  23.394  1.00  0.00    -0.047 A 
ATOM     27  C   UNL A   1      31.249  26.945  22.591  1.00  0.00     0.084 A 
ATOM     28  C   UNL A   1      31.636  29.280  23.163  1.00  0.00     0.025 A 
ATOM     29  C   UNL A   1      29.803  30.719  24.072  1.00  0.00     0.044 C 
ATOM     30  N   UNL A   1      31.856  25.726  22.397  1.00  0.00    -0.220 NA
ATOM     31  C   UNL A   1      32.117  28.005  22.814  1.00  0.00     0.057 A 
ATOM     32  S   UNL A   1      33.739  27.401  22.671  1.00  0.00    -0.097 S 
ENDBRANCH  19  22
ENDBRANCH  12  18
ENDBRANCH   9  11
ENDBRANCH   8   9
ENDBRANCH   7   8
ENDBRANCH   6   7
ENDBRANCH   5   6
ENDBRANCH   4   5
ENDBRANCH   3   4
ENDBRANCH   2   3
ENDBRANCH   1   2
BRANCH   1  33
ATOM     33  C   UNL A   1      36.392  33.516  30.249  1.00  0.00     0.188 C 
BRANCH  33  34
ATOM     34  O   UNL A   1      35.805  32.358  30.839  1.00  0.00    -0.376 OA
BRANCH  34  35
ATOM     35  C   UNL A   1      34.999  32.571  31.987  1.00  0.00     0.202 C 
BRANCH  35  36
ATOM     36  C   UNL A   1      35.750  32.671  33.320  1.00  0.00     0.261 C 
BRANCH  36  37
ATOM     37  O   UNL A   1      36.654  31.566  33.449  1.00  0.00    -0.460 OA
BRANCH  37  38
ATOM     38  C   UNL A   1      37.606  31.702  34.401  1.00  0.00     0.338 C 
ATOM     39  O   UNL A   1      37.434  31.967  35.581  1.00  0.00    -0.246 OA
BRANCH  38  40
ATOM     40  C   UNL A   1      38.798  31.065  33.817  1.00  0.00     0.060 A 
ATOM     41  C   UNL A   1      40.085  31.361  34.275  1.00  0.00     0.016 A 
ATOM     42  C   UNL A   1      38.597  30.387  32.608  1.00  0.00     0.016 A 
ATOM     43  C   UNL A   1      41.177  31.014  33.483  1.00  0.00     0.010 A 
ATOM     44  C   UNL A   1      39.681  30.085  31.797  1.00  0.00     0.010 A 
ATOM     45  C   UNL A   1      40.975  30.389  32.235  1.00  0.00    -0.014 A 
BRANCH  45  46
ATOM     46  C   UNL A   1      42.099  29.656  31.635  1.00  0.00     0.031 A 
ATOM     47  C   UNL A   1      42.733  30.483  30.583  1.00  0.00     0.074 A 
ATOM     48  C   UNL A   1      42.651  28.496  32.053  1.00  0.00     0.049 A 
ATOM     49  N   UNL A   1      42.768  30.240  29.316  1.00  0.00    -0.248 NA
ATOM     50  C   UNL A   1      43.176  31.842  30.949  1.00  0.00     0.031 C 
ATOM     51  C   UNL A   1      42.262  27.752  33.238  1.00  0.00     0.029 A 
ATOM     52  N   UNL A   1      43.730  27.783  31.592  1.00  0.00    -0.354 N 
ATOM     53  C   UNL A   1      43.491  31.299  28.779  1.00  0.00     0.074 A 
ATOM     54  C   UNL A   1      43.463  32.351  29.753  1.00  0.00     0.031 C 
ATOM     55  C   UNL A   1      43.149  26.771  33.491  1.00  0.00     0.029 A 
ATOM     56  C   UNL A   1      44.200  26.823  32.499  1.00  0.00     0.049 A 
ATOM     57  H   UNL A   1      44.135  27.931  30.707  1.00  0.00     0.167 HD
ATOM     58  C   UNL A   1      44.342  31.083  27.743  1.00  0.00     0.034 A 
ATOM     59  C   UNL A   1      45.390  26.163  32.519  1.00  0.00     0.034 A 
ATOM     60  C   UNL A   1      44.006  29.863  27.047  1.00  0.00     0.049 A 
ATOM     61  C   UNL A   1      45.934  26.213  31.146  1.00  0.00     0.074 A 
ATOM     62  C   UNL A   1      42.862  29.376  26.448  1.00  0.00     0.029 A 
ATOM     63  N   UNL A   1      44.827  28.780  27.248  1.00  0.00    -0.354 N 
ATOM     64  N   UNL A   1      45.401  25.569  30.146  1.00  0.00    -0.248 NA
ATOM     65  C   UNL A   1      46.777  27.343  30.791  1.00  0.00     0.031 C 
ATOM     66  C   UNL A   1      42.867  27.979  26.715  1.00  0.00     0.029 A 
ATOM     67  C   UNL A   1      44.048  27.665  27.391  1.00  0.00     0.049 A 
ATOM     68  H   UNL A   1      45.810  28.803  27.282  1.00  0.00     0.167 HD
ATOM     69  C   UNL A   1      45.416  26.493  29.112  1.00  0.00     0.074 A 
ATOM     70  C   UNL A   1      46.373  27.518  29.529  1.00  0.00     0.031 C 
ATOM     71  C   UNL A   1      44.430  26.505  28.168  1.00  0.00     0.034 A 
BRANCH  58  72
ATOM     72  C   UNL A   1      45.704  31.731  27.625  1.00  0.00     0.023 A 
ATOM     73  C   UNL A   1      46.719  31.217  28.461  1.00  0.00     0.012 A 
ATOM     74  C   UNL A   1      45.982  32.955  26.967  1.00  0.00     0.148 A 
ATOM     75  C   UNL A   1      47.909  31.916  28.686  1.00  0.00     0.002 A 
ATOM     76  C   UNL A   1      47.200  33.602  27.124  1.00  0.00     0.091 A 
ATOM     77  F   UNL A   1      45.033  33.590  26.278  1.00  0.00    -0.205 F 
ATOM     78  C   UNL A   1      48.153  33.106  28.013  1.00  0.00     0.022 A 
BRANCH  76  79
ATOM     79  S   UNL A   1      47.589  35.113  26.229  1.00  0.00     0.127 S 
ATOM     80  O   UNL A   1      46.660  36.062  26.837  1.00  0.00    -0.237 OA
ATOM     81  O   UNL A   1      48.995  35.309  26.579  1.00  0.00    -0.237 OA
ATOM     82  O   UNL A   1      47.361  34.814  24.821  1.00  0.00    -0.744 OA
ENDBRANCH  76  79
ENDBRANCH  58  72
BRANCH  59  83
ATOM     83  C   UNL A   1      46.184  25.649  33.675  1.00  0.00     0.023 A 
ATOM     84  C   UNL A   1      46.805  26.548  34.571  1.00  0.00     0.012 A 
ATOM     85  C   UNL A   1      46.136  24.288  34.060  1.00  0.00     0.148 A 
ATOM     86  C   UNL A   1      47.322  26.115  35.804  1.00  0.00     0.002 A 
ATOM     87  C   UNL A   1      46.657  23.859  35.280  1.00  0.00     0.091 A 
ATOM     88  F   UNL A   1      45.495  23.412  33.278  1.00  0.00    -0.205 F 
ATOM     89  C   UNL A   1      47.242  24.773  36.162  1.00  0.00     0.022 A 
BRANCH  87  90
ATOM     90  S   UNL A   1      46.541  22.144  35.813  1.00  0.00     0.127 S 
ATOM     91  O   UNL A   1      46.458  21.429  34.539  1.00  0.00    -0.237 OA
ATOM     92  O   UNL A   1      47.799  21.967  36.533  1.00  0.00    -0.237 OA
ATOM     93  O   UNL A   1      45.331  22.061  36.622  1.00  0.00    -0.744 OA
ENDBRANCH  87  90
ENDBRANCH  59  83
BRANCH  71  94
ATOM     94  C   UNL A   1      43.488  25.327  28.079  1.00  0.00     0.023 A 
ATOM     95  C   UNL A   1      42.186  25.350  28.621  1.00  0.00     0.012 A 
ATOM     96  C   UNL A   1      43.844  24.279  27.210  1.00  0.00     0.148 A 
ATOM     97  C   UNL A   1      41.260  24.351  28.296  1.00  0.00     0.002 A 
ATOM     98  C   UNL A   1      42.904  23.326  26.841  1.00  0.00     0.091 A 
ATOM     99  F   UNL A   1      45.091  24.268  26.712  1.00  0.00    -0.205 F 
ATOM    100  C   UNL A   1      41.613  23.353  27.388  1.00  0.00     0.022 A 
BRANCH  98 101
ATOM    101  S   UNL A   1      43.250  22.123  25.553  1.00  0.00     0.127 S 
ATOM    102  O   UNL A   1      43.252  22.954  24.351  1.00  0.00    -0.237 OA
ATOM    103  O   UNL A   1      44.563  21.610  25.946  1.00  0.00    -0.237 OA
ATOM    104  O   UNL A   1      42.181  21.135  25.628  1.00  0.00    -0.744 OA
ENDBRANCH  98 101
ENDBRANCH  71  94
ENDBRANCH  45  46
ENDBRANCH  38  40
ENDBRANCH  37  38
ENDBRANCH  36  37
ENDBRANCH  35  36
ENDBRANCH  34  35
ENDBRANCH  33  34
ENDBRANCH   1  33
TORSDOF 25
ENDMDL
