MODEL 1
REMARK VINA RESULT:      -9.3      0.000      0.000
REMARK SMILES Cc1cc(Cl)cc2c1O[C@H](C(F)(F)F)C(C(=O)OCCOCCOCCOCCOC(=O)c1ccc(-c3c4nc(c(-c5cccc(S(=O)(=O)[O-])c5F)c5ccc([nH]5)c(-c5cccc(S(=O)(=O)[O-])c5F)c5nc(c(-c6cccc(S(=O)(=O)[O-])c6F)c6ccc3[nH]6)C=C5)C=C4)cc1)=C2
REMARK SMILES IDX 25 1 24 2 23 3 22 4 21 5 20 6 19 7 18 8 16 9 17 10 15 11
REMARK SMILES IDX 1 12 2 13 3 14 8 15 4 16 7 17 9 18 5 19 6 20 96 21 10 22
REMARK SMILES IDX 11 23 12 24 13 25 14 26 26 27 27 28 28 29 29 30 30 31 31 32
REMARK SMILES IDX 32 33 33 34 34 35 95 36 35 37 94 38 36 39 37 40 38 41 88 42
REMARK SMILES IDX 39 43 93 44 87 45 89 46 40 47 92 48 86 49 85 50 41 52 73 53
REMARK SMILES IDX 53 54 72 55 54 56 57 57 71 58 90 59 55 60 56 61 70 63 91 64
REMARK SMILES IDX 58 65 42 66 43 67 51 68 44 69 46 70 52 71 45 72 47 73 48 74
REMARK SMILES IDX 49 75 50 76 74 77 75 78 83 79 76 80 78 81 84 82 77 83 79 84
REMARK SMILES IDX 80 85 81 86 82 87 59 88 60 89 68 90 61 91 63 92 69 93 62 94
REMARK SMILES IDX 64 95 65 96 66 97 67 98
REMARK H PARENT 89 51 57 62
REMARK Flexibility Score: inf
ROOT
ATOM      1  C   UNL A   1      43.593  19.306  25.587  1.00  0.00     0.188 C 
ENDROOT
BRANCH   1   2
ATOM      2  O   UNL A   1      42.239  19.694  25.356  1.00  0.00    -0.377 OA
BRANCH   2   3
ATOM      3  C   UNL A   1      41.719  20.721  26.185  1.00  0.00     0.188 C 
BRANCH   3   4
ATOM      4  C   UNL A   1      40.182  20.673  26.262  1.00  0.00     0.188 C 
BRANCH   4   5
ATOM      5  O   UNL A   1      39.619  19.640  25.465  1.00  0.00    -0.376 OA
BRANCH   5   6
ATOM      6  C   UNL A   1      38.234  19.686  25.147  1.00  0.00     0.202 C 
BRANCH   6   7
ATOM      7  C   UNL A   1      37.540  20.999  24.743  1.00  0.00     0.261 C 
BRANCH   7   8
ATOM      8  O   UNL A   1      36.377  21.371  25.497  1.00  0.00    -0.460 OA
BRANCH   8   9
ATOM      9  C   UNL A   1      35.166  21.044  25.019  1.00  0.00     0.338 C 
ATOM     10  O   UNL A   1      34.752  19.924  24.766  1.00  0.00    -0.246 OA
BRANCH   9  11
ATOM     11  C   UNL A   1      34.339  22.273  25.030  1.00  0.00     0.087 C 
ATOM     12  C   UNL A   1      31.016  26.065  26.108  1.00  0.00     0.048 C 
ATOM     13  C   UNL A   1      32.076  25.797  25.075  1.00  0.00    -0.007 A 
ATOM     14  C   UNL A   1      32.381  26.810  24.151  1.00  0.00     0.027 A 
ATOM     15  C   UNL A   1      32.792  24.589  25.024  1.00  0.00     0.131 A 
ATOM     16  C   UNL A   1      33.376  26.615  23.197  1.00  0.00     0.042 A 
ATOM     17  C   UNL A   1      33.826  24.418  24.095  1.00  0.00     0.019 A 
ATOM     18  O   UNL A   1      32.437  23.622  25.920  1.00  0.00    -0.475 OA
ATOM     19  Cl  UNL A   1      33.737  27.865  22.070  1.00  0.00    -0.084 Cl
ATOM     20  C   UNL A   1      34.100  25.426  23.164  1.00  0.00     0.032 A 
ATOM     21  C   UNL A   1      34.648  23.220  24.133  1.00  0.00     0.027 C 
ATOM     22  C   UNL A   1      33.154  22.358  25.959  1.00  0.00     0.316 C 
BRANCH  22  23
ATOM     23  C   UNL A   1      33.537  22.090  27.422  1.00  0.00     0.430 C 
ATOM     24  F   UNL A   1      33.794  20.778  27.629  1.00  0.00    -0.167 F 
ATOM     25  F   UNL A   1      34.637  22.778  27.797  1.00  0.00    -0.167 F 
ATOM     26  F   UNL A   1      32.534  22.445  28.262  1.00  0.00    -0.167 F 
ENDBRANCH  22  23
ENDBRANCH   9  11
ENDBRANCH   8   9
ENDBRANCH   7   8
ENDBRANCH   6   7
ENDBRANCH   5   6
ENDBRANCH   4   5
ENDBRANCH   3   4
ENDBRANCH   2   3
ENDBRANCH   1   2
BRANCH   1  27
ATOM     27  C   UNL A   1      44.743  20.064  24.889  1.00  0.00     0.188 C 
BRANCH  27  28
ATOM     28  O   UNL A   1      44.309  20.898  23.812  1.00  0.00    -0.376 OA
BRANCH  28  29
ATOM     29  C   UNL A   1      44.854  22.213  23.771  1.00  0.00     0.202 C 
BRANCH  29  30
ATOM     30  C   UNL A   1      44.024  23.261  24.525  1.00  0.00     0.261 C 
BRANCH  30  31
ATOM     31  O   UNL A   1      44.674  23.849  25.663  1.00  0.00    -0.460 OA
BRANCH  31  32
ATOM     32  C   UNL A   1      45.430  24.947  25.446  1.00  0.00     0.338 C 
ATOM     33  O   UNL A   1      46.301  25.085  24.606  1.00  0.00    -0.246 OA
BRANCH  32  34
ATOM     34  C   UNL A   1      44.879  26.044  26.266  1.00  0.00     0.060 A 
ATOM     35  C   UNL A   1      44.403  27.192  25.620  1.00  0.00     0.016 A 
ATOM     36  C   UNL A   1      44.844  25.943  27.659  1.00  0.00     0.016 A 
ATOM     37  C   UNL A   1      43.937  28.269  26.372  1.00  0.00     0.010 A 
ATOM     38  C   UNL A   1      44.401  27.031  28.411  1.00  0.00     0.010 A 
ATOM     39  C   UNL A   1      43.989  28.212  27.771  1.00  0.00    -0.014 A 
BRANCH  39  40
ATOM     40  C   UNL A   1      43.871  29.462  28.556  1.00  0.00     0.031 A 
ATOM     41  C   UNL A   1      45.110  30.301  28.721  1.00  0.00     0.074 A 
ATOM     42  C   UNL A   1      42.707  29.846  29.107  1.00  0.00     0.049 A 
ATOM     43  N   UNL A   1      45.275  31.410  29.390  1.00  0.00    -0.248 NA
ATOM     44  C   UNL A   1      46.324  29.822  28.037  1.00  0.00     0.031 C 
ATOM     45  C   UNL A   1      41.439  29.131  28.994  1.00  0.00     0.029 A 
ATOM     46  N   UNL A   1      42.415  30.934  29.891  1.00  0.00    -0.354 N 
ATOM     47  C   UNL A   1      46.610  31.754  29.219  1.00  0.00     0.074 A 
ATOM     48  C   UNL A   1      47.216  30.731  28.399  1.00  0.00     0.031 C 
ATOM     49  C   UNL A   1      40.505  29.789  29.705  1.00  0.00     0.029 A 
ATOM     50  C   UNL A   1      41.116  30.957  30.341  1.00  0.00     0.049 A 
ATOM     51  H   UNL A   1      43.074  31.632  30.112  1.00  0.00     0.167 HD
ATOM     52  C   UNL A   1      47.271  32.838  29.685  1.00  0.00     0.034 A 
ATOM     53  C   UNL A   1      40.501  31.814  31.182  1.00  0.00     0.034 A 
ATOM     54  C   UNL A   1      46.669  33.858  30.496  1.00  0.00     0.049 A 
ATOM     55  C   UNL A   1      41.280  32.979  31.744  1.00  0.00     0.074 A 
ATOM     56  C   UNL A   1      47.251  35.005  31.004  1.00  0.00     0.029 A 
ATOM     57  N   UNL A   1      45.352  33.849  30.927  1.00  0.00    -0.354 N 
ATOM     58  N   UNL A   1      42.513  33.350  31.493  1.00  0.00    -0.248 NA
ATOM     59  C   UNL A   1      40.574  33.858  32.689  1.00  0.00     0.031 C 
ATOM     60  C   UNL A   1      46.291  35.679  31.764  1.00  0.00     0.029 A 
ATOM     61  C   UNL A   1      45.104  34.964  31.710  1.00  0.00     0.049 A 
ATOM     62  H   UNL A   1      44.690  33.154  30.710  1.00  0.00     0.167 HD
ATOM     63  C   UNL A   1      42.722  34.513  32.229  1.00  0.00     0.074 A 
ATOM     64  C   UNL A   1      41.479  34.802  32.912  1.00  0.00     0.031 C 
ATOM     65  C   UNL A   1      43.848  35.262  32.347  1.00  0.00     0.034 A 
BRANCH  52  66
ATOM     66  C   UNL A   1      48.715  32.993  29.298  1.00  0.00     0.023 A 
ATOM     67  C   UNL A   1      49.719  32.549  30.183  1.00  0.00     0.012 A 
ATOM     68  C   UNL A   1      49.079  33.520  28.044  1.00  0.00     0.148 A 
ATOM     69  C   UNL A   1      51.065  32.644  29.834  1.00  0.00     0.002 A 
ATOM     70  C   UNL A   1      50.421  33.572  27.686  1.00  0.00     0.091 A 
ATOM     71  F   UNL A   1      48.109  33.962  27.232  1.00  0.00    -0.205 F 
ATOM     72  C   UNL A   1      51.414  33.144  28.581  1.00  0.00     0.022 A 
BRANCH  70  73
ATOM     73  S   UNL A   1      50.973  34.131  26.071  1.00  0.00     0.127 S 
ATOM     74  O   UNL A   1      50.277  35.411  25.947  1.00  0.00    -0.237 OA
ATOM     75  O   UNL A   1      52.419  34.238  26.263  1.00  0.00    -0.237 OA
ATOM     76  O   UNL A   1      50.557  33.104  25.126  1.00  0.00    -0.744 OA
ENDBRANCH  70  73
ENDBRANCH  52  66
BRANCH  53  77
ATOM     77  C   UNL A   1      39.061  31.627  31.518  1.00  0.00     0.023 A 
ATOM     78  C   UNL A   1      38.710  30.960  32.708  1.00  0.00     0.012 A 
ATOM     79  C   UNL A   1      38.040  32.119  30.682  1.00  0.00     0.148 A 
ATOM     80  C   UNL A   1      37.371  30.766  33.048  1.00  0.00     0.002 A 
ATOM     81  C   UNL A   1      36.708  31.971  31.054  1.00  0.00     0.091 A 
ATOM     82  F   UNL A   1      38.391  32.730  29.542  1.00  0.00    -0.205 F 
ATOM     83  C   UNL A   1      36.371  31.282  32.229  1.00  0.00     0.022 A 
BRANCH  81  84
ATOM     84  S   UNL A   1      35.357  32.712  30.129  1.00  0.00     0.127 S 
ATOM     85  O   UNL A   1      34.260  32.639  31.091  1.00  0.00    -0.237 OA
ATOM     86  O   UNL A   1      35.870  34.060  29.878  1.00  0.00    -0.237 OA
ATOM     87  O   UNL A   1      35.203  31.894  28.933  1.00  0.00    -0.744 OA
ENDBRANCH  81  84
ENDBRANCH  53  77
BRANCH  65  88
ATOM     88  C   UNL A   1      43.804  36.472  33.246  1.00  0.00     0.023 A 
ATOM     89  C   UNL A   1      44.025  36.314  34.628  1.00  0.00     0.012 A 
ATOM     90  C   UNL A   1      43.661  37.769  32.712  1.00  0.00     0.148 A 
ATOM     91  C   UNL A   1      44.082  37.425  35.469  1.00  0.00     0.002 A 
ATOM     92  C   UNL A   1      43.769  38.875  33.549  1.00  0.00     0.091 A 
ATOM     93  F   UNL A   1      43.437  37.899  31.397  1.00  0.00    -0.205 F 
ATOM     94  C   UNL A   1      43.968  38.704  34.929  1.00  0.00     0.022 A 
BRANCH  92  95
ATOM     95  S   UNL A   1      43.744  40.561  32.927  1.00  0.00     0.127 S 
ATOM     96  O   UNL A   1      42.424  40.628  32.303  1.00  0.00    -0.237 OA
ATOM     97  O   UNL A   1      43.879  41.347  34.155  1.00  0.00    -0.237 OA
ATOM     98  O   UNL A   1      44.874  40.668  32.015  1.00  0.00    -0.744 OA
ENDBRANCH  92  95
ENDBRANCH  65  88
ENDBRANCH  39  40
ENDBRANCH  32  34
ENDBRANCH  31  32
ENDBRANCH  30  31
ENDBRANCH  29  30
ENDBRANCH  28  29
ENDBRANCH  27  28
ENDBRANCH   1  27
TORSDOF 24
ENDMDL
MODEL 2
REMARK VINA RESULT:      -8.9      2.672      7.807
REMARK SMILES Cc1cc(Cl)cc2c1O[C@H](C(F)(F)F)C(C(=O)OCCOCCOCCOCCOC(=O)c1ccc(-c3c4nc(c(-c5cccc(S(=O)(=O)[O-])c5F)c5ccc([nH]5)c(-c5cccc(S(=O)(=O)[O-])c5F)c5nc(c(-c6cccc(S(=O)(=O)[O-])c6F)c6ccc3[nH]6)C=C5)C=C4)cc1)=C2
REMARK SMILES IDX 25 1 24 2 23 3 22 4 21 5 20 6 19 7 18 8 16 9 17 10 15 11
REMARK SMILES IDX 1 12 2 13 3 14 8 15 4 16 7 17 9 18 5 19 6 20 96 21 10 22
REMARK SMILES IDX 11 23 12 24 13 25 14 26 26 27 27 28 28 29 29 30 30 31 31 32
REMARK SMILES IDX 32 33 33 34 34 35 95 36 35 37 94 38 36 39 37 40 38 41 88 42
REMARK SMILES IDX 39 43 93 44 87 45 89 46 40 47 92 48 86 49 85 50 41 52 73 53
REMARK SMILES IDX 53 54 72 55 54 56 57 57 71 58 90 59 55 60 56 61 70 63 91 64
REMARK SMILES IDX 58 65 42 66 43 67 51 68 44 69 46 70 52 71 45 72 47 73 48 74
REMARK SMILES IDX 49 75 50 76 74 77 75 78 83 79 76 80 78 81 84 82 77 83 79 84
REMARK SMILES IDX 80 85 81 86 82 87 59 88 60 89 68 90 61 91 63 92 69 93 62 94
REMARK SMILES IDX 64 95 65 96 66 97 67 98
REMARK H PARENT 89 51 57 62
REMARK Flexibility Score: inf
ROOT
ATOM      1  C   UNL A   1      43.238  18.829  25.701  1.00  0.00     0.188 C 
ENDROOT
BRANCH   1   2
ATOM      2  O   UNL A   1      41.965  19.387  25.374  1.00  0.00    -0.377 OA
BRANCH   2   3
ATOM      3  C   UNL A   1      41.551  20.516  26.128  1.00  0.00     0.188 C 
BRANCH   3   4
ATOM      4  C   UNL A   1      40.018  20.631  26.193  1.00  0.00     0.188 C 
BRANCH   4   5
ATOM      5  O   UNL A   1      39.566  21.974  26.291  1.00  0.00    -0.376 OA
BRANCH   5   6
ATOM      6  C   UNL A   1      38.273  22.310  25.800  1.00  0.00     0.202 C 
BRANCH   6   7
ATOM      7  C   UNL A   1      37.365  21.262  25.132  1.00  0.00     0.261 C 
BRANCH   7   8
ATOM      8  O   UNL A   1      36.126  21.737  24.588  1.00  0.00    -0.460 OA
BRANCH   8   9
ATOM      9  C   UNL A   1      35.104  21.981  25.425  1.00  0.00     0.338 C 
ATOM     10  O   UNL A   1      34.889  21.443  26.499  1.00  0.00    -0.246 OA
BRANCH   9  11
ATOM     11  C   UNL A   1      34.376  23.160  24.902  1.00  0.00     0.087 C 
ATOM     12  C   UNL A   1      31.285  26.422  22.374  1.00  0.00     0.048 C 
ATOM     13  C   UNL A   1      32.274  26.502  23.505  1.00  0.00    -0.007 A 
ATOM     14  C   UNL A   1      32.423  27.725  24.177  1.00  0.00     0.027 A 
ATOM     15  C   UNL A   1      33.023  25.392  23.933  1.00  0.00     0.131 A 
ATOM     16  C   UNL A   1      33.305  27.836  25.249  1.00  0.00     0.042 A 
ATOM     17  C   UNL A   1      33.870  25.497  25.043  1.00  0.00     0.019 A 
ATOM     18  O   UNL A   1      32.870  24.234  23.227  1.00  0.00    -0.475 OA
ATOM     19  Cl  UNL A   1      33.478  29.344  26.062  1.00  0.00    -0.084 Cl
ATOM     20  C   UNL A   1      34.028  26.730  25.686  1.00  0.00     0.032 A 
ATOM     21  C   UNL A   1      34.542  24.315  25.559  1.00  0.00     0.027 C 
ATOM     22  C   UNL A   1      33.579  23.030  23.628  1.00  0.00     0.316 C 
BRANCH  22  23
ATOM     23  C   UNL A   1      32.553  21.890  23.692  1.00  0.00     0.430 C 
ATOM     24  F   UNL A   1      33.144  20.687  23.503  1.00  0.00    -0.167 F 
ATOM     25  F   UNL A   1      31.916  21.841  24.882  1.00  0.00    -0.167 F 
ATOM     26  F   UNL A   1      31.605  22.031  22.733  1.00  0.00    -0.167 F 
ENDBRANCH  22  23
ENDBRANCH   9  11
ENDBRANCH   8   9
ENDBRANCH   7   8
ENDBRANCH   6   7
ENDBRANCH   5   6
ENDBRANCH   4   5
ENDBRANCH   3   4
ENDBRANCH   2   3
ENDBRANCH   1   2
BRANCH   1  27
ATOM     27  C   UNL A   1      44.521  19.409  25.067  1.00  0.00     0.188 C 
BRANCH  27  28
ATOM     28  O   UNL A   1      44.277  20.204  23.904  1.00  0.00    -0.376 OA
BRANCH  28  29
ATOM     29  C   UNL A   1      44.923  21.472  23.857  1.00  0.00     0.202 C 
BRANCH  29  30
ATOM     30  C   UNL A   1      44.040  22.645  24.303  1.00  0.00     0.261 C 
BRANCH  30  31
ATOM     31  O   UNL A   1      44.167  23.014  25.685  1.00  0.00    -0.460 OA
BRANCH  31  32
ATOM     32  C   UNL A   1      45.417  23.165  26.174  1.00  0.00     0.338 C 
ATOM     33  O   UNL A   1      46.291  22.320  26.227  1.00  0.00    -0.246 OA
BRANCH  32  34
ATOM     34  C   UNL A   1      45.624  24.601  26.447  1.00  0.00     0.060 A 
ATOM     35  C   UNL A   1      46.086  24.984  27.713  1.00  0.00     0.016 A 
ATOM     36  C   UNL A   1      45.353  25.558  25.467  1.00  0.00     0.016 A 
ATOM     37  C   UNL A   1      46.229  26.336  28.019  1.00  0.00     0.010 A 
ATOM     38  C   UNL A   1      45.473  26.911  25.783  1.00  0.00     0.010 A 
ATOM     39  C   UNL A   1      45.868  27.304  27.074  1.00  0.00    -0.014 A 
BRANCH  39  40
ATOM     40  C   UNL A   1      45.645  28.702  27.509  1.00  0.00     0.031 A 
ATOM     41  C   UNL A   1      44.296  29.048  28.080  1.00  0.00     0.074 A 
ATOM     42  C   UNL A   1      46.603  29.638  27.405  1.00  0.00     0.049 A 
ATOM     43  N   UNL A   1      43.842  30.200  28.493  1.00  0.00    -0.248 NA
ATOM     44  C   UNL A   1      43.329  27.941  28.201  1.00  0.00     0.031 C 
ATOM     45  C   UNL A   1      47.952  29.416  26.893  1.00  0.00     0.029 A 
ATOM     46  N   UNL A   1      46.571  30.975  27.712  1.00  0.00    -0.354 N 
ATOM     47  C   UNL A   1      42.539  29.961  28.910  1.00  0.00     0.074 A 
ATOM     48  C   UNL A   1      42.265  28.561  28.685  1.00  0.00     0.031 C 
ATOM     49  C   UNL A   1      48.617  30.586  26.901  1.00  0.00     0.029 A 
ATOM     50  C   UNL A   1      47.731  31.641  27.395  1.00  0.00     0.049 A 
ATOM     51  H   UNL A   1      45.791  31.416  28.121  1.00  0.00     0.167 HD
ATOM     52  C   UNL A   1      41.652  30.827  29.452  1.00  0.00     0.034 A 
ATOM     53  C   UNL A   1      48.032  32.954  27.480  1.00  0.00     0.034 A 
ATOM     54  C   UNL A   1      41.924  32.218  29.680  1.00  0.00     0.049 A 
ATOM     55  C   UNL A   1      47.000  33.911  28.026  1.00  0.00     0.074 A 
ATOM     56  C   UNL A   1      41.096  33.173  30.240  1.00  0.00     0.029 A 
ATOM     57  N   UNL A   1      43.110  32.855  29.350  1.00  0.00    -0.354 N 
ATOM     58  N   UNL A   1      45.808  33.656  28.511  1.00  0.00    -0.248 NA
ATOM     59  C   UNL A   1      47.364  35.336  28.056  1.00  0.00     0.031 C 
ATOM     60  C   UNL A   1      41.774  34.396  30.228  1.00  0.00     0.029 A 
ATOM     61  C   UNL A   1      43.032  34.196  29.681  1.00  0.00     0.049 A 
ATOM     62  H   UNL A   1      43.892  32.419  28.941  1.00  0.00     0.167 HD
ATOM     63  C   UNL A   1      45.291  34.882  28.923  1.00  0.00     0.074 A 
ATOM     64  C   UNL A   1      46.312  35.874  28.658  1.00  0.00     0.031 C 
ATOM     65  C   UNL A   1      44.074  35.164  29.452  1.00  0.00     0.034 A 
BRANCH  52  66
ATOM     66  C   UNL A   1      40.314  30.283  29.869  1.00  0.00     0.023 A 
ATOM     67  C   UNL A   1      39.314  30.090  28.894  1.00  0.00     0.012 A 
ATOM     68  C   UNL A   1      40.065  29.910  31.203  1.00  0.00     0.148 A 
ATOM     69  C   UNL A   1      38.076  29.550  29.245  1.00  0.00     0.002 A 
ATOM     70  C   UNL A   1      38.845  29.334  31.537  1.00  0.00     0.091 A 
ATOM     71  F   UNL A   1      41.020  30.130  32.117  1.00  0.00    -0.205 F 
ATOM     72  C   UNL A   1      37.848  29.162  30.563  1.00  0.00     0.022 A 
BRANCH  70  73
ATOM     73  S   UNL A   1      38.475  28.732  33.188  1.00  0.00     0.127 S 
ATOM     74  O   UNL A   1      39.236  27.485  33.225  1.00  0.00    -0.237 OA
ATOM     75  O   UNL A   1      39.012  29.801  34.031  1.00  0.00    -0.237 OA
ATOM     76  O   UNL A   1      37.028  28.578  33.246  1.00  0.00    -0.744 OA
ENDBRANCH  70  73
ENDBRANCH  52  66
BRANCH  53  77
ATOM     77  C   UNL A   1      49.382  33.439  27.073  1.00  0.00     0.023 A 
ATOM     78  C   UNL A   1      49.587  33.881  25.751  1.00  0.00     0.012 A 
ATOM     79  C   UNL A   1      50.455  33.483  27.983  1.00  0.00     0.148 A 
ATOM     80  C   UNL A   1      50.839  34.337  25.338  1.00  0.00     0.002 A 
ATOM     81  C   UNL A   1      51.685  33.990  27.581  1.00  0.00     0.091 A 
ATOM     82  F   UNL A   1      50.248  33.036  29.230  1.00  0.00    -0.205 F 
ATOM     83  C   UNL A   1      51.884  34.404  26.255  1.00  0.00     0.022 A 
BRANCH  81  84
ATOM     84  S   UNL A   1      53.052  34.233  28.723  1.00  0.00     0.127 S 
ATOM     85  O   UNL A   1      54.201  33.882  27.892  1.00  0.00    -0.237 OA
ATOM     86  O   UNL A   1      52.929  35.657  29.038  1.00  0.00    -0.237 OA
ATOM     87  O   UNL A   1      52.790  33.342  29.846  1.00  0.00    -0.744 OA
ENDBRANCH  81  84
ENDBRANCH  53  77
BRANCH  65  88
ATOM     88  C   UNL A   1      43.761  36.602  29.786  1.00  0.00     0.023 A 
ATOM     89  C   UNL A   1      44.223  37.144  31.001  1.00  0.00     0.012 A 
ATOM     90  C   UNL A   1      43.117  37.441  28.854  1.00  0.00     0.148 A 
ATOM     91  C   UNL A   1      44.029  38.494  31.294  1.00  0.00     0.002 A 
ATOM     92  C   UNL A   1      42.973  38.796  29.131  1.00  0.00     0.091 A 
ATOM     93  F   UNL A   1      42.672  36.903  27.709  1.00  0.00    -0.205 F 
ATOM     94  C   UNL A   1      43.417  39.321  30.355  1.00  0.00     0.022 A 
BRANCH  92  95
ATOM     95  S   UNL A   1      42.296  39.958  27.938  1.00  0.00     0.127 S 
ATOM     96  O   UNL A   1      41.493  40.829  28.795  1.00  0.00    -0.237 OA
ATOM     97  O   UNL A   1      43.503  40.581  27.392  1.00  0.00    -0.237 OA
ATOM     98  O   UNL A   1      41.545  39.156  26.980  1.00  0.00    -0.744 OA
ENDBRANCH  92  95
ENDBRANCH  65  88
ENDBRANCH  39  40
ENDBRANCH  32  34
ENDBRANCH  31  32
ENDBRANCH  30  31
ENDBRANCH  29  30
ENDBRANCH  28  29
ENDBRANCH  27  28
ENDBRANCH   1  27
TORSDOF 24
ENDMDL
MODEL 3
REMARK VINA RESULT:      -8.8      5.352      8.105
REMARK SMILES Cc1cc(Cl)cc2c1O[C@H](C(F)(F)F)C(C(=O)OCCOCCOCCOCCOC(=O)c1ccc(-c3c4nc(c(-c5cccc(S(=O)(=O)[O-])c5F)c5ccc([nH]5)c(-c5cccc(S(=O)(=O)[O-])c5F)c5nc(c(-c6cccc(S(=O)(=O)[O-])c6F)c6ccc3[nH]6)C=C5)C=C4)cc1)=C2
REMARK SMILES IDX 25 1 24 2 23 3 22 4 21 5 20 6 19 7 18 8 16 9 17 10 15 11
REMARK SMILES IDX 1 12 2 13 3 14 8 15 4 16 7 17 9 18 5 19 6 20 96 21 10 22
REMARK SMILES IDX 11 23 12 24 13 25 14 26 26 27 27 28 28 29 29 30 30 31 31 32
REMARK SMILES IDX 32 33 33 34 34 35 95 36 35 37 94 38 36 39 37 40 38 41 88 42
REMARK SMILES IDX 39 43 93 44 87 45 89 46 40 47 92 48 86 49 85 50 41 52 73 53
REMARK SMILES IDX 53 54 72 55 54 56 57 57 71 58 90 59 55 60 56 61 70 63 91 64
REMARK SMILES IDX 58 65 42 66 43 67 51 68 44 69 46 70 52 71 45 72 47 73 48 74
REMARK SMILES IDX 49 75 50 76 74 77 75 78 83 79 76 80 78 81 84 82 77 83 79 84
REMARK SMILES IDX 80 85 81 86 82 87 59 88 60 89 68 90 61 91 63 92 69 93 62 94
REMARK SMILES IDX 64 95 65 96 66 97 67 98
REMARK H PARENT 89 51 57 62
REMARK Flexibility Score: inf
ROOT
ATOM      1  C   UNL A   1      41.406  19.540  26.104  1.00  0.00     0.188 C 
ENDROOT
BRANCH   1   2
ATOM      2  O   UNL A   1      40.151  20.207  26.232  1.00  0.00    -0.377 OA
BRANCH   2   3
ATOM      3  C   UNL A   1      40.168  21.623  26.148  1.00  0.00     0.188 C 
BRANCH   3   4
ATOM      4  C   UNL A   1      40.270  22.279  27.536  1.00  0.00     0.188 C 
BRANCH   4   5
ATOM      5  O   UNL A   1      39.765  23.606  27.561  1.00  0.00    -0.376 OA
BRANCH   5   6
ATOM      6  C   UNL A   1      40.678  24.696  27.608  1.00  0.00     0.202 C 
BRANCH   6   7
ATOM      7  C   UNL A   1      40.361  26.046  26.938  1.00  0.00     0.261 C 
BRANCH   7   8
ATOM      8  O   UNL A   1      39.759  27.050  27.766  1.00  0.00    -0.460 OA
BRANCH   8   9
ATOM      9  C   UNL A   1      40.269  28.293  27.749  1.00  0.00     0.338 C 
ATOM     10  O   UNL A   1      40.558  28.956  26.766  1.00  0.00    -0.246 OA
BRANCH   9  11
ATOM     11  C   UNL A   1      40.247  28.799  29.140  1.00  0.00     0.087 C 
ATOM     12  C   UNL A   1      39.338  31.353  33.527  1.00  0.00     0.048 C 
ATOM     13  C   UNL A   1      40.145  30.156  33.102  1.00  0.00    -0.007 A 
ATOM     14  C   UNL A   1      40.810  29.413  34.089  1.00  0.00     0.027 A 
ATOM     15  C   UNL A   1      40.227  29.739  31.762  1.00  0.00     0.131 A 
ATOM     16  C   UNL A   1      41.544  28.281  33.743  1.00  0.00     0.042 A 
ATOM     17  C   UNL A   1      40.924  28.571  31.427  1.00  0.00     0.019 A 
ATOM     18  O   UNL A   1      39.592  30.512  30.833  1.00  0.00    -0.475 OA
ATOM     19  Cl  UNL A   1      42.356  27.382  34.966  1.00  0.00    -0.084 Cl
ATOM     20  C   UNL A   1      41.604  27.856  32.419  1.00  0.00     0.032 A 
ATOM     21  C   UNL A   1      40.896  28.074  30.061  1.00  0.00     0.027 C 
ATOM     22  C   UNL A   1      39.595  30.128  29.431  1.00  0.00     0.316 C 
BRANCH  22  23
ATOM     23  C   UNL A   1      38.144  30.192  28.932  1.00  0.00     0.430 C 
ATOM     24  F   UNL A   1      37.554  28.975  28.988  1.00  0.00    -0.167 F 
ATOM     25  F   UNL A   1      37.389  31.038  29.665  1.00  0.00    -0.167 F 
ATOM     26  F   UNL A   1      38.088  30.612  27.646  1.00  0.00    -0.167 F 
ENDBRANCH  22  23
ENDBRANCH   9  11
ENDBRANCH   8   9
ENDBRANCH   7   8
ENDBRANCH   6   7
ENDBRANCH   5   6
ENDBRANCH   4   5
ENDBRANCH   3   4
ENDBRANCH   2   3
ENDBRANCH   1   2
BRANCH   1  27
ATOM     27  C   UNL A   1      42.722  20.334  26.260  1.00  0.00     0.188 C 
BRANCH  27  28
ATOM     28  O   UNL A   1      43.367  20.623  25.018  1.00  0.00    -0.376 OA
BRANCH  28  29
ATOM     29  C   UNL A   1      44.751  20.951  25.085  1.00  0.00     0.202 C 
BRANCH  29  30
ATOM     30  C   UNL A   1      45.142  22.194  24.274  1.00  0.00     0.261 C 
BRANCH  30  31
ATOM     31  O   UNL A   1      44.842  23.451  24.901  1.00  0.00    -0.460 OA
BRANCH  31  32
ATOM     32  C   UNL A   1      45.836  24.363  24.968  1.00  0.00     0.338 C 
ATOM     33  O   UNL A   1      46.816  24.434  24.250  1.00  0.00    -0.246 OA
BRANCH  32  34
ATOM     34  C   UNL A   1      45.430  25.402  25.935  1.00  0.00     0.060 A 
ATOM     35  C   UNL A   1      46.243  26.532  26.087  1.00  0.00     0.016 A 
ATOM     36  C   UNL A   1      44.265  25.255  26.690  1.00  0.00     0.016 A 
ATOM     37  C   UNL A   1      45.919  27.498  27.038  1.00  0.00     0.010 A 
ATOM     38  C   UNL A   1      43.955  26.209  27.659  1.00  0.00     0.010 A 
ATOM     39  C   UNL A   1      44.805  27.309  27.866  1.00  0.00    -0.014 A 
BRANCH  39  40
ATOM     40  C   UNL A   1      44.677  28.105  29.108  1.00  0.00     0.031 A 
ATOM     41  C   UNL A   1      45.183  27.490  30.385  1.00  0.00     0.074 A 
ATOM     42  C   UNL A   1      44.131  29.332  29.111  1.00  0.00     0.049 A 
ATOM     43  N   UNL A   1      45.151  27.963  31.602  1.00  0.00    -0.248 NA
ATOM     44  C   UNL A   1      45.812  26.161  30.271  1.00  0.00     0.031 C 
ATOM     45  C   UNL A   1      43.630  30.040  27.936  1.00  0.00     0.029 A 
ATOM     46  N   UNL A   1      43.892  30.193  30.153  1.00  0.00    -0.354 N 
ATOM     47  C   UNL A   1      45.741  26.988  32.398  1.00  0.00     0.074 A 
ATOM     48  C   UNL A   1      46.106  25.890  31.533  1.00  0.00     0.031 C 
ATOM     49  C   UNL A   1      43.121  31.222  28.326  1.00  0.00     0.029 A 
ATOM     50  C   UNL A   1      43.239  31.343  29.780  1.00  0.00     0.049 A 
ATOM     51  H   UNL A   1      44.162  30.004  31.081  1.00  0.00     0.167 HD
ATOM     52  C   UNL A   1      45.977  27.013  33.729  1.00  0.00     0.034 A 
ATOM     53  C   UNL A   1      42.776  32.364  30.531  1.00  0.00     0.034 A 
ATOM     54  C   UNL A   1      45.618  28.104  34.589  1.00  0.00     0.049 A 
ATOM     55  C   UNL A   1      42.992  32.336  32.024  1.00  0.00     0.074 A 
ATOM     56  C   UNL A   1      45.830  28.231  35.949  1.00  0.00     0.029 A 
ATOM     57  N   UNL A   1      44.962  29.253  34.174  1.00  0.00    -0.354 N 
ATOM     58  N   UNL A   1      43.641  31.457  32.751  1.00  0.00    -0.248 NA
ATOM     59  C   UNL A   1      42.431  33.452  32.800  1.00  0.00     0.031 C 
ATOM     60  C   UNL A   1      45.280  29.447  36.363  1.00  0.00     0.029 A 
ATOM     61  C   UNL A   1      44.746  30.089  35.256  1.00  0.00     0.049 A 
ATOM     62  H   UNL A   1      44.689  29.446  33.249  1.00  0.00     0.167 HD
ATOM     63  C   UNL A   1      43.585  31.925  34.061  1.00  0.00     0.074 A 
ATOM     64  C   UNL A   1      42.865  33.180  34.024  1.00  0.00     0.031 C 
ATOM     65  C   UNL A   1      44.066  31.357  35.196  1.00  0.00     0.034 A 
BRANCH  52  66
ATOM     66  C   UNL A   1      46.689  25.834  34.332  1.00  0.00     0.023 A 
ATOM     67  C   UNL A   1      48.099  25.819  34.356  1.00  0.00     0.012 A 
ATOM     68  C   UNL A   1      45.973  24.776  34.922  1.00  0.00     0.148 A 
ATOM     69  C   UNL A   1      48.787  24.757  34.943  1.00  0.00     0.002 A 
ATOM     70  C   UNL A   1      46.665  23.742  35.543  1.00  0.00     0.091 A 
ATOM     71  F   UNL A   1      44.635  24.798  34.861  1.00  0.00    -0.205 F 
ATOM     72  C   UNL A   1      48.069  23.727  35.546  1.00  0.00     0.022 A 
BRANCH  70  73
ATOM     73  S   UNL A   1      45.839  22.405  36.411  1.00  0.00     0.127 S 
ATOM     74  O   UNL A   1      46.957  21.512  36.709  1.00  0.00    -0.237 OA
ATOM     75  O   UNL A   1      45.281  23.094  37.574  1.00  0.00    -0.237 OA
ATOM     76  O   UNL A   1      44.850  21.873  35.483  1.00  0.00    -0.744 OA
ENDBRANCH  70  73
ENDBRANCH  52  66
BRANCH  53  77
ATOM     77  C   UNL A   1      42.095  33.520  29.881  1.00  0.00     0.023 A 
ATOM     78  C   UNL A   1      40.687  33.589  29.896  1.00  0.00     0.012 A 
ATOM     79  C   UNL A   1      42.825  34.557  29.268  1.00  0.00     0.148 A 
ATOM     80  C   UNL A   1      40.021  34.657  29.293  1.00  0.00     0.002 A 
ATOM     81  C   UNL A   1      42.156  35.645  28.718  1.00  0.00     0.091 A 
ATOM     82  F   UNL A   1      44.161  34.463  29.243  1.00  0.00    -0.205 F 
ATOM     83  C   UNL A   1      40.753  35.689  28.716  1.00  0.00     0.022 A 
BRANCH  81  84
ATOM     84  S   UNL A   1      43.017  37.081  28.067  1.00  0.00     0.127 S 
ATOM     85  O   UNL A   1      43.732  36.509  26.928  1.00  0.00    -0.237 OA
ATOM     86  O   UNL A   1      41.903  37.964  27.717  1.00  0.00    -0.237 OA
ATOM     87  O   UNL A   1      43.852  37.568  29.156  1.00  0.00    -0.744 OA
ENDBRANCH  81  84
ENDBRANCH  53  77
BRANCH  65  88
ATOM     88  C   UNL A   1      43.838  32.076  36.502  1.00  0.00     0.023 A 
ATOM     89  C   UNL A   1      44.924  32.701  37.146  1.00  0.00     0.012 A 
ATOM     90  C   UNL A   1      42.539  32.233  37.027  1.00  0.00     0.148 A 
ATOM     91  C   UNL A   1      44.725  33.450  38.305  1.00  0.00     0.002 A 
ATOM     92  C   UNL A   1      42.342  33.024  38.154  1.00  0.00     0.091 A 
ATOM     93  F   UNL A   1      41.519  31.621  36.408  1.00  0.00    -0.205 F 
ATOM     94  C   UNL A   1      43.435  33.623  38.801  1.00  0.00     0.022 A 
BRANCH  92  95
ATOM     95  S   UNL A   1      40.705  33.392  38.800  1.00  0.00     0.127 S 
ATOM     96  O   UNL A   1      40.467  34.729  38.260  1.00  0.00    -0.237 OA
ATOM     97  O   UNL A   1      39.889  32.336  38.199  1.00  0.00    -0.237 OA
ATOM     98  O   UNL A   1      40.821  33.314  40.250  1.00  0.00    -0.744 OA
ENDBRANCH  92  95
ENDBRANCH  65  88
ENDBRANCH  39  40
ENDBRANCH  32  34
ENDBRANCH  31  32
ENDBRANCH  30  31
ENDBRANCH  29  30
ENDBRANCH  28  29
ENDBRANCH  27  28
ENDBRANCH   1  27
TORSDOF 24
ENDMDL
