MODEL 1
REMARK VINA RESULT:      -9.8      0.000      0.000
REMARK SMILES Cc1nc2scc(C)n2c1CNc1ccc(C(=O)OCCOCCOCCOCCOC(=O)c2ccc(-c3c4nc(c(-c5cccc(S(=O)(=O)[O-])c5F)c5ccc([nH]5)c(-c5cccc(S(=O)(=O)[O-])c5F)c5nc(c(-c6cccc(S(=O)(=O)[O-])c6F)c6ccc3[nH]6)C=C5)C=C4)cc2)cc1
REMARK SMILES IDX 25 1 24 2 23 3 22 4 21 5 20 6 19 7 17 8 18 9 16 10 13 11
REMARK SMILES IDX 14 12 98 13 15 14 97 15 12 16 11 18 10 19 1 20 2 21 3 22
REMARK SMILES IDX 4 23 9 24 5 25 7 26 6 27 8 28 26 29 27 30 28 31 29 32 30 33
REMARK SMILES IDX 31 34 32 35 33 36 34 37 35 38 96 39 36 40 95 41 37 42 38 43
REMARK SMILES IDX 39 44 89 45 40 46 94 47 88 48 90 49 41 50 93 51 87 52 86 53
REMARK SMILES IDX 42 55 74 56 54 57 73 58 55 59 58 60 72 61 91 62 56 63 57 64
REMARK SMILES IDX 71 66 92 67 59 68 43 69 44 70 52 71 45 72 47 73 53 74 46 75
REMARK SMILES IDX 48 76 49 77 50 78 51 79 75 80 76 81 84 82 77 83 79 84 85 85
REMARK SMILES IDX 78 86 80 87 81 88 82 89 83 90 60 91 61 92 69 93 62 94 64 95
REMARK SMILES IDX 70 96 63 97 65 98 66 99 67 100 68 101
REMARK H PARENT 12 17 90 54 58 65
REMARK Flexibility Score: inf
ROOT
ATOM      1  O   UNL A   1      34.136  33.241  29.675  1.00  0.00    -0.377 OA
ENDROOT
BRANCH   1   2
ATOM      2  C   UNL A   1      34.676  32.555  28.560  1.00  0.00     0.188 C 
BRANCH   2   3
ATOM      3  C   UNL A   1      33.727  31.488  27.969  1.00  0.00     0.188 C 
BRANCH   3   4
ATOM      4  O   UNL A   1      34.197  30.445  27.127  1.00  0.00    -0.376 OA
BRANCH   4   5
ATOM      5  C   UNL A   1      33.324  29.548  26.460  1.00  0.00     0.202 C 
BRANCH   5   6
ATOM      6  C   UNL A   1      32.047  29.978  25.715  1.00  0.00     0.261 C 
BRANCH   6   7
ATOM      7  O   UNL A   1      32.004  29.741  24.310  1.00  0.00    -0.460 OA
BRANCH   7   8
ATOM      8  C   UNL A   1      30.951  29.029  23.872  1.00  0.00     0.338 C 
ATOM      9  O   UNL A   1      29.833  29.444  23.595  1.00  0.00    -0.246 OA
BRANCH   8  10
ATOM     10  C   UNL A   1      31.403  27.654  23.589  1.00  0.00     0.060 A 
ATOM     11  C   UNL A   1      32.301  25.144  22.772  1.00  0.00     0.034 A 
ATOM     12  C   UNL A   1      33.209  26.195  22.917  1.00  0.00     0.026 A 
ATOM     13  C   UNL A   1      30.981  25.321  23.212  1.00  0.00     0.026 A 
ATOM     14  C   UNL A   1      32.754  27.458  23.280  1.00  0.00     0.018 A 
ATOM     15  C   UNL A   1      30.528  26.571  23.635  1.00  0.00     0.018 A 
BRANCH  11  16
ATOM     16  N   UNL A   1      32.660  24.061  21.979  1.00  0.00    -0.379 N 
ATOM     17  H   UNL A   1      32.200  23.879  21.128  1.00  0.00     0.160 HD
BRANCH  16  18
ATOM     18  C   UNL A   1      33.738  23.208  22.451  1.00  0.00     0.169 C 
BRANCH  18  19
ATOM     19  C   UNL A   1      33.382  22.351  23.613  1.00  0.00     0.066 A 
ATOM     20  C   UNL A   1      32.018  20.455  22.486  1.00  0.00     0.069 C 
ATOM     21  C   UNL A   1      32.645  21.165  23.627  1.00  0.00     0.062 A 
ATOM     22  N   UNL A   1      32.568  20.627  24.892  1.00  0.00    -0.224 NA
ATOM     23  C   UNL A   1      33.253  21.463  25.615  1.00  0.00     0.194 A 
ATOM     24  N   UNL A   1      33.796  22.515  24.922  1.00  0.00    -0.290 N 
ATOM     25  S   UNL A   1      33.676  21.493  27.298  1.00  0.00    -0.105 S 
ATOM     26  C   UNL A   1      34.571  23.364  25.710  1.00  0.00     0.032 A 
ATOM     27  C   UNL A   1      34.604  22.952  26.995  1.00  0.00     0.090 A 
ATOM     28  C   UNL A   1      35.306  24.563  25.244  1.00  0.00     0.066 C 
ENDBRANCH  18  19
ENDBRANCH  16  18
ENDBRANCH  11  16
ENDBRANCH   8  10
ENDBRANCH   7   8
ENDBRANCH   6   7
ENDBRANCH   5   6
ENDBRANCH   4   5
ENDBRANCH   3   4
ENDBRANCH   2   3
ENDBRANCH   1   2
BRANCH   1  29
ATOM     29  C   UNL A   1      34.238  34.663  29.642  1.00  0.00     0.188 C 
BRANCH  29  30
ATOM     30  C   UNL A   1      32.939  35.499  29.754  1.00  0.00     0.188 C 
BRANCH  30  31
ATOM     31  O   UNL A   1      32.685  36.032  31.048  1.00  0.00    -0.376 OA
BRANCH  31  32
ATOM     32  C   UNL A   1      33.612  36.883  31.696  1.00  0.00     0.202 C 
BRANCH  32  33
ATOM     33  C   UNL A   1      34.246  36.380  32.986  1.00  0.00     0.261 C 
BRANCH  33  34
ATOM     34  O   UNL A   1      35.438  35.646  32.793  1.00  0.00    -0.460 OA
BRANCH  34  35
ATOM     35  C   UNL A   1      35.439  34.421  33.334  1.00  0.00     0.338 C 
ATOM     36  O   UNL A   1      34.890  34.072  34.380  1.00  0.00    -0.246 OA
BRANCH  35  37
ATOM     37  C   UNL A   1      36.334  33.581  32.548  1.00  0.00     0.060 A 
ATOM     38  C   UNL A   1      36.083  32.213  32.576  1.00  0.00     0.016 A 
ATOM     39  C   UNL A   1      37.547  34.120  32.079  1.00  0.00     0.016 A 
ATOM     40  C   UNL A   1      37.142  31.370  32.357  1.00  0.00     0.010 A 
ATOM     41  C   UNL A   1      38.605  33.275  31.864  1.00  0.00     0.010 A 
ATOM     42  C   UNL A   1      38.406  31.922  32.099  1.00  0.00    -0.014 A 
BRANCH  42  43
ATOM     43  C   UNL A   1      39.507  30.998  31.985  1.00  0.00     0.031 A 
ATOM     44  C   UNL A   1      40.247  30.883  33.250  1.00  0.00     0.074 A 
ATOM     45  C   UNL A   1      39.787  30.332  30.851  1.00  0.00     0.049 A 
ATOM     46  N   UNL A   1      41.384  31.425  33.531  1.00  0.00    -0.248 NA
ATOM     47  C   UNL A   1      39.544  30.308  34.407  1.00  0.00     0.031 C 
ATOM     48  C   UNL A   1      38.932  30.195  29.667  1.00  0.00     0.029 A 
ATOM     49  N   UNL A   1      40.849  29.529  30.568  1.00  0.00    -0.354 N 
ATOM     50  C   UNL A   1      41.667  30.985  34.817  1.00  0.00     0.074 A 
ATOM     51  C   UNL A   1      40.423  30.539  35.382  1.00  0.00     0.031 C 
ATOM     52  C   UNL A   1      39.387  29.165  28.916  1.00  0.00     0.029 A 
ATOM     53  C   UNL A   1      40.635  28.685  29.486  1.00  0.00     0.049 A 
ATOM     54  H   UNL A   1      41.689  29.544  31.082  1.00  0.00     0.167 HD
ATOM     55  C   UNL A   1      42.947  30.675  35.150  1.00  0.00     0.034 A 
ATOM     56  C   UNL A   1      41.395  27.620  29.146  1.00  0.00     0.034 A 
ATOM     57  C   UNL A   1      43.881  31.217  34.196  1.00  0.00     0.049 A 
ATOM     58  C   UNL A   1      42.741  27.829  29.724  1.00  0.00     0.074 A 
ATOM     59  C   UNL A   1      44.358  32.461  33.851  1.00  0.00     0.029 A 
ATOM     60  N   UNL A   1      44.152  30.366  33.158  1.00  0.00    -0.354 N 
ATOM     61  N   UNL A   1      43.546  28.780  29.336  1.00  0.00    -0.248 NA
ATOM     62  C   UNL A   1      43.097  27.184  30.982  1.00  0.00     0.031 C 
ATOM     63  C   UNL A   1      44.778  32.359  32.492  1.00  0.00     0.029 A 
ATOM     64  C   UNL A   1      44.573  31.051  32.052  1.00  0.00     0.049 A 
ATOM     65  H   UNL A   1      44.054  29.387  33.200  1.00  0.00     0.167 HD
ATOM     66  C   UNL A   1      44.205  29.150  30.493  1.00  0.00     0.074 A 
ATOM     67  C   UNL A   1      44.046  28.024  31.403  1.00  0.00     0.031 C 
ATOM     68  C   UNL A   1      44.521  30.455  30.732  1.00  0.00     0.034 A 
BRANCH  55  69
ATOM     69  C   UNL A   1      43.332  29.477  35.996  1.00  0.00     0.023 A 
ATOM     70  C   UNL A   1      44.278  29.696  37.020  1.00  0.00     0.012 A 
ATOM     71  C   UNL A   1      43.063  28.131  35.655  1.00  0.00     0.148 A 
ATOM     72  C   UNL A   1      44.943  28.635  37.644  1.00  0.00     0.002 A 
ATOM     73  C   UNL A   1      43.661  27.078  36.334  1.00  0.00     0.091 A 
ATOM     74  F   UNL A   1      42.343  27.840  34.568  1.00  0.00    -0.205 F 
ATOM     75  C   UNL A   1      44.626  27.324  37.310  1.00  0.00     0.022 A 
BRANCH  73  76
ATOM     76  S   UNL A   1      43.249  25.369  35.962  1.00  0.00     0.127 S 
ATOM     77  O   UNL A   1      41.798  25.378  36.123  1.00  0.00    -0.237 OA
ATOM     78  O   UNL A   1      43.722  25.244  34.583  1.00  0.00    -0.237 OA
ATOM     79  O   UNL A   1      43.997  24.568  36.921  1.00  0.00    -0.744 OA
ENDBRANCH  73  76
ENDBRANCH  55  69
BRANCH  56  80
ATOM     80  C   UNL A   1      40.995  26.324  28.555  1.00  0.00     0.023 A 
ATOM     81  C   UNL A   1      39.626  26.015  28.428  1.00  0.00     0.012 A 
ATOM     82  C   UNL A   1      41.927  25.533  27.847  1.00  0.00     0.148 A 
ATOM     83  C   UNL A   1      39.194  24.986  27.584  1.00  0.00     0.002 A 
ATOM     84  C   UNL A   1      41.494  24.507  27.014  1.00  0.00     0.091 A 
ATOM     85  F   UNL A   1      43.227  25.847  27.919  1.00  0.00    -0.205 F 
ATOM     86  C   UNL A   1      40.127  24.241  26.867  1.00  0.00     0.022 A 
BRANCH  84  87
ATOM     87  S   UNL A   1      42.635  23.519  26.037  1.00  0.00     0.127 S 
ATOM     88  O   UNL A   1      43.102  24.488  25.046  1.00  0.00    -0.237 OA
ATOM     89  O   UNL A   1      43.631  23.134  27.034  1.00  0.00    -0.237 OA
ATOM     90  O   UNL A   1      41.843  22.428  25.481  1.00  0.00    -0.744 OA
ENDBRANCH  84  87
ENDBRANCH  56  80
BRANCH  68  91
ATOM     91  C   UNL A   1      44.639  31.370  29.546  1.00  0.00     0.023 A 
ATOM     92  C   UNL A   1      43.612  32.246  29.143  1.00  0.00     0.012 A 
ATOM     93  C   UNL A   1      45.870  31.401  28.869  1.00  0.00     0.148 A 
ATOM     94  C   UNL A   1      43.804  33.116  28.066  1.00  0.00     0.002 A 
ATOM     95  C   UNL A   1      46.072  32.301  27.832  1.00  0.00     0.091 A 
ATOM     96  F   UNL A   1      46.831  30.551  29.260  1.00  0.00    -0.205 F 
ATOM     97  C   UNL A   1      45.038  33.153  27.419  1.00  0.00     0.022 A 
BRANCH  95  98
ATOM     98  S   UNL A   1      47.675  32.468  27.044  1.00  0.00     0.127 S 
ATOM     99  O   UNL A   1      48.530  32.850  28.165  1.00  0.00    -0.237 OA
ATOM    100  O   UNL A   1      47.911  31.120  26.524  1.00  0.00    -0.237 OA
ATOM    101  O   UNL A   1      47.505  33.480  26.009  1.00  0.00    -0.744 OA
ENDBRANCH  95  98
ENDBRANCH  68  91
ENDBRANCH  42  43
ENDBRANCH  35  37
ENDBRANCH  34  35
ENDBRANCH  33  34
ENDBRANCH  32  33
ENDBRANCH  31  32
ENDBRANCH  30  31
ENDBRANCH  29  30
ENDBRANCH   1  29
TORSDOF 26
ENDMDL
MODEL 2
REMARK VINA RESULT:      -8.6      3.405      5.244
REMARK SMILES Cc1nc2scc(C)n2c1CNc1ccc(C(=O)OCCOCCOCCOCCOC(=O)c2ccc(-c3c4nc(c(-c5cccc(S(=O)(=O)[O-])c5F)c5ccc([nH]5)c(-c5cccc(S(=O)(=O)[O-])c5F)c5nc(c(-c6cccc(S(=O)(=O)[O-])c6F)c6ccc3[nH]6)C=C5)C=C4)cc2)cc1
REMARK SMILES IDX 25 1 24 2 23 3 22 4 21 5 20 6 19 7 17 8 18 9 16 10 13 11
REMARK SMILES IDX 14 12 98 13 15 14 97 15 12 16 11 18 10 19 1 20 2 21 3 22
REMARK SMILES IDX 4 23 9 24 5 25 7 26 6 27 8 28 26 29 27 30 28 31 29 32 30 33
REMARK SMILES IDX 31 34 32 35 33 36 34 37 35 38 96 39 36 40 95 41 37 42 38 43
REMARK SMILES IDX 39 44 89 45 40 46 94 47 88 48 90 49 41 50 93 51 87 52 86 53
REMARK SMILES IDX 42 55 74 56 54 57 73 58 55 59 58 60 72 61 91 62 56 63 57 64
REMARK SMILES IDX 71 66 92 67 59 68 43 69 44 70 52 71 45 72 47 73 53 74 46 75
REMARK SMILES IDX 48 76 49 77 50 78 51 79 75 80 76 81 84 82 77 83 79 84 85 85
REMARK SMILES IDX 78 86 80 87 81 88 82 89 83 90 60 91 61 92 69 93 62 94 64 95
REMARK SMILES IDX 70 96 63 97 65 98 66 99 67 100 68 101
REMARK H PARENT 12 17 90 54 58 65
REMARK Flexibility Score: inf
ROOT
ATOM      1  O   UNL A   1      34.545  32.022  29.384  1.00  0.00    -0.377 OA
ENDROOT
BRANCH   1   2
ATOM      2  C   UNL A   1      34.801  31.559  28.069  1.00  0.00     0.188 C 
BRANCH   2   3
ATOM      3  C   UNL A   1      33.687  30.650  27.504  1.00  0.00     0.188 C 
BRANCH   3   4
ATOM      4  O   UNL A   1      33.538  30.420  26.110  1.00  0.00    -0.376 OA
BRANCH   4   5
ATOM      5  C   UNL A   1      32.807  29.323  25.589  1.00  0.00     0.202 C 
BRANCH   5   6
ATOM      6  C   UNL A   1      31.440  29.448  24.891  1.00  0.00     0.261 C 
BRANCH   6   7
ATOM      7  O   UNL A   1      31.186  28.566  23.801  1.00  0.00    -0.460 OA
BRANCH   7   8
ATOM      8  C   UNL A   1      30.086  27.800  23.917  1.00  0.00     0.338 C 
ATOM      9  O   UNL A   1      28.948  28.067  23.552  1.00  0.00    -0.246 OA
BRANCH   8  10
ATOM     10  C   UNL A   1      30.495  26.468  24.400  1.00  0.00     0.060 A 
ATOM     11  C   UNL A   1      30.976  23.881  25.322  1.00  0.00     0.034 A 
ATOM     12  C   UNL A   1      30.578  24.086  24.000  1.00  0.00     0.026 A 
ATOM     13  C   UNL A   1      31.301  24.993  26.114  1.00  0.00     0.026 A 
ATOM     14  C   UNL A   1      30.294  25.373  23.554  1.00  0.00     0.018 A 
ATOM     15  C   UNL A   1      31.076  26.290  25.655  1.00  0.00     0.018 A 
BRANCH  11  16
ATOM     16  N   UNL A   1      30.799  22.622  25.882  1.00  0.00    -0.379 N 
ATOM     17  H   UNL A   1      30.149  22.473  26.605  1.00  0.00     0.160 HD
BRANCH  16  18
ATOM     18  C   UNL A   1      31.608  21.532  25.359  1.00  0.00     0.169 C 
BRANCH  18  19
ATOM     19  C   UNL A   1      32.839  21.966  24.646  1.00  0.00     0.066 A 
ATOM     20  C   UNL A   1      32.168  21.631  22.164  1.00  0.00     0.069 C 
ATOM     21  C   UNL A   1      33.078  22.011  23.271  1.00  0.00     0.062 A 
ATOM     22  N   UNL A   1      34.325  22.522  22.987  1.00  0.00    -0.224 NA
ATOM     23  C   UNL A   1      34.815  22.787  24.162  1.00  0.00     0.194 A 
ATOM     24  N   UNL A   1      33.979  22.504  25.212  1.00  0.00    -0.290 N 
ATOM     25  S   UNL A   1      36.314  23.489  24.680  1.00  0.00    -0.105 S 
ATOM     26  C   UNL A   1      34.507  22.851  26.455  1.00  0.00     0.032 A 
ATOM     27  C   UNL A   1      35.740  23.387  26.337  1.00  0.00     0.090 A 
ATOM     28  C   UNL A   1      33.833  22.696  27.765  1.00  0.00     0.066 C 
ENDBRANCH  18  19
ENDBRANCH  16  18
ENDBRANCH  11  16
ENDBRANCH   8  10
ENDBRANCH   7   8
ENDBRANCH   6   7
ENDBRANCH   5   6
ENDBRANCH   4   5
ENDBRANCH   3   4
ENDBRANCH   2   3
ENDBRANCH   1   2
BRANCH   1  29
ATOM     29  C   UNL A   1      34.560  33.436  29.560  1.00  0.00     0.188 C 
BRANCH  29  30
ATOM     30  C   UNL A   1      33.649  34.302  28.653  1.00  0.00     0.188 C 
BRANCH  30  31
ATOM     31  O   UNL A   1      32.556  34.919  29.323  1.00  0.00    -0.376 OA
BRANCH  31  32
ATOM     32  C   UNL A   1      32.682  36.185  29.941  1.00  0.00     0.202 C 
BRANCH  32  33
ATOM     33  C   UNL A   1      32.789  36.221  31.460  1.00  0.00     0.261 C 
BRANCH  33  34
ATOM     34  O   UNL A   1      34.114  36.326  31.940  1.00  0.00    -0.460 OA
BRANCH  34  35
ATOM     35  C   UNL A   1      34.273  36.010  33.231  1.00  0.00     0.338 C 
ATOM     36  O   UNL A   1      33.732  36.549  34.198  1.00  0.00    -0.246 OA
BRANCH  35  37
ATOM     37  C   UNL A   1      35.322  35.003  33.325  1.00  0.00     0.060 A 
ATOM     38  C   UNL A   1      35.439  34.343  34.544  1.00  0.00     0.016 A 
ATOM     39  C   UNL A   1      36.329  34.966  32.342  1.00  0.00     0.016 A 
ATOM     40  C   UNL A   1      36.671  33.842  34.876  1.00  0.00     0.010 A 
ATOM     41  C   UNL A   1      37.561  34.468  32.678  1.00  0.00     0.010 A 
ATOM     42  C   UNL A   1      37.734  34.000  33.973  1.00  0.00    -0.014 A 
BRANCH  42  43
ATOM     43  C   UNL A   1      39.033  33.555  34.415  1.00  0.00     0.031 A 
ATOM     44  C   UNL A   1      39.506  34.335  35.568  1.00  0.00     0.074 A 
ATOM     45  C   UNL A   1      39.696  32.543  33.830  1.00  0.00     0.049 A 
ATOM     46  N   UNL A   1      40.387  35.278  35.552  1.00  0.00    -0.248 NA
ATOM     47  C   UNL A   1      38.752  34.227  36.826  1.00  0.00     0.031 C 
ATOM     48  C   UNL A   1      39.161  31.563  32.878  1.00  0.00     0.029 A 
ATOM     49  N   UNL A   1      40.961  32.098  34.063  1.00  0.00    -0.354 N 
ATOM     50  C   UNL A   1      40.507  35.661  36.881  1.00  0.00     0.074 A 
ATOM     51  C   UNL A   1      39.328  35.185  37.553  1.00  0.00     0.031 C 
ATOM     52  C   UNL A   1      40.004  30.507  32.818  1.00  0.00     0.029 A 
ATOM     53  C   UNL A   1      41.190  30.808  33.600  1.00  0.00     0.049 A 
ATOM     54  H   UNL A   1      41.647  32.638  34.516  1.00  0.00     0.167 HD
ATOM     55  C   UNL A   1      41.729  35.991  37.374  1.00  0.00     0.034 A 
ATOM     56  C   UNL A   1      42.249  30.027  33.915  1.00  0.00     0.034 A 
ATOM     57  C   UNL A   1      42.668  36.249  36.312  1.00  0.00     0.049 A 
ATOM     58  C   UNL A   1      43.352  30.919  34.336  1.00  0.00     0.074 A 
ATOM     59  C   UNL A   1      42.874  37.228  35.368  1.00  0.00     0.029 A 
ATOM     60  N   UNL A   1      43.349  35.132  35.907  1.00  0.00    -0.354 N 
ATOM     61  N   UNL A   1      43.951  31.747  33.525  1.00  0.00    -0.248 NA
ATOM     62  C   UNL A   1      43.598  31.146  35.755  1.00  0.00     0.031 C 
ATOM     63  C   UNL A   1      43.572  36.600  34.294  1.00  0.00     0.029 A 
ATOM     64  C   UNL A   1      43.799  35.263  34.622  1.00  0.00     0.049 A 
ATOM     65  H   UNL A   1      43.497  34.336  36.467  1.00  0.00     0.167 HD
ATOM     66  C   UNL A   1      44.247  32.837  34.323  1.00  0.00     0.074 A 
ATOM     67  C   UNL A   1      44.198  32.338  35.690  1.00  0.00     0.031 C 
ATOM     68  C   UNL A   1      44.166  34.106  33.831  1.00  0.00     0.034 A 
BRANCH  55  69
ATOM     69  C   UNL A   1      42.226  35.577  38.745  1.00  0.00     0.023 A 
ATOM     70  C   UNL A   1      42.784  36.590  39.554  1.00  0.00     0.012 A 
ATOM     71  C   UNL A   1      42.453  34.240  39.149  1.00  0.00     0.148 A 
ATOM     72  C   UNL A   1      43.554  36.286  40.682  1.00  0.00     0.002 A 
ATOM     73  C   UNL A   1      43.146  33.945  40.316  1.00  0.00     0.091 A 
ATOM     74  F   UNL A   1      42.140  33.227  38.339  1.00  0.00    -0.205 F 
ATOM     75  C   UNL A   1      43.726  34.963  41.071  1.00  0.00     0.022 A 
BRANCH  73  76
ATOM     76  S   UNL A   1      43.355  32.250  40.876  1.00  0.00     0.127 S 
ATOM     77  O   UNL A   1      42.030  31.693  40.619  1.00  0.00    -0.237 OA
ATOM     78  O   UNL A   1      44.414  31.773  39.987  1.00  0.00    -0.237 OA
ATOM     79  O   UNL A   1      43.751  32.346  42.275  1.00  0.00    -0.744 OA
ENDBRANCH  73  76
ENDBRANCH  55  69
BRANCH  56  80
ATOM     80  C   UNL A   1      42.317  28.561  34.103  1.00  0.00     0.023 A 
ATOM     81  C   UNL A   1      43.081  27.785  33.209  1.00  0.00     0.012 A 
ATOM     82  C   UNL A   1      41.893  27.966  35.312  1.00  0.00     0.148 A 
ATOM     83  C   UNL A   1      43.455  26.475  33.530  1.00  0.00     0.002 A 
ATOM     84  C   UNL A   1      42.262  26.663  35.625  1.00  0.00     0.091 A 
ATOM     85  F   UNL A   1      41.209  28.708  36.192  1.00  0.00    -0.205 F 
ATOM     86  C   UNL A   1      43.058  25.919  34.743  1.00  0.00     0.022 A 
BRANCH  84  87
ATOM     87  S   UNL A   1      41.809  25.885  37.181  1.00  0.00     0.127 S 
ATOM     88  O   UNL A   1      41.897  24.463  36.845  1.00  0.00    -0.237 OA
ATOM     89  O   UNL A   1      42.856  26.368  38.076  1.00  0.00    -0.237 OA
ATOM     90  O   UNL A   1      40.459  26.347  37.480  1.00  0.00    -0.744 OA
ENDBRANCH  84  87
ENDBRANCH  56  80
BRANCH  68  91
ATOM     91  C   UNL A   1      44.286  34.284  32.344  1.00  0.00     0.023 A 
ATOM     92  C   UNL A   1      43.176  34.302  31.478  1.00  0.00     0.012 A 
ATOM     93  C   UNL A   1      45.567  34.528  31.819  1.00  0.00     0.148 A 
ATOM     94  C   UNL A   1      43.346  34.531  30.110  1.00  0.00     0.002 A 
ATOM     95  C   UNL A   1      45.726  34.803  30.469  1.00  0.00     0.091 A 
ATOM     96  F   UNL A   1      46.613  34.495  32.658  1.00  0.00    -0.205 F 
ATOM     97  C   UNL A   1      44.619  34.795  29.607  1.00  0.00     0.022 A 
BRANCH  95  98
ATOM     98  S   UNL A   1      47.324  35.261  29.794  1.00  0.00     0.127 S 
ATOM     99  O   UNL A   1      47.026  35.399  28.370  1.00  0.00    -0.237 OA
ATOM    100  O   UNL A   1      47.608  36.519  30.485  1.00  0.00    -0.237 OA
ATOM    101  O   UNL A   1      48.230  34.174  30.145  1.00  0.00    -0.744 OA
ENDBRANCH  95  98
ENDBRANCH  68  91
ENDBRANCH  42  43
ENDBRANCH  35  37
ENDBRANCH  34  35
ENDBRANCH  33  34
ENDBRANCH  32  33
ENDBRANCH  31  32
ENDBRANCH  30  31
ENDBRANCH  29  30
ENDBRANCH   1  29
TORSDOF 26
ENDMDL
MODEL 3
REMARK VINA RESULT:      -8.4      3.089      7.142
REMARK SMILES Cc1nc2scc(C)n2c1CNc1ccc(C(=O)OCCOCCOCCOCCOC(=O)c2ccc(-c3c4nc(c(-c5cccc(S(=O)(=O)[O-])c5F)c5ccc([nH]5)c(-c5cccc(S(=O)(=O)[O-])c5F)c5nc(c(-c6cccc(S(=O)(=O)[O-])c6F)c6ccc3[nH]6)C=C5)C=C4)cc2)cc1
REMARK SMILES IDX 25 1 24 2 23 3 22 4 21 5 20 6 19 7 17 8 18 9 16 10 13 11
REMARK SMILES IDX 14 12 98 13 15 14 97 15 12 16 11 18 10 19 1 20 2 21 3 22
REMARK SMILES IDX 4 23 9 24 5 25 7 26 6 27 8 28 26 29 27 30 28 31 29 32 30 33
REMARK SMILES IDX 31 34 32 35 33 36 34 37 35 38 96 39 36 40 95 41 37 42 38 43
REMARK SMILES IDX 39 44 89 45 40 46 94 47 88 48 90 49 41 50 93 51 87 52 86 53
REMARK SMILES IDX 42 55 74 56 54 57 73 58 55 59 58 60 72 61 91 62 56 63 57 64
REMARK SMILES IDX 71 66 92 67 59 68 43 69 44 70 52 71 45 72 47 73 53 74 46 75
REMARK SMILES IDX 48 76 49 77 50 78 51 79 75 80 76 81 84 82 77 83 79 84 85 85
REMARK SMILES IDX 78 86 80 87 81 88 82 89 83 90 60 91 61 92 69 93 62 94 64 95
REMARK SMILES IDX 70 96 63 97 65 98 66 99 67 100 68 101
REMARK H PARENT 12 17 90 54 58 65
REMARK Flexibility Score: inf
ROOT
ATOM      1  O   UNL A   1      32.569  36.476  30.564  1.00  0.00    -0.377 OA
ENDROOT
BRANCH   1   2
ATOM      2  C   UNL A   1      33.063  36.584  29.241  1.00  0.00     0.188 C 
BRANCH   2   3
ATOM      3  C   UNL A   1      33.420  35.225  28.600  1.00  0.00     0.188 C 
BRANCH   3   4
ATOM      4  O   UNL A   1      33.415  34.016  29.345  1.00  0.00    -0.376 OA
BRANCH   4   5
ATOM      5  C   UNL A   1      34.596  33.440  29.878  1.00  0.00     0.202 C 
BRANCH   5   6
ATOM      6  C   UNL A   1      35.074  32.009  29.571  1.00  0.00     0.261 C 
BRANCH   6   7
ATOM      7  O   UNL A   1      35.064  31.600  28.206  1.00  0.00    -0.460 OA
BRANCH   7   8
ATOM      8  C   UNL A   1      35.209  30.280  27.993  1.00  0.00     0.338 C 
ATOM      9  O   UNL A   1      36.097  29.549  28.413  1.00  0.00    -0.246 OA
BRANCH   8  10
ATOM     10  C   UNL A   1      34.002  29.784  27.306  1.00  0.00     0.060 A 
ATOM     11  C   UNL A   1      31.900  28.779  25.775  1.00  0.00     0.034 A 
ATOM     12  C   UNL A   1      32.826  27.904  26.344  1.00  0.00     0.026 A 
ATOM     13  C   UNL A   1      31.938  30.136  26.132  1.00  0.00     0.026 A 
ATOM     14  C   UNL A   1      33.901  28.409  27.069  1.00  0.00     0.018 A 
ATOM     15  C   UNL A   1      32.980  30.643  26.908  1.00  0.00     0.018 A 
BRANCH  11  16
ATOM     16  N   UNL A   1      31.141  28.336  24.699  1.00  0.00    -0.379 N 
ATOM     17  H   UNL A   1      30.760  28.969  24.048  1.00  0.00     0.160 HD
BRANCH  16  18
ATOM     18  C   UNL A   1      30.929  26.904  24.568  1.00  0.00     0.169 C 
BRANCH  18  19
ATOM     19  C   UNL A   1      31.919  26.211  23.701  1.00  0.00     0.066 A 
ATOM     20  C   UNL A   1      32.957  28.188  22.383  1.00  0.00     0.069 C 
ATOM     21  C   UNL A   1      32.793  26.765  22.763  1.00  0.00     0.062 A 
ATOM     22  N   UNL A   1      33.600  25.807  22.191  1.00  0.00    -0.224 NA
ATOM     23  C   UNL A   1      33.227  24.709  22.780  1.00  0.00     0.194 A 
ATOM     24  N   UNL A   1      32.238  24.866  23.717  1.00  0.00    -0.290 N 
ATOM     25  S   UNL A   1      33.771  23.066  22.661  1.00  0.00    -0.105 S 
ATOM     26  C   UNL A   1      31.896  23.684  24.372  1.00  0.00     0.032 A 
ATOM     27  C   UNL A   1      32.625  22.641  23.922  1.00  0.00     0.090 A 
ATOM     28  C   UNL A   1      30.890  23.540  25.450  1.00  0.00     0.066 C 
ENDBRANCH  18  19
ENDBRANCH  16  18
ENDBRANCH  11  16
ENDBRANCH   8  10
ENDBRANCH   7   8
ENDBRANCH   6   7
ENDBRANCH   5   6
ENDBRANCH   4   5
ENDBRANCH   3   4
ENDBRANCH   2   3
ENDBRANCH   1   2
BRANCH   1  29
ATOM     29  C   UNL A   1      33.540  36.577  31.603  1.00  0.00     0.188 C 
BRANCH  29  30
ATOM     30  C   UNL A   1      33.322  35.756  32.898  1.00  0.00     0.188 C 
BRANCH  30  31
ATOM     31  O   UNL A   1      33.031  34.379  32.687  1.00  0.00    -0.376 OA
BRANCH  31  32
ATOM     32  C   UNL A   1      33.816  33.355  33.267  1.00  0.00     0.202 C 
BRANCH  32  33
ATOM     33  C   UNL A   1      35.099  33.767  33.977  1.00  0.00     0.261 C 
BRANCH  33  34
ATOM     34  O   UNL A   1      36.245  33.063  33.547  1.00  0.00    -0.460 OA
BRANCH  34  35
ATOM     35  C   UNL A   1      37.029  33.729  32.691  1.00  0.00     0.338 C 
ATOM     36  O   UNL A   1      36.925  34.911  32.357  1.00  0.00    -0.246 OA
BRANCH  35  37
ATOM     37  C   UNL A   1      37.956  32.778  32.092  1.00  0.00     0.060 A 
ATOM     38  C   UNL A   1      38.824  32.126  32.963  1.00  0.00     0.016 A 
ATOM     39  C   UNL A   1      38.151  32.792  30.698  1.00  0.00     0.016 A 
ATOM     40  C   UNL A   1      40.021  31.690  32.456  1.00  0.00     0.010 A 
ATOM     41  C   UNL A   1      39.350  32.360  30.194  1.00  0.00     0.010 A 
ATOM     42  C   UNL A   1      40.299  31.903  31.097  1.00  0.00    -0.014 A 
BRANCH  42  43
ATOM     43  C   UNL A   1      41.613  31.527  30.637  1.00  0.00     0.031 A 
ATOM     44  C   UNL A   1      41.689  30.088  30.341  1.00  0.00     0.074 A 
ATOM     45  C   UNL A   1      42.618  32.409  30.497  1.00  0.00     0.049 A 
ATOM     46  N   UNL A   1      42.233  29.177  31.077  1.00  0.00    -0.248 NA
ATOM     47  C   UNL A   1      40.869  29.570  29.236  1.00  0.00     0.031 C 
ATOM     48  C   UNL A   1      42.523  33.873  30.504  1.00  0.00     0.029 A 
ATOM     49  N   UNL A   1      43.924  32.179  30.188  1.00  0.00    -0.354 N 
ATOM     50  C   UNL A   1      42.078  28.007  30.346  1.00  0.00     0.074 A 
ATOM     51  C   UNL A   1      41.036  28.256  29.388  1.00  0.00     0.031 C 
ATOM     52  C   UNL A   1      43.651  34.387  29.965  1.00  0.00     0.029 A 
ATOM     53  C   UNL A   1      44.591  33.305  29.723  1.00  0.00     0.049 A 
ATOM     54  H   UNL A   1      44.354  31.300  30.286  1.00  0.00     0.167 HD
ATOM     55  C   UNL A   1      43.075  27.084  30.343  1.00  0.00     0.034 A 
ATOM     56  C   UNL A   1      45.796  33.318  29.109  1.00  0.00     0.034 A 
ATOM     57  C   UNL A   1      44.002  27.314  31.422  1.00  0.00     0.049 A 
ATOM     58  C   UNL A   1      46.515  32.090  29.511  1.00  0.00     0.074 A 
ATOM     59  C   UNL A   1      44.000  27.190  32.792  1.00  0.00     0.029 A 
ATOM     60  N   UNL A   1      45.035  28.145  31.082  1.00  0.00    -0.354 N 
ATOM     61  N   UNL A   1      46.916  31.864  30.732  1.00  0.00    -0.248 NA
ATOM     62  C   UNL A   1      46.517  30.930  28.628  1.00  0.00     0.031 C 
ATOM     63  C   UNL A   1      44.974  28.114  33.273  1.00  0.00     0.029 A 
ATOM     64  C   UNL A   1      45.564  28.757  32.184  1.00  0.00     0.049 A 
ATOM     65  H   UNL A   1      45.357  28.285  30.162  1.00  0.00     0.167 HD
ATOM     66  C   UNL A   1      46.770  30.497  30.882  1.00  0.00     0.074 A 
ATOM     67  C   UNL A   1      46.724  29.965  29.528  1.00  0.00     0.031 C 
ATOM     68  C   UNL A   1      46.358  29.964  32.067  1.00  0.00     0.034 A 
BRANCH  55  69
ATOM     69  C   UNL A   1      43.517  26.324  29.109  1.00  0.00     0.023 A 
ATOM     70  C   UNL A   1      43.601  24.919  29.221  1.00  0.00     0.012 A 
ATOM     71  C   UNL A   1      44.132  26.911  27.978  1.00  0.00     0.148 A 
ATOM     72  C   UNL A   1      44.290  24.148  28.278  1.00  0.00     0.002 A 
ATOM     73  C   UNL A   1      44.742  26.135  27.001  1.00  0.00     0.091 A 
ATOM     74  F   UNL A   1      44.277  28.236  27.900  1.00  0.00    -0.205 F 
ATOM     75  C   UNL A   1      44.851  24.755  27.160  1.00  0.00     0.022 A 
BRANCH  73  76
ATOM     76  S   UNL A   1      45.442  26.876  25.521  1.00  0.00     0.127 S 
ATOM     77  O   UNL A   1      44.313  27.655  25.023  1.00  0.00    -0.237 OA
ATOM     78  O   UNL A   1      46.545  27.661  26.077  1.00  0.00    -0.237 OA
ATOM     79  O   UNL A   1      45.869  25.758  24.689  1.00  0.00    -0.744 OA
ENDBRANCH  73  76
ENDBRANCH  55  69
BRANCH  56  80
ATOM     80  C   UNL A   1      46.292  34.191  28.022  1.00  0.00     0.023 A 
ATOM     81  C   UNL A   1      45.628  34.192  26.779  1.00  0.00     0.012 A 
ATOM     82  C   UNL A   1      47.212  35.228  28.290  1.00  0.00     0.148 A 
ATOM     83  C   UNL A   1      45.832  35.222  25.854  1.00  0.00     0.002 A 
ATOM     84  C   UNL A   1      47.417  36.247  27.365  1.00  0.00     0.091 A 
ATOM     85  F   UNL A   1      47.812  35.266  29.486  1.00  0.00    -0.205 F 
ATOM     86  C   UNL A   1      46.716  36.256  26.153  1.00  0.00     0.022 A 
BRANCH  84  87
ATOM     87  S   UNL A   1      48.522  37.628  27.689  1.00  0.00     0.127 S 
ATOM     88  O   UNL A   1      49.766  36.943  28.040  1.00  0.00    -0.237 OA
ATOM     89  O   UNL A   1      48.540  38.308  26.397  1.00  0.00    -0.237 OA
ATOM     90  O   UNL A   1      47.919  38.373  28.787  1.00  0.00    -0.744 OA
ENDBRANCH  84  87
ENDBRANCH  56  80
BRANCH  68  91
ATOM     91  C   UNL A   1      46.584  30.776  33.311  1.00  0.00     0.023 A 
ATOM     92  C   UNL A   1      47.819  30.825  33.985  1.00  0.00     0.012 A 
ATOM     93  C   UNL A   1      45.526  31.584  33.762  1.00  0.00     0.148 A 
ATOM     94  C   UNL A   1      47.985  31.646  35.104  1.00  0.00     0.002 A 
ATOM     95  C   UNL A   1      45.709  32.434  34.843  1.00  0.00     0.091 A 
ATOM     96  F   UNL A   1      44.354  31.514  33.113  1.00  0.00    -0.205 F 
ATOM     97  C   UNL A   1      46.934  32.460  35.525  1.00  0.00     0.022 A 
BRANCH  95  98
ATOM     98  S   UNL A   1      44.429  33.582  35.352  1.00  0.00     0.127 S 
ATOM     99  O   UNL A   1      44.275  34.417  34.163  1.00  0.00    -0.237 OA
ATOM    100  O   UNL A   1      43.300  32.693  35.627  1.00  0.00    -0.237 OA
ATOM    101  O   UNL A   1      44.950  34.260  36.533  1.00  0.00    -0.744 OA
ENDBRANCH  95  98
ENDBRANCH  68  91
ENDBRANCH  42  43
ENDBRANCH  35  37
ENDBRANCH  34  35
ENDBRANCH  33  34
ENDBRANCH  32  33
ENDBRANCH  31  32
ENDBRANCH  30  31
ENDBRANCH  29  30
ENDBRANCH   1  29
TORSDOF 26
ENDMDL
