MODEL 1
REMARK VINA RESULT:      -8.8      0.000      0.000
REMARK SMILES CC[C@@](O)(C(=O)OCCOCCOCCOCCOC(=O)c1ccc(-c2c3nc(c(-c4cccc(S(=O)(=O)[O-])c4F)c4ccc([nH]4)c(-c4cccc(S(=O)(=O)[O-])c4F)c4nc(c(-c5cccc(S(=O)(=O)[O-])c5F)c5ccc2[nH]5)C=C4)C=C3)cc1)[C@H]1CCc2ccc(OC)cc21
REMARK SMILES IDX 14 1 13 2 12 3 11 4 10 5 9 6 8 7 7 8 5 9 6 10 3 11 2 12 1 13
REMARK SMILES IDX 4 14 85 16 86 17 95 18 87 19 88 20 94 21 89 22 91 23 90 24
REMARK SMILES IDX 92 25 93 26 15 27 16 28 17 29 18 30 19 31 20 32 21 33 22 34
REMARK SMILES IDX 23 35 84 36 24 37 83 38 25 39 26 40 27 41 77 42 28 43 82 44
REMARK SMILES IDX 76 45 78 46 29 47 81 48 75 49 74 50 30 52 62 53 42 54 61 55
REMARK SMILES IDX 43 56 46 57 60 58 79 59 44 60 45 61 59 63 80 64 47 65 31 66
REMARK SMILES IDX 32 67 40 68 33 69 35 70 41 71 34 72 36 73 37 74 38 75 39 76
REMARK SMILES IDX 63 77 64 78 72 79 65 80 67 81 73 82 66 83 68 84 69 85 70 86
REMARK SMILES IDX 71 87 48 88 49 89 57 90 50 91 52 92 58 93 51 94 53 95 54 96
REMARK SMILES IDX 55 97 56 98
REMARK H PARENT 4 15 78 51 46 62
REMARK Flexibility Score: inf
ROOT
ATOM      1  C   UNL A   1      35.260  30.744  27.741  1.00  0.00     0.188 C 
ENDROOT
BRANCH   1   2
ATOM      2  O   UNL A   1      33.861  30.807  27.583  1.00  0.00    -0.377 OA
BRANCH   2   3
ATOM      3  C   UNL A   1      33.233  29.878  26.719  1.00  0.00     0.188 C 
BRANCH   3   4
ATOM      4  C   UNL A   1      33.553  28.381  26.588  1.00  0.00     0.188 C 
BRANCH   4   5
ATOM      5  O   UNL A   1      32.665  27.659  25.773  1.00  0.00    -0.376 OA
BRANCH   5   6
ATOM      6  C   UNL A   1      33.039  27.179  24.501  1.00  0.00     0.202 C 
BRANCH   6   7
ATOM      7  C   UNL A   1      33.860  25.903  24.213  1.00  0.00     0.261 C 
BRANCH   7   8
ATOM      8  O   UNL A   1      33.227  24.612  24.206  1.00  0.00    -0.461 OA
BRANCH   8   9
ATOM      9  C   UNL A   1      33.184  23.918  25.374  1.00  0.00     0.338 C 
ATOM     10  O   UNL A   1      32.932  24.447  26.454  1.00  0.00    -0.249 OA
BRANCH   9  11
ATOM     11  C   UNL A   1      33.565  22.393  25.226  1.00  0.00     0.168 C 
BRANCH  11  12
ATOM     12  C   UNL A   1      35.045  22.270  24.807  1.00  0.00     0.044 C 
ATOM     13  C   UNL A   1      36.036  22.779  25.857  1.00  0.00     0.007 C 
ENDBRANCH  11  12
BRANCH  11  14
ATOM     14  O   UNL A   1      33.484  21.914  26.594  1.00  0.00    -0.378 OA
ATOM     15  H   UNL A   1      33.324  20.957  26.591  1.00  0.00     0.212 HD
ENDBRANCH  11  14
BRANCH  11  16
ATOM     16  C   UNL A   1      32.541  21.581  24.334  1.00  0.00     0.063 C 
ATOM     17  C   UNL A   1      32.608  21.890  22.793  1.00  0.00     0.017 C 
ATOM     18  C   UNL A   1      32.601  20.059  24.246  1.00  0.00    -0.035 A 
ATOM     19  C   UNL A   1      31.880  20.759  22.076  1.00  0.00     0.036 C 
ATOM     20  C   UNL A   1      32.310  19.622  22.941  1.00  0.00    -0.044 A 
ATOM     21  C   UNL A   1      32.808  19.118  25.245  1.00  0.00     0.050 A 
ATOM     22  C   UNL A   1      32.395  18.291  22.576  1.00  0.00     0.008 A 
ATOM     23  C   UNL A   1      32.854  17.763  24.898  1.00  0.00     0.119 A 
ATOM     24  C   UNL A   1      32.709  17.361  23.562  1.00  0.00     0.047 A 
BRANCH  23  25
ATOM     25  O   UNL A   1      33.071  16.745  25.790  1.00  0.00    -0.497 OA
ATOM     26  C   UNL A   1      32.999  15.445  25.213  1.00  0.00     0.278 C 
ENDBRANCH  23  25
ENDBRANCH  11  16
ENDBRANCH   9  11
ENDBRANCH   8   9
ENDBRANCH   7   8
ENDBRANCH   6   7
ENDBRANCH   5   6
ENDBRANCH   4   5
ENDBRANCH   3   4
ENDBRANCH   2   3
ENDBRANCH   1   2
BRANCH   1  27
ATOM     27  C   UNL A   1      35.867  32.110  28.076  1.00  0.00     0.188 C 
BRANCH  27  28
ATOM     28  O   UNL A   1      35.047  33.191  27.648  1.00  0.00    -0.376 OA
BRANCH  28  29
ATOM     29  C   UNL A   1      35.016  34.375  28.436  1.00  0.00     0.202 C 
BRANCH  29  30
ATOM     30  C   UNL A   1      34.473  34.399  29.882  1.00  0.00     0.261 C 
BRANCH  30  31
ATOM     31  O   UNL A   1      35.386  34.127  30.954  1.00  0.00    -0.460 OA
BRANCH  31  32
ATOM     32  C   UNL A   1      35.196  33.021  31.695  1.00  0.00     0.338 C 
ATOM     33  O   UNL A   1      34.127  32.516  32.005  1.00  0.00    -0.246 OA
BRANCH  32  34
ATOM     34  C   UNL A   1      36.524  32.405  31.902  1.00  0.00     0.060 A 
ATOM     35  C   UNL A   1      37.644  32.995  31.300  1.00  0.00     0.016 A 
ATOM     36  C   UNL A   1      36.670  31.279  32.719  1.00  0.00     0.016 A 
ATOM     37  C   UNL A   1      38.911  32.449  31.495  1.00  0.00     0.010 A 
ATOM     38  C   UNL A   1      37.937  30.713  32.884  1.00  0.00     0.010 A 
ATOM     39  C   UNL A   1      39.056  31.277  32.247  1.00  0.00    -0.014 A 
BRANCH  39  40
ATOM     40  C   UNL A   1      40.332  30.530  32.178  1.00  0.00     0.031 A 
ATOM     41  C   UNL A   1      41.380  30.828  33.215  1.00  0.00     0.074 A 
ATOM     42  C   UNL A   1      40.553  29.595  31.236  1.00  0.00     0.049 A 
ATOM     43  N   UNL A   1      42.580  30.333  33.348  1.00  0.00    -0.248 NA
ATOM     44  C   UNL A   1      41.020  31.822  34.241  1.00  0.00     0.031 C 
ATOM     45  C   UNL A   1      39.605  29.205  30.194  1.00  0.00     0.029 A 
ATOM     46  N   UNL A   1      41.660  28.822  30.994  1.00  0.00    -0.354 N 
ATOM     47  C   UNL A   1      43.131  30.974  34.451  1.00  0.00     0.074 A 
ATOM     48  C   UNL A   1      42.138  31.902  34.945  1.00  0.00     0.031 C 
ATOM     49  C   UNL A   1      40.187  28.287  29.400  1.00  0.00     0.029 A 
ATOM     50  C   UNL A   1      41.553  28.050  29.862  1.00  0.00     0.049 A 
ATOM     51  H   UNL A   1      42.455  28.820  31.575  1.00  0.00     0.167 HD
ATOM     52  C   UNL A   1      44.351  30.798  35.011  1.00  0.00     0.034 A 
ATOM     53  C   UNL A   1      42.469  27.269  29.254  1.00  0.00     0.034 A 
ATOM     54  C   UNL A   1      45.333  29.873  34.518  1.00  0.00     0.049 A 
ATOM     55  C   UNL A   1      43.837  27.123  29.869  1.00  0.00     0.074 A 
ATOM     56  C   UNL A   1      46.587  29.597  35.031  1.00  0.00     0.029 A 
ATOM     57  N   UNL A   1      45.180  29.089  33.385  1.00  0.00    -0.354 N 
ATOM     58  N   UNL A   1      44.310  27.659  30.969  1.00  0.00    -0.248 NA
ATOM     59  C   UNL A   1      44.789  26.239  29.179  1.00  0.00     0.031 C 
ATOM     60  C   UNL A   1      47.209  28.674  34.184  1.00  0.00     0.029 A 
ATOM     61  C   UNL A   1      46.323  28.338  33.173  1.00  0.00     0.049 A 
ATOM     62  H   UNL A   1      44.377  29.069  32.816  1.00  0.00     0.167 HD
ATOM     63  C   UNL A   1      45.595  27.148  31.123  1.00  0.00     0.074 A 
ATOM     64  C   UNL A   1      45.819  26.246  30.012  1.00  0.00     0.031 C 
ATOM     65  C   UNL A   1      46.511  27.408  32.089  1.00  0.00     0.034 A 
BRANCH  52  66
ATOM     66  C   UNL A   1      44.688  31.628  36.221  1.00  0.00     0.023 A 
ATOM     67  C   UNL A   1      45.222  32.923  36.062  1.00  0.00     0.012 A 
ATOM     68  C   UNL A   1      44.437  31.139  37.518  1.00  0.00     0.148 A 
ATOM     69  C   UNL A   1      45.535  33.704  37.173  1.00  0.00     0.002 A 
ATOM     70  C   UNL A   1      44.705  31.942  38.620  1.00  0.00     0.091 A 
ATOM     71  F   UNL A   1      43.954  29.896  37.650  1.00  0.00    -0.205 F 
ATOM     72  C   UNL A   1      45.265  33.219  38.450  1.00  0.00     0.022 A 
BRANCH  70  73
ATOM     73  S   UNL A   1      44.320  31.441  40.300  1.00  0.00     0.127 S 
ATOM     74  O   UNL A   1      45.105  32.397  41.080  1.00  0.00    -0.237 OA
ATOM     75  O   UNL A   1      42.874  31.648  40.357  1.00  0.00    -0.237 OA
ATOM     76  O   UNL A   1      44.742  30.052  40.413  1.00  0.00    -0.744 OA
ENDBRANCH  70  73
ENDBRANCH  52  66
BRANCH  53  77
ATOM     77  C   UNL A   1      42.122  26.554  27.991  1.00  0.00     0.023 A 
ATOM     78  C   UNL A   1      42.195  27.232  26.758  1.00  0.00     0.012 A 
ATOM     79  C   UNL A   1      41.721  25.204  28.009  1.00  0.00     0.148 A 
ATOM     80  C   UNL A   1      41.841  26.588  25.571  1.00  0.00     0.002 A 
ATOM     81  C   UNL A   1      41.428  24.552  26.817  1.00  0.00     0.091 A 
ATOM     82  F   UNL A   1      41.643  24.581  29.193  1.00  0.00    -0.205 F 
ATOM     83  C   UNL A   1      41.468  25.247  25.599  1.00  0.00     0.022 A 
BRANCH  81  84
ATOM     84  S   UNL A   1      41.065  22.794  26.744  1.00  0.00     0.127 S 
ATOM     85  O   UNL A   1      39.660  22.795  26.343  1.00  0.00    -0.237 OA
ATOM     86  O   UNL A   1      42.001  22.340  25.715  1.00  0.00    -0.237 OA
ATOM     87  O   UNL A   1      41.340  22.277  28.077  1.00  0.00    -0.744 OA
ENDBRANCH  81  84
ENDBRANCH  53  77
BRANCH  65  88
ATOM     88  C   UNL A   1      47.825  26.670  32.029  1.00  0.00     0.023 A 
ATOM     89  C   UNL A   1      48.883  27.165  31.242  1.00  0.00     0.012 A 
ATOM     90  C   UNL A   1      48.031  25.522  32.822  1.00  0.00     0.148 A 
ATOM     91  C   UNL A   1      50.113  26.509  31.215  1.00  0.00     0.002 A 
ATOM     92  C   UNL A   1      49.277  24.906  32.832  1.00  0.00     0.091 A 
ATOM     93  F   UNL A   1      47.009  25.058  33.553  1.00  0.00    -0.205 F 
ATOM     94  C   UNL A   1      50.314  25.388  32.018  1.00  0.00     0.022 A 
BRANCH  92  95
ATOM     95  S   UNL A   1      49.658  23.520  33.909  1.00  0.00     0.127 S 
ATOM     96  O   UNL A   1      50.450  22.666  33.026  1.00  0.00    -0.237 OA
ATOM     97  O   UNL A   1      50.419  24.162  34.981  1.00  0.00    -0.237 OA
ATOM     98  O   UNL A   1      48.376  22.967  34.325  1.00  0.00    -0.744 OA
ENDBRANCH  92  95
ENDBRANCH  65  88
ENDBRANCH  39  40
ENDBRANCH  32  34
ENDBRANCH  31  32
ENDBRANCH  30  31
ENDBRANCH  29  30
ENDBRANCH  28  29
ENDBRANCH  27  28
ENDBRANCH   1  27
TORSDOF 27
ENDMDL
MODEL 2
REMARK VINA RESULT:      -8.8      3.143      8.377
REMARK SMILES CC[C@@](O)(C(=O)OCCOCCOCCOCCOC(=O)c1ccc(-c2c3nc(c(-c4cccc(S(=O)(=O)[O-])c4F)c4ccc([nH]4)c(-c4cccc(S(=O)(=O)[O-])c4F)c4nc(c(-c5cccc(S(=O)(=O)[O-])c5F)c5ccc2[nH]5)C=C4)C=C3)cc1)[C@H]1CCc2ccc(OC)cc21
REMARK SMILES IDX 14 1 13 2 12 3 11 4 10 5 9 6 8 7 7 8 5 9 6 10 3 11 2 12 1 13
REMARK SMILES IDX 4 14 85 16 86 17 95 18 87 19 88 20 94 21 89 22 91 23 90 24
REMARK SMILES IDX 92 25 93 26 15 27 16 28 17 29 18 30 19 31 20 32 21 33 22 34
REMARK SMILES IDX 23 35 84 36 24 37 83 38 25 39 26 40 27 41 77 42 28 43 82 44
REMARK SMILES IDX 76 45 78 46 29 47 81 48 75 49 74 50 30 52 62 53 42 54 61 55
REMARK SMILES IDX 43 56 46 57 60 58 79 59 44 60 45 61 59 63 80 64 47 65 31 66
REMARK SMILES IDX 32 67 40 68 33 69 35 70 41 71 34 72 36 73 37 74 38 75 39 76
REMARK SMILES IDX 63 77 64 78 72 79 65 80 67 81 73 82 66 83 68 84 69 85 70 86
REMARK SMILES IDX 71 87 48 88 49 89 57 90 50 91 52 92 58 93 51 94 53 95 54 96
REMARK SMILES IDX 55 97 56 98
REMARK H PARENT 4 15 78 51 46 62
REMARK Flexibility Score: inf
ROOT
ATOM      1  C   UNL A   1      34.474  30.453  27.567  1.00  0.00     0.188 C 
ENDROOT
BRANCH   1   2
ATOM      2  O   UNL A   1      33.216  31.076  27.447  1.00  0.00    -0.377 OA
BRANCH   2   3
ATOM      3  C   UNL A   1      32.130  30.319  26.945  1.00  0.00     0.188 C 
BRANCH   3   4
ATOM      4  C   UNL A   1      32.173  29.296  25.801  1.00  0.00     0.188 C 
BRANCH   4   5
ATOM      5  O   UNL A   1      31.065  29.332  24.936  1.00  0.00    -0.376 OA
BRANCH   5   6
ATOM      6  C   UNL A   1      30.873  28.367  23.926  1.00  0.00     0.202 C 
BRANCH   6   7
ATOM      7  C   UNL A   1      29.826  27.232  23.937  1.00  0.00     0.261 C 
BRANCH   7   8
ATOM      8  O   UNL A   1      30.227  25.870  24.163  1.00  0.00    -0.461 OA
BRANCH   8   9
ATOM      9  C   UNL A   1      30.938  25.594  25.289  1.00  0.00     0.338 C 
ATOM     10  O   UNL A   1      30.545  25.896  26.414  1.00  0.00    -0.249 OA
BRANCH   9  11
ATOM     11  C   UNL A   1      32.341  24.928  25.012  1.00  0.00     0.168 C 
BRANCH  11  12
ATOM     12  C   UNL A   1      32.722  25.124  23.530  1.00  0.00     0.044 C 
ATOM     13  C   UNL A   1      34.218  24.974  23.244  1.00  0.00     0.007 C 
ENDBRANCH  11  12
BRANCH  11  14
ATOM     14  O   UNL A   1      33.244  25.765  25.781  1.00  0.00    -0.378 OA
ATOM     15  H   UNL A   1      33.019  26.698  25.639  1.00  0.00     0.212 HD
ENDBRANCH  11  14
BRANCH  11  16
ATOM     16  C   UNL A   1      32.439  23.441  25.544  1.00  0.00     0.063 C 
ATOM     17  C   UNL A   1      31.580  22.391  24.747  1.00  0.00     0.017 C 
ATOM     18  C   UNL A   1      33.762  22.681  25.534  1.00  0.00    -0.035 A 
ATOM     19  C   UNL A   1      32.105  21.008  25.116  1.00  0.00     0.036 C 
ATOM     20  C   UNL A   1      33.559  21.329  25.205  1.00  0.00    -0.044 A 
ATOM     21  C   UNL A   1      35.037  23.113  25.871  1.00  0.00     0.050 A 
ATOM     22  C   UNL A   1      34.612  20.449  25.033  1.00  0.00     0.008 A 
ATOM     23  C   UNL A   1      36.108  22.221  25.744  1.00  0.00     0.119 A 
ATOM     24  C   UNL A   1      35.901  20.918  25.269  1.00  0.00     0.047 A 
BRANCH  23  25
ATOM     25  O   UNL A   1      37.412  22.536  26.026  1.00  0.00    -0.497 OA
ATOM     26  C   UNL A   1      37.724  23.915  25.854  1.00  0.00     0.278 C 
ENDBRANCH  23  25
ENDBRANCH  11  16
ENDBRANCH   9  11
ENDBRANCH   8   9
ENDBRANCH   7   8
ENDBRANCH   6   7
ENDBRANCH   5   6
ENDBRANCH   4   5
ENDBRANCH   3   4
ENDBRANCH   2   3
ENDBRANCH   1   2
BRANCH   1  27
ATOM     27  C   UNL A   1      35.563  31.431  28.023  1.00  0.00     0.188 C 
BRANCH  27  28
ATOM     28  O   UNL A   1      35.492  32.680  27.345  1.00  0.00    -0.376 OA
BRANCH  28  29
ATOM     29  C   UNL A   1      35.305  33.861  28.114  1.00  0.00     0.202 C 
BRANCH  29  30
ATOM     30  C   UNL A   1      33.908  34.457  28.399  1.00  0.00     0.261 C 
BRANCH  30  31
ATOM     31  O   UNL A   1      33.217  34.030  29.582  1.00  0.00    -0.460 OA
BRANCH  31  32
ATOM     32  C   UNL A   1      33.338  34.769  30.699  1.00  0.00     0.338 C 
ATOM     33  O   UNL A   1      32.560  35.615  31.110  1.00  0.00    -0.246 OA
BRANCH  32  34
ATOM     34  C   UNL A   1      34.489  34.227  31.453  1.00  0.00     0.060 A 
ATOM     35  C   UNL A   1      35.665  34.986  31.528  1.00  0.00     0.016 A 
ATOM     36  C   UNL A   1      34.394  33.001  32.117  1.00  0.00     0.016 A 
ATOM     37  C   UNL A   1      36.758  34.512  32.251  1.00  0.00     0.010 A 
ATOM     38  C   UNL A   1      35.503  32.510  32.811  1.00  0.00     0.010 A 
ATOM     39  C   UNL A   1      36.699  33.249  32.853  1.00  0.00    -0.014 A 
BRANCH  39  40
ATOM     40  C   UNL A   1      37.951  32.618  33.329  1.00  0.00     0.031 A 
ATOM     41  C   UNL A   1      38.527  31.494  32.513  1.00  0.00     0.074 A 
ATOM     42  C   UNL A   1      38.576  33.042  34.442  1.00  0.00     0.049 A 
ATOM     43  N   UNL A   1      39.588  30.766  32.735  1.00  0.00    -0.248 NA
ATOM     44  C   UNL A   1      37.803  31.145  31.278  1.00  0.00     0.031 C 
ATOM     45  C   UNL A   1      38.125  34.136  35.301  1.00  0.00     0.029 A 
ATOM     46  N   UNL A   1      39.715  32.580  35.051  1.00  0.00    -0.354 N 
ATOM     47  C   UNL A   1      39.644  29.855  31.688  1.00  0.00     0.074 A 
ATOM     48  C   UNL A   1      38.505  30.113  30.836  1.00  0.00     0.031 C 
ATOM     49  C   UNL A   1      38.964  34.238  36.348  1.00  0.00     0.029 A 
ATOM     50  C   UNL A   1      39.988  33.201  36.247  1.00  0.00     0.049 A 
ATOM     51  H   UNL A   1      40.283  31.872  34.669  1.00  0.00     0.167 HD
ATOM     52  C   UNL A   1      40.568  28.895  31.450  1.00  0.00     0.034 A 
ATOM     53  C   UNL A   1      40.937  32.935  37.167  1.00  0.00     0.034 A 
ATOM     54  C   UNL A   1      41.700  28.644  32.299  1.00  0.00     0.049 A 
ATOM     55  C   UNL A   1      41.929  31.830  36.903  1.00  0.00     0.074 A 
ATOM     56  C   UNL A   1      42.711  27.716  32.130  1.00  0.00     0.029 A 
ATOM     57  N   UNL A   1      41.958  29.309  33.487  1.00  0.00    -0.354 N 
ATOM     58  N   UNL A   1      42.030  31.042  35.860  1.00  0.00    -0.248 NA
ATOM     59  C   UNL A   1      42.959  31.599  37.928  1.00  0.00     0.031 C 
ATOM     60  C   UNL A   1      43.560  27.793  33.238  1.00  0.00     0.029 A 
ATOM     61  C   UNL A   1      43.105  28.803  34.072  1.00  0.00     0.049 A 
ATOM     62  H   UNL A   1      41.407  30.035  33.859  1.00  0.00     0.167 HD
ATOM     63  C   UNL A   1      43.153  30.251  36.083  1.00  0.00     0.074 A 
ATOM     64  C   UNL A   1      43.709  30.669  37.354  1.00  0.00     0.031 C 
ATOM     65  C   UNL A   1      43.673  29.263  35.313  1.00  0.00     0.034 A 
BRANCH  52  66
ATOM     66  C   UNL A   1      40.389  28.045  30.220  1.00  0.00     0.023 A 
ATOM     67  C   UNL A   1      39.389  27.052  30.189  1.00  0.00     0.012 A 
ATOM     68  C   UNL A   1      41.187  28.258  29.079  1.00  0.00     0.148 A 
ATOM     69  C   UNL A   1      39.208  26.261  29.055  1.00  0.00     0.002 A 
ATOM     70  C   UNL A   1      40.969  27.500  27.936  1.00  0.00     0.091 A 
ATOM     71  F   UNL A   1      42.150  29.189  29.137  1.00  0.00    -0.205 F 
ATOM     72  C   UNL A   1      39.989  26.492  27.926  1.00  0.00     0.022 A 
BRANCH  70  73
ATOM     73  S   UNL A   1      41.866  27.774  26.405  1.00  0.00     0.127 S 
ATOM     74  O   UNL A   1      41.518  29.162  26.104  1.00  0.00    -0.237 OA
ATOM     75  O   UNL A   1      43.253  27.570  26.824  1.00  0.00    -0.237 OA
ATOM     76  O   UNL A   1      41.363  26.788  25.460  1.00  0.00    -0.744 OA
ENDBRANCH  70  73
ENDBRANCH  52  66
BRANCH  53  77
ATOM     77  C   UNL A   1      41.004  33.733  38.426  1.00  0.00     0.023 A 
ATOM     78  C   UNL A   1      41.917  34.801  38.532  1.00  0.00     0.012 A 
ATOM     79  C   UNL A   1      40.164  33.438  39.517  1.00  0.00     0.148 A 
ATOM     80  C   UNL A   1      42.016  35.536  39.714  1.00  0.00     0.002 A 
ATOM     81  C   UNL A   1      40.225  34.212  40.669  1.00  0.00     0.091 A 
ATOM     82  F   UNL A   1      39.313  32.408  39.402  1.00  0.00    -0.205 F 
ATOM     83  C   UNL A   1      41.165  35.249  40.779  1.00  0.00     0.022 A 
BRANCH  81  84
ATOM     84  S   UNL A   1      39.082  33.998  42.037  1.00  0.00     0.127 S 
ATOM     85  O   UNL A   1      39.313  35.214  42.814  1.00  0.00    -0.237 OA
ATOM     86  O   UNL A   1      37.795  33.944  41.343  1.00  0.00    -0.237 OA
ATOM     87  O   UNL A   1      39.468  32.753  42.685  1.00  0.00    -0.744 OA
ENDBRANCH  81  84
ENDBRANCH  53  77
BRANCH  65  88
ATOM     88  C   UNL A   1      44.939  28.595  35.787  1.00  0.00     0.023 A 
ATOM     89  C   UNL A   1      46.194  29.170  35.506  1.00  0.00     0.012 A 
ATOM     90  C   UNL A   1      44.874  27.433  36.583  1.00  0.00     0.148 A 
ATOM     91  C   UNL A   1      47.366  28.579  35.977  1.00  0.00     0.002 A 
ATOM     92  C   UNL A   1      46.041  26.881  37.094  1.00  0.00     0.091 A 
ATOM     93  F   UNL A   1      43.672  26.893  36.828  1.00  0.00    -0.205 F 
ATOM     94  C   UNL A   1      47.289  27.443  36.780  1.00  0.00     0.022 A 
BRANCH  92  95
ATOM     95  S   UNL A   1      46.034  25.480  38.219  1.00  0.00     0.127 S 
ATOM     96  O   UNL A   1      45.150  24.546  37.524  1.00  0.00    -0.237 OA
ATOM     97  O   UNL A   1      47.444  25.089  38.236  1.00  0.00    -0.237 OA
ATOM     98  O   UNL A   1      45.530  25.985  39.489  1.00  0.00    -0.744 OA
ENDBRANCH  92  95
ENDBRANCH  65  88
ENDBRANCH  39  40
ENDBRANCH  32  34
ENDBRANCH  31  32
ENDBRANCH  30  31
ENDBRANCH  29  30
ENDBRANCH  28  29
ENDBRANCH  27  28
ENDBRANCH   1  27
TORSDOF 27
ENDMDL
MODEL 3
REMARK VINA RESULT:      -8.6      1.572      2.205
REMARK SMILES CC[C@@](O)(C(=O)OCCOCCOCCOCCOC(=O)c1ccc(-c2c3nc(c(-c4cccc(S(=O)(=O)[O-])c4F)c4ccc([nH]4)c(-c4cccc(S(=O)(=O)[O-])c4F)c4nc(c(-c5cccc(S(=O)(=O)[O-])c5F)c5ccc2[nH]5)C=C4)C=C3)cc1)[C@H]1CCc2ccc(OC)cc21
REMARK SMILES IDX 14 1 13 2 12 3 11 4 10 5 9 6 8 7 7 8 5 9 6 10 3 11 2 12 1 13
REMARK SMILES IDX 4 14 85 16 86 17 95 18 87 19 88 20 94 21 89 22 91 23 90 24
REMARK SMILES IDX 92 25 93 26 15 27 16 28 17 29 18 30 19 31 20 32 21 33 22 34
REMARK SMILES IDX 23 35 84 36 24 37 83 38 25 39 26 40 27 41 77 42 28 43 82 44
REMARK SMILES IDX 76 45 78 46 29 47 81 48 75 49 74 50 30 52 62 53 42 54 61 55
REMARK SMILES IDX 43 56 46 57 60 58 79 59 44 60 45 61 59 63 80 64 47 65 31 66
REMARK SMILES IDX 32 67 40 68 33 69 35 70 41 71 34 72 36 73 37 74 38 75 39 76
REMARK SMILES IDX 63 77 64 78 72 79 65 80 67 81 73 82 66 83 68 84 69 85 70 86
REMARK SMILES IDX 71 87 48 88 49 89 57 90 50 91 52 92 58 93 51 94 53 95 54 96
REMARK SMILES IDX 55 97 56 98
REMARK H PARENT 4 15 78 51 46 62
REMARK Flexibility Score: inf
ROOT
ATOM      1  C   UNL A   1      35.524  30.492  27.589  1.00  0.00     0.188 C 
ENDROOT
BRANCH   1   2
ATOM      2  O   UNL A   1      34.116  30.425  27.570  1.00  0.00    -0.377 OA
BRANCH   2   3
ATOM      3  C   UNL A   1      33.475  29.991  26.386  1.00  0.00     0.188 C 
BRANCH   3   4
ATOM      4  C   UNL A   1      33.237  28.538  25.946  1.00  0.00     0.188 C 
BRANCH   4   5
ATOM      5  O   UNL A   1      32.159  28.358  25.063  1.00  0.00    -0.376 OA
BRANCH   5   6
ATOM      6  C   UNL A   1      32.274  28.611  23.681  1.00  0.00     0.202 C 
BRANCH   6   7
ATOM      7  C   UNL A   1      33.313  27.988  22.723  1.00  0.00     0.261 C 
BRANCH   7   8
ATOM      8  O   UNL A   1      33.562  26.572  22.735  1.00  0.00    -0.461 OA
BRANCH   8   9
ATOM      9  C   UNL A   1      32.569  25.747  22.308  1.00  0.00     0.338 C 
ATOM     10  O   UNL A   1      31.813  26.039  21.385  1.00  0.00    -0.249 OA
BRANCH   9  11
ATOM     11  C   UNL A   1      32.429  24.423  23.155  1.00  0.00     0.168 C 
BRANCH  11  12
ATOM     12  C   UNL A   1      32.031  24.777  24.603  1.00  0.00     0.044 C 
ATOM     13  C   UNL A   1      30.543  25.085  24.784  1.00  0.00     0.007 C 
ENDBRANCH  11  12
BRANCH  11  14
ATOM     14  O   UNL A   1      31.271  23.786  22.555  1.00  0.00    -0.378 OA
ATOM     15  H   UNL A   1      31.565  23.094  21.942  1.00  0.00     0.212 HD
ENDBRANCH  11  14
BRANCH  11  16
ATOM     16  C   UNL A   1      33.677  23.460  23.014  1.00  0.00     0.063 C 
ATOM     17  C   UNL A   1      35.023  24.024  23.600  1.00  0.00     0.017 C 
ATOM     18  C   UNL A   1      33.706  22.096  23.697  1.00  0.00    -0.035 A 
ATOM     19  C   UNL A   1      35.977  22.845  23.753  1.00  0.00     0.036 C 
ATOM     20  C   UNL A   1      34.994  21.807  24.182  1.00  0.00    -0.044 A 
ATOM     21  C   UNL A   1      32.708  21.138  23.811  1.00  0.00     0.050 A 
ATOM     22  C   UNL A   1      35.261  20.673  24.927  1.00  0.00     0.008 A 
ATOM     23  C   UNL A   1      32.977  19.964  24.525  1.00  0.00     0.119 A 
ATOM     24  C   UNL A   1      34.226  19.765  25.130  1.00  0.00     0.047 A 
BRANCH  23  25
ATOM     25  O   UNL A   1      32.069  18.957  24.723  1.00  0.00    -0.497 OA
ATOM     26  C   UNL A   1      32.562  17.881  25.516  1.00  0.00     0.278 C 
ENDBRANCH  23  25
ENDBRANCH  11  16
ENDBRANCH   9  11
ENDBRANCH   8   9
ENDBRANCH   7   8
ENDBRANCH   6   7
ENDBRANCH   5   6
ENDBRANCH   4   5
ENDBRANCH   3   4
ENDBRANCH   2   3
ENDBRANCH   1   2
BRANCH   1  27
ATOM     27  C   UNL A   1      36.031  31.874  28.016  1.00  0.00     0.188 C 
BRANCH  27  28
ATOM     28  O   UNL A   1      35.173  32.925  27.589  1.00  0.00    -0.376 OA
BRANCH  28  29
ATOM     29  C   UNL A   1      35.163  34.138  28.331  1.00  0.00     0.202 C 
BRANCH  29  30
ATOM     30  C   UNL A   1      34.638  34.223  29.781  1.00  0.00     0.261 C 
BRANCH  30  31
ATOM     31  O   UNL A   1      35.540  33.899  30.849  1.00  0.00    -0.460 OA
BRANCH  31  32
ATOM     32  C   UNL A   1      35.295  32.801  31.585  1.00  0.00     0.338 C 
ATOM     33  O   UNL A   1      34.205  32.313  31.842  1.00  0.00    -0.246 OA
BRANCH  32  34
ATOM     34  C   UNL A   1      36.602  32.168  31.865  1.00  0.00     0.060 A 
ATOM     35  C   UNL A   1      37.762  32.751  31.337  1.00  0.00     0.016 A 
ATOM     36  C   UNL A   1      36.686  31.032  32.676  1.00  0.00     0.016 A 
ATOM     37  C   UNL A   1      39.009  32.189  31.602  1.00  0.00     0.010 A 
ATOM     38  C   UNL A   1      37.935  30.449  32.910  1.00  0.00     0.010 A 
ATOM     39  C   UNL A   1      39.096  31.008  32.347  1.00  0.00    -0.014 A 
BRANCH  39  40
ATOM     40  C   UNL A   1      40.366  30.246  32.347  1.00  0.00     0.031 A 
ATOM     41  C   UNL A   1      41.367  30.545  33.429  1.00  0.00     0.074 A 
ATOM     42  C   UNL A   1      40.621  29.299  31.426  1.00  0.00     0.049 A 
ATOM     43  N   UNL A   1      42.554  30.039  33.624  1.00  0.00    -0.248 NA
ATOM     44  C   UNL A   1      40.969  31.554  34.426  1.00  0.00     0.031 C 
ATOM     45  C   UNL A   1      39.719  28.907  30.345  1.00  0.00     0.029 A 
ATOM     46  N   UNL A   1      41.730  28.512  31.245  1.00  0.00    -0.354 N 
ATOM     47  C   UNL A   1      43.059  30.687  34.744  1.00  0.00     0.074 A 
ATOM     48  C   UNL A   1      42.055  31.631  35.181  1.00  0.00     0.031 C 
ATOM     49  C   UNL A   1      40.327  27.975  29.589  1.00  0.00     0.029 A 
ATOM     50  C   UNL A   1      41.668  27.728  30.117  1.00  0.00     0.049 A 
ATOM     51  H   UNL A   1      42.496  28.509  31.863  1.00  0.00     0.167 HD
ATOM     52  C   UNL A   1      44.250  30.505  35.363  1.00  0.00     0.034 A 
ATOM     53  C   UNL A   1      42.602  26.931  29.561  1.00  0.00     0.034 A 
ATOM     54  C   UNL A   1      45.244  29.564  34.927  1.00  0.00     0.049 A 
ATOM     55  C   UNL A   1      43.939  26.778  30.242  1.00  0.00     0.074 A 
ATOM     56  C   UNL A   1      46.469  29.280  35.501  1.00  0.00     0.029 A 
ATOM     57  N   UNL A   1      45.136  28.769  33.797  1.00  0.00    -0.354 N 
ATOM     58  N   UNL A   1      44.365  27.321  31.357  1.00  0.00    -0.248 NA
ATOM     59  C   UNL A   1      44.912  25.877  29.607  1.00  0.00     0.031 C 
ATOM     60  C   UNL A   1      47.120  28.342  34.695  1.00  0.00     0.029 A 
ATOM     61  C   UNL A   1      46.279  28.004  33.646  1.00  0.00     0.049 A 
ATOM     62  H   UNL A   1      44.360  28.751  33.191  1.00  0.00     0.167 HD
ATOM     63  C   UNL A   1      45.636  26.799  31.577  1.00  0.00     0.074 A 
ATOM     64  C   UNL A   1      45.902  25.882  30.487  1.00  0.00     0.031 C 
ATOM     65  C   UNL A   1      46.508  27.060  32.583  1.00  0.00     0.034 A 
BRANCH  52  66
ATOM     66  C   UNL A   1      44.538  31.344  36.579  1.00  0.00     0.023 A 
ATOM     67  C   UNL A   1      44.172  30.880  37.860  1.00  0.00     0.012 A 
ATOM     68  C   UNL A   1      45.207  32.577  36.456  1.00  0.00     0.148 A 
ATOM     69  C   UNL A   1      44.437  31.645  38.994  1.00  0.00     0.002 A 
ATOM     70  C   UNL A   1      45.512  33.311  37.596  1.00  0.00     0.091 A 
ATOM     71  F   UNL A   1      45.523  33.014  35.229  1.00  0.00    -0.205 F 
ATOM     72  C   UNL A   1      45.116  32.853  38.864  1.00  0.00     0.022 A 
BRANCH  70  73
ATOM     73  S   UNL A   1      46.453  34.839  37.542  1.00  0.00     0.127 S 
ATOM     74  O   UNL A   1      45.527  35.731  36.845  1.00  0.00    -0.237 OA
ATOM     75  O   UNL A   1      46.634  35.137  38.962  1.00  0.00    -0.237 OA
ATOM     76  O   UNL A   1      47.681  34.531  36.822  1.00  0.00    -0.744 OA
ENDBRANCH  70  73
ENDBRANCH  52  66
BRANCH  53  77
ATOM     77  C   UNL A   1      42.308  26.206  28.291  1.00  0.00     0.023 A 
ATOM     78  C   UNL A   1      42.258  26.914  27.074  1.00  0.00     0.012 A 
ATOM     79  C   UNL A   1      42.077  24.817  28.286  1.00  0.00     0.148 A 
ATOM     80  C   UNL A   1      41.950  26.257  25.882  1.00  0.00     0.002 A 
ATOM     81  C   UNL A   1      41.831  24.158  27.088  1.00  0.00     0.091 A 
ATOM     82  F   UNL A   1      42.113  24.163  29.456  1.00  0.00    -0.205 F 
ATOM     83  C   UNL A   1      41.746  24.879  25.886  1.00  0.00     0.022 A 
BRANCH  81  84
ATOM     84  S   UNL A   1      41.686  22.372  26.980  1.00  0.00     0.127 S 
ATOM     85  O   UNL A   1      41.244  22.190  25.600  1.00  0.00    -0.237 OA
ATOM     86  O   UNL A   1      43.059  21.945  27.251  1.00  0.00    -0.237 OA
ATOM     87  O   UNL A   1      40.724  21.991  28.005  1.00  0.00    -0.744 OA
ENDBRANCH  81  84
ENDBRANCH  53  77
BRANCH  65  88
ATOM     88  C   UNL A   1      47.815  26.307  32.593  1.00  0.00     0.023 A 
ATOM     89  C   UNL A   1      48.896  26.752  31.806  1.00  0.00     0.012 A 
ATOM     90  C   UNL A   1      47.991  25.201  33.448  1.00  0.00     0.148 A 
ATOM     91  C   UNL A   1      50.120  26.084  31.843  1.00  0.00     0.002 A 
ATOM     92  C   UNL A   1      49.229  24.575  33.521  1.00  0.00     0.091 A 
ATOM     93  F   UNL A   1      46.947  24.785  34.179  1.00  0.00    -0.205 F 
ATOM     94  C   UNL A   1      50.290  25.005  32.708  1.00  0.00     0.022 A 
BRANCH  92  95
ATOM     95  S   UNL A   1      49.571  23.244  34.677  1.00  0.00     0.127 S 
ATOM     96  O   UNL A   1      48.609  22.227  34.253  1.00  0.00    -0.237 OA
ATOM     97  O   UNL A   1      50.967  22.925  34.378  1.00  0.00    -0.237 OA
ATOM     98  O   UNL A   1      49.347  23.796  36.006  1.00  0.00    -0.744 OA
ENDBRANCH  92  95
ENDBRANCH  65  88
ENDBRANCH  39  40
ENDBRANCH  32  34
ENDBRANCH  31  32
ENDBRANCH  30  31
ENDBRANCH  29  30
ENDBRANCH  28  29
ENDBRANCH  27  28
ENDBRANCH   1  27
TORSDOF 27
ENDMDL
