MODEL 1
REMARK VINA RESULT:     -10.3      0.000      0.000
REMARK SMILES O=C(OCCOCCOCCOCCOC(=O)[C@@H]1[C@H](C(=O)Nc2ccc(Cn3cncn3)cc2)[C@@H]2C=C[C@H]1CC2)c1ccc(-c2c3nc(c(-c4cccc(S(=O)(=O)[O-])c4F)c4ccc([nH]4)c(-c4cccc(S(=O)(=O)[O-])c4F)c4nc(c(-c5cccc(S(=O)(=O)[O-])c5F)c5ccc2[nH]5)C=C4)C=C3)cc1
REMARK SMILES IDX 10 1 9 2 8 3 7 4 6 5 5 6 4 7 3 8 2 9 1 10 41 11 42 12 103 13
REMARK SMILES IDX 43 14 102 15 44 16 45 17 46 18 96 19 47 20 101 21 95 22
REMARK SMILES IDX 97 23 48 24 100 25 94 26 93 27 49 29 81 30 61 31 80 32 62 33
REMARK SMILES IDX 65 34 79 35 98 36 63 37 64 38 78 40 99 41 66 42 50 43 51 44
REMARK SMILES IDX 59 45 52 46 54 47 60 48 53 49 55 50 56 51 57 52 58 53 82 54
REMARK SMILES IDX 83 55 91 56 84 57 86 58 92 59 85 60 87 61 88 62 89 63 90 64
REMARK SMILES IDX 67 65 68 66 76 67 69 68 71 69 77 70 70 71 72 72 73 73 74 74
REMARK SMILES IDX 75 75 11 76 12 77 13 78 14 79 15 80 16 81 17 82 18 83 19 84
REMARK SMILES IDX 38 85 35 86 37 87 39 88 36 89 40 90 20 91 21 92 22 93 23 95
REMARK SMILES IDX 24 96 34 97 25 98 33 99 26 100 27 101 28 102 29 103 32 104
REMARK SMILES IDX 30 105 31 106
REMARK H PARENT 97 28 65 39 22 94
REMARK Flexibility Score: inf
ROOT
ATOM      1  C   UNL A   1      32.765  31.665  27.118  1.00  0.00     0.188 C 
ENDROOT
BRANCH   1   2
ATOM      2  O   UNL A   1      32.585  33.059  27.050  1.00  0.00    -0.377 OA
BRANCH   2   3
ATOM      3  C   UNL A   1      32.720  33.800  28.240  1.00  0.00     0.188 C 
BRANCH   3   4
ATOM      4  C   UNL A   1      33.930  34.737  28.245  1.00  0.00     0.188 C 
BRANCH   4   5
ATOM      5  O   UNL A   1      34.419  35.343  29.443  1.00  0.00    -0.376 OA
BRANCH   5   6
ATOM      6  C   UNL A   1      34.360  34.726  30.717  1.00  0.00     0.202 C 
BRANCH   6   7
ATOM      7  C   UNL A   1      35.526  33.816  31.154  1.00  0.00     0.261 C 
BRANCH   7   8
ATOM      8  O   UNL A   1      35.985  32.830  30.223  1.00  0.00    -0.460 OA
BRANCH   8   9
ATOM      9  C   UNL A   1      37.154  32.740  29.554  1.00  0.00     0.338 C 
ATOM     10  O   UNL A   1      37.336  33.506  28.623  1.00  0.00    -0.246 OA
BRANCH   9  11
ATOM     11  C   UNL A   1      38.214  31.742  29.858  1.00  0.00     0.060 A 
ATOM     12  C   UNL A   1      39.544  32.045  30.142  1.00  0.00     0.016 A 
ATOM     13  C   UNL A   1      37.812  30.390  29.845  1.00  0.00     0.016 A 
ATOM     14  C   UNL A   1      40.471  31.050  30.312  1.00  0.00     0.010 A 
ATOM     15  C   UNL A   1      38.738  29.376  30.010  1.00  0.00     0.010 A 
ATOM     16  C   UNL A   1      40.068  29.729  30.179  1.00  0.00    -0.014 A 
BRANCH  16  17
ATOM     17  C   UNL A   1      41.140  28.767  30.179  1.00  0.00     0.031 A 
ATOM     18  C   UNL A   1      41.675  28.444  31.524  1.00  0.00     0.074 A 
ATOM     19  C   UNL A   1      41.628  28.330  29.006  1.00  0.00     0.049 A 
ATOM     20  N   UNL A   1      42.839  28.735  32.007  1.00  0.00    -0.248 NA
ATOM     21  C   UNL A   1      40.738  27.882  32.506  1.00  0.00     0.031 C 
ATOM     22  C   UNL A   1      41.026  28.441  27.673  1.00  0.00     0.029 A 
ATOM     23  N   UNL A   1      42.727  27.573  28.787  1.00  0.00    -0.354 N 
ATOM     24  C   UNL A   1      42.855  28.192  33.289  1.00  0.00     0.074 A 
ATOM     25  C   UNL A   1      41.496  27.836  33.601  1.00  0.00     0.031 C 
ATOM     26  C   UNL A   1      41.613  27.541  26.855  1.00  0.00     0.029 A 
ATOM     27  C   UNL A   1      42.712  26.916  27.567  1.00  0.00     0.049 A 
ATOM     28  H   UNL A   1      43.465  27.495  29.433  1.00  0.00     0.167 HD
ATOM     29  C   UNL A   1      44.021  27.856  33.906  1.00  0.00     0.034 A 
ATOM     30  C   UNL A   1      43.481  25.853  27.238  1.00  0.00     0.034 A 
ATOM     31  C   UNL A   1      45.146  28.539  33.329  1.00  0.00     0.049 A 
ATOM     32  C   UNL A   1      44.642  25.849  28.163  1.00  0.00     0.074 A 
ATOM     33  C   UNL A   1      45.516  29.864  33.210  1.00  0.00     0.029 A 
ATOM     34  N   UNL A   1      45.898  27.852  32.408  1.00  0.00    -0.354 N 
ATOM     35  N   UNL A   1      45.552  26.785  28.170  1.00  0.00    -0.248 NA
ATOM     36  C   UNL A   1      44.535  25.073  29.390  1.00  0.00     0.031 C 
ATOM     37  C   UNL A   1      46.094  29.967  31.911  1.00  0.00     0.029 A 
ATOM     38  C   UNL A   1      46.105  28.691  31.342  1.00  0.00     0.049 A 
ATOM     39  H   UNL A   1      46.229  26.929  32.496  1.00  0.00     0.167 HD
ATOM     40  C   UNL A   1      45.810  27.013  29.517  1.00  0.00     0.074 A 
ATOM     41  C   UNL A   1      45.230  25.864  30.213  1.00  0.00     0.031 C 
ATOM     42  C   UNL A   1      46.203  28.242  29.969  1.00  0.00     0.034 A 
BRANCH  29  43
ATOM     43  C   UNL A   1      44.178  26.650  34.798  1.00  0.00     0.023 A 
ATOM     44  C   UNL A   1      43.675  25.415  34.339  1.00  0.00     0.012 A 
ATOM     45  C   UNL A   1      44.551  26.726  36.161  1.00  0.00     0.148 A 
ATOM     46  C   UNL A   1      43.521  24.323  35.201  1.00  0.00     0.002 A 
ATOM     47  C   UNL A   1      44.473  25.616  36.993  1.00  0.00     0.091 A 
ATOM     48  F   UNL A   1      44.855  27.907  36.707  1.00  0.00    -0.205 F 
ATOM     49  C   UNL A   1      43.930  24.419  36.527  1.00  0.00     0.022 A 
BRANCH  47  50
ATOM     50  S   UNL A   1      45.040  25.683  38.697  1.00  0.00     0.127 S 
ATOM     51  O   UNL A   1      44.020  26.526  39.312  1.00  0.00    -0.237 OA
ATOM     52  O   UNL A   1      44.995  24.272  39.081  1.00  0.00    -0.237 OA
ATOM     53  O   UNL A   1      46.386  26.240  38.638  1.00  0.00    -0.744 OA
ENDBRANCH  47  50
ENDBRANCH  29  43
BRANCH  30  54
ATOM     54  C   UNL A   1      43.076  24.667  26.450  1.00  0.00     0.023 A 
ATOM     55  C   UNL A   1      43.893  24.218  25.397  1.00  0.00     0.012 A 
ATOM     56  C   UNL A   1      42.027  23.826  26.892  1.00  0.00     0.148 A 
ATOM     57  C   UNL A   1      43.684  22.961  24.815  1.00  0.00     0.002 A 
ATOM     58  C   UNL A   1      41.819  22.584  26.304  1.00  0.00     0.091 A 
ATOM     59  F   UNL A   1      41.297  24.202  27.949  1.00  0.00    -0.205 F 
ATOM     60  C   UNL A   1      42.653  22.143  25.270  1.00  0.00     0.022 A 
BRANCH  58  61
ATOM     61  S   UNL A   1      40.522  21.467  26.857  1.00  0.00     0.127 S 
ATOM     62  O   UNL A   1      40.823  21.338  28.283  1.00  0.00    -0.237 OA
ATOM     63  O   UNL A   1      39.316  22.233  26.553  1.00  0.00    -0.237 OA
ATOM     64  O   UNL A   1      40.701  20.238  26.094  1.00  0.00    -0.744 OA
ENDBRANCH  58  61
ENDBRANCH  30  54
BRANCH  42  65
ATOM     65  C   UNL A   1      46.521  29.304  28.941  1.00  0.00     0.023 A 
ATOM     66  C   UNL A   1      47.787  29.397  28.324  1.00  0.00     0.012 A 
ATOM     67  C   UNL A   1      45.474  30.103  28.454  1.00  0.00     0.148 A 
ATOM     68  C   UNL A   1      48.011  30.286  27.267  1.00  0.00     0.002 A 
ATOM     69  C   UNL A   1      45.686  30.952  27.374  1.00  0.00     0.091 A 
ATOM     70  F   UNL A   1      44.272  29.996  29.039  1.00  0.00    -0.205 F 
ATOM     71  C   UNL A   1      46.956  31.055  26.783  1.00  0.00     0.022 A 
BRANCH  69  72
ATOM     72  S   UNL A   1      44.339  31.868  26.623  1.00  0.00     0.127 S 
ATOM     73  O   UNL A   1      43.984  32.812  27.680  1.00  0.00    -0.237 OA
ATOM     74  O   UNL A   1      44.983  32.473  25.454  1.00  0.00    -0.237 OA
ATOM     75  O   UNL A   1      43.319  30.880  26.292  1.00  0.00    -0.744 OA
ENDBRANCH  69  72
ENDBRANCH  42  65
ENDBRANCH  16  17
ENDBRANCH   9  11
ENDBRANCH   8   9
ENDBRANCH   7   8
ENDBRANCH   6   7
ENDBRANCH   5   6
ENDBRANCH   4   5
ENDBRANCH   3   4
ENDBRANCH   2   3
ENDBRANCH   1   2
BRANCH   1  76
ATOM     76  C   UNL A   1      34.081  31.025  27.580  1.00  0.00     0.188 C 
BRANCH  76  77
ATOM     77  O   UNL A   1      34.220  29.622  27.566  1.00  0.00    -0.376 OA
BRANCH  77  78
ATOM     78  C   UNL A   1      33.922  28.803  26.452  1.00  0.00     0.202 C 
BRANCH  78  79
ATOM     79  C   UNL A   1      33.324  27.396  26.566  1.00  0.00     0.261 C 
BRANCH  79  80
ATOM     80  O   UNL A   1      33.635  26.479  25.505  1.00  0.00    -0.463 OA
BRANCH  80  81
ATOM     81  C   UNL A   1      33.485  25.155  25.744  1.00  0.00     0.310 C 
ATOM     82  O   UNL A   1      33.466  24.672  26.872  1.00  0.00    -0.252 OA
BRANCH  81  83
ATOM     83  C   UNL A   1      33.414  24.269  24.493  1.00  0.00     0.119 C 
ATOM     84  C   UNL A   1      32.006  24.190  23.889  1.00  0.00     0.100 C 
ATOM     85  C   UNL A   1      34.186  22.922  24.208  1.00  0.00     0.026 C 
ATOM     86  C   UNL A   1      31.949  23.030  22.860  1.00  0.00     0.025 C 
ATOM     87  C   UNL A   1      33.322  21.670  24.257  1.00  0.00    -0.027 C 
ATOM     88  C   UNL A   1      34.519  22.943  22.688  1.00  0.00     0.009 C 
ATOM     89  C   UNL A   1      32.166  21.728  23.572  1.00  0.00    -0.027 C 
ATOM     90  C   UNL A   1      33.186  23.146  21.898  1.00  0.00     0.009 C 
BRANCH  84  91
ATOM     91  C   UNL A   1      30.796  24.410  24.819  1.00  0.00     0.228 C 
ATOM     92  O   UNL A   1      30.539  23.490  25.615  1.00  0.00    -0.274 OA
ATOM     93  N   UNL A   1      30.001  25.504  24.956  1.00  0.00    -0.326 N 
ATOM     94  H   UNL A   1      29.470  25.460  25.784  1.00  0.00     0.169 HD
BRANCH  93  95
ATOM     95  C   UNL A   1      29.731  26.680  24.236  1.00  0.00     0.041 A 
ATOM     96  C   UNL A   1      30.780  27.573  24.020  1.00  0.00     0.026 A 
ATOM     97  C   UNL A   1      28.488  27.050  23.758  1.00  0.00     0.026 A 
ATOM     98  C   UNL A   1      30.621  28.668  23.152  1.00  0.00     0.008 A 
ATOM     99  C   UNL A   1      28.303  28.151  22.919  1.00  0.00     0.008 A 
ATOM    100  C   UNL A   1      29.387  28.931  22.542  1.00  0.00    -0.026 A 
BRANCH 100 101
ATOM    101  C   UNL A   1      29.198  29.971  21.463  1.00  0.00     0.181 C 
BRANCH 101 102
ATOM    102  N   UNL A   1      28.854  31.284  21.963  1.00  0.00    -0.249 N 
ATOM    103  C   UNL A   1      28.144  32.272  21.358  1.00  0.00     0.220 A 
ATOM    104  N   UNL A   1      29.149  31.626  23.229  1.00  0.00    -0.160 NA
ATOM    105  N   UNL A   1      28.112  33.330  22.134  1.00  0.00    -0.224 NA
ATOM    106  C   UNL A   1      28.780  32.908  23.248  1.00  0.00     0.246 A 
ENDBRANCH 101 102
ENDBRANCH 100 101
ENDBRANCH  93  95
ENDBRANCH  84  91
ENDBRANCH  81  83
ENDBRANCH  80  81
ENDBRANCH  79  80
ENDBRANCH  78  79
ENDBRANCH  77  78
ENDBRANCH  76  77
ENDBRANCH   1  76
TORSDOF 27
ENDMDL
MODEL 2
REMARK VINA RESULT:     -10.2      3.344      8.675
REMARK SMILES O=C(OCCOCCOCCOCCOC(=O)[C@@H]1[C@H](C(=O)Nc2ccc(Cn3cncn3)cc2)[C@@H]2C=C[C@H]1CC2)c1ccc(-c2c3nc(c(-c4cccc(S(=O)(=O)[O-])c4F)c4ccc([nH]4)c(-c4cccc(S(=O)(=O)[O-])c4F)c4nc(c(-c5cccc(S(=O)(=O)[O-])c5F)c5ccc2[nH]5)C=C4)C=C3)cc1
REMARK SMILES IDX 10 1 9 2 8 3 7 4 6 5 5 6 4 7 3 8 2 9 1 10 41 11 42 12 103 13
REMARK SMILES IDX 43 14 102 15 44 16 45 17 46 18 96 19 47 20 101 21 95 22
REMARK SMILES IDX 97 23 48 24 100 25 94 26 93 27 49 29 81 30 61 31 80 32 62 33
REMARK SMILES IDX 65 34 79 35 98 36 63 37 64 38 78 40 99 41 66 42 50 43 51 44
REMARK SMILES IDX 59 45 52 46 54 47 60 48 53 49 55 50 56 51 57 52 58 53 82 54
REMARK SMILES IDX 83 55 91 56 84 57 86 58 92 59 85 60 87 61 88 62 89 63 90 64
REMARK SMILES IDX 67 65 68 66 76 67 69 68 71 69 77 70 70 71 72 72 73 73 74 74
REMARK SMILES IDX 75 75 11 76 12 77 13 78 14 79 15 80 16 81 17 82 18 83 19 84
REMARK SMILES IDX 38 85 35 86 37 87 39 88 36 89 40 90 20 91 21 92 22 93 23 95
REMARK SMILES IDX 24 96 34 97 25 98 33 99 26 100 27 101 28 102 29 103 32 104
REMARK SMILES IDX 30 105 31 106
REMARK H PARENT 97 28 65 39 22 94
REMARK Flexibility Score: inf
ROOT
ATOM      1  C   UNL A   1      32.193  30.252  26.573  1.00  0.00     0.188 C 
ENDROOT
BRANCH   1   2
ATOM      2  O   UNL A   1      33.460  30.865  26.617  1.00  0.00    -0.377 OA
BRANCH   2   3
ATOM      3  C   UNL A   1      34.091  30.987  27.870  1.00  0.00     0.188 C 
BRANCH   3   4
ATOM      4  C   UNL A   1      34.334  32.436  28.296  1.00  0.00     0.188 C 
BRANCH   4   5
ATOM      5  O   UNL A   1      34.681  32.788  29.636  1.00  0.00    -0.376 OA
BRANCH   5   6
ATOM      6  C   UNL A   1      36.016  32.879  30.105  1.00  0.00     0.202 C 
BRANCH   6   7
ATOM      7  C   UNL A   1      36.330  32.407  31.539  1.00  0.00     0.261 C 
BRANCH   7   8
ATOM      8  O   UNL A   1      36.437  30.998  31.767  1.00  0.00    -0.460 OA
BRANCH   8   9
ATOM      9  C   UNL A   1      36.646  29.986  30.899  1.00  0.00     0.338 C 
ATOM     10  O   UNL A   1      35.668  29.458  30.396  1.00  0.00    -0.246 OA
BRANCH   9  11
ATOM     11  C   UNL A   1      37.990  29.452  30.548  1.00  0.00     0.060 A 
ATOM     12  C   UNL A   1      38.465  28.188  30.891  1.00  0.00     0.016 A 
ATOM     13  C   UNL A   1      38.827  30.320  29.817  1.00  0.00     0.016 A 
ATOM     14  C   UNL A   1      39.755  27.822  30.608  1.00  0.00     0.010 A 
ATOM     15  C   UNL A   1      40.133  29.966  29.531  1.00  0.00     0.010 A 
ATOM     16  C   UNL A   1      40.591  28.740  29.990  1.00  0.00    -0.014 A 
BRANCH  16  17
ATOM     17  C   UNL A   1      41.974  28.342  29.913  1.00  0.00     0.031 A 
ATOM     18  C   UNL A   1      42.254  27.288  28.906  1.00  0.00     0.074 A 
ATOM     19  C   UNL A   1      42.853  28.854  30.790  1.00  0.00     0.049 A 
ATOM     20  N   UNL A   1      42.612  26.063  29.118  1.00  0.00    -0.248 NA
ATOM     21  C   UNL A   1      41.925  27.588  27.507  1.00  0.00     0.031 C 
ATOM     22  C   UNL A   1      42.696  30.028  31.654  1.00  0.00     0.029 A 
ATOM     23  N   UNL A   1      44.139  28.488  30.995  1.00  0.00    -0.354 N 
ATOM     24  C   UNL A   1      42.770  25.501  27.854  1.00  0.00     0.074 A 
ATOM     25  C   UNL A   1      42.175  26.419  26.919  1.00  0.00     0.031 C 
ATOM     26  C   UNL A   1      43.919  30.435  32.060  1.00  0.00     0.029 A 
ATOM     27  C   UNL A   1      44.902  29.468  31.608  1.00  0.00     0.049 A 
ATOM     28  H   UNL A   1      44.498  27.610  30.733  1.00  0.00     0.167 HD
ATOM     29  C   UNL A   1      43.588  24.433  27.646  1.00  0.00     0.034 A 
ATOM     30  C   UNL A   1      46.254  29.518  31.621  1.00  0.00     0.034 A 
ATOM     31  C   UNL A   1      43.846  23.714  28.863  1.00  0.00     0.049 A 
ATOM     32  C   UNL A   1      46.746  28.147  31.339  1.00  0.00     0.074 A 
ATOM     33  C   UNL A   1      43.061  23.019  29.761  1.00  0.00     0.029 A 
ATOM     34  N   UNL A   1      45.023  23.984  29.519  1.00  0.00    -0.354 N 
ATOM     35  N   UNL A   1      46.555  27.140  32.147  1.00  0.00    -0.248 NA
ATOM     36  C   UNL A   1      47.023  27.792  29.955  1.00  0.00     0.031 C 
ATOM     37  C   UNL A   1      43.601  23.336  31.041  1.00  0.00     0.029 A 
ATOM     38  C   UNL A   1      44.722  24.148  30.847  1.00  0.00     0.049 A 
ATOM     39  H   UNL A   1      45.917  24.047  29.112  1.00  0.00     0.167 HD
ATOM     40  C   UNL A   1      46.242  26.074  31.312  1.00  0.00     0.074 A 
ATOM     41  C   UNL A   1      46.643  26.510  29.974  1.00  0.00     0.031 C 
ATOM     42  C   UNL A   1      45.423  25.061  31.727  1.00  0.00     0.034 A 
BRANCH  29  43
ATOM     43  C   UNL A   1      44.427  24.251  26.407  1.00  0.00     0.023 A 
ATOM     44  C   UNL A   1      44.338  23.022  25.720  1.00  0.00     0.012 A 
ATOM     45  C   UNL A   1      45.485  25.116  26.041  1.00  0.00     0.148 A 
ATOM     46  C   UNL A   1      45.275  22.661  24.744  1.00  0.00     0.002 A 
ATOM     47  C   UNL A   1      46.362  24.790  25.015  1.00  0.00     0.091 A 
ATOM     48  F   UNL A   1      45.743  26.205  26.771  1.00  0.00    -0.205 F 
ATOM     49  C   UNL A   1      46.282  23.550  24.382  1.00  0.00     0.022 A 
BRANCH  47  50
ATOM     50  S   UNL A   1      47.644  25.931  24.481  1.00  0.00     0.127 S 
ATOM     51  O   UNL A   1      48.183  25.241  23.314  1.00  0.00    -0.237 OA
ATOM     52  O   UNL A   1      46.867  27.135  24.186  1.00  0.00    -0.237 OA
ATOM     53  O   UNL A   1      48.543  26.069  25.620  1.00  0.00    -0.744 OA
ENDBRANCH  47  50
ENDBRANCH  29  43
BRANCH  30  54
ATOM     54  C   UNL A   1      47.104  30.722  31.485  1.00  0.00     0.023 A 
ATOM     55  C   UNL A   1      48.075  31.004  32.463  1.00  0.00     0.012 A 
ATOM     56  C   UNL A   1      47.143  31.451  30.272  1.00  0.00     0.148 A 
ATOM     57  C   UNL A   1      49.065  31.967  32.233  1.00  0.00     0.002 A 
ATOM     58  C   UNL A   1      48.122  32.413  30.053  1.00  0.00     0.091 A 
ATOM     59  F   UNL A   1      46.280  31.134  29.299  1.00  0.00    -0.205 F 
ATOM     60  C   UNL A   1      49.093  32.667  31.029  1.00  0.00     0.022 A 
BRANCH  58  61
ATOM     61  S   UNL A   1      48.231  33.336  28.514  1.00  0.00     0.127 S 
ATOM     62  O   UNL A   1      49.361  34.228  28.777  1.00  0.00    -0.237 OA
ATOM     63  O   UNL A   1      48.502  32.276  27.546  1.00  0.00    -0.237 OA
ATOM     64  O   UNL A   1      46.952  34.018  28.365  1.00  0.00    -0.744 OA
ENDBRANCH  58  61
ENDBRANCH  30  54
BRANCH  42  65
ATOM     65  C   UNL A   1      45.006  25.039  33.180  1.00  0.00     0.023 A 
ATOM     66  C   UNL A   1      43.827  25.670  33.633  1.00  0.00     0.012 A 
ATOM     67  C   UNL A   1      45.713  24.214  34.070  1.00  0.00     0.148 A 
ATOM     68  C   UNL A   1      43.381  25.506  34.949  1.00  0.00     0.002 A 
ATOM     69  C   UNL A   1      45.242  24.015  35.362  1.00  0.00     0.091 A 
ATOM     70  F   UNL A   1      46.824  23.609  33.624  1.00  0.00    -0.205 F 
ATOM     71  C   UNL A   1      44.082  24.667  35.810  1.00  0.00     0.022 A 
BRANCH  69  72
ATOM     72  S   UNL A   1      46.026  22.847  36.476  1.00  0.00     0.127 S 
ATOM     73  O   UNL A   1      47.442  23.169  36.309  1.00  0.00    -0.237 OA
ATOM     74  O   UNL A   1      45.462  23.223  37.774  1.00  0.00    -0.237 OA
ATOM     75  O   UNL A   1      45.624  21.524  36.015  1.00  0.00    -0.744 OA
ENDBRANCH  69  72
ENDBRANCH  42  65
ENDBRANCH  16  17
ENDBRANCH   9  11
ENDBRANCH   8   9
ENDBRANCH   7   8
ENDBRANCH   6   7
ENDBRANCH   5   6
ENDBRANCH   4   5
ENDBRANCH   3   4
ENDBRANCH   2   3
ENDBRANCH   1   2
BRANCH   1  76
ATOM     76  C   UNL A   1      31.355  30.180  25.290  1.00  0.00     0.188 C 
BRANCH  76  77
ATOM     77  O   UNL A   1      31.645  29.200  24.318  1.00  0.00    -0.376 OA
BRANCH  77  78
ATOM     78  C   UNL A   1      30.894  29.003  23.136  1.00  0.00     0.202 C 
BRANCH  78  79
ATOM     79  C   UNL A   1      29.986  27.793  22.896  1.00  0.00     0.261 C 
BRANCH  79  80
ATOM     80  O   UNL A   1      30.615  26.611  22.378  1.00  0.00    -0.463 OA
BRANCH  80  81
ATOM     81  C   UNL A   1      30.839  25.583  23.230  1.00  0.00     0.310 C 
ATOM     82  O   UNL A   1      30.283  24.493  23.131  1.00  0.00    -0.252 OA
BRANCH  81  83
ATOM     83  C   UNL A   1      31.793  25.892  24.392  1.00  0.00     0.119 C 
ATOM     84  C   UNL A   1      33.273  25.816  23.994  1.00  0.00     0.100 C 
ATOM     85  C   UNL A   1      31.635  25.500  25.912  1.00  0.00     0.026 C 
ATOM     86  C   UNL A   1      34.152  25.801  25.272  1.00  0.00     0.025 C 
ATOM     87  C   UNL A   1      32.576  24.402  26.388  1.00  0.00    -0.027 C 
ATOM     88  C   UNL A   1      32.215  26.699  26.717  1.00  0.00     0.009 C 
ATOM     89  C   UNL A   1      33.869  24.551  26.051  1.00  0.00    -0.027 C 
ATOM     90  C   UNL A   1      33.677  26.956  26.226  1.00  0.00     0.009 C 
BRANCH  84  91
ATOM     91  C   UNL A   1      33.669  24.903  22.816  1.00  0.00     0.228 C 
ATOM     92  O   UNL A   1      33.867  25.467  21.724  1.00  0.00    -0.274 OA
ATOM     93  N   UNL A   1      33.912  23.566  22.805  1.00  0.00    -0.326 N 
ATOM     94  H   UNL A   1      34.380  23.294  21.983  1.00  0.00     0.169 HD
BRANCH  93  95
ATOM     95  C   UNL A   1      33.677  22.467  23.648  1.00  0.00     0.041 A 
ATOM     96  C   UNL A   1      32.365  22.012  23.782  1.00  0.00     0.026 A 
ATOM     97  C   UNL A   1      34.641  21.822  24.398  1.00  0.00     0.026 A 
ATOM     98  C   UNL A   1      32.091  20.808  24.456  1.00  0.00     0.008 A 
ATOM     99  C   UNL A   1      34.382  20.642  25.100  1.00  0.00     0.008 A 
ATOM    100  C   UNL A   1      33.115  20.078  25.073  1.00  0.00    -0.026 A 
BRANCH 100 101
ATOM    101  C   UNL A   1      32.919  18.694  25.647  1.00  0.00     0.181 C 
BRANCH 101 102
ATOM    102  N   UNL A   1      33.456  17.633  24.825  1.00  0.00    -0.249 N 
ATOM    103  C   UNL A   1      34.086  16.490  25.204  1.00  0.00     0.220 A 
ATOM    104  N   UNL A   1      33.261  17.641  23.494  1.00  0.00    -0.160 NA
ATOM    105  N   UNL A   1      34.469  15.825  24.140  1.00  0.00    -0.224 NA
ATOM    106  C   UNL A   1      33.987  16.588  23.115  1.00  0.00     0.246 A 
ENDBRANCH 101 102
ENDBRANCH 100 101
ENDBRANCH  93  95
ENDBRANCH  84  91
ENDBRANCH  81  83
ENDBRANCH  80  81
ENDBRANCH  79  80
ENDBRANCH  78  79
ENDBRANCH  77  78
ENDBRANCH  76  77
ENDBRANCH   1  76
TORSDOF 27
ENDMDL
MODEL 3
REMARK VINA RESULT:      -9.8      2.872      5.246
REMARK SMILES O=C(OCCOCCOCCOCCOC(=O)[C@@H]1[C@H](C(=O)Nc2ccc(Cn3cncn3)cc2)[C@@H]2C=C[C@H]1CC2)c1ccc(-c2c3nc(c(-c4cccc(S(=O)(=O)[O-])c4F)c4ccc([nH]4)c(-c4cccc(S(=O)(=O)[O-])c4F)c4nc(c(-c5cccc(S(=O)(=O)[O-])c5F)c5ccc2[nH]5)C=C4)C=C3)cc1
REMARK SMILES IDX 10 1 9 2 8 3 7 4 6 5 5 6 4 7 3 8 2 9 1 10 41 11 42 12 103 13
REMARK SMILES IDX 43 14 102 15 44 16 45 17 46 18 96 19 47 20 101 21 95 22
REMARK SMILES IDX 97 23 48 24 100 25 94 26 93 27 49 29 81 30 61 31 80 32 62 33
REMARK SMILES IDX 65 34 79 35 98 36 63 37 64 38 78 40 99 41 66 42 50 43 51 44
REMARK SMILES IDX 59 45 52 46 54 47 60 48 53 49 55 50 56 51 57 52 58 53 82 54
REMARK SMILES IDX 83 55 91 56 84 57 86 58 92 59 85 60 87 61 88 62 89 63 90 64
REMARK SMILES IDX 67 65 68 66 76 67 69 68 71 69 77 70 70 71 72 72 73 73 74 74
REMARK SMILES IDX 75 75 11 76 12 77 13 78 14 79 15 80 16 81 17 82 18 83 19 84
REMARK SMILES IDX 38 85 35 86 37 87 39 88 36 89 40 90 20 91 21 92 22 93 23 95
REMARK SMILES IDX 24 96 34 97 25 98 33 99 26 100 27 101 28 102 29 103 32 104
REMARK SMILES IDX 30 105 31 106
REMARK H PARENT 97 28 65 39 22 94
REMARK Flexibility Score: inf
ROOT
ATOM      1  C   UNL A   1      32.256  30.005  26.366  1.00  0.00     0.188 C 
ENDROOT
BRANCH   1   2
ATOM      2  O   UNL A   1      33.444  30.724  26.598  1.00  0.00    -0.377 OA
BRANCH   2   3
ATOM      3  C   UNL A   1      33.673  31.217  27.897  1.00  0.00     0.188 C 
BRANCH   3   4
ATOM      4  C   UNL A   1      33.896  32.730  27.949  1.00  0.00     0.188 C 
BRANCH   4   5
ATOM      5  O   UNL A   1      34.317  33.398  29.140  1.00  0.00    -0.376 OA
BRANCH   5   6
ATOM      6  C   UNL A   1      35.666  33.721  29.426  1.00  0.00     0.202 C 
BRANCH   6   7
ATOM      7  C   UNL A   1      36.098  33.858  30.900  1.00  0.00     0.261 C 
BRANCH   7   8
ATOM      8  O   UNL A   1      36.316  32.655  31.644  1.00  0.00    -0.460 OA
BRANCH   8   9
ATOM      9  C   UNL A   1      36.515  31.389  31.219  1.00  0.00     0.338 C 
ATOM     10  O   UNL A   1      35.575  30.812  30.697  1.00  0.00    -0.246 OA
BRANCH   9  11
ATOM     11  C   UNL A   1      37.792  30.645  31.382  1.00  0.00     0.060 A 
ATOM     12  C   UNL A   1      39.059  31.158  31.109  1.00  0.00     0.016 A 
ATOM     13  C   UNL A   1      37.679  29.317  31.844  1.00  0.00     0.016 A 
ATOM     14  C   UNL A   1      40.173  30.362  31.195  1.00  0.00     0.010 A 
ATOM     15  C   UNL A   1      38.794  28.502  31.930  1.00  0.00     0.010 A 
ATOM     16  C   UNL A   1      40.017  29.028  31.541  1.00  0.00    -0.014 A 
BRANCH  16  17
ATOM     17  C   UNL A   1      41.208  28.228  31.415  1.00  0.00     0.031 A 
ATOM     18  C   UNL A   1      42.032  28.155  32.646  1.00  0.00     0.074 A 
ATOM     19  C   UNL A   1      41.529  27.716  30.215  1.00  0.00     0.049 A 
ATOM     20  N   UNL A   1      43.206  28.661  32.848  1.00  0.00    -0.248 NA
ATOM     21  C   UNL A   1      41.398  27.601  33.850  1.00  0.00     0.031 C 
ATOM     22  C   UNL A   1      40.676  27.573  29.031  1.00  0.00     0.029 A 
ATOM     23  N   UNL A   1      42.672  27.093  29.851  1.00  0.00    -0.354 N 
ATOM     24  C   UNL A   1      43.549  28.293  34.146  1.00  0.00     0.074 A 
ATOM     25  C   UNL A   1      42.347  27.798  34.764  1.00  0.00     0.031 C 
ATOM     26  C   UNL A   1      41.233  26.664  28.201  1.00  0.00     0.029 A 
ATOM     27  C   UNL A   1      42.532  26.290  28.730  1.00  0.00     0.049 A 
ATOM     28  H   UNL A   1      43.522  27.198  30.335  1.00  0.00     0.167 HD
ATOM     29  C   UNL A   1      44.849  28.200  34.540  1.00  0.00     0.034 A 
ATOM     30  C   UNL A   1      43.384  25.308  28.356  1.00  0.00     0.034 A 
ATOM     31  C   UNL A   1      45.722  28.950  33.680  1.00  0.00     0.049 A 
ATOM     32  C   UNL A   1      44.684  25.579  29.017  1.00  0.00     0.074 A 
ATOM     33  C   UNL A   1      45.848  30.287  33.358  1.00  0.00     0.029 A 
ATOM     34  N   UNL A   1      46.385  28.260  32.696  1.00  0.00    -0.354 N 
ATOM     35  N   UNL A   1      45.419  26.623  28.745  1.00  0.00    -0.248 NA
ATOM     36  C   UNL A   1      44.935  24.959  30.310  1.00  0.00     0.031 C 
ATOM     37  C   UNL A   1      46.146  30.301  31.964  1.00  0.00     0.029 A 
ATOM     38  C   UNL A   1      46.252  28.976  31.533  1.00  0.00     0.049 A 
ATOM     39  H   UNL A   1      46.869  27.409  32.804  1.00  0.00     0.167 HD
ATOM     40  C   UNL A   1      45.887  27.054  29.982  1.00  0.00     0.074 A 
ATOM     41  C   UNL A   1      45.639  25.936  30.891  1.00  0.00     0.031 C 
ATOM     42  C   UNL A   1      46.158  28.372  30.220  1.00  0.00     0.034 A 
BRANCH  29  43
ATOM     43  C   UNL A   1      45.360  27.151  35.494  1.00  0.00     0.023 A 
ATOM     44  C   UNL A   1      46.048  27.582  36.648  1.00  0.00     0.012 A 
ATOM     45  C   UNL A   1      45.434  25.773  35.180  1.00  0.00     0.148 A 
ATOM     46  C   UNL A   1      46.795  26.692  37.429  1.00  0.00     0.002 A 
ATOM     47  C   UNL A   1      46.108  24.880  36.003  1.00  0.00     0.091 A 
ATOM     48  F   UNL A   1      44.970  25.327  34.009  1.00  0.00    -0.205 F 
ATOM     49  C   UNL A   1      46.817  25.337  37.114  1.00  0.00     0.022 A 
BRANCH  47  50
ATOM     50  S   UNL A   1      46.117  23.115  35.661  1.00  0.00     0.127 S 
ATOM     51  O   UNL A   1      46.682  22.580  36.895  1.00  0.00    -0.237 OA
ATOM     52  O   UNL A   1      44.693  22.844  35.461  1.00  0.00    -0.237 OA
ATOM     53  O   UNL A   1      46.927  22.956  34.459  1.00  0.00    -0.744 OA
ENDBRANCH  47  50
ENDBRANCH  29  43
BRANCH  30  54
ATOM     54  C   UNL A   1      43.030  23.987  27.788  1.00  0.00     0.023 A 
ATOM     55  C   UNL A   1      41.716  23.501  27.920  1.00  0.00     0.012 A 
ATOM     56  C   UNL A   1      43.904  23.323  26.895  1.00  0.00     0.148 A 
ATOM     57  C   UNL A   1      41.282  22.400  27.173  1.00  0.00     0.002 A 
ATOM     58  C   UNL A   1      43.470  22.224  26.163  1.00  0.00     0.091 A 
ATOM     59  F   UNL A   1      45.129  23.825  26.694  1.00  0.00    -0.205 F 
ATOM     60  C   UNL A   1      42.154  21.765  26.292  1.00  0.00     0.022 A 
BRANCH  58  61
ATOM     61  S   UNL A   1      44.535  21.371  24.991  1.00  0.00     0.127 S 
ATOM     62  O   UNL A   1      43.799  20.127  24.765  1.00  0.00    -0.237 OA
ATOM     63  O   UNL A   1      44.537  22.296  23.860  1.00  0.00    -0.237 OA
ATOM     64  O   UNL A   1      45.814  21.196  25.667  1.00  0.00    -0.744 OA
ENDBRANCH  58  61
ENDBRANCH  30  54
BRANCH  42  65
ATOM     65  C   UNL A   1      46.104  29.328  29.049  1.00  0.00     0.023 A 
ATOM     66  C   UNL A   1      44.884  29.817  28.534  1.00  0.00     0.012 A 
ATOM     67  C   UNL A   1      47.305  29.887  28.582  1.00  0.00     0.148 A 
ATOM     68  C   UNL A   1      44.864  30.817  27.556  1.00  0.00     0.002 A 
ATOM     69  C   UNL A   1      47.280  30.913  27.645  1.00  0.00     0.091 A 
ATOM     70  F   UNL A   1      48.457  29.425  29.089  1.00  0.00    -0.205 F 
ATOM     71  C   UNL A   1      46.062  31.375  27.120  1.00  0.00     0.022 A 
BRANCH  69  72
ATOM     72  S   UNL A   1      48.780  31.759  27.142  1.00  0.00     0.127 S 
ATOM     73  O   UNL A   1      48.275  32.727  26.171  1.00  0.00    -0.237 OA
ATOM     74  O   UNL A   1      49.248  32.344  28.401  1.00  0.00    -0.237 OA
ATOM     75  O   UNL A   1      49.659  30.729  26.604  1.00  0.00    -0.744 OA
ENDBRANCH  69  72
ENDBRANCH  42  65
ENDBRANCH  16  17
ENDBRANCH   9  11
ENDBRANCH   8   9
ENDBRANCH   7   8
ENDBRANCH   6   7
ENDBRANCH   5   6
ENDBRANCH   4   5
ENDBRANCH   3   4
ENDBRANCH   2   3
ENDBRANCH   1   2
BRANCH   1  76
ATOM     76  C   UNL A   1      31.391  30.222  25.117  1.00  0.00     0.188 C 
BRANCH  76  77
ATOM     77  O   UNL A   1      31.667  29.496  23.940  1.00  0.00    -0.376 OA
BRANCH  77  78
ATOM     78  C   UNL A   1      30.687  29.100  23.000  1.00  0.00     0.202 C 
BRANCH  78  79
ATOM     79  C   UNL A   1      29.908  27.783  23.087  1.00  0.00     0.261 C 
BRANCH  79  80
ATOM     80  O   UNL A   1      30.527  26.631  22.494  1.00  0.00    -0.463 OA
BRANCH  80  81
ATOM     81  C   UNL A   1      30.832  25.586  23.299  1.00  0.00     0.310 C 
ATOM     82  O   UNL A   1      30.318  24.477  23.187  1.00  0.00    -0.252 OA
BRANCH  81  83
ATOM     83  C   UNL A   1      31.823  25.899  24.429  1.00  0.00     0.119 C 
ATOM     84  C   UNL A   1      33.290  25.768  23.997  1.00  0.00     0.100 C 
ATOM     85  C   UNL A   1      31.692  25.554  25.963  1.00  0.00     0.026 C 
ATOM     86  C   UNL A   1      34.200  25.761  25.254  1.00  0.00     0.025 C 
ATOM     87  C   UNL A   1      32.612  24.442  26.446  1.00  0.00    -0.027 C 
ATOM     88  C   UNL A   1      32.327  26.757  26.719  1.00  0.00     0.009 C 
ATOM     89  C   UNL A   1      33.900  24.542  26.074  1.00  0.00    -0.027 C 
ATOM     90  C   UNL A   1      33.783  26.956  26.186  1.00  0.00     0.009 C 
BRANCH  84  91
ATOM     91  C   UNL A   1      33.630  24.812  22.836  1.00  0.00     0.228 C 
ATOM     92  O   UNL A   1      33.786  25.336  21.718  1.00  0.00    -0.274 OA
ATOM     93  N   UNL A   1      33.862  23.473  22.861  1.00  0.00    -0.326 N 
ATOM     94  H   UNL A   1      34.293  23.168  22.030  1.00  0.00     0.169 HD
BRANCH  93  95
ATOM     95  C   UNL A   1      33.653  22.406  23.751  1.00  0.00     0.041 A 
ATOM     96  C   UNL A   1      32.370  21.865  23.839  1.00  0.00     0.026 A 
ATOM     97  C   UNL A   1      34.614  21.871  24.587  1.00  0.00     0.026 A 
ATOM     98  C   UNL A   1      32.140  20.683  24.564  1.00  0.00     0.008 A 
ATOM     99  C   UNL A   1      34.396  20.714  25.339  1.00  0.00     0.008 A 
ATOM    100  C   UNL A   1      33.174  20.060  25.275  1.00  0.00    -0.026 A 
BRANCH 100 101
ATOM    101  C   UNL A   1      33.040  18.698  25.915  1.00  0.00     0.181 C 
BRANCH 101 102
ATOM    102  N   UNL A   1      33.324  17.596  25.022  1.00  0.00    -0.249 N 
ATOM    103  C   UNL A   1      32.915  16.303  25.100  1.00  0.00     0.220 A 
ATOM    104  N   UNL A   1      33.994  17.808  23.875  1.00  0.00    -0.160 NA
ATOM    105  N   UNL A   1      33.448  15.613  24.119  1.00  0.00    -0.224 NA
ATOM    106  C   UNL A   1      34.139  16.563  23.421  1.00  0.00     0.246 A 
ENDBRANCH 101 102
ENDBRANCH 100 101
ENDBRANCH  93  95
ENDBRANCH  84  91
ENDBRANCH  81  83
ENDBRANCH  80  81
ENDBRANCH  79  80
ENDBRANCH  78  79
ENDBRANCH  77  78
ENDBRANCH  76  77
ENDBRANCH   1  76
TORSDOF 27
ENDMDL
