MODEL 1
REMARK VINA RESULT:      -9.5      0.000      0.000
REMARK SMILES C[C@H](C(=O)OCCOCCOCCOCCOC(=O)c1ccc(-c2c3nc(c(-c4cccc(S(=O)(=O)[O-])c4F)c4ccc([nH]4)c(-c4cccc(S(=O)(=O)[O-])c4F)c4nc(c(-c5cccc(S(=O)(=O)[O-])c5F)c5ccc2[nH]5)C=C4)C=C3)cc1)c1ccc2c3cc(Cl)ccc3n(C(=O)c3cocn3)c2c1
REMARK SMILES IDX 11 1 10 2 9 3 8 4 7 5 6 6 5 7 3 8 4 9 2 10 1 11 83 12 84 13
REMARK SMILES IDX 103 14 85 15 102 16 86 17 94 18 87 19 93 20 88 21 92 22
REMARK SMILES IDX 89 23 91 24 90 25 95 26 96 27 97 28 98 29 101 30 99 31
REMARK SMILES IDX 100 32 12 33 13 34 14 35 15 36 16 37 17 38 18 39 19 40 20 41
REMARK SMILES IDX 21 42 82 43 22 44 81 45 23 46 24 47 25 48 75 49 26 50 80 51
REMARK SMILES IDX 74 52 76 53 27 54 79 55 73 56 72 57 28 59 60 60 40 61 59 62
REMARK SMILES IDX 41 63 44 64 58 65 77 66 42 67 43 68 57 70 78 71 45 72 29 73
REMARK SMILES IDX 30 74 38 75 31 76 33 77 39 78 32 79 34 80 35 81 36 82 37 83
REMARK SMILES IDX 61 84 62 85 70 86 63 87 65 88 71 89 64 90 66 91 67 92 68 93
REMARK SMILES IDX 69 94 46 95 47 96 55 97 48 98 50 99 56 100 49 101 51 102
REMARK SMILES IDX 52 103 53 104 54 105
REMARK H PARENT 76 58 44 69
REMARK Flexibility Score: inf
ROOT
ATOM      1  O   UNL A   1      34.029  23.284  23.032  1.00  0.00    -0.377 OA
ENDROOT
BRANCH   1   2
ATOM      2  C   UNL A   1      32.662  23.455  23.356  1.00  0.00     0.188 C 
BRANCH   2   3
ATOM      3  C   UNL A   1      32.410  23.962  24.794  1.00  0.00     0.188 C 
BRANCH   3   4
ATOM      4  O   UNL A   1      32.035  25.310  25.058  1.00  0.00    -0.376 OA
BRANCH   4   5
ATOM      5  C   UNL A   1      32.323  25.881  26.322  1.00  0.00     0.202 C 
BRANCH   5   6
ATOM      6  C   UNL A   1      31.358  26.932  26.911  1.00  0.00     0.261 C 
BRANCH   6   7
ATOM      7  O   UNL A   1      31.892  27.813  27.921  1.00  0.00    -0.463 OA
BRANCH   7   8
ATOM      8  C   UNL A   1      32.919  28.609  27.539  1.00  0.00     0.313 C 
ATOM      9  O   UNL A   1      34.054  28.183  27.341  1.00  0.00    -0.252 OA
BRANCH   8  10
ATOM     10  C   UNL A   1      32.563  30.106  27.438  1.00  0.00     0.126 C 
ATOM     11  C   UNL A   1      33.891  30.882  27.485  1.00  0.00     0.025 C 
BRANCH  10  12
ATOM     12  C   UNL A   1      31.685  30.597  26.270  1.00  0.00    -0.032 A 
ATOM     13  C   UNL A   1      31.081  31.862  26.249  1.00  0.00     0.005 A 
ATOM     14  C   UNL A   1      31.429  29.733  25.184  1.00  0.00     0.032 A 
ATOM     15  C   UNL A   1      30.321  32.301  25.152  1.00  0.00     0.011 A 
ATOM     16  C   UNL A   1      30.575  30.139  24.119  1.00  0.00     0.058 A 
ATOM     17  C   UNL A   1      30.076  31.435  24.067  1.00  0.00     0.008 A 
ATOM     18  N   UNL A   1      30.080  29.432  23.001  1.00  0.00    -0.274 N 
ATOM     19  C   UNL A   1      29.360  31.578  22.846  1.00  0.00     0.009 A 
ATOM     20  C   UNL A   1      29.267  30.309  22.255  1.00  0.00     0.057 A 
ATOM     21  C   UNL A   1      28.712  32.683  22.246  1.00  0.00     0.031 A 
ATOM     22  C   UNL A   1      28.390  30.109  21.165  1.00  0.00     0.029 A 
ATOM     23  C   UNL A   1      27.914  32.488  21.122  1.00  0.00     0.041 A 
ATOM     24  C   UNL A   1      27.724  31.213  20.610  1.00  0.00     0.023 A 
ATOM     25  Cl  UNL A   1      27.119  33.836  20.403  1.00  0.00    -0.084 Cl
BRANCH  18  26
ATOM     26  C   UNL A   1      30.305  28.039  22.793  1.00  0.00     0.284 C 
ATOM     27  O   UNL A   1      29.380  27.307  23.140  1.00  0.00    -0.266 OA
BRANCH  26  28
ATOM     28  C   UNL A   1      31.494  27.417  22.213  1.00  0.00     0.167 A 
ATOM     29  C   UNL A   1      32.827  27.556  22.533  1.00  0.00     0.231 A 
ATOM     30  N   UNL A   1      31.378  26.403  21.267  1.00  0.00    -0.211 NA
ATOM     31  O   UNL A   1      33.542  26.635  21.818  1.00  0.00    -0.451 OA
ATOM     32  C   UNL A   1      32.598  25.948  21.122  1.00  0.00     0.308 A 
ENDBRANCH  26  28
ENDBRANCH  18  26
ENDBRANCH  10  12
ENDBRANCH   8  10
ENDBRANCH   7   8
ENDBRANCH   6   7
ENDBRANCH   5   6
ENDBRANCH   4   5
ENDBRANCH   3   4
ENDBRANCH   2   3
ENDBRANCH   1   2
BRANCH   1  33
ATOM     33  C   UNL A   1      34.613  22.096  23.522  1.00  0.00     0.188 C 
BRANCH  33  34
ATOM     34  C   UNL A   1      35.916  22.299  24.309  1.00  0.00     0.188 C 
BRANCH  34  35
ATOM     35  O   UNL A   1      36.303  21.150  25.061  1.00  0.00    -0.376 OA
BRANCH  35  36
ATOM     36  C   UNL A   1      37.404  20.381  24.607  1.00  0.00     0.202 C 
BRANCH  36  37
ATOM     37  C   UNL A   1      38.465  19.997  25.653  1.00  0.00     0.261 C 
BRANCH  37  38
ATOM     38  O   UNL A   1      38.994  21.064  26.451  1.00  0.00    -0.460 OA
BRANCH  38  39
ATOM     39  C   UNL A   1      40.334  21.121  26.609  1.00  0.00     0.338 C 
ATOM     40  O   UNL A   1      41.144  20.270  26.281  1.00  0.00    -0.246 OA
BRANCH  39  41
ATOM     41  C   UNL A   1      40.682  22.494  27.040  1.00  0.00     0.060 A 
ATOM     42  C   UNL A   1      40.073  23.574  26.387  1.00  0.00     0.016 A 
ATOM     43  C   UNL A   1      41.558  22.717  28.106  1.00  0.00     0.016 A 
ATOM     44  C   UNL A   1      40.355  24.881  26.782  1.00  0.00     0.010 A 
ATOM     45  C   UNL A   1      41.868  24.029  28.477  1.00  0.00     0.010 A 
ATOM     46  C   UNL A   1      41.292  25.116  27.795  1.00  0.00    -0.014 A 
BRANCH  46  47
ATOM     47  C   UNL A   1      41.839  26.483  27.972  1.00  0.00     0.031 A 
ATOM     48  C   UNL A   1      43.200  26.775  27.398  1.00  0.00     0.074 A 
ATOM     49  C   UNL A   1      41.151  27.447  28.608  1.00  0.00     0.049 A 
ATOM     50  N   UNL A   1      43.900  27.876  27.440  1.00  0.00    -0.248 NA
ATOM     51  C   UNL A   1      43.859  25.669  26.681  1.00  0.00     0.031 C 
ATOM     52  C   UNL A   1      39.817  27.297  29.186  1.00  0.00     0.029 A 
ATOM     53  N   UNL A   1      41.498  28.746  28.890  1.00  0.00    -0.354 N 
ATOM     54  C   UNL A   1      45.092  27.590  26.786  1.00  0.00     0.074 A 
ATOM     55  C   UNL A   1      45.025  26.209  26.363  1.00  0.00     0.031 C 
ATOM     56  C   UNL A   1      39.469  28.454  29.780  1.00  0.00     0.029 A 
ATOM     57  C   UNL A   1      40.564  29.414  29.647  1.00  0.00     0.049 A 
ATOM     58  H   UNL A   1      42.335  29.159  28.580  1.00  0.00     0.167 HD
ATOM     59  C   UNL A   1      46.147  28.403  26.550  1.00  0.00     0.034 A 
ATOM     60  C   UNL A   1      40.604  30.647  30.189  1.00  0.00     0.034 A 
ATOM     61  C   UNL A   1      46.207  29.778  26.961  1.00  0.00     0.049 A 
ATOM     62  C   UNL A   1      41.810  31.521  29.947  1.00  0.00     0.074 A 
ATOM     63  C   UNL A   1      47.213  30.699  26.729  1.00  0.00     0.029 A 
ATOM     64  N   UNL A   1      45.235  30.425  27.706  1.00  0.00    -0.354 N 
ATOM     65  N   UNL A   1      42.882  31.274  29.233  1.00  0.00    -0.248 NA
ATOM     66  C   UNL A   1      41.799  32.857  30.563  1.00  0.00     0.031 C 
ATOM     67  C   UNL A   1      46.869  31.891  27.373  1.00  0.00     0.029 A 
ATOM     68  C   UNL A   1      45.626  31.727  27.963  1.00  0.00     0.049 A 
ATOM     69  H   UNL A   1      44.392  30.018  28.009  1.00  0.00     0.167 HD
ATOM     70  C   UNL A   1      43.649  32.435  29.278  1.00  0.00     0.074 A 
ATOM     71  C   UNL A   1      42.911  33.392  30.076  1.00  0.00     0.031 C 
ATOM     72  C   UNL A   1      44.857  32.686  28.715  1.00  0.00     0.034 A 
BRANCH  59  73
ATOM     73  C   UNL A   1      47.324  27.825  25.814  1.00  0.00     0.023 A 
ATOM     74  C   UNL A   1      48.306  27.094  26.513  1.00  0.00     0.012 A 
ATOM     75  C   UNL A   1      47.431  27.966  24.416  1.00  0.00     0.148 A 
ATOM     76  C   UNL A   1      49.393  26.540  25.838  1.00  0.00     0.002 A 
ATOM     77  C   UNL A   1      48.489  27.369  23.744  1.00  0.00     0.091 A 
ATOM     78  F   UNL A   1      46.501  28.687  23.775  1.00  0.00    -0.205 F 
ATOM     79  C   UNL A   1      49.478  26.667  24.453  1.00  0.00     0.022 A 
BRANCH  77  80
ATOM     80  S   UNL A   1      48.645  27.408  21.956  1.00  0.00     0.127 S 
ATOM     81  O   UNL A   1      49.841  28.231  21.782  1.00  0.00    -0.237 OA
ATOM     82  O   UNL A   1      48.825  25.992  21.634  1.00  0.00    -0.237 OA
ATOM     83  O   UNL A   1      47.408  27.993  21.457  1.00  0.00    -0.744 OA
ENDBRANCH  77  80
ENDBRANCH  59  73
BRANCH  60  84
ATOM     84  C   UNL A   1      39.462  31.149  31.006  1.00  0.00     0.023 A 
ATOM     85  C   UNL A   1      38.333  31.699  30.366  1.00  0.00     0.012 A 
ATOM     86  C   UNL A   1      39.493  31.094  32.413  1.00  0.00     0.148 A 
ATOM     87  C   UNL A   1      37.275  32.220  31.113  1.00  0.00     0.002 A 
ATOM     88  C   UNL A   1      38.412  31.562  33.149  1.00  0.00     0.091 A 
ATOM     89  F   UNL A   1      40.583  30.583  33.003  1.00  0.00    -0.205 F 
ATOM     90  C   UNL A   1      37.309  32.142  32.503  1.00  0.00     0.022 A 
BRANCH  88  91
ATOM     91  S   UNL A   1      38.319  31.403  34.936  1.00  0.00     0.127 S 
ATOM     92  O   UNL A   1      38.285  29.952  35.105  1.00  0.00    -0.237 OA
ATOM     93  O   UNL A   1      39.565  32.045  35.357  1.00  0.00    -0.237 OA
ATOM     94  O   UNL A   1      37.110  32.111  35.332  1.00  0.00    -0.744 OA
ENDBRANCH  88  91
ENDBRANCH  60  84
BRANCH  72  95
ATOM     95  C   UNL A   1      45.445  34.064  28.890  1.00  0.00     0.023 A 
ATOM     96  C   UNL A   1      45.135  35.089  27.975  1.00  0.00     0.012 A 
ATOM     97  C   UNL A   1      46.243  34.359  30.014  1.00  0.00     0.148 A 
ATOM     98  C   UNL A   1      45.641  36.376  28.156  1.00  0.00     0.002 A 
ATOM     99  C   UNL A   1      46.698  35.656  30.216  1.00  0.00     0.091 A 
ATOM    100  F   UNL A   1      46.539  33.367  30.866  1.00  0.00    -0.205 F 
ATOM    101  C   UNL A   1      46.409  36.663  29.281  1.00  0.00     0.022 A 
BRANCH  99 102
ATOM    102  S   UNL A   1      47.607  36.140  31.688  1.00  0.00     0.127 S 
ATOM    103  O   UNL A   1      46.654  35.810  32.748  1.00  0.00    -0.237 OA
ATOM    104  O   UNL A   1      48.780  35.267  31.629  1.00  0.00    -0.237 OA
ATOM    105  O   UNL A   1      47.900  37.559  31.533  1.00  0.00    -0.744 OA
ENDBRANCH  99 102
ENDBRANCH  72  95
ENDBRANCH  46  47
ENDBRANCH  39  41
ENDBRANCH  38  39
ENDBRANCH  37  38
ENDBRANCH  36  37
ENDBRANCH  35  36
ENDBRANCH  34  35
ENDBRANCH  33  34
ENDBRANCH   1  33
TORSDOF 26
ENDMDL
MODEL 2
REMARK VINA RESULT:      -9.5      2.797      4.909
REMARK SMILES C[C@H](C(=O)OCCOCCOCCOCCOC(=O)c1ccc(-c2c3nc(c(-c4cccc(S(=O)(=O)[O-])c4F)c4ccc([nH]4)c(-c4cccc(S(=O)(=O)[O-])c4F)c4nc(c(-c5cccc(S(=O)(=O)[O-])c5F)c5ccc2[nH]5)C=C4)C=C3)cc1)c1ccc2c3cc(Cl)ccc3n(C(=O)c3cocn3)c2c1
REMARK SMILES IDX 11 1 10 2 9 3 8 4 7 5 6 6 5 7 3 8 4 9 2 10 1 11 83 12 84 13
REMARK SMILES IDX 103 14 85 15 102 16 86 17 94 18 87 19 93 20 88 21 92 22
REMARK SMILES IDX 89 23 91 24 90 25 95 26 96 27 97 28 98 29 101 30 99 31
REMARK SMILES IDX 100 32 12 33 13 34 14 35 15 36 16 37 17 38 18 39 19 40 20 41
REMARK SMILES IDX 21 42 82 43 22 44 81 45 23 46 24 47 25 48 75 49 26 50 80 51
REMARK SMILES IDX 74 52 76 53 27 54 79 55 73 56 72 57 28 59 60 60 40 61 59 62
REMARK SMILES IDX 41 63 44 64 58 65 77 66 42 67 43 68 57 70 78 71 45 72 29 73
REMARK SMILES IDX 30 74 38 75 31 76 33 77 39 78 32 79 34 80 35 81 36 82 37 83
REMARK SMILES IDX 61 84 62 85 70 86 63 87 65 88 71 89 64 90 66 91 67 92 68 93
REMARK SMILES IDX 69 94 46 95 47 96 55 97 48 98 50 99 56 100 49 101 51 102
REMARK SMILES IDX 52 103 53 104 54 105
REMARK H PARENT 76 58 44 69
REMARK Flexibility Score: inf
ROOT
ATOM      1  O   UNL A   1      39.384  21.215  26.461  1.00  0.00    -0.377 OA
ENDROOT
BRANCH   1   2
ATOM      2  C   UNL A   1      38.932  20.402  25.394  1.00  0.00     0.188 C 
BRANCH   2   3
ATOM      3  C   UNL A   1      37.571  20.833  24.802  1.00  0.00     0.188 C 
BRANCH   3   4
ATOM      4  O   UNL A   1      37.146  22.192  24.816  1.00  0.00    -0.376 OA
BRANCH   4   5
ATOM      5  C   UNL A   1      35.761  22.492  24.763  1.00  0.00     0.202 C 
BRANCH   5   6
ATOM      6  C   UNL A   1      34.744  21.437  25.249  1.00  0.00     0.261 C 
BRANCH   6   7
ATOM      7  O   UNL A   1      33.679  21.092  24.340  1.00  0.00    -0.463 OA
BRANCH   7   8
ATOM      8  C   UNL A   1      32.496  21.724  24.537  1.00  0.00     0.313 C 
ATOM      9  O   UNL A   1      31.627  21.291  25.290  1.00  0.00    -0.252 OA
BRANCH   8  10
ATOM     10  C   UNL A   1      32.302  22.995  23.686  1.00  0.00     0.126 C 
ATOM     11  C   UNL A   1      30.918  22.880  23.024  1.00  0.00     0.025 C 
BRANCH  10  12
ATOM     12  C   UNL A   1      32.480  24.378  24.343  1.00  0.00    -0.032 A 
ATOM     13  C   UNL A   1      33.222  24.577  25.516  1.00  0.00     0.005 A 
ATOM     14  C   UNL A   1      31.840  25.502  23.778  1.00  0.00     0.032 A 
ATOM     15  C   UNL A   1      33.405  25.855  26.069  1.00  0.00     0.011 A 
ATOM     16  C   UNL A   1      31.939  26.781  24.395  1.00  0.00     0.058 A 
ATOM     17  C   UNL A   1      32.768  26.973  25.495  1.00  0.00     0.008 A 
ATOM     18  N   UNL A   1      31.311  28.011  24.098  1.00  0.00    -0.274 N 
ATOM     19  C   UNL A   1      32.751  28.359  25.816  1.00  0.00     0.009 A 
ATOM     20  C   UNL A   1      31.763  28.968  25.029  1.00  0.00     0.057 A 
ATOM     21  C   UNL A   1      33.450  29.122  26.782  1.00  0.00     0.031 A 
ATOM     22  C   UNL A   1      31.351  30.288  25.322  1.00  0.00     0.029 A 
ATOM     23  C   UNL A   1      33.090  30.448  27.006  1.00  0.00     0.041 A 
ATOM     24  C   UNL A   1      32.031  31.014  26.313  1.00  0.00     0.023 A 
ATOM     25  Cl  UNL A   1      33.937  31.366  28.192  1.00  0.00    -0.084 Cl
BRANCH  18  26
ATOM     26  C   UNL A   1      30.311  28.155  23.092  1.00  0.00     0.284 C 
ATOM     27  O   UNL A   1      30.595  27.657  22.004  1.00  0.00    -0.266 OA
BRANCH  26  28
ATOM     28  C   UNL A   1      29.012  28.812  23.229  1.00  0.00     0.167 A 
ATOM     29  C   UNL A   1      28.683  30.149  23.281  1.00  0.00     0.231 A 
ATOM     30  N   UNL A   1      27.833  28.076  23.176  1.00  0.00    -0.211 NA
ATOM     31  O   UNL A   1      27.321  30.262  23.242  1.00  0.00    -0.451 OA
ATOM     32  C   UNL A   1      26.884  28.979  23.127  1.00  0.00     0.308 A 
ENDBRANCH  26  28
ENDBRANCH  18  26
ENDBRANCH  10  12
ENDBRANCH   8  10
ENDBRANCH   7   8
ENDBRANCH   6   7
ENDBRANCH   5   6
ENDBRANCH   4   5
ENDBRANCH   3   4
ENDBRANCH   2   3
ENDBRANCH   1   2
BRANCH   1  33
ATOM     33  C   UNL A   1      40.421  22.113  26.127  1.00  0.00     0.188 C 
BRANCH  33  34
ATOM     34  C   UNL A   1      41.808  21.469  25.985  1.00  0.00     0.188 C 
BRANCH  34  35
ATOM     35  O   UNL A   1      41.813  20.075  26.287  1.00  0.00    -0.376 OA
BRANCH  35  36
ATOM     36  C   UNL A   1      42.633  19.216  25.511  1.00  0.00     0.202 C 
BRANCH  36  37
ATOM     37  C   UNL A   1      44.059  18.959  26.027  1.00  0.00     0.261 C 
BRANCH  37  38
ATOM     38  O   UNL A   1      45.103  18.940  25.044  1.00  0.00    -0.460 OA
BRANCH  38  39
ATOM     39  C   UNL A   1      45.024  19.828  24.030  1.00  0.00     0.338 C 
ATOM     40  O   UNL A   1      44.860  19.572  22.848  1.00  0.00    -0.246 OA
BRANCH  39  41
ATOM     41  C   UNL A   1      44.938  21.184  24.618  1.00  0.00     0.060 A 
ATOM     42  C   UNL A   1      44.396  22.217  23.842  1.00  0.00     0.016 A 
ATOM     43  C   UNL A   1      45.337  21.426  25.936  1.00  0.00     0.016 A 
ATOM     44  C   UNL A   1      44.274  23.501  24.371  1.00  0.00     0.010 A 
ATOM     45  C   UNL A   1      45.247  22.722  26.453  1.00  0.00     0.010 A 
ATOM     46  C   UNL A   1      44.745  23.771  25.660  1.00  0.00    -0.014 A 
BRANCH  46  47
ATOM     47  C   UNL A   1      44.930  25.180  26.083  1.00  0.00     0.031 A 
ATOM     48  C   UNL A   1      46.317  25.761  26.006  1.00  0.00     0.074 A 
ATOM     49  C   UNL A   1      43.902  25.935  26.510  1.00  0.00     0.049 A 
ATOM     50  N   UNL A   1      46.738  26.951  26.337  1.00  0.00    -0.248 NA
ATOM     51  C   UNL A   1      47.370  24.872  25.486  1.00  0.00     0.031 C 
ATOM     52  C   UNL A   1      42.512  25.497  26.607  1.00  0.00     0.029 A 
ATOM     53  N   UNL A   1      43.881  27.232  26.962  1.00  0.00    -0.354 N 
ATOM     54  C   UNL A   1      48.106  26.947  26.097  1.00  0.00     0.074 A 
ATOM     55  C   UNL A   1      48.448  25.633  25.600  1.00  0.00     0.031 C 
ATOM     56  C   UNL A   1      41.775  26.502  27.118  1.00  0.00     0.029 A 
ATOM     57  C   UNL A   1      42.645  27.641  27.406  1.00  0.00     0.049 A 
ATOM     58  H   UNL A   1      44.675  27.813  26.968  1.00  0.00     0.167 HD
ATOM     59  C   UNL A   1      49.001  27.948  26.267  1.00  0.00     0.034 A 
ATOM     60  C   UNL A   1      42.271  28.792  27.998  1.00  0.00     0.034 A 
ATOM     61  C   UNL A   1      48.659  29.256  26.750  1.00  0.00     0.049 A 
ATOM     62  C   UNL A   1      43.296  29.878  28.215  1.00  0.00     0.074 A 
ATOM     63  C   UNL A   1      49.485  30.353  26.914  1.00  0.00     0.029 A 
ATOM     64  N   UNL A   1      47.395  29.640  27.169  1.00  0.00    -0.354 N 
ATOM     65  N   UNL A   1      44.564  29.899  27.881  1.00  0.00    -0.248 NA
ATOM     66  C   UNL A   1      42.830  31.113  28.866  1.00  0.00     0.031 C 
ATOM     67  C   UNL A   1      48.730  31.388  27.474  1.00  0.00     0.029 A 
ATOM     68  C   UNL A   1      47.422  30.950  27.612  1.00  0.00     0.049 A 
ATOM     69  H   UNL A   1      46.597  29.064  27.154  1.00  0.00     0.167 HD
ATOM     70  C   UNL A   1      45.034  31.159  28.240  1.00  0.00     0.074 A 
ATOM     71  C   UNL A   1      43.912  31.879  28.802  1.00  0.00     0.031 C 
ATOM     72  C   UNL A   1      46.284  31.673  28.121  1.00  0.00     0.034 A 
BRANCH  59  73
ATOM     73  C   UNL A   1      50.439  27.664  25.928  1.00  0.00     0.023 A 
ATOM     74  C   UNL A   1      51.338  27.263  26.938  1.00  0.00     0.012 A 
ATOM     75  C   UNL A   1      50.888  27.750  24.596  1.00  0.00     0.148 A 
ATOM     76  C   UNL A   1      52.669  26.983  26.632  1.00  0.00     0.002 A 
ATOM     77  C   UNL A   1      52.202  27.420  24.291  1.00  0.00     0.091 A 
ATOM     78  F   UNL A   1      50.024  28.159  23.656  1.00  0.00    -0.205 F 
ATOM     79  C   UNL A   1      53.097  27.049  25.308  1.00  0.00     0.022 A 
BRANCH  77  80
ATOM     80  S   UNL A   1      52.829  27.399  22.609  1.00  0.00     0.127 S 
ATOM     81  O   UNL A   1      53.752  26.266  22.653  1.00  0.00    -0.237 OA
ATOM     82  O   UNL A   1      51.611  27.164  21.833  1.00  0.00    -0.237 OA
ATOM     83  O   UNL A   1      53.447  28.699  22.392  1.00  0.00    -0.744 OA
ENDBRANCH  77  80
ENDBRANCH  59  73
BRANCH  60  84
ATOM     84  C   UNL A   1      40.855  28.997  28.420  1.00  0.00     0.023 A 
ATOM     85  C   UNL A   1      39.886  29.358  27.463  1.00  0.00     0.012 A 
ATOM     86  C   UNL A   1      40.468  28.848  29.766  1.00  0.00     0.148 A 
ATOM     87  C   UNL A   1      38.565  29.602  27.845  1.00  0.00     0.002 A 
ATOM     88  C   UNL A   1      39.141  29.038  30.130  1.00  0.00     0.091 A 
ATOM     89  F   UNL A   1      41.408  28.522  30.663  1.00  0.00    -0.205 F 
ATOM     90  C   UNL A   1      38.191  29.433  29.175  1.00  0.00     0.022 A 
BRANCH  88  91
ATOM     91  S   UNL A   1      38.545  28.734  31.797  1.00  0.00     0.127 S 
ATOM     92  O   UNL A   1      37.130  29.076  31.675  1.00  0.00    -0.237 OA
ATOM     93  O   UNL A   1      38.824  27.307  31.957  1.00  0.00    -0.237 OA
ATOM     94  O   UNL A   1      39.330  29.605  32.661  1.00  0.00    -0.744 OA
ENDBRANCH  88  91
ENDBRANCH  60  84
BRANCH  72  95
ATOM     95  C   UNL A   1      46.506  33.100  28.556  1.00  0.00     0.023 A 
ATOM     96  C   UNL A   1      46.807  33.393  29.900  1.00  0.00     0.012 A 
ATOM     97  C   UNL A   1      46.496  34.142  27.607  1.00  0.00     0.148 A 
ATOM     98  C   UNL A   1      47.057  34.706  30.299  1.00  0.00     0.002 A 
ATOM     99  C   UNL A   1      46.799  35.438  28.002  1.00  0.00     0.091 A 
ATOM    100  F   UNL A   1      46.194  33.845  26.334  1.00  0.00    -0.205 F 
ATOM    101  C   UNL A   1      47.066  35.725  29.351  1.00  0.00     0.022 A 
BRANCH  99 102
ATOM    102  S   UNL A   1      46.936  36.796  26.833  1.00  0.00     0.127 S 
ATOM    103  O   UNL A   1      47.563  36.139  25.687  1.00  0.00    -0.237 OA
ATOM    104  O   UNL A   1      45.537  37.172  26.630  1.00  0.00    -0.237 OA
ATOM    105  O   UNL A   1      47.747  37.813  27.488  1.00  0.00    -0.744 OA
ENDBRANCH  99 102
ENDBRANCH  72  95
ENDBRANCH  46  47
ENDBRANCH  39  41
ENDBRANCH  38  39
ENDBRANCH  37  38
ENDBRANCH  36  37
ENDBRANCH  35  36
ENDBRANCH  34  35
ENDBRANCH  33  34
ENDBRANCH   1  33
TORSDOF 26
ENDMDL
MODEL 3
REMARK VINA RESULT:      -8.5      4.081      9.805
REMARK SMILES C[C@H](C(=O)OCCOCCOCCOCCOC(=O)c1ccc(-c2c3nc(c(-c4cccc(S(=O)(=O)[O-])c4F)c4ccc([nH]4)c(-c4cccc(S(=O)(=O)[O-])c4F)c4nc(c(-c5cccc(S(=O)(=O)[O-])c5F)c5ccc2[nH]5)C=C4)C=C3)cc1)c1ccc2c3cc(Cl)ccc3n(C(=O)c3cocn3)c2c1
REMARK SMILES IDX 11 1 10 2 9 3 8 4 7 5 6 6 5 7 3 8 4 9 2 10 1 11 83 12 84 13
REMARK SMILES IDX 103 14 85 15 102 16 86 17 94 18 87 19 93 20 88 21 92 22
REMARK SMILES IDX 89 23 91 24 90 25 95 26 96 27 97 28 98 29 101 30 99 31
REMARK SMILES IDX 100 32 12 33 13 34 14 35 15 36 16 37 17 38 18 39 19 40 20 41
REMARK SMILES IDX 21 42 82 43 22 44 81 45 23 46 24 47 25 48 75 49 26 50 80 51
REMARK SMILES IDX 74 52 76 53 27 54 79 55 73 56 72 57 28 59 60 60 40 61 59 62
REMARK SMILES IDX 41 63 44 64 58 65 77 66 42 67 43 68 57 70 78 71 45 72 29 73
REMARK SMILES IDX 30 74 38 75 31 76 33 77 39 78 32 79 34 80 35 81 36 82 37 83
REMARK SMILES IDX 61 84 62 85 70 86 63 87 65 88 71 89 64 90 66 91 67 92 68 93
REMARK SMILES IDX 69 94 46 95 47 96 55 97 48 98 50 99 56 100 49 101 51 102
REMARK SMILES IDX 52 103 53 104 54 105
REMARK H PARENT 76 58 44 69
REMARK Flexibility Score: inf
ROOT
ATOM      1  O   UNL A   1      34.828  24.170  22.922  1.00  0.00    -0.377 OA
ENDROOT
BRANCH   1   2
ATOM      2  C   UNL A   1      33.575  24.615  23.405  1.00  0.00     0.188 C 
BRANCH   2   3
ATOM      3  C   UNL A   1      33.660  25.500  24.669  1.00  0.00     0.188 C 
BRANCH   3   4
ATOM      4  O   UNL A   1      33.680  26.921  24.587  1.00  0.00    -0.376 OA
BRANCH   4   5
ATOM      5  C   UNL A   1      34.230  27.675  25.654  1.00  0.00     0.202 C 
BRANCH   5   6
ATOM      6  C   UNL A   1      33.289  28.233  26.744  1.00  0.00     0.261 C 
BRANCH   6   7
ATOM      7  O   UNL A   1      33.913  28.783  27.923  1.00  0.00    -0.463 OA
BRANCH   7   8
ATOM      8  C   UNL A   1      34.888  29.700  27.711  1.00  0.00     0.313 C 
ATOM      9  O   UNL A   1      34.727  30.693  27.007  1.00  0.00    -0.252 OA
BRANCH   8  10
ATOM     10  C   UNL A   1      36.240  29.357  28.370  1.00  0.00     0.126 C 
ATOM     11  C   UNL A   1      37.338  29.795  27.386  1.00  0.00     0.025 C 
BRANCH  10  12
ATOM     12  C   UNL A   1      36.541  29.876  29.790  1.00  0.00    -0.032 A 
ATOM     13  C   UNL A   1      36.822  29.027  30.870  1.00  0.00     0.005 A 
ATOM     14  C   UNL A   1      36.495  31.263  30.046  1.00  0.00     0.032 A 
ATOM     15  C   UNL A   1      37.136  29.528  32.144  1.00  0.00     0.011 A 
ATOM     16  C   UNL A   1      36.713  31.767  31.359  1.00  0.00     0.058 A 
ATOM     17  C   UNL A   1      37.096  30.915  32.389  1.00  0.00     0.008 A 
ATOM     18  N   UNL A   1      36.608  33.074  31.886  1.00  0.00    -0.274 N 
ATOM     19  C   UNL A   1      37.349  31.711  33.541  1.00  0.00     0.009 A 
ATOM     20  C   UNL A   1      36.933  33.020  33.256  1.00  0.00     0.057 A 
ATOM     21  C   UNL A   1      37.824  31.389  34.835  1.00  0.00     0.031 A 
ATOM     22  C   UNL A   1      36.828  33.963  34.304  1.00  0.00     0.029 A 
ATOM     23  C   UNL A   1      37.793  32.352  35.840  1.00  0.00     0.041 A 
ATOM     24  C   UNL A   1      37.268  33.611  35.589  1.00  0.00     0.023 A 
ATOM     25  Cl  UNL A   1      38.363  31.951  37.415  1.00  0.00    -0.084 Cl
BRANCH  18  26
ATOM     26  C   UNL A   1      36.133  34.186  31.130  1.00  0.00     0.284 C 
ATOM     27  O   UNL A   1      37.006  34.962  30.745  1.00  0.00    -0.266 OA
BRANCH  26  28
ATOM     28  C   UNL A   1      34.746  34.478  30.771  1.00  0.00     0.167 A 
ATOM     29  C   UNL A   1      33.752  35.119  31.476  1.00  0.00     0.231 A 
ATOM     30  N   UNL A   1      34.278  34.235  29.484  1.00  0.00    -0.211 NA
ATOM     31  O   UNL A   1      32.679  35.298  30.648  1.00  0.00    -0.451 OA
ATOM     32  C   UNL A   1      33.090  34.788  29.457  1.00  0.00     0.308 A 
ENDBRANCH  26  28
ENDBRANCH  18  26
ENDBRANCH  10  12
ENDBRANCH   8  10
ENDBRANCH   7   8
ENDBRANCH   6   7
ENDBRANCH   5   6
ENDBRANCH   4   5
ENDBRANCH   3   4
ENDBRANCH   2   3
ENDBRANCH   1   2
BRANCH   1  33
ATOM     33  C   UNL A   1      35.324  23.001  23.538  1.00  0.00     0.188 C 
BRANCH  33  34
ATOM     34  C   UNL A   1      36.808  23.060  23.928  1.00  0.00     0.188 C 
BRANCH  34  35
ATOM     35  O   UNL A   1      37.093  22.389  25.154  1.00  0.00    -0.376 OA
BRANCH  35  36
ATOM     36  C   UNL A   1      37.887  21.214  25.117  1.00  0.00     0.202 C 
BRANCH  36  37
ATOM     37  C   UNL A   1      39.027  21.110  26.143  1.00  0.00     0.261 C 
BRANCH  37  38
ATOM     38  O   UNL A   1      40.215  21.861  25.861  1.00  0.00    -0.460 OA
BRANCH  38  39
ATOM     39  C   UNL A   1      41.403  21.248  26.051  1.00  0.00     0.338 C 
ATOM     40  O   UNL A   1      41.634  20.056  25.938  1.00  0.00    -0.246 OA
BRANCH  39  41
ATOM     41  C   UNL A   1      42.438  22.297  26.196  1.00  0.00     0.060 A 
ATOM     42  C   UNL A   1      43.272  22.263  27.322  1.00  0.00     0.016 A 
ATOM     43  C   UNL A   1      42.620  23.273  25.212  1.00  0.00     0.016 A 
ATOM     44  C   UNL A   1      44.275  23.218  27.480  1.00  0.00     0.010 A 
ATOM     45  C   UNL A   1      43.603  24.252  25.389  1.00  0.00     0.010 A 
ATOM     46  C   UNL A   1      44.412  24.247  26.541  1.00  0.00    -0.014 A 
BRANCH  46  47
ATOM     47  C   UNL A   1      45.232  25.434  26.882  1.00  0.00     0.031 A 
ATOM     48  C   UNL A   1      44.635  26.456  27.811  1.00  0.00     0.074 A 
ATOM     49  C   UNL A   1      46.476  25.602  26.398  1.00  0.00     0.049 A 
ATOM     50  N   UNL A   1      45.138  27.582  28.239  1.00  0.00    -0.248 NA
ATOM     51  C   UNL A   1      43.285  26.165  28.324  1.00  0.00     0.031 C 
ATOM     52  C   UNL A   1      47.174  24.674  25.511  1.00  0.00     0.029 A 
ATOM     53  N   UNL A   1      47.365  26.633  26.577  1.00  0.00    -0.354 N 
ATOM     54  C   UNL A   1      44.157  28.150  29.044  1.00  0.00     0.074 A 
ATOM     55  C   UNL A   1      43.027  27.249  29.039  1.00  0.00     0.031 C 
ATOM     56  C   UNL A   1      48.375  25.193  25.199  1.00  0.00     0.029 A 
ATOM     57  C   UNL A   1      48.520  26.498  25.842  1.00  0.00     0.049 A 
ATOM     58  H   UNL A   1      47.193  27.396  27.174  1.00  0.00     0.167 HD
ATOM     59  C   UNL A   1      44.194  29.314  29.733  1.00  0.00     0.034 A 
ATOM     60  C   UNL A   1      49.558  27.344  25.689  1.00  0.00     0.034 A 
ATOM     61  C   UNL A   1      45.322  30.203  29.747  1.00  0.00     0.049 A 
ATOM     62  C   UNL A   1      49.557  28.656  26.435  1.00  0.00     0.074 A 
ATOM     63  C   UNL A   1      45.475  31.384  30.450  1.00  0.00     0.029 A 
ATOM     64  N   UNL A   1      46.480  30.023  29.008  1.00  0.00    -0.354 N 
ATOM     65  N   UNL A   1      48.671  29.128  27.279  1.00  0.00    -0.248 NA
ATOM     66  C   UNL A   1      50.716  29.539  26.231  1.00  0.00     0.031 C 
ATOM     67  C   UNL A   1      46.710  31.941  30.103  1.00  0.00     0.029 A 
ATOM     68  C   UNL A   1      47.345  31.082  29.221  1.00  0.00     0.049 A 
ATOM     69  H   UNL A   1      46.661  29.256  28.419  1.00  0.00     0.167 HD
ATOM     70  C   UNL A   1      49.185  30.338  27.737  1.00  0.00     0.074 A 
ATOM     71  C   UNL A   1      50.467  30.519  27.090  1.00  0.00     0.031 C 
ATOM     72  C   UNL A   1      48.642  31.224  28.610  1.00  0.00     0.034 A 
BRANCH  59  73
ATOM     73  C   UNL A   1      42.976  29.693  30.530  1.00  0.00     0.023 A 
ATOM     74  C   UNL A   1      41.931  30.419  29.922  1.00  0.00     0.012 A 
ATOM     75  C   UNL A   1      42.846  29.286  31.872  1.00  0.00     0.148 A 
ATOM     76  C   UNL A   1      40.791  30.762  30.647  1.00  0.00     0.002 A 
ATOM     77  C   UNL A   1      41.685  29.588  32.572  1.00  0.00     0.091 A 
ATOM     78  F   UNL A   1      43.862  28.620  32.438  1.00  0.00    -0.205 F 
ATOM     79  C   UNL A   1      40.663  30.336  31.967  1.00  0.00     0.022 A 
BRANCH  77  80
ATOM     80  S   UNL A   1      41.392  29.018  34.249  1.00  0.00     0.127 S 
ATOM     81  O   UNL A   1      42.101  30.028  35.032  1.00  0.00    -0.237 OA
ATOM     82  O   UNL A   1      39.933  29.084  34.343  1.00  0.00    -0.237 OA
ATOM     83  O   UNL A   1      41.945  27.673  34.320  1.00  0.00    -0.744 OA
ENDBRANCH  77  80
ENDBRANCH  59  73
BRANCH  60  84
ATOM     84  C   UNL A   1      50.702  26.982  24.804  1.00  0.00     0.023 A 
ATOM     85  C   UNL A   1      51.827  26.330  25.348  1.00  0.00     0.012 A 
ATOM     86  C   UNL A   1      50.686  27.290  23.430  1.00  0.00     0.148 A 
ATOM     87  C   UNL A   1      52.929  26.025  24.547  1.00  0.00     0.002 A 
ATOM     88  C   UNL A   1      51.763  26.935  22.627  1.00  0.00     0.091 A 
ATOM     89  F   UNL A   1      49.615  27.926  22.936  1.00  0.00    -0.205 F 
ATOM     90  C   UNL A   1      52.893  26.318  23.186  1.00  0.00     0.022 A 
BRANCH  88  91
ATOM     91  S   UNL A   1      51.759  27.171  20.847  1.00  0.00     0.127 S 
ATOM     92  O   UNL A   1      50.329  27.243  20.558  1.00  0.00    -0.237 OA
ATOM     93  O   UNL A   1      52.481  28.436  20.713  1.00  0.00    -0.237 OA
ATOM     94  O   UNL A   1      52.455  26.016  20.295  1.00  0.00    -0.744 OA
ENDBRANCH  88  91
ENDBRANCH  60  84
BRANCH  72  95
ATOM     95  C   UNL A   1      49.447  32.448  28.966  1.00  0.00     0.023 A 
ATOM     96  C   UNL A   1      49.291  33.639  28.229  1.00  0.00     0.012 A 
ATOM     97  C   UNL A   1      50.300  32.438  30.089  1.00  0.00     0.148 A 
ATOM     98  C   UNL A   1      50.000  34.787  28.581  1.00  0.00     0.002 A 
ATOM     99  C   UNL A   1      50.960  33.600  30.465  1.00  0.00     0.091 A 
ATOM    100  F   UNL A   1      50.446  31.291  30.769  1.00  0.00    -0.205 F 
ATOM    101  C   UNL A   1      50.822  34.773  29.704  1.00  0.00     0.022 A 
BRANCH  99 102
ATOM    102  S   UNL A   1      51.958  33.702  31.956  1.00  0.00     0.127 S 
ATOM    103  O   UNL A   1      50.951  33.522  33.001  1.00  0.00    -0.237 OA
ATOM    104  O   UNL A   1      52.876  32.574  31.792  1.00  0.00    -0.237 OA
ATOM    105  O   UNL A   1      52.597  35.011  31.925  1.00  0.00    -0.744 OA
ENDBRANCH  99 102
ENDBRANCH  72  95
ENDBRANCH  46  47
ENDBRANCH  39  41
ENDBRANCH  38  39
ENDBRANCH  37  38
ENDBRANCH  36  37
ENDBRANCH  35  36
ENDBRANCH  34  35
ENDBRANCH  33  34
ENDBRANCH   1  33
TORSDOF 26
ENDMDL
