MODEL 1
REMARK VINA RESULT:      -8.2      0.000      0.000
REMARK SMILES CC[C@](C)(NC(=O)NC[C@@H](C)[NH+](C)C)C(=O)OCCOCCOCCOCCOC(=O)c1ccc(-c2c3nc(c(-c4cccc(S(=O)(=O)[O-])c4F)c4ccc([nH]4)c(-c4cccc(S(=O)(=O)[O-])c4F)c4nc(c(-c5cccc(S(=O)(=O)[O-])c5F)c5ccc2[nH]5)C=C4)C=C3)cc1
REMARK SMILES IDX 22 1 21 2 20 3 19 4 18 5 17 6 15 7 16 8 3 9 4 10 2 11 1 12
REMARK SMILES IDX 5 13 6 14 7 16 8 17 9 19 10 20 11 21 12 22 13 23 14 24 23 26
REMARK SMILES IDX 24 27 25 28 26 29 27 30 28 31 29 32 30 33 31 34 32 35 33 36
REMARK SMILES IDX 94 37 34 38 93 39 35 40 36 41 37 42 87 43 38 44 92 45 86 46
REMARK SMILES IDX 88 47 39 48 91 49 85 50 84 51 40 53 72 54 52 55 71 56 53 57
REMARK SMILES IDX 56 58 70 59 89 60 54 61 55 62 69 64 90 65 57 66 41 67 42 68
REMARK SMILES IDX 50 69 43 70 45 71 51 72 44 73 46 74 47 75 48 76 49 77 73 78
REMARK SMILES IDX 74 79 82 80 75 81 77 82 83 83 76 84 78 85 79 86 80 87 81 88
REMARK SMILES IDX 58 89 59 90 67 91 60 92 62 93 68 94 61 95 63 96 64 97 65 98
REMARK SMILES IDX 66 99
REMARK H PARENT 5 15 8 18 12 25 88 52 56 63
REMARK Flexibility Score: inf
ROOT
ATOM      1  C   UNL A   1      34.836  31.945  27.983  1.00  0.00     0.188 C 
ENDROOT
BRANCH   1   2
ATOM      2  C   UNL A   1      33.572  31.211  27.489  1.00  0.00     0.188 C 
BRANCH   2   3
ATOM      3  O   UNL A   1      33.613  29.807  27.256  1.00  0.00    -0.376 OA
BRANCH   3   4
ATOM      4  C   UNL A   1      32.839  29.307  26.167  1.00  0.00     0.202 C 
BRANCH   4   5
ATOM      5  C   UNL A   1      31.885  28.135  26.449  1.00  0.00     0.261 C 
BRANCH   5   6
ATOM      6  O   UNL A   1      31.590  27.365  25.268  1.00  0.00    -0.462 OA
BRANCH   6   7
ATOM      7  C   UNL A   1      32.517  27.305  24.281  1.00  0.00     0.331 C 
ATOM      8  O   UNL A   1      33.705  27.088  24.489  1.00  0.00    -0.249 OA
BRANCH   7   9
ATOM      9  C   UNL A   1      31.866  27.348  22.855  1.00  0.00     0.136 C 
ATOM     10  C   UNL A   1      31.837  28.876  22.566  1.00  0.00     0.047 C 
BRANCH   9  11
ATOM     11  C   UNL A   1      30.415  26.803  22.904  1.00  0.00     0.037 C 
ATOM     12  C   UNL A   1      29.404  27.721  23.590  1.00  0.00     0.007 C 
ENDBRANCH   9  11
BRANCH   9  13
ATOM     13  N   UNL A   1      32.602  26.734  21.713  1.00  0.00    -0.322 N 
ATOM     14  C   UNL A   1      32.696  25.520  21.150  1.00  0.00     0.315 C 
ATOM     15  H   UNL A   1      33.168  27.393  21.251  1.00  0.00     0.166 HD
ATOM     16  O   UNL A   1      33.082  25.482  19.979  1.00  0.00    -0.249 OA
ATOM     17  N   UNL A   1      32.404  24.371  21.771  1.00  0.00    -0.332 N 
ATOM     18  H   UNL A   1      32.254  23.597  21.181  1.00  0.00     0.165 HD
BRANCH  17  19
ATOM     19  C   UNL A   1      32.279  24.108  23.183  1.00  0.00     0.182 C 
BRANCH  19  20
ATOM     20  C   UNL A   1      32.231  22.624  23.626  1.00  0.00     0.200 C 
ATOM     21  C   UNL A   1      32.154  21.719  22.384  1.00  0.00     0.077 C 
BRANCH  20  22
ATOM     22  N   UNL A   1      33.360  22.313  24.546  1.00  0.00    -0.336 N 
ATOM     23  C   UNL A   1      33.707  20.896  24.580  1.00  0.00     0.332 C 
ATOM     24  C   UNL A   1      34.563  23.118  24.364  1.00  0.00     0.332 C 
ATOM     25  H   UNL A   1      32.977  22.580  25.454  1.00  0.00     0.347 HD
ENDBRANCH  20  22
ENDBRANCH  19  20
ENDBRANCH  17  19
ENDBRANCH   9  13
ENDBRANCH   7   9
ENDBRANCH   6   7
ENDBRANCH   5   6
ENDBRANCH   4   5
ENDBRANCH   3   4
ENDBRANCH   2   3
ENDBRANCH   1   2
BRANCH   1  26
ATOM     26  O   UNL A   1      35.506  31.321  29.074  1.00  0.00    -0.377 OA
BRANCH  26  27
ATOM     27  C   UNL A   1      36.929  31.309  28.967  1.00  0.00     0.188 C 
BRANCH  27  28
ATOM     28  C   UNL A   1      37.525  29.962  29.407  1.00  0.00     0.188 C 
BRANCH  28  29
ATOM     29  O   UNL A   1      38.632  29.571  28.608  1.00  0.00    -0.376 OA
BRANCH  29  30
ATOM     30  C   UNL A   1      39.254  28.313  28.841  1.00  0.00     0.202 C 
BRANCH  30  31
ATOM     31  C   UNL A   1      38.925  27.492  30.105  1.00  0.00     0.261 C 
BRANCH  31  32
ATOM     32  O   UNL A   1      39.669  27.799  31.293  1.00  0.00    -0.460 OA
BRANCH  32  33
ATOM     33  C   UNL A   1      38.970  28.145  32.387  1.00  0.00     0.338 C 
ATOM     34  O   UNL A   1      38.010  27.547  32.861  1.00  0.00    -0.246 OA
BRANCH  33  35
ATOM     35  C   UNL A   1      39.668  29.262  33.051  1.00  0.00     0.060 A 
ATOM     36  C   UNL A   1      38.915  30.375  33.444  1.00  0.00     0.016 A 
ATOM     37  C   UNL A   1      41.056  29.246  33.220  1.00  0.00     0.016 A 
ATOM     38  C   UNL A   1      39.556  31.513  33.920  1.00  0.00     0.010 A 
ATOM     39  C   UNL A   1      41.701  30.399  33.679  1.00  0.00     0.010 A 
ATOM     40  C   UNL A   1      40.956  31.555  33.964  1.00  0.00    -0.014 A 
BRANCH  40  41
ATOM     41  C   UNL A   1      41.611  32.884  34.009  1.00  0.00     0.031 A 
ATOM     42  C   UNL A   1      42.022  33.507  32.698  1.00  0.00     0.074 A 
ATOM     43  C   UNL A   1      41.775  33.554  35.162  1.00  0.00     0.049 A 
ATOM     44  N   UNL A   1      42.545  34.681  32.463  1.00  0.00    -0.248 NA
ATOM     45  C   UNL A   1      41.806  32.694  31.487  1.00  0.00     0.031 C 
ATOM     46  C   UNL A   1      41.393  33.068  36.485  1.00  0.00     0.029 A 
ATOM     47  N   UNL A   1      42.311  34.795  35.396  1.00  0.00    -0.354 N 
ATOM     48  C   UNL A   1      42.743  34.737  31.089  1.00  0.00     0.074 A 
ATOM     49  C   UNL A   1      42.295  33.478  30.540  1.00  0.00     0.031 C 
ATOM     50  C   UNL A   1      41.721  33.999  37.400  1.00  0.00     0.029 A 
ATOM     51  C   UNL A   1      42.349  35.136  36.727  1.00  0.00     0.049 A 
ATOM     52  H   UNL A   1      42.639  35.384  34.680  1.00  0.00     0.167 HD
ATOM     53  C   UNL A   1      43.237  35.752  30.343  1.00  0.00     0.034 A 
ATOM     54  C   UNL A   1      42.841  36.238  37.327  1.00  0.00     0.034 A 
ATOM     55  C   UNL A   1      43.662  37.012  30.885  1.00  0.00     0.049 A 
ATOM     56  C   UNL A   1      43.415  37.343  36.476  1.00  0.00     0.074 A 
ATOM     57  C   UNL A   1      44.139  38.123  30.213  1.00  0.00     0.029 A 
ATOM     58  N   UNL A   1      43.672  37.324  32.236  1.00  0.00    -0.354 N 
ATOM     59  N   UNL A   1      43.486  37.430  35.169  1.00  0.00    -0.248 NA
ATOM     60  C   UNL A   1      43.947  38.519  37.182  1.00  0.00     0.031 C 
ATOM     61  C   UNL A   1      44.466  39.097  31.161  1.00  0.00     0.029 A 
ATOM     62  C   UNL A   1      44.162  38.604  32.421  1.00  0.00     0.049 A 
ATOM     63  H   UNL A   1      43.375  36.723  32.957  1.00  0.00     0.167 HD
ATOM     64  C   UNL A   1      44.027  38.683  34.896  1.00  0.00     0.074 A 
ATOM     65  C   UNL A   1      44.252  39.326  36.175  1.00  0.00     0.031 C 
ATOM     66  C   UNL A   1      44.324  39.249  33.699  1.00  0.00     0.034 A 
BRANCH  53  67
ATOM     67  C   UNL A   1      43.336  35.538  28.856  1.00  0.00     0.023 A 
ATOM     68  C   UNL A   1      42.229  35.820  28.029  1.00  0.00     0.012 A 
ATOM     69  C   UNL A   1      44.535  35.081  28.275  1.00  0.00     0.148 A 
ATOM     70  C   UNL A   1      42.304  35.620  26.651  1.00  0.00     0.002 A 
ATOM     71  C   UNL A   1      44.616  34.925  26.897  1.00  0.00     0.091 A 
ATOM     72  F   UNL A   1      45.565  34.788  29.081  1.00  0.00    -0.205 F 
ATOM     73  C   UNL A   1      43.499  35.181  26.085  1.00  0.00     0.022 A 
BRANCH  71  74
ATOM     74  S   UNL A   1      46.133  34.438  26.069  1.00  0.00     0.127 S 
ATOM     75  O   UNL A   1      47.077  35.435  26.571  1.00  0.00    -0.237 OA
ATOM     76  O   UNL A   1      46.345  33.084  26.585  1.00  0.00    -0.237 OA
ATOM     77  O   UNL A   1      45.849  34.504  24.643  1.00  0.00    -0.744 OA
ENDBRANCH  71  74
ENDBRANCH  53  67
BRANCH  54  78
ATOM     78  C   UNL A   1      42.771  36.379  38.809  1.00  0.00     0.023 A 
ATOM     79  C   UNL A   1      43.794  35.832  39.609  1.00  0.00     0.012 A 
ATOM     80  C   UNL A   1      41.702  37.053  39.429  1.00  0.00     0.148 A 
ATOM     81  C   UNL A   1      43.738  35.930  41.000  1.00  0.00     0.002 A 
ATOM     82  C   UNL A   1      41.681  37.196  40.812  1.00  0.00     0.091 A 
ATOM     83  F   UNL A   1      40.728  37.549  38.652  1.00  0.00    -0.205 F 
ATOM     84  C   UNL A   1      42.689  36.621  41.600  1.00  0.00     0.022 A 
BRANCH  82  85
ATOM     85  S   UNL A   1      40.438  38.175  41.661  1.00  0.00     0.127 S 
ATOM     86  O   UNL A   1      40.706  39.514  41.142  1.00  0.00    -0.237 OA
ATOM     87  O   UNL A   1      39.198  37.564  41.184  1.00  0.00    -0.237 OA
ATOM     88  O   UNL A   1      40.693  37.984  43.083  1.00  0.00    -0.744 OA
ENDBRANCH  82  85
ENDBRANCH  54  78
BRANCH  66  89
ATOM     89  C   UNL A   1      44.879  40.650  33.704  1.00  0.00     0.023 A 
ATOM     90  C   UNL A   1      46.273  40.854  33.696  1.00  0.00     0.012 A 
ATOM     91  C   UNL A   1      44.017  41.763  33.639  1.00  0.00     0.148 A 
ATOM     92  C   UNL A   1      46.799  42.145  33.662  1.00  0.00     0.002 A 
ATOM     93  C   UNL A   1      44.549  43.044  33.555  1.00  0.00     0.091 A 
ATOM     94  F   UNL A   1      42.693  41.551  33.667  1.00  0.00    -0.205 F 
ATOM     95  C   UNL A   1      45.939  43.238  33.580  1.00  0.00     0.022 A 
BRANCH  93  96
ATOM     96  S   UNL A   1      43.514  44.498  33.343  1.00  0.00     0.127 S 
ATOM     97  O   UNL A   1      42.895  44.237  32.044  1.00  0.00    -0.237 OA
ATOM     98  O   UNL A   1      42.602  44.401  34.484  1.00  0.00    -0.237 OA
ATOM     99  O   UNL A   1      44.417  45.639  33.392  1.00  0.00    -0.744 OA
ENDBRANCH  93  96
ENDBRANCH  66  89
ENDBRANCH  40  41
ENDBRANCH  33  35
ENDBRANCH  32  33
ENDBRANCH  31  32
ENDBRANCH  30  31
ENDBRANCH  29  30
ENDBRANCH  28  29
ENDBRANCH  27  28
ENDBRANCH  26  27
ENDBRANCH   1  26
TORSDOF 28
ENDMDL
MODEL 2
REMARK VINA RESULT:      -8.1      4.158      8.512
REMARK SMILES CC[C@](C)(NC(=O)NC[C@@H](C)[NH+](C)C)C(=O)OCCOCCOCCOCCOC(=O)c1ccc(-c2c3nc(c(-c4cccc(S(=O)(=O)[O-])c4F)c4ccc([nH]4)c(-c4cccc(S(=O)(=O)[O-])c4F)c4nc(c(-c5cccc(S(=O)(=O)[O-])c5F)c5ccc2[nH]5)C=C4)C=C3)cc1
REMARK SMILES IDX 22 1 21 2 20 3 19 4 18 5 17 6 15 7 16 8 3 9 4 10 2 11 1 12
REMARK SMILES IDX 5 13 6 14 7 16 8 17 9 19 10 20 11 21 12 22 13 23 14 24 23 26
REMARK SMILES IDX 24 27 25 28 26 29 27 30 28 31 29 32 30 33 31 34 32 35 33 36
REMARK SMILES IDX 94 37 34 38 93 39 35 40 36 41 37 42 87 43 38 44 92 45 86 46
REMARK SMILES IDX 88 47 39 48 91 49 85 50 84 51 40 53 72 54 52 55 71 56 53 57
REMARK SMILES IDX 56 58 70 59 89 60 54 61 55 62 69 64 90 65 57 66 41 67 42 68
REMARK SMILES IDX 50 69 43 70 45 71 51 72 44 73 46 74 47 75 48 76 49 77 73 78
REMARK SMILES IDX 74 79 82 80 75 81 77 82 83 83 76 84 78 85 79 86 80 87 81 88
REMARK SMILES IDX 58 89 59 90 67 91 60 92 62 93 68 94 61 95 63 96 64 97 65 98
REMARK SMILES IDX 66 99
REMARK H PARENT 5 15 8 18 12 25 88 52 56 63
REMARK Flexibility Score: inf
ROOT
ATOM      1  C   UNL A   1      39.573  22.201  26.190  1.00  0.00     0.188 C 
ENDROOT
BRANCH   1   2
ATOM      2  C   UNL A   1      38.177  21.951  25.582  1.00  0.00     0.188 C 
BRANCH   2   3
ATOM      3  O   UNL A   1      37.025  22.525  26.192  1.00  0.00    -0.376 OA
BRANCH   3   4
ATOM      4  C   UNL A   1      35.759  21.980  25.829  1.00  0.00     0.202 C 
BRANCH   4   5
ATOM      5  C   UNL A   1      35.333  22.080  24.355  1.00  0.00     0.261 C 
BRANCH   5   6
ATOM      6  O   UNL A   1      34.559  23.263  24.081  1.00  0.00    -0.462 OA
BRANCH   6   7
ATOM      7  C   UNL A   1      33.610  23.642  24.972  1.00  0.00     0.331 C 
ATOM      8  O   UNL A   1      33.863  24.267  25.996  1.00  0.00    -0.249 OA
BRANCH   7   9
ATOM      9  C   UNL A   1      32.160  23.361  24.446  1.00  0.00     0.136 C 
ATOM     10  C   UNL A   1      31.762  22.104  25.271  1.00  0.00     0.047 C 
BRANCH   9  11
ATOM     11  C   UNL A   1      32.188  23.003  22.938  1.00  0.00     0.037 C 
ATOM     12  C   UNL A   1      32.070  21.512  22.626  1.00  0.00     0.007 C 
ENDBRANCH   9  11
BRANCH   9  13
ATOM     13  N   UNL A   1      31.095  24.372  24.710  1.00  0.00    -0.322 N 
ATOM     14  C   UNL A   1      30.722  25.555  24.200  1.00  0.00     0.315 C 
ATOM     15  H   UNL A   1      30.512  24.097  25.454  1.00  0.00     0.166 HD
ATOM     16  O   UNL A   1      29.555  25.901  24.400  1.00  0.00    -0.249 OA
ATOM     17  N   UNL A   1      31.525  26.367  23.503  1.00  0.00    -0.332 N 
ATOM     18  H   UNL A   1      31.069  27.055  22.965  1.00  0.00     0.165 HD
BRANCH  17  19
ATOM     19  C   UNL A   1      32.965  26.376  23.429  1.00  0.00     0.182 C 
BRANCH  19  20
ATOM     20  C   UNL A   1      33.698  27.601  24.031  1.00  0.00     0.200 C 
ATOM     21  C   UNL A   1      34.030  28.603  22.911  1.00  0.00     0.077 C 
BRANCH  20  22
ATOM     22  N   UNL A   1      32.917  28.177  25.162  1.00  0.00    -0.336 N 
ATOM     23  C   UNL A   1      33.395  27.749  26.473  1.00  0.00     0.332 C 
ATOM     24  C   UNL A   1      32.749  29.626  25.140  1.00  0.00     0.332 C 
ATOM     25  H   UNL A   1      31.989  27.783  25.004  1.00  0.00     0.347 HD
ENDBRANCH  20  22
ENDBRANCH  19  20
ENDBRANCH  17  19
ENDBRANCH   9  13
ENDBRANCH   7   9
ENDBRANCH   6   7
ENDBRANCH   5   6
ENDBRANCH   4   5
ENDBRANCH   3   4
ENDBRANCH   2   3
ENDBRANCH   1   2
BRANCH   1  26
ATOM     26  O   UNL A   1      40.073  21.144  27.003  1.00  0.00    -0.377 OA
BRANCH  26  27
ATOM     27  C   UNL A   1      41.093  20.357  26.391  1.00  0.00     0.188 C 
BRANCH  27  28
ATOM     28  C   UNL A   1      42.483  20.995  26.548  1.00  0.00     0.188 C 
BRANCH  28  29
ATOM     29  O   UNL A   1      43.074  21.323  25.299  1.00  0.00    -0.376 OA
BRANCH  29  30
ATOM     30  C   UNL A   1      43.151  22.686  24.897  1.00  0.00     0.202 C 
BRANCH  30  31
ATOM     31  C   UNL A   1      42.805  23.820  25.883  1.00  0.00     0.261 C 
BRANCH  31  32
ATOM     32  O   UNL A   1      42.783  25.155  25.359  1.00  0.00    -0.460 OA
BRANCH  32  33
ATOM     33  C   UNL A   1      41.819  25.978  25.806  1.00  0.00     0.338 C 
ATOM     34  O   UNL A   1      40.635  25.702  25.962  1.00  0.00    -0.246 OA
BRANCH  33  35
ATOM     35  C   UNL A   1      42.454  27.225  26.274  1.00  0.00     0.060 A 
ATOM     36  C   UNL A   1      43.307  27.161  27.381  1.00  0.00     0.016 A 
ATOM     37  C   UNL A   1      42.158  28.454  25.674  1.00  0.00     0.016 A 
ATOM     38  C   UNL A   1      43.792  28.332  27.953  1.00  0.00     0.010 A 
ATOM     39  C   UNL A   1      42.629  29.632  26.262  1.00  0.00     0.010 A 
ATOM     40  C   UNL A   1      43.390  29.573  27.442  1.00  0.00    -0.014 A 
BRANCH  40  41
ATOM     41  C   UNL A   1      43.516  30.761  28.319  1.00  0.00     0.031 A 
ATOM     42  C   UNL A   1      42.379  31.058  29.263  1.00  0.00     0.074 A 
ATOM     43  C   UNL A   1      44.629  31.514  28.335  1.00  0.00     0.049 A 
ATOM     44  N   UNL A   1      42.277  31.989  30.174  1.00  0.00    -0.248 NA
ATOM     45  C   UNL A   1      41.200  30.179  29.170  1.00  0.00     0.031 C 
ATOM     46  C   UNL A   1      45.803  31.309  27.490  1.00  0.00     0.029 A 
ATOM     47  N   UNL A   1      44.946  32.610  29.097  1.00  0.00    -0.354 N 
ATOM     48  C   UNL A   1      41.018  31.825  30.742  1.00  0.00     0.074 A 
ATOM     49  C   UNL A   1      40.388  30.714  30.068  1.00  0.00     0.031 C 
ATOM     50  C   UNL A   1      46.712  32.260  27.771  1.00  0.00     0.029 A 
ATOM     51  C   UNL A   1      46.175  33.148  28.803  1.00  0.00     0.049 A 
ATOM     52  H   UNL A   1      44.348  32.976  29.788  1.00  0.00     0.167 HD
ATOM     53  C   UNL A   1      40.442  32.524  31.747  1.00  0.00     0.034 A 
ATOM     54  C   UNL A   1      46.789  34.237  29.308  1.00  0.00     0.034 A 
ATOM     55  C   UNL A   1      41.077  33.615  32.431  1.00  0.00     0.049 A 
ATOM     56  C   UNL A   1      46.113  35.018  30.407  1.00  0.00     0.074 A 
ATOM     57  C   UNL A   1      40.598  34.364  33.490  1.00  0.00     0.029 A 
ATOM     58  N   UNL A   1      42.328  34.122  32.113  1.00  0.00    -0.354 N 
ATOM     59  N   UNL A   1      44.975  34.779  31.014  1.00  0.00    -0.248 NA
ATOM     60  C   UNL A   1      46.823  36.203  30.914  1.00  0.00     0.031 C 
ATOM     61  C   UNL A   1      41.548  35.343  33.795  1.00  0.00     0.029 A 
ATOM     62  C   UNL A   1      42.631  35.184  32.945  1.00  0.00     0.049 A 
ATOM     63  H   UNL A   1      42.913  33.777  31.400  1.00  0.00     0.167 HD
ATOM     64  C   UNL A   1      44.854  35.752  32.000  1.00  0.00     0.074 A 
ATOM     65  C   UNL A   1      46.042  36.576  31.919  1.00  0.00     0.031 C 
ATOM     66  C   UNL A   1      43.847  35.956  32.887  1.00  0.00     0.034 A 
BRANCH  53  67
ATOM     67  C   UNL A   1      39.054  32.120  32.167  1.00  0.00     0.023 A 
ATOM     68  C   UNL A   1      38.877  31.250  33.263  1.00  0.00     0.012 A 
ATOM     69  C   UNL A   1      37.925  32.622  31.493  1.00  0.00     0.148 A 
ATOM     70  C   UNL A   1      37.598  30.861  33.660  1.00  0.00     0.002 A 
ATOM     71  C   UNL A   1      36.652  32.264  31.922  1.00  0.00     0.091 A 
ATOM     72  F   UNL A   1      38.115  33.421  30.434  1.00  0.00    -0.205 F 
ATOM     73  C   UNL A   1      36.487  31.375  32.996  1.00  0.00     0.022 A 
BRANCH  71  74
ATOM     74  S   UNL A   1      35.161  32.933  31.177  1.00  0.00     0.127 S 
ATOM     75  O   UNL A   1      35.448  34.367  31.177  1.00  0.00    -0.237 OA
ATOM     76  O   UNL A   1      35.171  32.310  29.852  1.00  0.00    -0.237 OA
ATOM     77  O   UNL A   1      34.063  32.512  32.035  1.00  0.00    -0.744 OA
ENDBRANCH  71  74
ENDBRANCH  53  67
BRANCH  54  78
ATOM     78  C   UNL A   1      48.141  34.629  28.817  1.00  0.00     0.023 A 
ATOM     79  C   UNL A   1      48.255  35.509  27.722  1.00  0.00     0.012 A 
ATOM     80  C   UNL A   1      49.311  34.143  29.431  1.00  0.00     0.148 A 
ATOM     81  C   UNL A   1      49.509  35.872  27.229  1.00  0.00     0.002 A 
ATOM     82  C   UNL A   1      50.557  34.553  28.971  1.00  0.00     0.091 A 
ATOM     83  F   UNL A   1      49.182  33.292  30.459  1.00  0.00    -0.205 F 
ATOM     84  C   UNL A   1      50.659  35.404  27.859  1.00  0.00     0.022 A 
BRANCH  82  85
ATOM     85  S   UNL A   1      52.086  34.102  29.797  1.00  0.00     0.127 S 
ATOM     86  O   UNL A   1      51.672  34.074  31.198  1.00  0.00    -0.237 OA
ATOM     87  O   UNL A   1      52.368  32.793  29.210  1.00  0.00    -0.237 OA
ATOM     88  O   UNL A   1      53.045  35.139  29.441  1.00  0.00    -0.744 OA
ENDBRANCH  82  85
ENDBRANCH  54  78
BRANCH  66  89
ATOM     89  C   UNL A   1      44.000  37.084  33.876  1.00  0.00     0.023 A 
ATOM     90  C   UNL A   1      44.541  36.832  35.151  1.00  0.00     0.012 A 
ATOM     91  C   UNL A   1      43.677  38.406  33.509  1.00  0.00     0.148 A 
ATOM     92  C   UNL A   1      44.724  37.873  36.061  1.00  0.00     0.002 A 
ATOM     93  C   UNL A   1      43.909  39.444  34.403  1.00  0.00     0.091 A 
ATOM     94  F   UNL A   1      43.146  38.624  32.298  1.00  0.00    -0.205 F 
ATOM     95  C   UNL A   1      44.419  39.179  35.684  1.00  0.00     0.022 A 
BRANCH  93  96
ATOM     96  S   UNL A   1      43.641  41.165  33.960  1.00  0.00     0.127 S 
ATOM     97  O   UNL A   1      44.642  41.364  32.914  1.00  0.00    -0.237 OA
ATOM     98  O   UNL A   1      42.256  41.153  33.485  1.00  0.00    -0.237 OA
ATOM     99  O   UNL A   1      43.848  41.928  35.183  1.00  0.00    -0.744 OA
ENDBRANCH  93  96
ENDBRANCH  66  89
ENDBRANCH  40  41
ENDBRANCH  33  35
ENDBRANCH  32  33
ENDBRANCH  31  32
ENDBRANCH  30  31
ENDBRANCH  29  30
ENDBRANCH  28  29
ENDBRANCH  27  28
ENDBRANCH  26  27
ENDBRANCH   1  26
TORSDOF 28
ENDMDL
MODEL 3
REMARK VINA RESULT:      -7.6      5.696     10.637
REMARK SMILES CC[C@](C)(NC(=O)NC[C@@H](C)[NH+](C)C)C(=O)OCCOCCOCCOCCOC(=O)c1ccc(-c2c3nc(c(-c4cccc(S(=O)(=O)[O-])c4F)c4ccc([nH]4)c(-c4cccc(S(=O)(=O)[O-])c4F)c4nc(c(-c5cccc(S(=O)(=O)[O-])c5F)c5ccc2[nH]5)C=C4)C=C3)cc1
REMARK SMILES IDX 22 1 21 2 20 3 19 4 18 5 17 6 15 7 16 8 3 9 4 10 2 11 1 12
REMARK SMILES IDX 5 13 6 14 7 16 8 17 9 19 10 20 11 21 12 22 13 23 14 24 23 26
REMARK SMILES IDX 24 27 25 28 26 29 27 30 28 31 29 32 30 33 31 34 32 35 33 36
REMARK SMILES IDX 94 37 34 38 93 39 35 40 36 41 37 42 87 43 38 44 92 45 86 46
REMARK SMILES IDX 88 47 39 48 91 49 85 50 84 51 40 53 72 54 52 55 71 56 53 57
REMARK SMILES IDX 56 58 70 59 89 60 54 61 55 62 69 64 90 65 57 66 41 67 42 68
REMARK SMILES IDX 50 69 43 70 45 71 51 72 44 73 46 74 47 75 48 76 49 77 73 78
REMARK SMILES IDX 74 79 82 80 75 81 77 82 83 83 76 84 78 85 79 86 80 87 81 88
REMARK SMILES IDX 58 89 59 90 67 91 60 92 62 93 68 94 61 95 63 96 64 97 65 98
REMARK SMILES IDX 66 99
REMARK H PARENT 5 15 8 18 12 25 88 52 56 63
REMARK Flexibility Score: inf
ROOT
ATOM      1  C   UNL A   1      42.207  19.425  26.365  1.00  0.00     0.188 C 
ENDROOT
BRANCH   1   2
ATOM      2  C   UNL A   1      40.972  20.130  26.962  1.00  0.00     0.188 C 
BRANCH   2   3
ATOM      3  O   UNL A   1      39.782  20.251  26.189  1.00  0.00    -0.376 OA
BRANCH   3   4
ATOM      4  C   UNL A   1      39.369  21.569  25.833  1.00  0.00     0.202 C 
BRANCH   4   5
ATOM      5  C   UNL A   1      39.477  22.665  26.906  1.00  0.00     0.261 C 
BRANCH   5   6
ATOM      6  O   UNL A   1      40.499  23.634  26.607  1.00  0.00    -0.462 OA
BRANCH   6   7
ATOM      7  C   UNL A   1      40.223  24.949  26.785  1.00  0.00     0.331 C 
ATOM      8  O   UNL A   1      39.122  25.362  27.134  1.00  0.00    -0.249 OA
BRANCH   7   9
ATOM      9  C   UNL A   1      41.508  25.841  26.687  1.00  0.00     0.136 C 
ATOM     10  C   UNL A   1      42.544  24.841  26.098  1.00  0.00     0.047 C 
BRANCH   9  11
ATOM     11  C   UNL A   1      41.967  26.290  28.098  1.00  0.00     0.037 C 
ATOM     12  C   UNL A   1      42.904  25.316  28.812  1.00  0.00     0.007 C 
ENDBRANCH   9  11
BRANCH   9  13
ATOM     13  N   UNL A   1      41.500  27.009  25.759  1.00  0.00    -0.322 N 
ATOM     14  C   UNL A   1      41.374  28.340  25.865  1.00  0.00     0.315 C 
ATOM     15  H   UNL A   1      41.618  26.728  24.823  1.00  0.00     0.166 HD
ATOM     16  O   UNL A   1      41.826  29.014  24.934  1.00  0.00    -0.249 OA
ATOM     17  N   UNL A   1      40.797  28.969  26.895  1.00  0.00    -0.332 N 
ATOM     18  H   UNL A   1      41.008  29.927  26.979  1.00  0.00     0.165 HD
BRANCH  17  19
ATOM     19  C   UNL A   1      39.909  28.439  27.900  1.00  0.00     0.182 C 
BRANCH  19  20
ATOM     20  C   UNL A   1      38.968  29.441  28.614  1.00  0.00     0.200 C 
ATOM     21  C   UNL A   1      37.509  28.985  28.445  1.00  0.00     0.077 C 
BRANCH  20  22
ATOM     22  N   UNL A   1      39.391  29.644  30.028  1.00  0.00    -0.336 N 
ATOM     23  C   UNL A   1      40.713  29.099  30.321  1.00  0.00     0.332 C 
ATOM     24  C   UNL A   1      39.293  31.011  30.527  1.00  0.00     0.332 C 
ATOM     25  H   UNL A   1      38.692  29.106  30.540  1.00  0.00     0.347 HD
ENDBRANCH  20  22
ENDBRANCH  19  20
ENDBRANCH  17  19
ENDBRANCH   9  13
ENDBRANCH   7   9
ENDBRANCH   6   7
ENDBRANCH   5   6
ENDBRANCH   4   5
ENDBRANCH   3   4
ENDBRANCH   2   3
ENDBRANCH   1   2
BRANCH   1  26
ATOM     26  O   UNL A   1      42.804  20.091  25.257  1.00  0.00    -0.377 OA
BRANCH  26  27
ATOM     27  C   UNL A   1      42.962  21.499  25.426  1.00  0.00     0.188 C 
BRANCH  27  28
ATOM     28  C   UNL A   1      44.222  21.840  26.237  1.00  0.00     0.188 C 
BRANCH  28  29
ATOM     29  O   UNL A   1      45.411  21.371  25.617  1.00  0.00    -0.376 OA
BRANCH  29  30
ATOM     30  C   UNL A   1      46.420  22.301  25.243  1.00  0.00     0.202 C 
BRANCH  30  31
ATOM     31  C   UNL A   1      46.164  23.340  24.132  1.00  0.00     0.261 C 
BRANCH  31  32
ATOM     32  O   UNL A   1      45.939  24.695  24.546  1.00  0.00    -0.460 OA
BRANCH  32  33
ATOM     33  C   UNL A   1      47.019  25.438  24.839  1.00  0.00     0.338 C 
ATOM     34  O   UNL A   1      48.174  25.219  24.490  1.00  0.00    -0.246 OA
BRANCH  33  35
ATOM     35  C   UNL A   1      46.565  26.681  25.489  1.00  0.00     0.060 A 
ATOM     36  C   UNL A   1      47.493  27.415  26.238  1.00  0.00     0.016 A 
ATOM     37  C   UNL A   1      45.227  27.083  25.424  1.00  0.00     0.016 A 
ATOM     38  C   UNL A   1      47.068  28.498  27.000  1.00  0.00     0.010 A 
ATOM     39  C   UNL A   1      44.798  28.159  26.206  1.00  0.00     0.010 A 
ATOM     40  C   UNL A   1      45.706  28.824  27.047  1.00  0.00    -0.014 A 
BRANCH  40  41
ATOM     41  C   UNL A   1      45.223  29.635  28.190  1.00  0.00     0.031 A 
ATOM     42  C   UNL A   1      45.157  28.970  29.542  1.00  0.00     0.074 A 
ATOM     43  C   UNL A   1      44.921  30.937  28.056  1.00  0.00     0.049 A 
ATOM     44  N   UNL A   1      44.838  29.477  30.703  1.00  0.00    -0.248 NA
ATOM     45  C   UNL A   1      45.503  27.538  29.589  1.00  0.00     0.031 C 
ATOM     46  C   UNL A   1      44.974  31.695  26.808  1.00  0.00     0.029 A 
ATOM     47  N   UNL A   1      44.506  31.850  28.992  1.00  0.00    -0.354 N 
ATOM     48  C   UNL A   1      44.920  28.427  31.609  1.00  0.00     0.074 A 
ATOM     49  C   UNL A   1      45.308  27.250  30.866  1.00  0.00     0.031 C 
ATOM     50  C   UNL A   1      44.591  32.961  27.053  1.00  0.00     0.029 A 
ATOM     51  C   UNL A   1      44.251  33.096  28.470  1.00  0.00     0.049 A 
ATOM     52  H   UNL A   1      44.400  31.634  29.946  1.00  0.00     0.167 HD
ATOM     53  C   UNL A   1      44.710  28.439  32.946  1.00  0.00     0.034 A 
ATOM     54  C   UNL A   1      43.791  34.211  29.071  1.00  0.00     0.034 A 
ATOM     55  C   UNL A   1      44.346  29.613  33.689  1.00  0.00     0.049 A 
ATOM     56  C   UNL A   1      43.534  34.192  30.558  1.00  0.00     0.074 A 
ATOM     57  C   UNL A   1      44.149  29.744  35.051  1.00  0.00     0.029 A 
ATOM     58  N   UNL A   1      44.110  30.858  33.127  1.00  0.00    -0.354 N 
ATOM     59  N   UNL A   1      43.731  33.223  31.420  1.00  0.00    -0.248 NA
ATOM     60  C   UNL A   1      43.024  35.433  31.160  1.00  0.00     0.031 C 
ATOM     61  C   UNL A   1      43.766  31.063  35.310  1.00  0.00     0.029 A 
ATOM     62  C   UNL A   1      43.754  31.761  34.112  1.00  0.00     0.049 A 
ATOM     63  H   UNL A   1      44.184  31.069  32.167  1.00  0.00     0.167 HD
ATOM     64  C   UNL A   1      43.412  33.749  32.668  1.00  0.00     0.074 A 
ATOM     65  C   UNL A   1      43.023  35.127  32.451  1.00  0.00     0.031 C 
ATOM     66  C   UNL A   1      43.427  33.145  33.883  1.00  0.00     0.034 A 
BRANCH  53  67
ATOM     67  C   UNL A   1      44.878  27.140  33.688  1.00  0.00     0.023 A 
ATOM     68  C   UNL A   1      43.765  26.299  33.893  1.00  0.00     0.012 A 
ATOM     69  C   UNL A   1      46.143  26.741  34.159  1.00  0.00     0.148 A 
ATOM     70  C   UNL A   1      43.903  25.096  34.585  1.00  0.00     0.002 A 
ATOM     71  C   UNL A   1      46.281  25.521  34.809  1.00  0.00     0.091 A 
ATOM     72  F   UNL A   1      47.182  27.569  33.982  1.00  0.00    -0.205 F 
ATOM     73  C   UNL A   1      45.162  24.703  35.034  1.00  0.00     0.022 A 
BRANCH  71  74
ATOM     74  S   UNL A   1      47.873  24.896  35.357  1.00  0.00     0.127 S 
ATOM     75  O   UNL A   1      47.509  23.584  35.890  1.00  0.00    -0.237 OA
ATOM     76  O   UNL A   1      48.636  24.856  34.108  1.00  0.00    -0.237 OA
ATOM     77  O   UNL A   1      48.364  25.856  36.335  1.00  0.00    -0.744 OA
ENDBRANCH  71  74
ENDBRANCH  53  67
BRANCH  54  78
ATOM     78  C   UNL A   1      43.587  35.458  28.281  1.00  0.00     0.023 A 
ATOM     79  C   UNL A   1      42.298  35.783  27.814  1.00  0.00     0.012 A 
ATOM     80  C   UNL A   1      44.659  36.326  27.995  1.00  0.00     0.148 A 
ATOM     81  C   UNL A   1      42.086  36.932  27.052  1.00  0.00     0.002 A 
ATOM     82  C   UNL A   1      44.431  37.498  27.283  1.00  0.00     0.091 A 
ATOM     83  F   UNL A   1      45.881  35.989  28.432  1.00  0.00    -0.205 F 
ATOM     84  C   UNL A   1      43.149  37.795  26.795  1.00  0.00     0.022 A 
BRANCH  82  85
ATOM     85  S   UNL A   1      45.712  38.727  27.015  1.00  0.00     0.127 S 
ATOM     86  O   UNL A   1      44.992  39.750  26.261  1.00  0.00    -0.237 OA
ATOM     87  O   UNL A   1      46.060  39.101  28.386  1.00  0.00    -0.237 OA
ATOM     88  O   UNL A   1      46.773  38.038  26.293  1.00  0.00    -0.744 OA
ENDBRANCH  82  85
ENDBRANCH  54  78
BRANCH  66  89
ATOM     89  C   UNL A   1      43.058  33.978  35.084  1.00  0.00     0.023 A 
ATOM     90  C   UNL A   1      44.068  34.579  35.861  1.00  0.00     0.012 A 
ATOM     91  C   UNL A   1      41.706  34.226  35.395  1.00  0.00     0.148 A 
ATOM     92  C   UNL A   1      43.738  35.383  36.951  1.00  0.00     0.002 A 
ATOM     93  C   UNL A   1      41.386  35.069  36.453  1.00  0.00     0.091 A 
ATOM     94  F   UNL A   1      40.758  33.631  34.657  1.00  0.00    -0.205 F 
ATOM     95  C   UNL A   1      42.399  35.637  37.240  1.00  0.00     0.022 A 
BRANCH  93  96
ATOM     96  S   UNL A   1      39.689  35.530  36.829  1.00  0.00     0.127 S 
ATOM     97  O   UNL A   1      39.872  36.805  37.519  1.00  0.00    -0.237 OA
ATOM     98  O   UNL A   1      39.092  35.637  35.497  1.00  0.00    -0.237 OA
ATOM     99  O   UNL A   1      39.154  34.446  37.641  1.00  0.00    -0.744 OA
ENDBRANCH  93  96
ENDBRANCH  66  89
ENDBRANCH  40  41
ENDBRANCH  33  35
ENDBRANCH  32  33
ENDBRANCH  31  32
ENDBRANCH  30  31
ENDBRANCH  29  30
ENDBRANCH  28  29
ENDBRANCH  27  28
ENDBRANCH  26  27
ENDBRANCH   1  26
TORSDOF 28
ENDMDL
