MODEL 1
REMARK VINA RESULT:      -8.6      0.000      0.000
REMARK SMILES CCC(CC)(NC(=O)c1ccc(N)c(F)c1)C(=O)OCCOCCOCCOCCOC(=O)c1ccc(-c2c3nc(c(-c4cccc(S(=O)(=O)[O-])c4F)c4ccc([nH]4)c(-c4cccc(S(=O)(=O)[O-])c4F)c4nc(c(-c5cccc(S(=O)(=O)[O-])c5F)c5ccc2[nH]5)C=C4)C=C3)cc1
REMARK SMILES IDX 25 1 24 2 23 3 22 4 21 5 20 6 19 7 17 8 18 9 3 10 2 11 1 12
REMARK SMILES IDX 4 13 5 14 6 15 7 16 8 18 9 19 10 20 16 21 11 22 14 23 12 24
REMARK SMILES IDX 15 25 13 26 26 29 27 30 28 31 29 32 30 33 31 34 32 35 33 36
REMARK SMILES IDX 34 37 35 38 96 39 36 40 95 41 37 42 38 43 39 44 89 45 40 46
REMARK SMILES IDX 94 47 88 48 90 49 41 50 93 51 87 52 86 53 42 55 74 56 54 57
REMARK SMILES IDX 73 58 55 59 58 60 72 61 91 62 56 63 57 64 71 66 92 67 59 68
REMARK SMILES IDX 43 69 44 70 52 71 45 72 47 73 53 74 46 75 48 76 49 77 50 78
REMARK SMILES IDX 51 79 75 80 76 81 84 82 77 83 79 84 85 85 78 86 80 87 81 88
REMARK SMILES IDX 82 89 83 90 60 91 61 92 69 93 62 94 64 95 70 96 63 97 65 98
REMARK SMILES IDX 66 99 67 100 68 101
REMARK H PARENT 6 17 13 27 13 28 90 54 58 65
REMARK Flexibility Score: inf
ROOT
ATOM      1  O   UNL A   1      34.061  22.475  26.603  1.00  0.00    -0.377 OA
ENDROOT
BRANCH   1   2
ATOM      2  C   UNL A   1      32.782  22.942  26.157  1.00  0.00     0.188 C 
BRANCH   2   3
ATOM      3  C   UNL A   1      31.750  23.073  27.303  1.00  0.00     0.188 C 
BRANCH   3   4
ATOM      4  O   UNL A   1      30.607  23.885  27.010  1.00  0.00    -0.376 OA
BRANCH   4   5
ATOM      5  C   UNL A   1      30.858  24.952  26.070  1.00  0.00     0.202 C 
BRANCH   5   6
ATOM      6  C   UNL A   1      30.071  24.967  24.738  1.00  0.00     0.261 C 
BRANCH   6   7
ATOM      7  O   UNL A   1      30.931  24.908  23.604  1.00  0.00    -0.461 OA
BRANCH   7   8
ATOM      8  C   UNL A   1      31.509  26.020  23.123  1.00  0.00     0.331 C 
ATOM      9  O   UNL A   1      30.903  27.064  22.914  1.00  0.00    -0.249 OA
BRANCH   8  10
ATOM     10  C   UNL A   1      33.052  25.812  22.962  1.00  0.00     0.137 C 
BRANCH  10  11
ATOM     11  C   UNL A   1      33.554  26.784  21.806  1.00  0.00     0.037 C 
ATOM     12  C   UNL A   1      34.039  28.178  22.200  1.00  0.00     0.007 C 
ENDBRANCH  10  11
BRANCH  10  13
ATOM     13  C   UNL A   1      33.279  24.323  22.564  1.00  0.00     0.037 C 
ATOM     14  C   UNL A   1      33.014  23.960  21.101  1.00  0.00     0.007 C 
ENDBRANCH  10  13
BRANCH  10  15
ATOM     15  N   UNL A   1      33.901  26.167  24.187  1.00  0.00    -0.336 N 
ATOM     16  C   UNL A   1      33.639  26.700  25.445  1.00  0.00     0.252 C 
ATOM     17  H   UNL A   1      34.856  25.973  24.051  1.00  0.00     0.165 HD
ATOM     18  O   UNL A   1      34.079  26.078  26.415  1.00  0.00    -0.269 OA
BRANCH  16  19
ATOM     19  C   UNL A   1      33.164  28.101  25.717  1.00  0.00     0.042 A 
ATOM     20  C   UNL A   1      31.850  28.517  25.508  1.00  0.00     0.016 A 
ATOM     21  C   UNL A   1      33.976  28.980  26.423  1.00  0.00     0.055 A 
ATOM     22  C   UNL A   1      31.425  29.811  25.917  1.00  0.00     0.029 A 
ATOM     23  C   UNL A   1      33.556  30.228  26.870  1.00  0.00     0.146 A 
ATOM     24  C   UNL A   1      32.271  30.673  26.620  1.00  0.00     0.068 A 
ATOM     25  F   UNL A   1      34.422  31.024  27.521  1.00  0.00    -0.205 F 
BRANCH  24  26
ATOM     26  N   UNL A   1      31.913  31.987  26.929  1.00  0.00    -0.396 N 
ATOM     27  H   UNL A   1      31.542  32.573  26.230  1.00  0.00     0.156 HD
ATOM     28  H   UNL A   1      32.031  32.328  27.845  1.00  0.00     0.156 HD
ENDBRANCH  24  26
ENDBRANCH  16  19
ENDBRANCH  10  15
ENDBRANCH   8  10
ENDBRANCH   7   8
ENDBRANCH   6   7
ENDBRANCH   5   6
ENDBRANCH   4   5
ENDBRANCH   3   4
ENDBRANCH   2   3
ENDBRANCH   1   2
BRANCH   1  29
ATOM     29  C   UNL A   1      34.494  21.138  26.316  1.00  0.00     0.188 C 
BRANCH  29  30
ATOM     30  C   UNL A   1      35.032  20.834  24.912  1.00  0.00     0.188 C 
BRANCH  30  31
ATOM     31  O   UNL A   1      35.925  21.809  24.363  1.00  0.00    -0.376 OA
BRANCH  31  32
ATOM     32  C   UNL A   1      37.312  21.626  24.630  1.00  0.00     0.202 C 
BRANCH  32  33
ATOM     33  C   UNL A   1      37.946  22.550  25.685  1.00  0.00     0.261 C 
BRANCH  33  34
ATOM     34  O   UNL A   1      38.967  21.936  26.497  1.00  0.00    -0.460 OA
BRANCH  34  35
ATOM     35  C   UNL A   1      40.154  22.586  26.527  1.00  0.00     0.338 C 
ATOM     36  O   UNL A   1      41.248  22.121  26.210  1.00  0.00    -0.246 OA
BRANCH  35  37
ATOM     37  C   UNL A   1      39.977  24.012  26.876  1.00  0.00     0.060 A 
ATOM     38  C   UNL A   1      40.343  24.982  25.929  1.00  0.00     0.016 A 
ATOM     39  C   UNL A   1      39.584  24.401  28.158  1.00  0.00     0.016 A 
ATOM     40  C   UNL A   1      40.384  26.334  26.279  1.00  0.00     0.010 A 
ATOM     41  C   UNL A   1      39.638  25.756  28.510  1.00  0.00     0.010 A 
ATOM     42  C   UNL A   1      40.089  26.723  27.590  1.00  0.00    -0.014 A 
BRANCH  42  43
ATOM     43  C   UNL A   1      40.482  28.072  28.085  1.00  0.00     0.031 A 
ATOM     44  C   UNL A   1      41.954  28.383  28.199  1.00  0.00     0.074 A 
ATOM     45  C   UNL A   1      39.576  28.994  28.457  1.00  0.00     0.049 A 
ATOM     46  N   UNL A   1      42.549  29.421  28.729  1.00  0.00    -0.248 NA
ATOM     47  C   UNL A   1      42.879  27.378  27.649  1.00  0.00     0.031 C 
ATOM     48  C   UNL A   1      38.126  28.842  28.369  1.00  0.00     0.029 A 
ATOM     49  N   UNL A   1      39.752  30.233  29.028  1.00  0.00    -0.354 N 
ATOM     50  C   UNL A   1      43.913  29.172  28.620  1.00  0.00     0.074 A 
ATOM     51  C   UNL A   1      44.058  27.885  27.973  1.00  0.00     0.031 C 
ATOM     52  C   UNL A   1      37.542  29.927  28.910  1.00  0.00     0.029 A 
ATOM     53  C   UNL A   1      38.576  30.831  29.416  1.00  0.00     0.049 A 
ATOM     54  H   UNL A   1      40.635  30.651  29.147  1.00  0.00     0.167 HD
ATOM     55  C   UNL A   1      44.954  29.941  29.015  1.00  0.00     0.034 A 
ATOM     56  C   UNL A   1      38.360  31.954  30.133  1.00  0.00     0.034 A 
ATOM     57  C   UNL A   1      44.815  31.227  29.641  1.00  0.00     0.049 A 
ATOM     58  C   UNL A   1      39.537  32.776  30.603  1.00  0.00     0.074 A 
ATOM     59  C   UNL A   1      45.811  32.103  30.036  1.00  0.00     0.029 A 
ATOM     60  N   UNL A   1      43.608  31.815  29.978  1.00  0.00    -0.354 N 
ATOM     61  N   UNL A   1      40.818  32.577  30.410  1.00  0.00    -0.248 NA
ATOM     62  C   UNL A   1      39.235  33.994  31.373  1.00  0.00     0.031 C 
ATOM     63  C   UNL A   1      45.205  33.203  30.652  1.00  0.00     0.029 A 
ATOM     64  C   UNL A   1      43.831  33.034  30.596  1.00  0.00     0.049 A 
ATOM     65  H   UNL A   1      42.721  31.424  29.805  1.00  0.00     0.167 HD
ATOM     66  C   UNL A   1      41.469  33.660  30.994  1.00  0.00     0.074 A 
ATOM     67  C   UNL A   1      40.441  34.522  31.536  1.00  0.00     0.031 C 
ATOM     68  C   UNL A   1      42.800  33.913  31.083  1.00  0.00     0.034 A 
BRANCH  55  69
ATOM     69  C   UNL A   1      46.347  29.412  28.782  1.00  0.00     0.023 A 
ATOM     70  C   UNL A   1      47.034  29.736  27.595  1.00  0.00     0.012 A 
ATOM     71  C   UNL A   1      46.993  28.633  29.762  1.00  0.00     0.148 A 
ATOM     72  C   UNL A   1      48.327  29.262  27.370  1.00  0.00     0.002 A 
ATOM     73  C   UNL A   1      48.298  28.206  29.554  1.00  0.00     0.091 A 
ATOM     74  F   UNL A   1      46.316  28.319  30.877  1.00  0.00    -0.205 F 
ATOM     75  C   UNL A   1      48.962  28.507  28.354  1.00  0.00     0.022 A 
BRANCH  73  76
ATOM     76  S   UNL A   1      49.232  27.299  30.792  1.00  0.00     0.127 S 
ATOM     77  O   UNL A   1      48.164  26.779  31.645  1.00  0.00    -0.237 OA
ATOM     78  O   UNL A   1      49.912  26.288  29.981  1.00  0.00    -0.237 OA
ATOM     79  O   UNL A   1      50.117  28.268  31.422  1.00  0.00    -0.744 OA
ENDBRANCH  73  76
ENDBRANCH  55  69
BRANCH  56  80
ATOM     80  C   UNL A   1      36.966  32.384  30.453  1.00  0.00     0.023 A 
ATOM     81  C   UNL A   1      36.385  32.003  31.679  1.00  0.00     0.012 A 
ATOM     82  C   UNL A   1      36.213  33.160  29.550  1.00  0.00     0.148 A 
ATOM     83  C   UNL A   1      35.069  32.356  31.984  1.00  0.00     0.002 A 
ATOM     84  C   UNL A   1      34.924  33.559  29.886  1.00  0.00     0.091 A 
ATOM     85  F   UNL A   1      36.775  33.496  28.380  1.00  0.00    -0.205 F 
ATOM     86  C   UNL A   1      34.343  33.141  31.093  1.00  0.00     0.022 A 
BRANCH  84  87
ATOM     87  S   UNL A   1      33.956  34.672  28.862  1.00  0.00     0.127 S 
ATOM     88  O   UNL A   1      32.755  34.857  29.673  1.00  0.00    -0.237 OA
ATOM     89  O   UNL A   1      34.833  35.840  28.783  1.00  0.00    -0.237 OA
ATOM     90  O   UNL A   1      33.759  33.978  27.598  1.00  0.00    -0.744 OA
ENDBRANCH  84  87
ENDBRANCH  56  80
BRANCH  68  91
ATOM     91  C   UNL A   1      43.237  35.199  31.741  1.00  0.00     0.023 A 
ATOM     92  C   UNL A   1      43.417  35.255  33.137  1.00  0.00     0.012 A 
ATOM     93  C   UNL A   1      43.559  36.326  30.958  1.00  0.00     0.148 A 
ATOM     94  C   UNL A   1      43.880  36.423  33.746  1.00  0.00     0.002 A 
ATOM     95  C   UNL A   1      44.069  37.468  31.565  1.00  0.00     0.091 A 
ATOM     96  F   UNL A   1      43.369  36.259  29.632  1.00  0.00    -0.205 F 
ATOM     97  C   UNL A   1      44.217  37.523  32.960  1.00  0.00     0.022 A 
BRANCH  95  98
ATOM     98  S   UNL A   1      44.624  38.897  30.628  1.00  0.00     0.127 S 
ATOM     99  O   UNL A   1      43.376  39.360  30.023  1.00  0.00    -0.237 OA
ATOM    100  O   UNL A   1      45.152  39.768  31.678  1.00  0.00    -0.237 OA
ATOM    101  O   UNL A   1      45.623  38.403  29.691  1.00  0.00    -0.744 OA
ENDBRANCH  95  98
ENDBRANCH  68  91
ENDBRANCH  42  43
ENDBRANCH  35  37
ENDBRANCH  34  35
ENDBRANCH  33  34
ENDBRANCH  32  33
ENDBRANCH  31  32
ENDBRANCH  30  31
ENDBRANCH  29  30
ENDBRANCH   1  29
TORSDOF 28
ENDMDL
MODEL 2
REMARK VINA RESULT:      -8.5      2.148      2.479
REMARK SMILES CCC(CC)(NC(=O)c1ccc(N)c(F)c1)C(=O)OCCOCCOCCOCCOC(=O)c1ccc(-c2c3nc(c(-c4cccc(S(=O)(=O)[O-])c4F)c4ccc([nH]4)c(-c4cccc(S(=O)(=O)[O-])c4F)c4nc(c(-c5cccc(S(=O)(=O)[O-])c5F)c5ccc2[nH]5)C=C4)C=C3)cc1
REMARK SMILES IDX 25 1 24 2 23 3 22 4 21 5 20 6 19 7 17 8 18 9 3 10 2 11 1 12
REMARK SMILES IDX 4 13 5 14 6 15 7 16 8 18 9 19 10 20 16 21 11 22 14 23 12 24
REMARK SMILES IDX 15 25 13 26 26 29 27 30 28 31 29 32 30 33 31 34 32 35 33 36
REMARK SMILES IDX 34 37 35 38 96 39 36 40 95 41 37 42 38 43 39 44 89 45 40 46
REMARK SMILES IDX 94 47 88 48 90 49 41 50 93 51 87 52 86 53 42 55 74 56 54 57
REMARK SMILES IDX 73 58 55 59 58 60 72 61 91 62 56 63 57 64 71 66 92 67 59 68
REMARK SMILES IDX 43 69 44 70 52 71 45 72 47 73 53 74 46 75 48 76 49 77 50 78
REMARK SMILES IDX 51 79 75 80 76 81 84 82 77 83 79 84 85 85 78 86 80 87 81 88
REMARK SMILES IDX 82 89 83 90 60 91 61 92 69 93 62 94 64 95 70 96 63 97 65 98
REMARK SMILES IDX 66 99 67 100 68 101
REMARK H PARENT 6 17 13 27 13 28 90 54 58 65
REMARK Flexibility Score: inf
ROOT
ATOM      1  O   UNL A   1      34.207  22.576  26.751  1.00  0.00    -0.377 OA
ENDROOT
BRANCH   1   2
ATOM      2  C   UNL A   1      32.923  22.988  26.269  1.00  0.00     0.188 C 
BRANCH   2   3
ATOM      3  C   UNL A   1      31.842  23.027  27.376  1.00  0.00     0.188 C 
BRANCH   3   4
ATOM      4  O   UNL A   1      30.716  23.870  27.106  1.00  0.00    -0.376 OA
BRANCH   4   5
ATOM      5  C   UNL A   1      31.008  25.002  26.259  1.00  0.00     0.202 C 
BRANCH   5   6
ATOM      6  C   UNL A   1      29.932  25.472  25.252  1.00  0.00     0.261 C 
BRANCH   6   7
ATOM      7  O   UNL A   1      30.498  25.879  24.010  1.00  0.00    -0.461 OA
BRANCH   7   8
ATOM      8  C   UNL A   1      30.915  27.142  23.827  1.00  0.00     0.331 C 
ATOM      9  O   UNL A   1      30.172  28.114  23.869  1.00  0.00    -0.249 OA
BRANCH   8  10
ATOM     10  C   UNL A   1      32.469  27.187  23.648  1.00  0.00     0.137 C 
BRANCH  10  11
ATOM     11  C   UNL A   1      32.812  28.417  22.698  1.00  0.00     0.037 C 
ATOM     12  C   UNL A   1      34.255  28.916  22.662  1.00  0.00     0.007 C 
ENDBRANCH  10  11
BRANCH  10  13
ATOM     13  C   UNL A   1      32.898  25.844  22.984  1.00  0.00     0.037 C 
ATOM     14  C   UNL A   1      34.044  25.087  23.657  1.00  0.00     0.007 C 
ENDBRANCH  10  13
BRANCH  10  15
ATOM     15  N   UNL A   1      33.277  27.425  24.927  1.00  0.00    -0.336 N 
ATOM     16  C   UNL A   1      33.035  28.060  26.142  1.00  0.00     0.252 C 
ATOM     17  H   UNL A   1      34.181  27.038  24.879  1.00  0.00     0.165 HD
ATOM     18  O   UNL A   1      33.265  27.411  27.164  1.00  0.00    -0.269 OA
BRANCH  16  19
ATOM     19  C   UNL A   1      32.834  29.538  26.327  1.00  0.00     0.042 A 
ATOM     20  C   UNL A   1      31.648  30.196  26.003  1.00  0.00     0.016 A 
ATOM     21  C   UNL A   1      33.755  30.273  27.064  1.00  0.00     0.055 A 
ATOM     22  C   UNL A   1      31.465  31.567  26.332  1.00  0.00     0.029 A 
ATOM     23  C   UNL A   1      33.565  31.600  27.434  1.00  0.00     0.146 A 
ATOM     24  C   UNL A   1      32.417  32.278  27.069  1.00  0.00     0.068 A 
ATOM     25  F   UNL A   1      34.526  32.240  28.122  1.00  0.00    -0.205 F 
BRANCH  24  26
ATOM     26  N   UNL A   1      32.310  33.651  27.304  1.00  0.00    -0.396 N 
ATOM     27  H   UNL A   1      32.087  33.980  28.205  1.00  0.00     0.156 HD
ATOM     28  H   UNL A   1      32.457  34.289  26.569  1.00  0.00     0.156 HD
ENDBRANCH  24  26
ENDBRANCH  16  19
ENDBRANCH  10  15
ENDBRANCH   8  10
ENDBRANCH   7   8
ENDBRANCH   6   7
ENDBRANCH   5   6
ENDBRANCH   4   5
ENDBRANCH   3   4
ENDBRANCH   2   3
ENDBRANCH   1   2
BRANCH   1  29
ATOM     29  C   UNL A   1      34.753  21.300  26.384  1.00  0.00     0.188 C 
BRANCH  29  30
ATOM     30  C   UNL A   1      35.398  21.157  25.000  1.00  0.00     0.188 C 
BRANCH  30  31
ATOM     31  O   UNL A   1      36.035  22.332  24.486  1.00  0.00    -0.376 OA
BRANCH  31  32
ATOM     32  C   UNL A   1      37.435  22.451  24.719  1.00  0.00     0.202 C 
BRANCH  32  33
ATOM     33  C   UNL A   1      37.878  23.433  25.819  1.00  0.00     0.261 C 
BRANCH  33  34
ATOM     34  O   UNL A   1      38.887  22.928  26.716  1.00  0.00    -0.460 OA
BRANCH  34  35
ATOM     35  C   UNL A   1      40.055  23.613  26.720  1.00  0.00     0.338 C 
ATOM     36  O   UNL A   1      41.131  23.222  26.270  1.00  0.00    -0.246 OA
BRANCH  35  37
ATOM     37  C   UNL A   1      39.869  24.988  27.232  1.00  0.00     0.060 A 
ATOM     38  C   UNL A   1      40.329  26.059  26.449  1.00  0.00     0.016 A 
ATOM     39  C   UNL A   1      39.373  25.223  28.515  1.00  0.00     0.016 A 
ATOM     40  C   UNL A   1      40.359  27.355  26.970  1.00  0.00     0.010 A 
ATOM     41  C   UNL A   1      39.416  26.521  29.040  1.00  0.00     0.010 A 
ATOM     42  C   UNL A   1      39.959  27.584  28.292  1.00  0.00    -0.014 A 
BRANCH  42  43
ATOM     43  C   UNL A   1      40.327  28.850  28.984  1.00  0.00     0.031 A 
ATOM     44  C   UNL A   1      41.788  29.105  29.265  1.00  0.00     0.074 A 
ATOM     45  C   UNL A   1      39.406  29.743  29.389  1.00  0.00     0.049 A 
ATOM     46  N   UNL A   1      42.349  30.052  29.972  1.00  0.00    -0.248 NA
ATOM     47  C   UNL A   1      42.742  28.150  28.676  1.00  0.00     0.031 C 
ATOM     48  C   UNL A   1      37.967  29.643  29.156  1.00  0.00     0.029 A 
ATOM     49  N   UNL A   1      39.550  30.896  30.125  1.00  0.00    -0.354 N 
ATOM     50  C   UNL A   1      43.714  29.781  29.951  1.00  0.00     0.074 A 
ATOM     51  C   UNL A   1      43.895  28.581  29.163  1.00  0.00     0.031 C 
ATOM     52  C   UNL A   1      37.355  30.667  29.777  1.00  0.00     0.029 A 
ATOM     53  C   UNL A   1      38.353  31.474  30.481  1.00  0.00     0.049 A 
ATOM     54  H   UNL A   1      40.425  31.272  30.372  1.00  0.00     0.167 HD
ATOM     55  C   UNL A   1      44.727  30.467  30.530  1.00  0.00     0.034 A 
ATOM     56  C   UNL A   1      38.092  32.505  31.312  1.00  0.00     0.034 A 
ATOM     57  C   UNL A   1      44.553  31.669  31.298  1.00  0.00     0.049 A 
ATOM     58  C   UNL A   1      39.235  33.229  31.983  1.00  0.00     0.074 A 
ATOM     59  C   UNL A   1      45.522  32.461  31.886  1.00  0.00     0.029 A 
ATOM     60  N   UNL A   1      43.329  32.243  31.600  1.00  0.00    -0.354 N 
ATOM     61  N   UNL A   1      40.525  33.021  31.879  1.00  0.00    -0.248 NA
ATOM     62  C   UNL A   1      38.885  34.351  32.871  1.00  0.00     0.031 C 
ATOM     63  C   UNL A   1      44.881  33.492  32.581  1.00  0.00     0.029 A 
ATOM     64  C   UNL A   1      43.516  33.370  32.383  1.00  0.00     0.049 A 
ATOM     65  H   UNL A   1      42.455  31.901  31.302  1.00  0.00     0.167 HD
ATOM     66  C   UNL A   1      41.138  34.005  32.650  1.00  0.00     0.074 A 
ATOM     67  C   UNL A   1      40.079  34.821  33.204  1.00  0.00     0.031 C 
ATOM     68  C   UNL A   1      42.459  34.209  32.886  1.00  0.00     0.034 A 
BRANCH  55  69
ATOM     69  C   UNL A   1      46.126  29.933  30.354  1.00  0.00     0.023 A 
ATOM     70  C   UNL A   1      46.932  30.401  29.297  1.00  0.00     0.012 A 
ATOM     71  C   UNL A   1      46.659  29.002  31.268  1.00  0.00     0.148 A 
ATOM     72  C   UNL A   1      48.232  29.924  29.129  1.00  0.00     0.002 A 
ATOM     73  C   UNL A   1      47.971  28.569  31.124  1.00  0.00     0.091 A 
ATOM     74  F   UNL A   1      45.872  28.553  32.256  1.00  0.00    -0.205 F 
ATOM     75  C   UNL A   1      48.754  29.017  30.048  1.00  0.00     0.022 A 
BRANCH  73  76
ATOM     76  S   UNL A   1      48.763  27.465  32.299  1.00  0.00     0.127 S 
ATOM     77  O   UNL A   1      50.153  27.497  31.844  1.00  0.00    -0.237 OA
ATOM     78  O   UNL A   1      48.522  28.147  33.570  1.00  0.00    -0.237 OA
ATOM     79  O   UNL A   1      48.094  26.179  32.162  1.00  0.00    -0.744 OA
ENDBRANCH  73  76
ENDBRANCH  55  69
BRANCH  56  80
ATOM     80  C   UNL A   1      36.682  32.929  31.560  1.00  0.00     0.023 A 
ATOM     81  C   UNL A   1      36.008  32.466  32.708  1.00  0.00     0.012 A 
ATOM     82  C   UNL A   1      36.005  33.781  30.666  1.00  0.00     0.148 A 
ATOM     83  C   UNL A   1      34.677  32.814  32.942  1.00  0.00     0.002 A 
ATOM     84  C   UNL A   1      34.698  34.172  30.936  1.00  0.00     0.091 A 
ATOM     85  F   UNL A   1      36.655  34.195  29.569  1.00  0.00    -0.205 F 
ATOM     86  C   UNL A   1      34.026  33.674  32.062  1.00  0.00     0.022 A 
BRANCH  84  87
ATOM     87  S   UNL A   1      33.818  35.373  29.930  1.00  0.00     0.127 S 
ATOM     88  O   UNL A   1      34.573  35.327  28.680  1.00  0.00    -0.237 OA
ATOM     89  O   UNL A   1      32.481  34.782  29.866  1.00  0.00    -0.237 OA
ATOM     90  O   UNL A   1      33.888  36.630  30.662  1.00  0.00    -0.744 OA
ENDBRANCH  84  87
ENDBRANCH  56  80
BRANCH  68  91
ATOM     91  C   UNL A   1      42.855  35.391  33.736  1.00  0.00     0.023 A 
ATOM     92  C   UNL A   1      43.144  36.632  33.135  1.00  0.00     0.012 A 
ATOM     93  C   UNL A   1      42.849  35.291  35.142  1.00  0.00     0.148 A 
ATOM     94  C   UNL A   1      43.451  37.745  33.918  1.00  0.00     0.002 A 
ATOM     95  C   UNL A   1      43.104  36.416  35.918  1.00  0.00     0.091 A 
ATOM     96  F   UNL A   1      42.584  34.098  35.697  1.00  0.00    -0.205 F 
ATOM     97  C   UNL A   1      43.419  37.640  35.307  1.00  0.00     0.022 A 
BRANCH  95  98
ATOM     98  S   UNL A   1      42.988  36.403  37.710  1.00  0.00     0.127 S 
ATOM     99  O   UNL A   1      41.603  35.985  37.917  1.00  0.00    -0.237 OA
ATOM    100  O   UNL A   1      43.989  35.401  38.077  1.00  0.00    -0.237 OA
ATOM    101  O   UNL A   1      43.300  37.758  38.146  1.00  0.00    -0.744 OA
ENDBRANCH  95  98
ENDBRANCH  68  91
ENDBRANCH  42  43
ENDBRANCH  35  37
ENDBRANCH  34  35
ENDBRANCH  33  34
ENDBRANCH  32  33
ENDBRANCH  31  32
ENDBRANCH  30  31
ENDBRANCH  29  30
ENDBRANCH   1  29
TORSDOF 28
ENDMDL
MODEL 3
REMARK VINA RESULT:      -7.9      1.014      7.539
REMARK SMILES CCC(CC)(NC(=O)c1ccc(N)c(F)c1)C(=O)OCCOCCOCCOCCOC(=O)c1ccc(-c2c3nc(c(-c4cccc(S(=O)(=O)[O-])c4F)c4ccc([nH]4)c(-c4cccc(S(=O)(=O)[O-])c4F)c4nc(c(-c5cccc(S(=O)(=O)[O-])c5F)c5ccc2[nH]5)C=C4)C=C3)cc1
REMARK SMILES IDX 25 1 24 2 23 3 22 4 21 5 20 6 19 7 17 8 18 9 3 10 2 11 1 12
REMARK SMILES IDX 4 13 5 14 6 15 7 16 8 18 9 19 10 20 16 21 11 22 14 23 12 24
REMARK SMILES IDX 15 25 13 26 26 29 27 30 28 31 29 32 30 33 31 34 32 35 33 36
REMARK SMILES IDX 34 37 35 38 96 39 36 40 95 41 37 42 38 43 39 44 89 45 40 46
REMARK SMILES IDX 94 47 88 48 90 49 41 50 93 51 87 52 86 53 42 55 74 56 54 57
REMARK SMILES IDX 73 58 55 59 58 60 72 61 91 62 56 63 57 64 71 66 92 67 59 68
REMARK SMILES IDX 43 69 44 70 52 71 45 72 47 73 53 74 46 75 48 76 49 77 50 78
REMARK SMILES IDX 51 79 75 80 76 81 84 82 77 83 79 84 85 85 78 86 80 87 81 88
REMARK SMILES IDX 82 89 83 90 60 91 61 92 69 93 62 94 64 95 70 96 63 97 65 98
REMARK SMILES IDX 66 99 67 100 68 101
REMARK H PARENT 6 17 13 27 13 28 90 54 58 65
REMARK Flexibility Score: inf
ROOT
ATOM      1  O   UNL A   1      34.219  22.305  26.766  1.00  0.00    -0.377 OA
ENDROOT
BRANCH   1   2
ATOM      2  C   UNL A   1      32.883  22.611  26.351  1.00  0.00     0.188 C 
BRANCH   2   3
ATOM      3  C   UNL A   1      31.951  22.982  27.531  1.00  0.00     0.188 C 
BRANCH   3   4
ATOM      4  O   UNL A   1      30.983  24.000  27.251  1.00  0.00    -0.376 OA
BRANCH   4   5
ATOM      5  C   UNL A   1      31.125  24.618  25.953  1.00  0.00     0.202 C 
BRANCH   5   6
ATOM      6  C   UNL A   1      29.846  24.965  25.154  1.00  0.00     0.261 C 
BRANCH   6   7
ATOM      7  O   UNL A   1      30.144  25.550  23.890  1.00  0.00    -0.461 OA
BRANCH   7   8
ATOM      8  C   UNL A   1      30.443  26.855  23.790  1.00  0.00     0.331 C 
ATOM      9  O   UNL A   1      29.907  27.727  24.463  1.00  0.00    -0.249 OA
BRANCH   8  10
ATOM     10  C   UNL A   1      31.615  27.074  22.777  1.00  0.00     0.137 C 
BRANCH  10  11
ATOM     11  C   UNL A   1      31.601  28.605  22.343  1.00  0.00     0.037 C 
ATOM     12  C   UNL A   1      30.254  29.247  22.019  1.00  0.00     0.007 C 
ENDBRANCH  10  11
BRANCH  10  13
ATOM     13  C   UNL A   1      31.344  26.153  21.549  1.00  0.00     0.037 C 
ATOM     14  C   UNL A   1      32.575  25.610  20.820  1.00  0.00     0.007 C 
ENDBRANCH  10  13
BRANCH  10  15
ATOM     15  N   UNL A   1      33.023  26.821  23.326  1.00  0.00    -0.336 N 
ATOM     16  C   UNL A   1      33.581  26.721  24.597  1.00  0.00     0.252 C 
ATOM     17  H   UNL A   1      33.690  26.702  22.611  1.00  0.00     0.165 HD
ATOM     18  O   UNL A   1      34.264  25.720  24.827  1.00  0.00    -0.269 OA
BRANCH  16  19
ATOM     19  C   UNL A   1      33.700  27.846  25.587  1.00  0.00     0.042 A 
ATOM     20  C   UNL A   1      32.670  28.218  26.450  1.00  0.00     0.016 A 
ATOM     21  C   UNL A   1      34.944  28.408  25.847  1.00  0.00     0.055 A 
ATOM     22  C   UNL A   1      32.886  29.193  27.462  1.00  0.00     0.029 A 
ATOM     23  C   UNL A   1      35.178  29.326  26.865  1.00  0.00     0.146 A 
ATOM     24  C   UNL A   1      34.151  29.743  27.691  1.00  0.00     0.068 A 
ATOM     25  F   UNL A   1      36.410  29.840  27.023  1.00  0.00    -0.205 F 
BRANCH  24  26
ATOM     26  N   UNL A   1      34.362  30.783  28.600  1.00  0.00    -0.396 N 
ATOM     27  H   UNL A   1      34.417  30.589  29.564  1.00  0.00     0.156 HD
ATOM     28  H   UNL A   1      34.455  31.708  28.278  1.00  0.00     0.156 HD
ENDBRANCH  24  26
ENDBRANCH  16  19
ENDBRANCH  10  15
ENDBRANCH   8  10
ENDBRANCH   7   8
ENDBRANCH   6   7
ENDBRANCH   5   6
ENDBRANCH   4   5
ENDBRANCH   3   4
ENDBRANCH   2   3
ENDBRANCH   1   2
BRANCH   1  29
ATOM     29  C   UNL A   1      34.816  21.040  26.444  1.00  0.00     0.188 C 
BRANCH  29  30
ATOM     30  C   UNL A   1      35.272  20.800  25.000  1.00  0.00     0.188 C 
BRANCH  30  31
ATOM     31  O   UNL A   1      35.647  21.968  24.262  1.00  0.00    -0.376 OA
BRANCH  31  32
ATOM     32  C   UNL A   1      37.033  22.294  24.243  1.00  0.00     0.202 C 
BRANCH  32  33
ATOM     33  C   UNL A   1      37.552  23.198  25.376  1.00  0.00     0.261 C 
BRANCH  33  34
ATOM     34  O   UNL A   1      38.363  22.531  26.365  1.00  0.00    -0.460 OA
BRANCH  34  35
ATOM     35  C   UNL A   1      39.636  22.980  26.470  1.00  0.00     0.338 C 
ATOM     36  O   UNL A   1      40.650  22.382  26.114  1.00  0.00    -0.246 OA
BRANCH  35  37
ATOM     37  C   UNL A   1      39.675  24.373  26.964  1.00  0.00     0.060 A 
ATOM     38  C   UNL A   1      40.226  25.361  26.132  1.00  0.00     0.016 A 
ATOM     39  C   UNL A   1      39.302  24.689  28.271  1.00  0.00     0.016 A 
ATOM     40  C   UNL A   1      40.469  26.646  26.623  1.00  0.00     0.010 A 
ATOM     41  C   UNL A   1      39.558  25.975  28.766  1.00  0.00     0.010 A 
ATOM     42  C   UNL A   1      40.192  26.944  27.962  1.00  0.00    -0.014 A 
BRANCH  42  43
ATOM     43  C   UNL A   1      40.776  28.154  28.604  1.00  0.00     0.031 A 
ATOM     44  C   UNL A   1      39.829  29.170  29.194  1.00  0.00     0.074 A 
ATOM     45  C   UNL A   1      42.102  28.378  28.643  1.00  0.00     0.049 A 
ATOM     46  N   UNL A   1      40.076  30.360  29.677  1.00  0.00    -0.248 NA
ATOM     47  C   UNL A   1      38.406  28.791  29.232  1.00  0.00     0.031 C 
ATOM     48  C   UNL A   1      43.132  27.470  28.144  1.00  0.00     0.029 A 
ATOM     49  N   UNL A   1      42.805  29.472  29.092  1.00  0.00    -0.354 N 
ATOM     50  C   UNL A   1      38.840  30.890  30.030  1.00  0.00     0.074 A 
ATOM     51  C   UNL A   1      37.844  29.892  29.706  1.00  0.00     0.031 C 
ATOM     52  C   UNL A   1      44.332  28.064  28.272  1.00  0.00     0.029 A 
ATOM     53  C   UNL A   1      44.153  29.406  28.827  1.00  0.00     0.049 A 
ATOM     54  H   UNL A   1      42.383  30.230  29.559  1.00  0.00     0.167 HD
ATOM     55  C   UNL A   1      38.554  32.094  30.579  1.00  0.00     0.034 A 
ATOM     56  C   UNL A   1      45.121  30.334  28.975  1.00  0.00     0.034 A 
ATOM     57  C   UNL A   1      39.542  33.081  30.918  1.00  0.00     0.049 A 
ATOM     58  C   UNL A   1      44.774  31.689  29.547  1.00  0.00     0.074 A 
ATOM     59  C   UNL A   1      39.355  34.313  31.520  1.00  0.00     0.029 A 
ATOM     60  N   UNL A   1      40.899  32.958  30.672  1.00  0.00    -0.354 N 
ATOM     61  N   UNL A   1      43.616  32.141  29.966  1.00  0.00    -0.248 NA
ATOM     62  C   UNL A   1      45.875  32.655  29.691  1.00  0.00     0.031 C 
ATOM     63  C   UNL A   1      40.596  34.953  31.598  1.00  0.00     0.029 A 
ATOM     64  C   UNL A   1      41.562  34.099  31.091  1.00  0.00     0.049 A 
ATOM     65  H   UNL A   1      41.330  32.174  30.260  1.00  0.00     0.167 HD
ATOM     66  C   UNL A   1      43.857  33.421  30.457  1.00  0.00     0.074 A 
ATOM     67  C   UNL A   1      45.274  33.668  30.300  1.00  0.00     0.031 C 
ATOM     68  C   UNL A   1      42.981  34.316  30.982  1.00  0.00     0.034 A 
BRANCH  55  69
ATOM     69  C   UNL A   1      37.106  32.416  30.849  1.00  0.00     0.023 A 
ATOM     70  C   UNL A   1      36.522  32.059  32.081  1.00  0.00     0.012 A 
ATOM     71  C   UNL A   1      36.337  33.118  29.899  1.00  0.00     0.148 A 
ATOM     72  C   UNL A   1      35.187  32.361  32.348  1.00  0.00     0.002 A 
ATOM     73  C   UNL A   1      35.023  33.459  30.192  1.00  0.00     0.091 A 
ATOM     74  F   UNL A   1      36.904  33.433  28.725  1.00  0.00    -0.205 F 
ATOM     75  C   UNL A   1      34.442  33.069  31.409  1.00  0.00     0.022 A 
BRANCH  73  76
ATOM     76  S   UNL A   1      34.005  34.441  29.084  1.00  0.00     0.127 S 
ATOM     77  O   UNL A   1      34.940  35.486  28.670  1.00  0.00    -0.237 OA
ATOM     78  O   UNL A   1      33.671  33.473  28.038  1.00  0.00    -0.237 OA
ATOM     79  O   UNL A   1      32.871  34.897  29.874  1.00  0.00    -0.744 OA
ENDBRANCH  73  76
ENDBRANCH  55  69
BRANCH  56  80
ATOM     80  C   UNL A   1      46.526  30.023  28.580  1.00  0.00     0.023 A 
ATOM     81  C   UNL A   1      46.975  30.352  27.285  1.00  0.00     0.012 A 
ATOM     82  C   UNL A   1      47.418  29.398  29.475  1.00  0.00     0.148 A 
ATOM     83  C   UNL A   1      48.272  30.033  26.877  1.00  0.00     0.002 A 
ATOM     84  C   UNL A   1      48.726  29.138  29.082  1.00  0.00     0.091 A 
ATOM     85  F   UNL A   1      46.968  29.074  30.695  1.00  0.00    -0.205 F 
ATOM     86  C   UNL A   1      49.149  29.436  27.778  1.00  0.00     0.022 A 
BRANCH  84  87
ATOM     87  S   UNL A   1      49.965  28.485  30.208  1.00  0.00     0.127 S 
ATOM     88  O   UNL A   1      49.687  29.240  31.428  1.00  0.00    -0.237 OA
ATOM     89  O   UNL A   1      49.599  27.070  30.261  1.00  0.00    -0.237 OA
ATOM     90  O   UNL A   1      51.250  28.755  29.581  1.00  0.00    -0.744 OA
ENDBRANCH  84  87
ENDBRANCH  56  80
BRANCH  68  91
ATOM     91  C   UNL A   1      43.524  35.631  31.483  1.00  0.00     0.023 A 
ATOM     92  C   UNL A   1      44.079  35.723  32.775  1.00  0.00     0.012 A 
ATOM     93  C   UNL A   1      43.567  36.755  30.633  1.00  0.00     0.148 A 
ATOM     94  C   UNL A   1      44.638  36.921  33.223  1.00  0.00     0.002 A 
ATOM     95  C   UNL A   1      44.173  37.928  31.066  1.00  0.00     0.091 A 
ATOM     96  F   UNL A   1      43.023  36.652  29.411  1.00  0.00    -0.205 F 
ATOM     97  C   UNL A   1      44.696  38.018  32.366  1.00  0.00     0.022 A 
BRANCH  95  98
ATOM     98  S   UNL A   1      44.384  39.360  30.001  1.00  0.00     0.127 S 
ATOM     99  O   UNL A   1      44.959  38.755  28.800  1.00  0.00    -0.237 OA
ATOM    100  O   UNL A   1      43.009  39.834  29.846  1.00  0.00    -0.237 OA
ATOM    101  O   UNL A   1      45.263  40.272  30.718  1.00  0.00    -0.744 OA
ENDBRANCH  95  98
ENDBRANCH  68  91
ENDBRANCH  42  43
ENDBRANCH  35  37
ENDBRANCH  34  35
ENDBRANCH  33  34
ENDBRANCH  32  33
ENDBRANCH  31  32
ENDBRANCH  30  31
ENDBRANCH  29  30
ENDBRANCH   1  29
TORSDOF 28
ENDMDL
