MODEL 1
REMARK VINA RESULT:      -8.6      0.000      0.000
REMARK SMILES CC[C@@H]1CC(=O)N(Cc2ccc(/C=C/C(=O)OCCOCCOCCOCCOC(=O)c3ccc(-c4c5nc(c(-c6cccc(S(=O)(=O)[O-])c6F)c6ccc([nH]6)c(-c6cccc(S(=O)(=O)[O-])c6F)c6nc(c(-c7cccc(S(=O)(=O)[O-])c7F)c7ccc4[nH]7)C=C6)C=C5)cc3)cc2F)C1
REMARK SMILES IDX 22 1 21 2 20 3 19 4 18 5 17 6 15 7 16 8 14 9 13 10 12 11
REMARK SMILES IDX 9 12 10 13 96 14 11 15 95 16 97 17 8 18 7 19 3 20 4 21 98 22
REMARK SMILES IDX 5 23 6 24 2 25 1 26 23 27 24 28 25 29 26 30 27 31 28 32
REMARK SMILES IDX 29 33 30 34 31 35 32 36 33 37 94 38 34 39 93 40 35 41 36 42
REMARK SMILES IDX 37 43 87 44 38 45 92 46 86 47 88 48 39 49 91 50 85 51 84 52
REMARK SMILES IDX 40 54 72 55 52 56 71 57 53 58 56 59 70 60 89 61 54 62 55 63
REMARK SMILES IDX 69 65 90 66 57 67 41 68 42 69 50 70 43 71 45 72 51 73 44 74
REMARK SMILES IDX 46 75 47 76 48 77 49 78 73 79 74 80 82 81 75 82 77 83 83 84
REMARK SMILES IDX 76 85 78 86 79 87 80 88 81 89 58 90 59 91 67 92 60 93 62 94
REMARK SMILES IDX 68 95 61 96 63 97 64 98 65 99 66 100
REMARK H PARENT 88 53 56 64
REMARK Flexibility Score: inf
ROOT
ATOM      1  C   UNL A   1      31.053  28.982  25.187  1.00  0.00     0.188 C 
ENDROOT
BRANCH   1   2
ATOM      2  C   UNL A   1      31.073  28.802  23.658  1.00  0.00     0.188 C 
BRANCH   2   3
ATOM      3  O   UNL A   1      31.578  27.545  23.242  1.00  0.00    -0.376 OA
BRANCH   3   4
ATOM      4  C   UNL A   1      32.702  27.485  22.381  1.00  0.00     0.202 C 
BRANCH   4   5
ATOM      5  C   UNL A   1      33.509  26.187  22.209  1.00  0.00     0.261 C 
BRANCH   5   6
ATOM      6  O   UNL A   1      33.345  25.199  23.228  1.00  0.00    -0.460 OA
BRANCH   6   7
ATOM      7  C   UNL A   1      33.762  23.949  22.955  1.00  0.00     0.330 C 
ATOM      8  O   UNL A   1      33.389  23.246  22.028  1.00  0.00    -0.247 OA
BRANCH   7   9
ATOM      9  C   UNL A   1      34.882  23.564  23.843  1.00  0.00     0.094 C 
ATOM     10  C   UNL A   1      35.774  22.593  23.572  1.00  0.00     0.016 C 
BRANCH  10  11
ATOM     11  C   UNL A   1      36.874  22.212  24.472  1.00  0.00    -0.022 A 
ATOM     12  C   UNL A   1      39.126  21.437  25.999  1.00  0.00     0.007 A 
ATOM     13  C   UNL A   1      38.677  22.761  26.020  1.00  0.00     0.009 A 
ATOM     14  C   UNL A   1      38.364  20.498  25.297  1.00  0.00     0.128 A 
ATOM     15  C   UNL A   1      37.548  23.138  25.282  1.00  0.00     0.008 A 
ATOM     16  C   UNL A   1      37.263  20.871  24.531  1.00  0.00     0.047 A 
ATOM     17  F   UNL A   1      38.717  19.205  25.317  1.00  0.00    -0.207 F 
BRANCH  12  18
ATOM     18  C   UNL A   1      40.417  21.041  26.666  1.00  0.00     0.158 C 
BRANCH  18  19
ATOM     19  N   UNL A   1      41.273  22.181  26.970  1.00  0.00    -0.338 N 
ATOM     20  C   UNL A   1      41.963  24.167  28.006  1.00  0.00     0.017 C 
ATOM     21  C   UNL A   1      42.948  23.812  26.882  1.00  0.00     0.105 C 
ATOM     22  C   UNL A   1      41.259  22.838  28.254  1.00  0.00     0.124 C 
ATOM     23  C   UNL A   1      42.253  22.691  26.137  1.00  0.00     0.223 C 
ATOM     24  O   UNL A   1      42.548  22.299  25.021  1.00  0.00    -0.275 OA
BRANCH  20  25
ATOM     25  C   UNL A   1      40.967  25.266  27.587  1.00  0.00     0.002 C 
ATOM     26  C   UNL A   1      41.409  25.954  26.302  1.00  0.00     0.004 C 
ENDBRANCH  20  25
ENDBRANCH  18  19
ENDBRANCH  12  18
ENDBRANCH  10  11
ENDBRANCH   7   9
ENDBRANCH   6   7
ENDBRANCH   5   6
ENDBRANCH   4   5
ENDBRANCH   3   4
ENDBRANCH   2   3
ENDBRANCH   1   2
BRANCH   1  27
ATOM     27  O   UNL A   1      32.160  28.452  25.894  1.00  0.00    -0.377 OA
BRANCH  27  28
ATOM     28  C   UNL A   1      33.310  29.266  26.128  1.00  0.00     0.188 C 
BRANCH  28  29
ATOM     29  C   UNL A   1      34.468  28.852  27.070  1.00  0.00     0.188 C 
BRANCH  29  30
ATOM     30  O   UNL A   1      35.030  29.907  27.836  1.00  0.00    -0.376 OA
BRANCH  30  31
ATOM     31  C   UNL A   1      36.436  29.927  27.998  1.00  0.00     0.202 C 
BRANCH  31  32
ATOM     32  C   UNL A   1      36.955  30.476  29.332  1.00  0.00     0.261 C 
BRANCH  32  33
ATOM     33  O   UNL A   1      36.785  29.620  30.468  1.00  0.00    -0.460 OA
BRANCH  33  34
ATOM     34  C   UNL A   1      37.144  30.107  31.674  1.00  0.00     0.338 C 
ATOM     35  O   UNL A   1      36.469  30.790  32.426  1.00  0.00    -0.246 OA
BRANCH  34  36
ATOM     36  C   UNL A   1      38.455  29.518  32.009  1.00  0.00     0.060 A 
ATOM     37  C   UNL A   1      39.569  30.353  32.173  1.00  0.00     0.016 A 
ATOM     38  C   UNL A   1      38.567  28.138  32.180  1.00  0.00     0.016 A 
ATOM     39  C   UNL A   1      40.815  29.798  32.473  1.00  0.00     0.010 A 
ATOM     40  C   UNL A   1      39.815  27.584  32.462  1.00  0.00     0.010 A 
ATOM     41  C   UNL A   1      40.949  28.407  32.571  1.00  0.00    -0.014 A 
BRANCH  41  42
ATOM     42  C   UNL A   1      42.287  27.772  32.569  1.00  0.00     0.031 A 
ATOM     43  C   UNL A   1      42.933  27.498  33.899  1.00  0.00     0.074 A 
ATOM     44  C   UNL A   1      42.941  27.504  31.426  1.00  0.00     0.049 A 
ATOM     45  N   UNL A   1      44.148  27.102  34.164  1.00  0.00    -0.248 NA
ATOM     46  C   UNL A   1      42.095  27.715  35.091  1.00  0.00     0.031 C 
ATOM     47  C   UNL A   1      42.412  27.708  30.080  1.00  0.00     0.029 A 
ATOM     48  N   UNL A   1      44.216  27.036  31.223  1.00  0.00    -0.354 N 
ATOM     49  C   UNL A   1      44.235  27.064  35.551  1.00  0.00     0.074 A 
ATOM     50  C   UNL A   1      42.952  27.478  36.072  1.00  0.00     0.031 C 
ATOM     51  C   UNL A   1      43.369  27.402  29.187  1.00  0.00     0.029 A 
ATOM     52  C   UNL A   1      44.588  27.020  29.900  1.00  0.00     0.049 A 
ATOM     53  H   UNL A   1      44.806  26.742  31.954  1.00  0.00     0.167 HD
ATOM     54  C   UNL A   1      45.288  26.706  36.320  1.00  0.00     0.034 A 
ATOM     55  C   UNL A   1      45.786  26.763  29.334  1.00  0.00     0.034 A 
ATOM     56  C   UNL A   1      46.555  26.277  35.797  1.00  0.00     0.049 A 
ATOM     57  C   UNL A   1      46.955  26.399  30.214  1.00  0.00     0.074 A 
ATOM     58  C   UNL A   1      47.670  25.849  36.496  1.00  0.00     0.029 A 
ATOM     59  N   UNL A   1      46.882  26.230  34.450  1.00  0.00    -0.354 N 
ATOM     60  N   UNL A   1      47.001  26.274  31.519  1.00  0.00    -0.248 NA
ATOM     61  C   UNL A   1      48.234  26.117  29.543  1.00  0.00     0.031 C 
ATOM     62  C   UNL A   1      48.683  25.580  35.572  1.00  0.00     0.029 A 
ATOM     63  C   UNL A   1      48.186  25.798  34.297  1.00  0.00     0.049 A 
ATOM     64  H   UNL A   1      46.275  26.471  33.714  1.00  0.00     0.167 HD
ATOM     65  C   UNL A   1      48.298  25.871  31.823  1.00  0.00     0.074 A 
ATOM     66  C   UNL A   1      49.001  25.751  30.561  1.00  0.00     0.031 C 
ATOM     67  C   UNL A   1      48.862  25.638  33.034  1.00  0.00     0.034 A 
BRANCH  54  68
ATOM     68  C   UNL A   1      45.113  26.744  37.814  1.00  0.00     0.023 A 
ATOM     69  C   UNL A   1      44.766  25.568  38.508  1.00  0.00     0.012 A 
ATOM     70  C   UNL A   1      45.373  27.926  38.537  1.00  0.00     0.148 A 
ATOM     71  C   UNL A   1      44.660  25.571  39.898  1.00  0.00     0.002 A 
ATOM     72  C   UNL A   1      45.314  27.908  39.925  1.00  0.00     0.091 A 
ATOM     73  F   UNL A   1      45.675  29.039  37.854  1.00  0.00    -0.205 F 
ATOM     74  C   UNL A   1      44.947  26.735  40.607  1.00  0.00     0.022 A 
BRANCH  72  75
ATOM     75  S   UNL A   1      45.751  29.328  40.933  1.00  0.00     0.127 S 
ATOM     76  O   UNL A   1      47.122  29.589  40.496  1.00  0.00    -0.237 OA
ATOM     77  O   UNL A   1      44.771  30.323  40.499  1.00  0.00    -0.237 OA
ATOM     78  O   UNL A   1      45.614  28.898  42.318  1.00  0.00    -0.744 OA
ENDBRANCH  72  75
ENDBRANCH  54  68
BRANCH  55  79
ATOM     79  C   UNL A   1      45.931  26.817  27.850  1.00  0.00     0.023 A 
ATOM     80  C   UNL A   1      46.026  28.067  27.209  1.00  0.00     0.012 A 
ATOM     81  C   UNL A   1      46.015  25.642  27.078  1.00  0.00     0.148 A 
ATOM     82  C   UNL A   1      46.182  28.147  25.826  1.00  0.00     0.002 A 
ATOM     83  C   UNL A   1      46.230  25.727  25.707  1.00  0.00     0.091 A 
ATOM     84  F   UNL A   1      45.905  24.461  27.704  1.00  0.00    -0.205 F 
ATOM     85  C   UNL A   1      46.297  26.980  25.076  1.00  0.00     0.022 A 
BRANCH  83  86
ATOM     86  S   UNL A   1      46.525  24.284  24.679  1.00  0.00     0.127 S 
ATOM     87  O   UNL A   1      47.464  24.806  23.689  1.00  0.00    -0.237 OA
ATOM     88  O   UNL A   1      47.104  23.346  25.643  1.00  0.00    -0.237 OA
ATOM     89  O   UNL A   1      45.221  23.891  24.162  1.00  0.00    -0.744 OA
ENDBRANCH  83  86
ENDBRANCH  55  79
BRANCH  67  90
ATOM     90  C   UNL A   1      50.306  25.204  33.076  1.00  0.00     0.023 A 
ATOM     91  C   UNL A   1      51.327  26.171  33.145  1.00  0.00     0.012 A 
ATOM     92  C   UNL A   1      50.643  23.837  33.162  1.00  0.00     0.148 A 
ATOM     93  C   UNL A   1      52.662  25.787  33.269  1.00  0.00     0.002 A 
ATOM     94  C   UNL A   1      51.970  23.463  33.342  1.00  0.00     0.091 A 
ATOM     95  F   UNL A   1      49.659  22.930  33.084  1.00  0.00    -0.205 F 
ATOM     96  C   UNL A   1      52.982  24.436  33.381  1.00  0.00     0.022 A 
BRANCH  94  97
ATOM     97  S   UNL A   1      52.467  21.757  33.605  1.00  0.00     0.127 S 
ATOM     98  O   UNL A   1      52.089  21.137  32.336  1.00  0.00    -0.237 OA
ATOM     99  O   UNL A   1      53.910  21.884  33.816  1.00  0.00    -0.237 OA
ATOM    100  O   UNL A   1      51.724  21.295  34.769  1.00  0.00    -0.744 OA
ENDBRANCH  94  97
ENDBRANCH  67  90
ENDBRANCH  41  42
ENDBRANCH  34  36
ENDBRANCH  33  34
ENDBRANCH  32  33
ENDBRANCH  31  32
ENDBRANCH  30  31
ENDBRANCH  29  30
ENDBRANCH  28  29
ENDBRANCH  27  28
ENDBRANCH   1  27
TORSDOF 27
ENDMDL
MODEL 2
REMARK VINA RESULT:      -8.1      4.938     10.680
REMARK SMILES CC[C@@H]1CC(=O)N(Cc2ccc(/C=C/C(=O)OCCOCCOCCOCCOC(=O)c3ccc(-c4c5nc(c(-c6cccc(S(=O)(=O)[O-])c6F)c6ccc([nH]6)c(-c6cccc(S(=O)(=O)[O-])c6F)c6nc(c(-c7cccc(S(=O)(=O)[O-])c7F)c7ccc4[nH]7)C=C6)C=C5)cc3)cc2F)C1
REMARK SMILES IDX 22 1 21 2 20 3 19 4 18 5 17 6 15 7 16 8 14 9 13 10 12 11
REMARK SMILES IDX 9 12 10 13 96 14 11 15 95 16 97 17 8 18 7 19 3 20 4 21 98 22
REMARK SMILES IDX 5 23 6 24 2 25 1 26 23 27 24 28 25 29 26 30 27 31 28 32
REMARK SMILES IDX 29 33 30 34 31 35 32 36 33 37 94 38 34 39 93 40 35 41 36 42
REMARK SMILES IDX 37 43 87 44 38 45 92 46 86 47 88 48 39 49 91 50 85 51 84 52
REMARK SMILES IDX 40 54 72 55 52 56 71 57 53 58 56 59 70 60 89 61 54 62 55 63
REMARK SMILES IDX 69 65 90 66 57 67 41 68 42 69 50 70 43 71 45 72 51 73 44 74
REMARK SMILES IDX 46 75 47 76 48 77 49 78 73 79 74 80 82 81 75 82 77 83 83 84
REMARK SMILES IDX 76 85 78 86 79 87 80 88 81 89 58 90 59 91 67 92 60 93 62 94
REMARK SMILES IDX 68 95 61 96 63 97 64 98 65 99 66 100
REMARK H PARENT 88 53 56 64
REMARK Flexibility Score: inf
ROOT
ATOM      1  C   UNL A   1      39.131  22.403  26.406  1.00  0.00     0.188 C 
ENDROOT
BRANCH   1   2
ATOM      2  C   UNL A   1      39.363  23.652  27.276  1.00  0.00     0.188 C 
BRANCH   2   3
ATOM      3  O   UNL A   1      39.097  24.869  26.601  1.00  0.00    -0.376 OA
BRANCH   3   4
ATOM      4  C   UNL A   1      39.505  26.099  27.174  1.00  0.00     0.202 C 
BRANCH   4   5
ATOM      5  C   UNL A   1      40.921  26.654  26.952  1.00  0.00     0.261 C 
BRANCH   5   6
ATOM      6  O   UNL A   1      41.287  27.792  27.736  1.00  0.00    -0.460 OA
BRANCH   6   7
ATOM      7  C   UNL A   1      41.102  27.716  29.067  1.00  0.00     0.330 C 
ATOM      8  O   UNL A   1      41.693  26.980  29.840  1.00  0.00    -0.247 OA
BRANCH   7   9
ATOM      9  C   UNL A   1      40.179  28.779  29.529  1.00  0.00     0.094 C 
ATOM     10  C   UNL A   1      40.055  29.987  28.951  1.00  0.00     0.016 C 
BRANCH  10  11
ATOM     11  C   UNL A   1      39.144  31.039  29.431  1.00  0.00    -0.022 A 
ATOM     12  C   UNL A   1      37.527  33.222  30.219  1.00  0.00     0.007 A 
ATOM     13  C   UNL A   1      37.007  32.215  29.400  1.00  0.00     0.009 A 
ATOM     14  C   UNL A   1      38.821  33.056  30.722  1.00  0.00     0.128 A 
ATOM     15  C   UNL A   1      37.803  31.123  29.030  1.00  0.00     0.008 A 
ATOM     16  C   UNL A   1      39.630  31.993  30.329  1.00  0.00     0.047 A 
ATOM     17  F   UNL A   1      39.326  33.960  31.573  1.00  0.00    -0.207 F 
BRANCH  12  18
ATOM     18  C   UNL A   1      36.741  34.474  30.510  1.00  0.00     0.158 C 
BRANCH  18  19
ATOM     19  N   UNL A   1      35.876  34.344  31.676  1.00  0.00    -0.338 N 
ATOM     20  C   UNL A   1      33.883  34.247  32.906  1.00  0.00     0.017 C 
ATOM     21  C   UNL A   1      35.077  34.241  33.872  1.00  0.00     0.105 C 
ATOM     22  C   UNL A   1      34.529  33.836  31.588  1.00  0.00     0.124 C 
ATOM     23  C   UNL A   1      36.258  34.576  32.985  1.00  0.00     0.223 C 
ATOM     24  O   UNL A   1      37.353  34.943  33.379  1.00  0.00    -0.275 OA
BRANCH  20  25
ATOM     25  C   UNL A   1      33.220  35.635  32.803  1.00  0.00     0.002 C 
ATOM     26  C   UNL A   1      32.325  35.733  31.576  1.00  0.00     0.004 C 
ENDBRANCH  20  25
ENDBRANCH  18  19
ENDBRANCH  12  18
ENDBRANCH  10  11
ENDBRANCH   7   9
ENDBRANCH   6   7
ENDBRANCH   5   6
ENDBRANCH   4   5
ENDBRANCH   3   4
ENDBRANCH   2   3
ENDBRANCH   1   2
BRANCH   1  27
ATOM     27  O   UNL A   1      40.259  21.576  26.183  1.00  0.00    -0.377 OA
BRANCH  27  28
ATOM     28  C   UNL A   1      41.557  22.161  26.068  1.00  0.00     0.188 C 
BRANCH  28  29
ATOM     29  C   UNL A   1      42.829  21.541  26.701  1.00  0.00     0.188 C 
BRANCH  29  30
ATOM     30  O   UNL A   1      43.871  21.238  25.788  1.00  0.00    -0.376 OA
BRANCH  30  31
ATOM     31  C   UNL A   1      44.269  22.250  24.882  1.00  0.00     0.202 C 
BRANCH  31  32
ATOM     32  C   UNL A   1      45.778  22.396  24.651  1.00  0.00     0.261 C 
BRANCH  32  33
ATOM     33  O   UNL A   1      46.454  23.324  25.508  1.00  0.00    -0.460 OA
BRANCH  33  34
ATOM     34  C   UNL A   1      46.754  24.537  24.999  1.00  0.00     0.338 C 
ATOM     35  O   UNL A   1      47.157  24.788  23.875  1.00  0.00    -0.246 OA
BRANCH  34  36
ATOM     36  C   UNL A   1      46.341  25.542  25.996  1.00  0.00     0.060 A 
ATOM     37  C   UNL A   1      47.313  26.311  26.652  1.00  0.00     0.016 A 
ATOM     38  C   UNL A   1      44.984  25.734  26.261  1.00  0.00     0.016 A 
ATOM     39  C   UNL A   1      46.928  27.251  27.609  1.00  0.00     0.010 A 
ATOM     40  C   UNL A   1      44.601  26.660  27.229  1.00  0.00     0.010 A 
ATOM     41  C   UNL A   1      45.572  27.394  27.933  1.00  0.00    -0.014 A 
BRANCH  41  42
ATOM     42  C   UNL A   1      45.157  28.135  29.146  1.00  0.00     0.031 A 
ATOM     43  C   UNL A   1      44.999  27.355  30.422  1.00  0.00     0.074 A 
ATOM     44  C   UNL A   1      44.864  29.447  29.109  1.00  0.00     0.049 A 
ATOM     45  N   UNL A   1      44.500  27.732  31.568  1.00  0.00    -0.248 NA
ATOM     46  C   UNL A   1      45.455  25.954  30.393  1.00  0.00     0.031 C 
ATOM     47  C   UNL A   1      44.995  30.310  27.939  1.00  0.00     0.029 A 
ATOM     48  N   UNL A   1      44.356  30.269  30.084  1.00  0.00    -0.354 N 
ATOM     49  C   UNL A   1      44.541  26.607  32.382  1.00  0.00     0.074 A 
ATOM     50  C   UNL A   1      45.111  25.533  31.601  1.00  0.00     0.031 C 
ATOM     51  C   UNL A   1      44.543  31.537  28.252  1.00  0.00     0.029 A 
ATOM     52  C   UNL A   1      44.053  31.532  29.631  1.00  0.00     0.049 A 
ATOM     53  H   UNL A   1      44.220  29.983  31.016  1.00  0.00     0.167 HD
ATOM     54  C   UNL A   1      44.148  26.483  33.670  1.00  0.00     0.034 A 
ATOM     55  C   UNL A   1      43.421  32.551  30.248  1.00  0.00     0.034 A 
ATOM     56  C   UNL A   1      43.600  27.559  34.449  1.00  0.00     0.049 A 
ATOM     57  C   UNL A   1      42.960  32.379  31.674  1.00  0.00     0.074 A 
ATOM     58  C   UNL A   1      43.214  27.544  35.777  1.00  0.00     0.029 A 
ATOM     59  N   UNL A   1      43.349  28.836  33.971  1.00  0.00    -0.354 N 
ATOM     60  N   UNL A   1      43.089  31.341  32.466  1.00  0.00    -0.248 NA
ATOM     61  C   UNL A   1      42.287  33.527  32.302  1.00  0.00     0.031 C 
ATOM     62  C   UNL A   1      42.694  28.803  36.090  1.00  0.00     0.029 A 
ATOM     63  C   UNL A   1      42.797  29.614  34.972  1.00  0.00     0.049 A 
ATOM     64  H   UNL A   1      43.536  29.142  33.054  1.00  0.00     0.167 HD
ATOM     65  C   UNL A   1      42.543  31.718  33.689  1.00  0.00     0.074 A 
ATOM     66  C   UNL A   1      42.101  33.091  33.540  1.00  0.00     0.031 C 
ATOM     67  C   UNL A   1      42.403  30.993  34.826  1.00  0.00     0.034 A 
BRANCH  54  68
ATOM     68  C   UNL A   1      44.312  25.141  34.330  1.00  0.00     0.023 A 
ATOM     69  C   UNL A   1      43.229  24.239  34.361  1.00  0.00     0.012 A 
ATOM     70  C   UNL A   1      45.561  24.743  34.848  1.00  0.00     0.148 A 
ATOM     71  C   UNL A   1      43.381  22.969  34.914  1.00  0.00     0.002 A 
ATOM     72  C   UNL A   1      45.717  23.458  35.351  1.00  0.00     0.091 A 
ATOM     73  F   UNL A   1      46.569  25.626  34.832  1.00  0.00    -0.205 F 
ATOM     74  C   UNL A   1      44.627  22.574  35.396  1.00  0.00     0.022 A 
BRANCH  72  75
ATOM     75  S   UNL A   1      47.299  22.822  35.913  1.00  0.00     0.127 S 
ATOM     76  O   UNL A   1      48.131  23.007  34.725  1.00  0.00    -0.237 OA
ATOM     77  O   UNL A   1      47.612  23.721  37.024  1.00  0.00    -0.237 OA
ATOM     78  O   UNL A   1      47.066  21.436  36.295  1.00  0.00    -0.744 OA
ENDBRANCH  72  75
ENDBRANCH  54  68
BRANCH  55  79
ATOM     79  C   UNL A   1      43.209  33.838  29.524  1.00  0.00     0.023 A 
ATOM     80  C   UNL A   1      41.903  34.224  29.167  1.00  0.00     0.012 A 
ATOM     81  C   UNL A   1      44.285  34.698  29.225  1.00  0.00     0.148 A 
ATOM     82  C   UNL A   1      41.673  35.431  28.508  1.00  0.00     0.002 A 
ATOM     83  C   UNL A   1      44.043  35.926  28.621  1.00  0.00     0.091 A 
ATOM     84  F   UNL A   1      45.523  34.305  29.558  1.00  0.00    -0.205 F 
ATOM     85  C   UNL A   1      42.739  36.288  28.246  1.00  0.00     0.022 A 
BRANCH  83  86
ATOM     86  S   UNL A   1      45.330  37.153  28.366  1.00  0.00     0.127 S 
ATOM     87  O   UNL A   1      44.555  38.386  28.262  1.00  0.00    -0.237 OA
ATOM     88  O   UNL A   1      46.115  37.020  29.595  1.00  0.00    -0.237 OA
ATOM     89  O   UNL A   1      46.032  36.747  27.155  1.00  0.00    -0.744 OA
ENDBRANCH  83  86
ENDBRANCH  55  79
BRANCH  67  90
ATOM     90  C   UNL A   1      41.770  31.657  36.023  1.00  0.00     0.023 A 
ATOM     91  C   UNL A   1      42.572  32.372  36.933  1.00  0.00     0.012 A 
ATOM     92  C   UNL A   1      40.368  31.668  36.182  1.00  0.00     0.148 A 
ATOM     93  C   UNL A   1      41.995  33.062  37.999  1.00  0.00     0.002 A 
ATOM     94  C   UNL A   1      39.796  32.404  37.213  1.00  0.00     0.091 A 
ATOM     95  F   UNL A   1      39.622  30.973  35.312  1.00  0.00    -0.205 F 
ATOM     96  C   UNL A   1      40.609  33.090  38.131  1.00  0.00     0.022 A 
BRANCH  94  97
ATOM     97  S   UNL A   1      38.019  32.588  37.400  1.00  0.00     0.127 S 
ATOM     98  O   UNL A   1      37.648  33.205  36.127  1.00  0.00    -0.237 OA
ATOM     99  O   UNL A   1      37.579  31.201  37.557  1.00  0.00    -0.237 OA
ATOM    100  O   UNL A   1      37.821  33.423  38.577  1.00  0.00    -0.744 OA
ENDBRANCH  94  97
ENDBRANCH  67  90
ENDBRANCH  41  42
ENDBRANCH  34  36
ENDBRANCH  33  34
ENDBRANCH  32  33
ENDBRANCH  31  32
ENDBRANCH  30  31
ENDBRANCH  29  30
ENDBRANCH  28  29
ENDBRANCH  27  28
ENDBRANCH   1  27
TORSDOF 27
ENDMDL
MODEL 3
REMARK VINA RESULT:      -8.0      4.555      6.608
REMARK SMILES CC[C@@H]1CC(=O)N(Cc2ccc(/C=C/C(=O)OCCOCCOCCOCCOC(=O)c3ccc(-c4c5nc(c(-c6cccc(S(=O)(=O)[O-])c6F)c6ccc([nH]6)c(-c6cccc(S(=O)(=O)[O-])c6F)c6nc(c(-c7cccc(S(=O)(=O)[O-])c7F)c7ccc4[nH]7)C=C6)C=C5)cc3)cc2F)C1
REMARK SMILES IDX 22 1 21 2 20 3 19 4 18 5 17 6 15 7 16 8 14 9 13 10 12 11
REMARK SMILES IDX 9 12 10 13 96 14 11 15 95 16 97 17 8 18 7 19 3 20 4 21 98 22
REMARK SMILES IDX 5 23 6 24 2 25 1 26 23 27 24 28 25 29 26 30 27 31 28 32
REMARK SMILES IDX 29 33 30 34 31 35 32 36 33 37 94 38 34 39 93 40 35 41 36 42
REMARK SMILES IDX 37 43 87 44 38 45 92 46 86 47 88 48 39 49 91 50 85 51 84 52
REMARK SMILES IDX 40 54 72 55 52 56 71 57 53 58 56 59 70 60 89 61 54 62 55 63
REMARK SMILES IDX 69 65 90 66 57 67 41 68 42 69 50 70 43 71 45 72 51 73 44 74
REMARK SMILES IDX 46 75 47 76 48 77 49 78 73 79 74 80 82 81 75 82 77 83 83 84
REMARK SMILES IDX 76 85 78 86 79 87 80 88 81 89 58 90 59 91 67 92 60 93 62 94
REMARK SMILES IDX 68 95 61 96 63 97 64 98 65 99 66 100
REMARK H PARENT 88 53 56 64
REMARK Flexibility Score: inf
ROOT
ATOM      1  C   UNL A   1      33.058  27.449  24.771  1.00  0.00     0.188 C 
ENDROOT
BRANCH   1   2
ATOM      2  C   UNL A   1      33.525  26.475  23.674  1.00  0.00     0.188 C 
BRANCH   2   3
ATOM      3  O   UNL A   1      33.360  25.110  24.019  1.00  0.00    -0.376 OA
BRANCH   3   4
ATOM      4  C   UNL A   1      33.580  24.103  23.047  1.00  0.00     0.202 C 
BRANCH   4   5
ATOM      5  C   UNL A   1      33.318  22.620  23.358  1.00  0.00     0.261 C 
BRANCH   5   6
ATOM      6  O   UNL A   1      33.442  22.228  24.727  1.00  0.00    -0.460 OA
BRANCH   6   7
ATOM      7  C   UNL A   1      34.390  21.323  25.032  1.00  0.00     0.330 C 
ATOM      8  O   UNL A   1      34.336  20.120  24.828  1.00  0.00    -0.247 OA
BRANCH   7   9
ATOM      9  C   UNL A   1      35.620  21.994  25.513  1.00  0.00     0.094 C 
ATOM     10  C   UNL A   1      36.870  21.561  25.272  1.00  0.00     0.016 C 
BRANCH  10  11
ATOM     11  C   UNL A   1      38.083  22.230  25.770  1.00  0.00    -0.022 A 
ATOM     12  C   UNL A   1      40.307  23.517  26.954  1.00  0.00     0.007 A 
ATOM     13  C   UNL A   1      40.417  22.207  26.478  1.00  0.00     0.009 A 
ATOM     14  C   UNL A   1      39.108  24.199  26.724  1.00  0.00     0.128 A 
ATOM     15  C   UNL A   1      39.322  21.580  25.871  1.00  0.00     0.008 A 
ATOM     16  C   UNL A   1      38.003  23.571  26.156  1.00  0.00     0.047 A 
ATOM     17  F   UNL A   1      38.990  25.482  27.095  1.00  0.00    -0.207 F 
BRANCH  12  18
ATOM     18  C   UNL A   1      41.422  24.159  27.737  1.00  0.00     0.158 C 
BRANCH  18  19
ATOM     19  N   UNL A   1      42.673  24.229  26.991  1.00  0.00    -0.338 N 
ATOM     20  C   UNL A   1      44.982  24.121  26.602  1.00  0.00     0.017 C 
ATOM     21  C   UNL A   1      44.280  24.659  25.347  1.00  0.00     0.105 C 
ATOM     22  C   UNL A   1      43.836  23.458  27.357  1.00  0.00     0.124 C 
ATOM     23  C   UNL A   1      42.866  24.931  25.815  1.00  0.00     0.223 C 
ATOM     24  O   UNL A   1      42.048  25.616  25.225  1.00  0.00    -0.275 OA
BRANCH  20  25
ATOM     25  C   UNL A   1      45.634  25.243  27.435  1.00  0.00     0.002 C 
ATOM     26  C   UNL A   1      46.671  26.006  26.622  1.00  0.00     0.004 C 
ENDBRANCH  20  25
ENDBRANCH  18  19
ENDBRANCH  12  18
ENDBRANCH  10  11
ENDBRANCH   7   9
ENDBRANCH   6   7
ENDBRANCH   5   6
ENDBRANCH   4   5
ENDBRANCH   3   4
ENDBRANCH   2   3
ENDBRANCH   1   2
BRANCH   1  27
ATOM     27  O   UNL A   1      33.951  27.651  25.851  1.00  0.00    -0.377 OA
BRANCH  27  28
ATOM     28  C   UNL A   1      34.486  28.953  26.096  1.00  0.00     0.188 C 
BRANCH  28  29
ATOM     29  C   UNL A   1      34.425  29.651  27.478  1.00  0.00     0.188 C 
BRANCH  29  30
ATOM     30  O   UNL A   1      34.104  31.033  27.442  1.00  0.00    -0.376 OA
BRANCH  30  31
ATOM     31  C   UNL A   1      35.110  31.954  27.819  1.00  0.00     0.202 C 
BRANCH  31  32
ATOM     32  C   UNL A   1      34.631  33.357  28.211  1.00  0.00     0.261 C 
BRANCH  32  33
ATOM     33  O   UNL A   1      33.609  33.410  29.214  1.00  0.00    -0.460 OA
BRANCH  33  34
ATOM     34  C   UNL A   1      33.738  34.337  30.185  1.00  0.00     0.338 C 
ATOM     35  O   UNL A   1      33.024  35.307  30.381  1.00  0.00    -0.246 OA
BRANCH  34  36
ATOM     36  C   UNL A   1      34.808  33.874  31.089  1.00  0.00     0.060 A 
ATOM     37  C   UNL A   1      35.855  34.743  31.428  1.00  0.00     0.016 A 
ATOM     38  C   UNL A   1      34.755  32.583  31.616  1.00  0.00     0.016 A 
ATOM     39  C   UNL A   1      36.878  34.304  32.270  1.00  0.00     0.010 A 
ATOM     40  C   UNL A   1      35.787  32.139  32.441  1.00  0.00     0.010 A 
ATOM     41  C   UNL A   1      36.870  32.984  32.740  1.00  0.00    -0.014 A 
BRANCH  41  42
ATOM     42  C   UNL A   1      38.078  32.392  33.360  1.00  0.00     0.031 A 
ATOM     43  C   UNL A   1      38.394  32.774  34.779  1.00  0.00     0.074 A 
ATOM     44  C   UNL A   1      38.908  31.592  32.669  1.00  0.00     0.049 A 
ATOM     45  N   UNL A   1      39.462  32.524  35.487  1.00  0.00    -0.248 NA
ATOM     46  C   UNL A   1      37.368  33.558  35.490  1.00  0.00     0.031 C 
ATOM     47  C   UNL A   1      38.699  31.139  31.297  1.00  0.00     0.029 A 
ATOM     48  N   UNL A   1      40.120  31.053  33.025  1.00  0.00    -0.354 N 
ATOM     49  C   UNL A   1      39.257  33.154  36.709  1.00  0.00     0.074 A 
ATOM     50  C   UNL A   1      37.966  33.800  36.647  1.00  0.00     0.031 C 
ATOM     51  C   UNL A   1      39.766  30.417  30.912  1.00  0.00     0.029 A 
ATOM     52  C   UNL A   1      40.749  30.394  31.995  1.00  0.00     0.049 A 
ATOM     53  H   UNL A   1      40.501  31.131  33.929  1.00  0.00     0.167 HD
ATOM     54  C   UNL A   1      40.070  33.183  37.789  1.00  0.00     0.034 A 
ATOM     55  C   UNL A   1      41.989  29.867  31.926  1.00  0.00     0.034 A 
ATOM     56  C   UNL A   1      41.345  32.524  37.853  1.00  0.00     0.049 A 
ATOM     57  C   UNL A   1      42.891  29.941  33.133  1.00  0.00     0.074 A 
ATOM     58  C   UNL A   1      42.222  32.456  38.920  1.00  0.00     0.029 A 
ATOM     59  N   UNL A   1      41.930  31.828  36.806  1.00  0.00    -0.354 N 
ATOM     60  N   UNL A   1      42.651  30.456  34.315  1.00  0.00    -0.248 NA
ATOM     61  C   UNL A   1      44.227  29.340  33.005  1.00  0.00     0.031 C 
ATOM     62  C   UNL A   1      43.355  31.751  38.506  1.00  0.00     0.029 A 
ATOM     63  C   UNL A   1      43.165  31.342  37.195  1.00  0.00     0.049 A 
ATOM     64  H   UNL A   1      41.527  31.700  35.918  1.00  0.00     0.167 HD
ATOM     65  C   UNL A   1      43.790  30.217  35.078  1.00  0.00     0.074 A 
ATOM     66  C   UNL A   1      44.712  29.488  34.231  1.00  0.00     0.031 C 
ATOM     67  C   UNL A   1      44.056  30.579  36.358  1.00  0.00     0.034 A 
BRANCH  54  68
ATOM     68  C   UNL A   1      39.600  33.938  39.004  1.00  0.00     0.023 A 
ATOM     69  C   UNL A   1      39.112  33.232  40.121  1.00  0.00     0.012 A 
ATOM     70  C   UNL A   1      39.719  35.340  39.067  1.00  0.00     0.148 A 
ATOM     71  C   UNL A   1      38.730  33.911  41.277  1.00  0.00     0.002 A 
ATOM     72  C   UNL A   1      39.384  36.005  40.240  1.00  0.00     0.091 A 
ATOM     73  F   UNL A   1      40.162  35.993  37.983  1.00  0.00    -0.205 F 
ATOM     74  C   UNL A   1      38.879  35.294  41.341  1.00  0.00     0.022 A 
BRANCH  72  75
ATOM     75  S   UNL A   1      39.623  37.772  40.456  1.00  0.00     0.127 S 
ATOM     76  O   UNL A   1      39.440  37.919  41.900  1.00  0.00    -0.237 OA
ATOM     77  O   UNL A   1      40.998  37.953  39.993  1.00  0.00    -0.237 OA
ATOM     78  O   UNL A   1      38.610  38.421  39.635  1.00  0.00    -0.744 OA
ENDBRANCH  72  75
ENDBRANCH  54  68
BRANCH  55  79
ATOM     79  C   UNL A   1      42.440  29.198  30.671  1.00  0.00     0.023 A 
ATOM     80  C   UNL A   1      42.079  27.859  30.433  1.00  0.00     0.012 A 
ATOM     81  C   UNL A   1      43.189  29.890  29.699  1.00  0.00     0.148 A 
ATOM     82  C   UNL A   1      42.470  27.214  29.260  1.00  0.00     0.002 A 
ATOM     83  C   UNL A   1      43.525  29.261  28.506  1.00  0.00     0.091 A 
ATOM     84  F   UNL A   1      43.537  31.160  29.951  1.00  0.00    -0.205 F 
ATOM     85  C   UNL A   1      43.181  27.917  28.291  1.00  0.00     0.022 A 
BRANCH  83  86
ATOM     86  S   UNL A   1      44.320  30.122  27.144  1.00  0.00     0.127 S 
ATOM     87  O   UNL A   1      43.183  30.761  26.487  1.00  0.00    -0.237 OA
ATOM     88  O   UNL A   1      45.216  31.037  27.855  1.00  0.00    -0.237 OA
ATOM     89  O   UNL A   1      45.000  29.095  26.367  1.00  0.00    -0.744 OA
ENDBRANCH  83  86
ENDBRANCH  55  79
BRANCH  67  90
ATOM     90  C   UNL A   1      45.385  30.183  36.949  1.00  0.00     0.023 A 
ATOM     91  C   UNL A   1      46.460  31.093  36.932  1.00  0.00     0.012 A 
ATOM     92  C   UNL A   1      45.534  28.951  37.622  1.00  0.00     0.148 A 
ATOM     93  C   UNL A   1      47.670  30.775  37.548  1.00  0.00     0.002 A 
ATOM     94  C   UNL A   1      46.724  28.665  38.281  1.00  0.00     0.091 A 
ATOM     95  F   UNL A   1      44.505  28.093  37.618  1.00  0.00    -0.205 F 
ATOM     96  C   UNL A   1      47.797  29.569  38.233  1.00  0.00     0.022 A 
BRANCH  94  97
ATOM     97  S   UNL A   1      46.945  27.187  39.279  1.00  0.00     0.127 S 
ATOM     98  O   UNL A   1      45.977  27.406  40.353  1.00  0.00    -0.237 OA
ATOM     99  O   UNL A   1      46.586  26.123  38.342  1.00  0.00    -0.237 OA
ATOM    100  O   UNL A   1      48.342  27.185  39.693  1.00  0.00    -0.744 OA
ENDBRANCH  94  97
ENDBRANCH  67  90
ENDBRANCH  41  42
ENDBRANCH  34  36
ENDBRANCH  33  34
ENDBRANCH  32  33
ENDBRANCH  31  32
ENDBRANCH  30  31
ENDBRANCH  29  30
ENDBRANCH  28  29
ENDBRANCH  27  28
ENDBRANCH   1  27
TORSDOF 27
ENDMDL
