MODEL 1
REMARK VINA RESULT:      -7.2      0.000      0.000
REMARK SMILES C[C@]12C(=O)N(c3ccc(C(=O)OCCOCCOCCOCCOC(=O)c4ccc(-c5c6nc(c(-c7cccc(S(=O)(=O)[O-])c7F)c7ccc([nH]7)c(-c7cccc(S(=O)(=O)[O-])c7F)c7nc(c(-c8cccc(S(=O)(=O)[O-])c8F)c8ccc5[nH]8)C=C7)C=C6)cc4)cc3)C(=O)[C@H]1[C@H]1c3ccccc3[C@@H]2c2ccccc21
REMARK SMILES IDX 19 1 18 2 17 3 16 4 15 5 14 6 13 7 12 8 10 9 11 10 9 11 6 12
REMARK SMILES IDX 7 13 91 14 8 15 90 16 5 17 1 18 2 19 3 20 94 21 102 22 4 23
REMARK SMILES IDX 92 24 95 25 101 26 103 27 93 28 96 29 108 30 100 31 104 32
REMARK SMILES IDX 97 33 107 34 99 35 105 36 98 37 106 38 20 39 21 40 22 41
REMARK SMILES IDX 23 42 24 43 25 44 26 45 27 46 28 47 89 48 29 49 88 50 30 51
REMARK SMILES IDX 31 52 32 53 82 54 33 55 87 56 81 57 83 58 34 59 86 60 80 61
REMARK SMILES IDX 79 62 35 64 67 65 47 66 66 67 48 68 51 69 65 70 84 71 49 72
REMARK SMILES IDX 50 73 64 75 85 76 52 77 36 78 37 79 45 80 38 81 40 82 46 83
REMARK SMILES IDX 39 84 41 85 42 86 43 87 44 88 68 89 69 90 77 91 70 92 72 93
REMARK SMILES IDX 78 94 71 95 73 96 74 97 75 98 76 99 53 100 54 101 62 102
REMARK SMILES IDX 55 103 57 104 63 105 56 106 58 107 59 108 60 109 61 110
REMARK H PARENT 83 63 51 74
REMARK Flexibility Score: inf
ROOT
ATOM      1  C   UNL A   1      38.951  34.551  31.018  1.00  0.00     0.188 C 
ENDROOT
BRANCH   1   2
ATOM      2  O   UNL A   1      40.355  34.588  31.235  1.00  0.00    -0.377 OA
BRANCH   2   3
ATOM      3  C   UNL A   1      41.162  34.371  30.096  1.00  0.00     0.188 C 
BRANCH   3   4
ATOM      4  C   UNL A   1      42.193  35.486  29.834  1.00  0.00     0.188 C 
BRANCH   4   5
ATOM      5  O   UNL A   1      43.443  35.519  30.517  1.00  0.00    -0.376 OA
BRANCH   5   6
ATOM      6  C   UNL A   1      43.726  36.547  31.461  1.00  0.00     0.202 C 
BRANCH   6   7
ATOM      7  C   UNL A   1      44.816  36.341  32.526  1.00  0.00     0.261 C 
BRANCH   7   8
ATOM      8  O   UNL A   1      45.178  34.972  32.763  1.00  0.00    -0.460 OA
BRANCH   8   9
ATOM      9  C   UNL A   1      46.300  34.549  32.141  1.00  0.00     0.338 C 
ATOM     10  O   UNL A   1      47.448  34.607  32.548  1.00  0.00    -0.246 OA
BRANCH   9  11
ATOM     11  C   UNL A   1      45.931  33.758  30.952  1.00  0.00     0.060 A 
ATOM     12  C   UNL A   1      45.247  32.035  28.832  1.00  0.00     0.052 A 
ATOM     13  C   UNL A   1      44.607  31.944  30.080  1.00  0.00     0.028 A 
ATOM     14  C   UNL A   1      46.166  33.079  28.642  1.00  0.00     0.028 A 
ATOM     15  C   UNL A   1      44.987  32.753  31.144  1.00  0.00     0.018 A 
ATOM     16  C   UNL A   1      46.487  33.962  29.690  1.00  0.00     0.018 A 
BRANCH  12  17
ATOM     17  N   UNL A   1      45.096  30.951  27.919  1.00  0.00    -0.250 N 
ATOM     18  C   UNL A   1      44.259  27.676  26.936  1.00  0.00     0.024 C 
ATOM     19  C   UNL A   1      45.329  28.675  27.395  1.00  0.00     0.071 C 
ATOM     20  C   UNL A   1      44.709  29.691  28.316  1.00  0.00     0.241 C 
ATOM     21  C   UNL A   1      45.870  29.529  26.210  1.00  0.00     0.107 C 
ATOM     22  C   UNL A   1      46.523  27.999  28.165  1.00  0.00     0.066 C 
ATOM     23  O   UNL A   1      44.002  29.374  29.265  1.00  0.00    -0.273 OA
ATOM     24  C   UNL A   1      45.559  30.958  26.618  1.00  0.00     0.238 C 
ATOM     25  C   UNL A   1      47.413  29.316  26.061  1.00  0.00     0.063 C 
ATOM     26  C   UNL A   1      47.558  29.081  28.512  1.00  0.00    -0.036 A 
ATOM     27  C   UNL A   1      47.196  27.098  27.139  1.00  0.00    -0.036 A 
ATOM     28  O   UNL A   1      45.780  31.909  25.881  1.00  0.00    -0.274 OA
ATOM     29  C   UNL A   1      48.038  29.787  27.377  1.00  0.00    -0.036 A 
ATOM     30  C   UNL A   1      47.661  27.801  25.994  1.00  0.00    -0.036 A 
ATOM     31  C   UNL A   1      47.980  29.432  29.787  1.00  0.00     0.005 A 
ATOM     32  C   UNL A   1      47.413  25.736  27.293  1.00  0.00     0.005 A 
ATOM     33  C   UNL A   1      48.914  30.855  27.519  1.00  0.00     0.004 A 
ATOM     34  C   UNL A   1      48.358  27.123  25.006  1.00  0.00     0.004 A 
ATOM     35  C   UNL A   1      48.856  30.513  29.925  1.00  0.00     0.000 A 
ATOM     36  C   UNL A   1      48.108  25.062  26.293  1.00  0.00     0.000 A 
ATOM     37  C   UNL A   1      49.315  31.221  28.804  1.00  0.00     0.000 A 
ATOM     38  C   UNL A   1      48.577  25.749  25.162  1.00  0.00     0.000 A 
ENDBRANCH  12  17
ENDBRANCH   9  11
ENDBRANCH   8   9
ENDBRANCH   7   8
ENDBRANCH   6   7
ENDBRANCH   5   6
ENDBRANCH   4   5
ENDBRANCH   3   4
ENDBRANCH   2   3
ENDBRANCH   1   2
BRANCH   1  39
ATOM     39  C   UNL A   1      38.465  34.075  29.639  1.00  0.00     0.188 C 
BRANCH  39  40
ATOM     40  O   UNL A   1      37.213  33.383  29.690  1.00  0.00    -0.376 OA
BRANCH  40  41
ATOM     41  C   UNL A   1      36.234  33.786  28.734  1.00  0.00     0.202 C 
BRANCH  41  42
ATOM     42  C   UNL A   1      35.011  32.859  28.655  1.00  0.00     0.261 C 
BRANCH  42  43
ATOM     43  O   UNL A   1      34.898  32.084  27.452  1.00  0.00    -0.460 OA
BRANCH  43  44
ATOM     44  C   UNL A   1      34.714  30.748  27.576  1.00  0.00     0.338 C 
ATOM     45  O   UNL A   1      33.765  30.105  27.181  1.00  0.00    -0.246 OA
BRANCH  44  46
ATOM     46  C   UNL A   1      35.976  30.171  28.097  1.00  0.00     0.060 A 
ATOM     47  C   UNL A   1      37.157  30.232  27.350  1.00  0.00     0.016 A 
ATOM     48  C   UNL A   1      35.959  29.532  29.343  1.00  0.00     0.016 A 
ATOM     49  C   UNL A   1      38.331  29.682  27.868  1.00  0.00     0.010 A 
ATOM     50  C   UNL A   1      37.133  28.975  29.855  1.00  0.00     0.010 A 
ATOM     51  C   UNL A   1      38.331  29.068  29.133  1.00  0.00    -0.014 A 
BRANCH  51  52
ATOM     52  C   UNL A   1      39.622  28.718  29.775  1.00  0.00     0.031 A 
ATOM     53  C   UNL A   1      40.420  27.516  29.375  1.00  0.00     0.074 A 
ATOM     54  C   UNL A   1      40.058  29.521  30.764  1.00  0.00     0.049 A 
ATOM     55  N   UNL A   1      41.606  27.153  29.791  1.00  0.00    -0.248 NA
ATOM     56  C   UNL A   1      39.820  26.602  28.393  1.00  0.00     0.031 C 
ATOM     57  C   UNL A   1      39.334  30.687  31.277  1.00  0.00     0.029 A 
ATOM     58  N   UNL A   1      41.203  29.480  31.517  1.00  0.00    -0.354 N 
ATOM     59  C   UNL A   1      41.901  25.970  29.128  1.00  0.00     0.074 A 
ATOM     60  C   UNL A   1      40.758  25.665  28.291  1.00  0.00     0.031 C 
ATOM     61  C   UNL A   1      40.055  31.254  32.255  1.00  0.00     0.029 A 
ATOM     62  C   UNL A   1      41.286  30.493  32.441  1.00  0.00     0.049 A 
ATOM     63  H   UNL A   1      41.898  28.791  31.406  1.00  0.00     0.167 HD
ATOM     64  C   UNL A   1      43.031  25.227  29.195  1.00  0.00     0.034 A 
ATOM     65  C   UNL A   1      42.251  30.790  33.331  1.00  0.00     0.034 A 
ATOM     66  C   UNL A   1      44.171  25.547  30.017  1.00  0.00     0.049 A 
ATOM     67  C   UNL A   1      43.499  29.960  33.371  1.00  0.00     0.074 A 
ATOM     68  C   UNL A   1      45.389  24.890  30.086  1.00  0.00     0.029 A 
ATOM     69  N   UNL A   1      44.234  26.597  30.919  1.00  0.00    -0.354 N 
ATOM     70  N   UNL A   1      43.826  28.937  32.620  1.00  0.00    -0.248 NA
ATOM     71  C   UNL A   1      44.522  30.340  34.355  1.00  0.00     0.031 C 
ATOM     72  C   UNL A   1      46.184  25.537  31.038  1.00  0.00     0.029 A 
ATOM     73  C   UNL A   1      45.463  26.600  31.557  1.00  0.00     0.049 A 
ATOM     74  H   UNL A   1      43.511  27.245  31.082  1.00  0.00     0.167 HD
ATOM     75  C   UNL A   1      45.098  28.559  33.028  1.00  0.00     0.074 A 
ATOM     76  C   UNL A   1      45.492  29.475  34.079  1.00  0.00     0.031 C 
ATOM     77  C   UNL A   1      45.862  27.535  32.577  1.00  0.00     0.034 A 
BRANCH  64  78
ATOM     78  C   UNL A   1      43.145  24.024  28.300  1.00  0.00     0.023 A 
ATOM     79  C   UNL A   1      42.381  22.881  28.605  1.00  0.00     0.012 A 
ATOM     80  C   UNL A   1      43.886  24.068  27.103  1.00  0.00     0.148 A 
ATOM     81  C   UNL A   1      42.354  21.793  27.732  1.00  0.00     0.002 A 
ATOM     82  C   UNL A   1      43.835  22.990  26.226  1.00  0.00     0.091 A 
ATOM     83  F   UNL A   1      44.610  25.165  26.840  1.00  0.00    -0.205 F 
ATOM     84  C   UNL A   1      43.071  21.852  26.540  1.00  0.00     0.022 A 
BRANCH  82  85
ATOM     85  S   UNL A   1      44.677  22.981  24.639  1.00  0.00     0.127 S 
ATOM     86  O   UNL A   1      45.735  21.999  24.873  1.00  0.00    -0.237 OA
ATOM     87  O   UNL A   1      43.620  22.533  23.732  1.00  0.00    -0.237 OA
ATOM     88  O   UNL A   1      45.136  24.345  24.418  1.00  0.00    -0.744 OA
ENDBRANCH  82  85
ENDBRANCH  64  78
BRANCH  65  89
ATOM     89  C   UNL A   1      42.092  31.994  34.188  1.00  0.00     0.023 A 
ATOM     90  C   UNL A   1      42.373  33.261  33.644  1.00  0.00     0.012 A 
ATOM     91  C   UNL A   1      41.575  31.895  35.493  1.00  0.00     0.148 A 
ATOM     92  C   UNL A   1      42.145  34.415  34.392  1.00  0.00     0.002 A 
ATOM     93  C   UNL A   1      41.315  33.050  36.218  1.00  0.00     0.091 A 
ATOM     94  F   UNL A   1      41.317  30.673  35.982  1.00  0.00    -0.205 F 
ATOM     95  C   UNL A   1      41.608  34.312  35.673  1.00  0.00     0.022 A 
BRANCH  93  96
ATOM     96  S   UNL A   1      40.523  33.027  37.830  1.00  0.00     0.127 S 
ATOM     97  O   UNL A   1      39.300  32.276  37.549  1.00  0.00    -0.237 OA
ATOM     98  O   UNL A   1      41.512  32.314  38.637  1.00  0.00    -0.237 OA
ATOM     99  O   UNL A   1      40.330  34.422  38.198  1.00  0.00    -0.744 OA
ENDBRANCH  93  96
ENDBRANCH  65  89
BRANCH  77 100
ATOM    100  C   UNL A   1      47.204  27.326  33.223  1.00  0.00     0.023 A 
ATOM    101  C   UNL A   1      48.309  28.070  32.764  1.00  0.00     0.012 A 
ATOM    102  C   UNL A   1      47.351  26.479  34.339  1.00  0.00     0.148 A 
ATOM    103  C   UNL A   1      49.545  27.966  33.399  1.00  0.00     0.002 A 
ATOM    104  C   UNL A   1      48.579  26.403  34.986  1.00  0.00     0.091 A 
ATOM    105  F   UNL A   1      46.288  25.773  34.747  1.00  0.00    -0.205 F 
ATOM    106  C   UNL A   1      49.678  27.142  34.515  1.00  0.00     0.022 A 
BRANCH 104 107
ATOM    107  S   UNL A   1      48.833  25.425  36.472  1.00  0.00     0.127 S 
ATOM    108  O   UNL A   1      50.285  25.256  36.470  1.00  0.00    -0.237 OA
ATOM    109  O   UNL A   1      48.323  26.313  37.518  1.00  0.00    -0.237 OA
ATOM    110  O   UNL A   1      48.064  24.202  36.286  1.00  0.00    -0.744 OA
ENDBRANCH 104 107
ENDBRANCH  77 100
ENDBRANCH  51  52
ENDBRANCH  44  46
ENDBRANCH  43  44
ENDBRANCH  42  43
ENDBRANCH  41  42
ENDBRANCH  40  41
ENDBRANCH  39  40
ENDBRANCH   1  39
TORSDOF 24
ENDMDL
MODEL 2
REMARK VINA RESULT:      -7.1      4.914     10.628
REMARK SMILES C[C@]12C(=O)N(c3ccc(C(=O)OCCOCCOCCOCCOC(=O)c4ccc(-c5c6nc(c(-c7cccc(S(=O)(=O)[O-])c7F)c7ccc([nH]7)c(-c7cccc(S(=O)(=O)[O-])c7F)c7nc(c(-c8cccc(S(=O)(=O)[O-])c8F)c8ccc5[nH]8)C=C7)C=C6)cc4)cc3)C(=O)[C@H]1[C@H]1c3ccccc3[C@@H]2c2ccccc21
REMARK SMILES IDX 19 1 18 2 17 3 16 4 15 5 14 6 13 7 12 8 10 9 11 10 9 11 6 12
REMARK SMILES IDX 7 13 91 14 8 15 90 16 5 17 1 18 2 19 3 20 94 21 102 22 4 23
REMARK SMILES IDX 92 24 95 25 101 26 103 27 93 28 96 29 108 30 100 31 104 32
REMARK SMILES IDX 97 33 107 34 99 35 105 36 98 37 106 38 20 39 21 40 22 41
REMARK SMILES IDX 23 42 24 43 25 44 26 45 27 46 28 47 89 48 29 49 88 50 30 51
REMARK SMILES IDX 31 52 32 53 82 54 33 55 87 56 81 57 83 58 34 59 86 60 80 61
REMARK SMILES IDX 79 62 35 64 67 65 47 66 66 67 48 68 51 69 65 70 84 71 49 72
REMARK SMILES IDX 50 73 64 75 85 76 52 77 36 78 37 79 45 80 38 81 40 82 46 83
REMARK SMILES IDX 39 84 41 85 42 86 43 87 44 88 68 89 69 90 77 91 70 92 72 93
REMARK SMILES IDX 78 94 71 95 73 96 74 97 75 98 76 99 53 100 54 101 62 102
REMARK SMILES IDX 55 103 57 104 63 105 56 106 58 107 59 108 60 109 61 110
REMARK H PARENT 83 63 51 74
REMARK Flexibility Score: inf
ROOT
ATOM      1  C   UNL A   1      35.994  23.612  26.112  1.00  0.00     0.188 C 
ENDROOT
BRANCH   1   2
ATOM      2  O   UNL A   1      35.305  24.750  25.612  1.00  0.00    -0.377 OA
BRANCH   2   3
ATOM      3  C   UNL A   1      34.415  24.510  24.541  1.00  0.00     0.188 C 
BRANCH   3   4
ATOM      4  C   UNL A   1      33.672  25.767  24.048  1.00  0.00     0.188 C 
BRANCH   4   5
ATOM      5  O   UNL A   1      32.653  26.384  24.829  1.00  0.00    -0.376 OA
BRANCH   5   6
ATOM      6  C   UNL A   1      32.992  27.221  25.930  1.00  0.00     0.202 C 
BRANCH   6   7
ATOM      7  C   UNL A   1      32.698  28.730  25.875  1.00  0.00     0.261 C 
BRANCH   7   8
ATOM      8  O   UNL A   1      33.839  29.575  26.082  1.00  0.00    -0.460 OA
BRANCH   8   9
ATOM      9  C   UNL A   1      33.666  30.585  26.962  1.00  0.00     0.338 C 
ATOM     10  O   UNL A   1      32.630  31.162  27.244  1.00  0.00    -0.246 OA
BRANCH   9  11
ATOM     11  C   UNL A   1      34.899  30.762  27.751  1.00  0.00     0.060 A 
ATOM     12  C   UNL A   1      37.153  30.935  29.432  1.00  0.00     0.052 A 
ATOM     13  C   UNL A   1      36.626  29.690  29.046  1.00  0.00     0.028 A 
ATOM     14  C   UNL A   1      36.584  32.090  28.871  1.00  0.00     0.028 A 
ATOM     15  C   UNL A   1      35.478  29.606  28.267  1.00  0.00     0.018 A 
ATOM     16  C   UNL A   1      35.478  32.005  28.006  1.00  0.00     0.018 A 
BRANCH  12  17
ATOM     17  N   UNL A   1      38.072  30.966  30.521  1.00  0.00    -0.250 N 
ATOM     18  C   UNL A   1      40.879  32.093  32.322  1.00  0.00     0.024 C 
ATOM     19  C   UNL A   1      40.269  31.087  31.336  1.00  0.00     0.071 C 
ATOM     20  C   UNL A   1      39.195  31.761  30.527  1.00  0.00     0.241 C 
ATOM     21  C   UNL A   1      39.514  29.940  32.073  1.00  0.00     0.107 C 
ATOM     22  C   UNL A   1      41.319  30.487  30.330  1.00  0.00     0.066 C 
ATOM     23  O   UNL A   1      39.370  32.837  29.967  1.00  0.00    -0.273 OA
ATOM     24  C   UNL A   1      38.094  30.042  31.547  1.00  0.00     0.238 C 
ATOM     25  C   UNL A   1      40.149  28.560  31.699  1.00  0.00     0.063 C 
ATOM     26  C   UNL A   1      40.611  29.449  29.445  1.00  0.00    -0.036 A 
ATOM     27  C   UNL A   1      42.291  29.697  31.196  1.00  0.00    -0.036 A 
ATOM     28  O   UNL A   1      37.191  29.333  31.969  1.00  0.00    -0.274 OA
ATOM     29  C   UNL A   1      39.984  28.410  30.184  1.00  0.00    -0.036 A 
ATOM     30  C   UNL A   1      41.662  28.669  31.950  1.00  0.00    -0.036 A 
ATOM     31  C   UNL A   1      40.499  29.491  28.063  1.00  0.00     0.005 A 
ATOM     32  C   UNL A   1      43.664  29.884  31.228  1.00  0.00     0.005 A 
ATOM     33  C   UNL A   1      39.227  27.436  29.547  1.00  0.00     0.004 A 
ATOM     34  C   UNL A   1      42.430  27.821  32.733  1.00  0.00     0.004 A 
ATOM     35  C   UNL A   1      39.730  28.512  27.425  1.00  0.00     0.000 A 
ATOM     36  C   UNL A   1      44.428  29.032  32.021  1.00  0.00     0.000 A 
ATOM     37  C   UNL A   1      39.097  27.498  28.160  1.00  0.00     0.000 A 
ATOM     38  C   UNL A   1      43.817  28.010  32.765  1.00  0.00     0.000 A 
ENDBRANCH  12  17
ENDBRANCH   9  11
ENDBRANCH   8   9
ENDBRANCH   7   8
ENDBRANCH   6   7
ENDBRANCH   5   6
ENDBRANCH   4   5
ENDBRANCH   3   4
ENDBRANCH   2   3
ENDBRANCH   1   2
BRANCH   1  39
ATOM     39  C   UNL A   1      37.511  23.544  25.866  1.00  0.00     0.188 C 
BRANCH  39  40
ATOM     40  O   UNL A   1      38.286  23.918  27.009  1.00  0.00    -0.376 OA
BRANCH  40  41
ATOM     41  C   UNL A   1      39.683  23.634  26.940  1.00  0.00     0.202 C 
BRANCH  41  42
ATOM     42  C   UNL A   1      40.569  24.649  27.679  1.00  0.00     0.261 C 
BRANCH  42  43
ATOM     43  O   UNL A   1      41.976  24.555  27.406  1.00  0.00    -0.460 OA
BRANCH  43  44
ATOM     44  C   UNL A   1      42.821  24.489  28.462  1.00  0.00     0.338 C 
ATOM     45  O   UNL A   1      42.795  23.681  29.366  1.00  0.00    -0.246 OA
BRANCH  44  46
ATOM     46  C   UNL A   1      43.919  25.454  28.214  1.00  0.00     0.060 A 
ATOM     47  C   UNL A   1      44.521  25.552  26.956  1.00  0.00     0.016 A 
ATOM     48  C   UNL A   1      44.368  26.249  29.277  1.00  0.00     0.016 A 
ATOM     49  C   UNL A   1      45.551  26.473  26.752  1.00  0.00     0.010 A 
ATOM     50  C   UNL A   1      45.404  27.163  29.073  1.00  0.00     0.010 A 
ATOM     51  C   UNL A   1      45.985  27.298  27.803  1.00  0.00    -0.014 A 
BRANCH  51  52
ATOM     52  C   UNL A   1      46.893  28.434  27.513  1.00  0.00     0.031 A 
ATOM     53  C   UNL A   1      48.382  28.285  27.474  1.00  0.00     0.074 A 
ATOM     54  C   UNL A   1      46.329  29.638  27.298  1.00  0.00     0.049 A 
ATOM     55  N   UNL A   1      49.280  29.176  27.139  1.00  0.00    -0.248 NA
ATOM     56  C   UNL A   1      48.942  26.981  27.860  1.00  0.00     0.031 C 
ATOM     57  C   UNL A   1      44.892  29.913  27.369  1.00  0.00     0.029 A 
ATOM     58  N   UNL A   1      46.887  30.850  26.983  1.00  0.00    -0.354 N 
ATOM     59  C   UNL A   1      50.511  28.550  27.272  1.00  0.00     0.074 A 
ATOM     60  C   UNL A   1      50.247  27.203  27.737  1.00  0.00     0.031 C 
ATOM     61  C   UNL A   1      44.681  31.209  27.100  1.00  0.00     0.029 A 
ATOM     62  C   UNL A   1      45.963  31.856  26.841  1.00  0.00     0.049 A 
ATOM     63  H   UNL A   1      47.855  30.985  26.871  1.00  0.00     0.167 HD
ATOM     64  C   UNL A   1      51.742  29.049  27.005  1.00  0.00     0.034 A 
ATOM     65  C   UNL A   1      46.123  33.154  26.522  1.00  0.00     0.034 A 
ATOM     66  C   UNL A   1      51.996  30.384  26.527  1.00  0.00     0.049 A 
ATOM     67  C   UNL A   1      47.496  33.674  26.216  1.00  0.00     0.074 A 
ATOM     68  C   UNL A   1      53.207  30.946  26.157  1.00  0.00     0.029 A 
ATOM     69  N   UNL A   1      51.035  31.368  26.365  1.00  0.00    -0.354 N 
ATOM     70  N   UNL A   1      48.632  33.023  26.192  1.00  0.00    -0.248 NA
ATOM     71  C   UNL A   1      47.607  35.096  25.862  1.00  0.00     0.031 C 
ATOM     72  C   UNL A   1      52.979  32.274  25.780  1.00  0.00     0.029 A 
ATOM     73  C   UNL A   1      51.625  32.537  25.912  1.00  0.00     0.049 A 
ATOM     74  H   UNL A   1      50.074  31.254  26.545  1.00  0.00     0.167 HD
ATOM     75  C   UNL A   1      49.592  33.948  25.806  1.00  0.00     0.074 A 
ATOM     76  C   UNL A   1      48.902  35.203  25.587  1.00  0.00     0.031 C 
ATOM     77  C   UNL A   1      50.928  33.772  25.662  1.00  0.00     0.034 A 
BRANCH  64  78
ATOM     78  C   UNL A   1      52.926  28.132  27.145  1.00  0.00     0.023 A 
ATOM     79  C   UNL A   1      53.630  28.119  28.364  1.00  0.00     0.012 A 
ATOM     80  C   UNL A   1      53.254  27.200  26.141  1.00  0.00     0.148 A 
ATOM     81  C   UNL A   1      54.650  27.193  28.584  1.00  0.00     0.002 A 
ATOM     82  C   UNL A   1      54.255  26.264  26.376  1.00  0.00     0.091 A 
ATOM     83  F   UNL A   1      52.573  27.238  24.987  1.00  0.00    -0.205 F 
ATOM     84  C   UNL A   1      54.954  26.260  27.596  1.00  0.00     0.022 A 
BRANCH  82  85
ATOM     85  S   UNL A   1      54.693  24.983  25.194  1.00  0.00     0.127 S 
ATOM     86  O   UNL A   1      53.695  25.196  24.147  1.00  0.00    -0.237 OA
ATOM     87  O   UNL A   1      56.056  25.361  24.823  1.00  0.00    -0.237 OA
ATOM     88  O   UNL A   1      54.581  23.720  25.909  1.00  0.00    -0.744 OA
ENDBRANCH  82  85
ENDBRANCH  64  78
BRANCH  65  89
ATOM     89  C   UNL A   1      44.920  34.016  26.391  1.00  0.00     0.023 A 
ATOM     90  C   UNL A   1      44.189  33.990  25.189  1.00  0.00     0.012 A 
ATOM     91  C   UNL A   1      44.448  34.777  27.477  1.00  0.00     0.148 A 
ATOM     92  C   UNL A   1      43.004  34.715  25.069  1.00  0.00     0.002 A 
ATOM     93  C   UNL A   1      43.248  35.466  27.363  1.00  0.00     0.091 A 
ATOM     94  F   UNL A   1      45.167  34.780  28.609  1.00  0.00    -0.205 F 
ATOM     95  C   UNL A   1      42.529  35.444  26.156  1.00  0.00     0.022 A 
BRANCH  93  96
ATOM     96  S   UNL A   1      42.498  36.343  28.739  1.00  0.00     0.127 S 
ATOM     97  O   UNL A   1      43.610  37.168  29.208  1.00  0.00    -0.237 OA
ATOM     98  O   UNL A   1      41.423  37.078  28.074  1.00  0.00    -0.237 OA
ATOM     99  O   UNL A   1      42.047  35.315  29.666  1.00  0.00    -0.744 OA
ENDBRANCH  93  96
ENDBRANCH  65  89
BRANCH  77 100
ATOM    100  C   UNL A   1      51.751  34.964  25.261  1.00  0.00     0.023 A 
ATOM    101  C   UNL A   1      52.092  35.138  23.904  1.00  0.00     0.012 A 
ATOM    102  C   UNL A   1      52.099  35.957  26.197  1.00  0.00     0.148 A 
ATOM    103  C   UNL A   1      52.777  36.277  23.487  1.00  0.00     0.002 A 
ATOM    104  C   UNL A   1      52.755  37.106  25.769  1.00  0.00     0.091 A 
ATOM    105  F   UNL A   1      51.775  35.763  27.483  1.00  0.00    -0.205 F 
ATOM    106  C   UNL A   1      53.099  37.265  24.415  1.00  0.00     0.022 A 
BRANCH 104 107
ATOM    107  S   UNL A   1      53.152  38.466  26.875  1.00  0.00     0.127 S 
ATOM    108  O   UNL A   1      53.968  37.797  27.886  1.00  0.00    -0.237 OA
ATOM    109  O   UNL A   1      53.890  39.373  25.996  1.00  0.00    -0.237 OA
ATOM    110  O   UNL A   1      51.876  38.984  27.349  1.00  0.00    -0.744 OA
ENDBRANCH 104 107
ENDBRANCH  77 100
ENDBRANCH  51  52
ENDBRANCH  44  46
ENDBRANCH  43  44
ENDBRANCH  42  43
ENDBRANCH  41  42
ENDBRANCH  40  41
ENDBRANCH  39  40
ENDBRANCH   1  39
TORSDOF 24
ENDMDL
MODEL 3
REMARK VINA RESULT:      -7.0      6.200     13.308
REMARK SMILES C[C@]12C(=O)N(c3ccc(C(=O)OCCOCCOCCOCCOC(=O)c4ccc(-c5c6nc(c(-c7cccc(S(=O)(=O)[O-])c7F)c7ccc([nH]7)c(-c7cccc(S(=O)(=O)[O-])c7F)c7nc(c(-c8cccc(S(=O)(=O)[O-])c8F)c8ccc5[nH]8)C=C7)C=C6)cc4)cc3)C(=O)[C@H]1[C@H]1c3ccccc3[C@@H]2c2ccccc21
REMARK SMILES IDX 19 1 18 2 17 3 16 4 15 5 14 6 13 7 12 8 10 9 11 10 9 11 6 12
REMARK SMILES IDX 7 13 91 14 8 15 90 16 5 17 1 18 2 19 3 20 94 21 102 22 4 23
REMARK SMILES IDX 92 24 95 25 101 26 103 27 93 28 96 29 108 30 100 31 104 32
REMARK SMILES IDX 97 33 107 34 99 35 105 36 98 37 106 38 20 39 21 40 22 41
REMARK SMILES IDX 23 42 24 43 25 44 26 45 27 46 28 47 89 48 29 49 88 50 30 51
REMARK SMILES IDX 31 52 32 53 82 54 33 55 87 56 81 57 83 58 34 59 86 60 80 61
REMARK SMILES IDX 79 62 35 64 67 65 47 66 66 67 48 68 51 69 65 70 84 71 49 72
REMARK SMILES IDX 50 73 64 75 85 76 52 77 36 78 37 79 45 80 38 81 40 82 46 83
REMARK SMILES IDX 39 84 41 85 42 86 43 87 44 88 68 89 69 90 77 91 70 92 72 93
REMARK SMILES IDX 78 94 71 95 73 96 74 97 75 98 76 99 53 100 54 101 62 102
REMARK SMILES IDX 55 103 57 104 63 105 56 106 58 107 59 108 60 109 61 110
REMARK H PARENT 83 63 51 74
REMARK Flexibility Score: inf
ROOT
ATOM      1  C   UNL A   1      41.882  26.694  29.010  1.00  0.00     0.188 C 
ENDROOT
BRANCH   1   2
ATOM      2  O   UNL A   1      40.550  26.520  28.549  1.00  0.00    -0.377 OA
BRANCH   2   3
ATOM      3  C   UNL A   1      40.353  26.670  27.158  1.00  0.00     0.188 C 
BRANCH   3   4
ATOM      4  C   UNL A   1      40.021  25.355  26.425  1.00  0.00     0.188 C 
BRANCH   4   5
ATOM      5  O   UNL A   1      38.981  24.494  26.878  1.00  0.00    -0.376 OA
BRANCH   5   6
ATOM      6  C   UNL A   1      39.092  23.082  26.727  1.00  0.00     0.202 C 
BRANCH   6   7
ATOM      7  C   UNL A   1      38.272  22.351  25.652  1.00  0.00     0.261 C 
BRANCH   7   8
ATOM      8  O   UNL A   1      37.037  22.990  25.295  1.00  0.00    -0.460 OA
BRANCH   8   9
ATOM      9  C   UNL A   1      35.920  22.260  25.503  1.00  0.00     0.338 C 
ATOM     10  O   UNL A   1      35.825  21.184  26.070  1.00  0.00    -0.246 OA
BRANCH   9  11
ATOM     11  C   UNL A   1      34.736  23.067  25.153  1.00  0.00     0.060 A 
ATOM     12  C   UNL A   1      32.493  24.714  24.720  1.00  0.00     0.052 A 
ATOM     13  C   UNL A   1      33.701  25.242  25.208  1.00  0.00     0.028 A 
ATOM     14  C   UNL A   1      32.471  23.358  24.357  1.00  0.00     0.028 A 
ATOM     15  C   UNL A   1      34.788  24.419  25.480  1.00  0.00     0.018 A 
ATOM     16  C   UNL A   1      33.600  22.539  24.542  1.00  0.00     0.018 A 
BRANCH  12  17
ATOM     17  N   UNL A   1      31.319  25.515  24.827  1.00  0.00    -0.250 N 
ATOM     18  C   UNL A   1      28.174  26.749  23.839  1.00  0.00     0.024 C 
ATOM     19  C   UNL A   1      29.701  26.907  23.853  1.00  0.00     0.071 C 
ATOM     20  C   UNL A   1      30.348  25.549  23.853  1.00  0.00     0.241 C 
ATOM     21  C   UNL A   1      30.202  27.557  25.176  1.00  0.00     0.107 C 
ATOM     22  C   UNL A   1      30.256  27.700  22.613  1.00  0.00     0.066 C 
ATOM     23  O   UNL A   1      30.029  24.667  23.064  1.00  0.00    -0.273 OA
ATOM     24  C   UNL A   1      31.144  26.519  25.759  1.00  0.00     0.238 C 
ATOM     25  C   UNL A   1      30.966  28.886  24.859  1.00  0.00     0.063 C 
ATOM     26  C   UNL A   1      31.777  27.854  22.771  1.00  0.00    -0.036 A 
ATOM     27  C   UNL A   1      29.683  29.104  22.752  1.00  0.00    -0.036 A 
ATOM     28  O   UNL A   1      31.675  26.662  26.851  1.00  0.00    -0.274 OA
ATOM     29  C   UNL A   1      32.157  28.495  23.980  1.00  0.00    -0.036 A 
ATOM     30  C   UNL A   1      30.047  29.740  23.971  1.00  0.00    -0.036 A 
ATOM     31  C   UNL A   1      32.743  27.381  21.895  1.00  0.00     0.005 A 
ATOM     32  C   UNL A   1      28.931  29.758  21.788  1.00  0.00     0.005 A 
ATOM     33  C   UNL A   1      33.495  28.638  24.323  1.00  0.00     0.004 A 
ATOM     34  C   UNL A   1      29.657  31.049  24.208  1.00  0.00     0.004 A 
ATOM     35  C   UNL A   1      34.089  27.520  22.247  1.00  0.00     0.000 A 
ATOM     36  C   UNL A   1      28.538  31.070  22.036  1.00  0.00     0.000 A 
ATOM     37  C   UNL A   1      34.461  28.138  23.451  1.00  0.00     0.000 A 
ATOM     38  C   UNL A   1      28.899  31.710  23.233  1.00  0.00     0.000 A 
ENDBRANCH  12  17
ENDBRANCH   9  11
ENDBRANCH   8   9
ENDBRANCH   7   8
ENDBRANCH   6   7
ENDBRANCH   5   6
ENDBRANCH   4   5
ENDBRANCH   3   4
ENDBRANCH   2   3
ENDBRANCH   1   2
BRANCH   1  39
ATOM     39  C   UNL A   1      42.830  25.488  28.895  1.00  0.00     0.188 C 
BRANCH  39  40
ATOM     40  O   UNL A   1      42.145  24.231  28.893  1.00  0.00    -0.376 OA
BRANCH  40  41
ATOM     41  C   UNL A   1      42.741  23.194  28.115  1.00  0.00     0.202 C 
BRANCH  41  42
ATOM     42  C   UNL A   1      44.017  23.619  27.371  1.00  0.00     0.261 C 
BRANCH  42  43
ATOM     43  O   UNL A   1      44.385  22.794  26.254  1.00  0.00    -0.460 OA
BRANCH  43  44
ATOM     44  C   UNL A   1      45.695  22.735  25.918  1.00  0.00     0.338 C 
ATOM     45  O   UNL A   1      46.279  21.790  25.430  1.00  0.00    -0.246 OA
BRANCH  44  46
ATOM     46  C   UNL A   1      46.252  24.102  26.054  1.00  0.00     0.060 A 
ATOM     47  C   UNL A   1      46.931  24.489  27.214  1.00  0.00     0.016 A 
ATOM     48  C   UNL A   1      46.058  25.014  25.010  1.00  0.00     0.016 A 
ATOM     49  C   UNL A   1      47.447  25.783  27.313  1.00  0.00     0.010 A 
ATOM     50  C   UNL A   1      46.568  26.311  25.114  1.00  0.00     0.010 A 
ATOM     51  C   UNL A   1      47.286  26.695  26.256  1.00  0.00    -0.014 A 
BRANCH  51  52
ATOM     52  C   UNL A   1      48.049  27.968  26.267  1.00  0.00     0.031 A 
ATOM     53  C   UNL A   1      49.482  28.050  25.842  1.00  0.00     0.074 A 
ATOM     54  C   UNL A   1      47.407  29.070  26.697  1.00  0.00     0.049 A 
ATOM     55  N   UNL A   1      50.232  29.115  25.714  1.00  0.00    -0.248 NA
ATOM     56  C   UNL A   1      50.167  26.790  25.522  1.00  0.00     0.031 C 
ATOM     57  C   UNL A   1      46.028  29.096  27.191  1.00  0.00     0.029 A 
ATOM     58  N   UNL A   1      47.822  30.373  26.796  1.00  0.00    -0.354 N 
ATOM     59  C   UNL A   1      51.477  28.662  25.302  1.00  0.00     0.074 A 
ATOM     60  C   UNL A   1      51.388  27.219  25.217  1.00  0.00     0.031 C 
ATOM     61  C   UNL A   1      45.710  30.352  27.534  1.00  0.00     0.029 A 
ATOM     62  C   UNL A   1      46.859  31.218  27.289  1.00  0.00     0.049 A 
ATOM     63  H   UNL A   1      48.724  30.672  26.538  1.00  0.00     0.167 HD
ATOM     64  C   UNL A   1      52.579  29.389  25.000  1.00  0.00     0.034 A 
ATOM     65  C   UNL A   1      46.886  32.546  27.507  1.00  0.00     0.034 A 
ATOM     66  C   UNL A   1      52.654  30.826  25.072  1.00  0.00     0.049 A 
ATOM     67  C   UNL A   1      48.114  33.327  27.147  1.00  0.00     0.074 A 
ATOM     68  C   UNL A   1      53.709  31.648  24.708  1.00  0.00     0.029 A 
ATOM     69  N   UNL A   1      51.650  31.654  25.546  1.00  0.00    -0.354 N 
ATOM     70  N   UNL A   1      49.228  32.899  26.606  1.00  0.00    -0.248 NA
ATOM     71  C   UNL A   1      48.081  34.775  27.395  1.00  0.00     0.031 C 
ATOM     72  C   UNL A   1      53.345  32.973  24.974  1.00  0.00     0.029 A 
ATOM     73  C   UNL A   1      52.063  32.976  25.497  1.00  0.00     0.049 A 
ATOM     74  H   UNL A   1      50.773  31.348  25.871  1.00  0.00     0.167 HD
ATOM     75  C   UNL A   1      50.024  34.023  26.435  1.00  0.00     0.074 A 
ATOM     76  C   UNL A   1      49.257  35.157  26.910  1.00  0.00     0.031 C 
ATOM     77  C   UNL A   1      51.282  34.102  25.940  1.00  0.00     0.034 A 
BRANCH  64  78
ATOM     78  C   UNL A   1      53.790  28.662  24.484  1.00  0.00     0.023 A 
ATOM     79  C   UNL A   1      54.610  27.979  25.402  1.00  0.00     0.012 A 
ATOM     80  C   UNL A   1      54.038  28.539  23.103  1.00  0.00     0.148 A 
ATOM     81  C   UNL A   1      55.666  27.184  24.956  1.00  0.00     0.002 A 
ATOM     82  C   UNL A   1      55.077  27.726  22.663  1.00  0.00     0.091 A 
ATOM     83  F   UNL A   1      53.247  29.205  22.250  1.00  0.00    -0.205 F 
ATOM     84  C   UNL A   1      55.892  27.049  23.588  1.00  0.00     0.022 A 
BRANCH  82  85
ATOM     85  S   UNL A   1      55.425  27.438  20.924  1.00  0.00     0.127 S 
ATOM     86  O   UNL A   1      55.271  28.782  20.368  1.00  0.00    -0.237 OA
ATOM     87  O   UNL A   1      56.802  26.949  20.963  1.00  0.00    -0.237 OA
ATOM     88  O   UNL A   1      54.441  26.465  20.472  1.00  0.00    -0.744 OA
ENDBRANCH  82  85
ENDBRANCH  64  78
BRANCH  65  89
ATOM     89  C   UNL A   1      45.660  33.217  28.012  1.00  0.00     0.023 A 
ATOM     90  C   UNL A   1      45.403  33.218  29.396  1.00  0.00     0.012 A 
ATOM     91  C   UNL A   1      44.812  33.931  27.146  1.00  0.00     0.148 A 
ATOM     92  C   UNL A   1      44.312  33.918  29.909  1.00  0.00     0.002 A 
ATOM     93  C   UNL A   1      43.750  34.657  27.668  1.00  0.00     0.091 A 
ATOM     94  F   UNL A   1      45.085  33.911  25.833  1.00  0.00    -0.205 F 
ATOM     95  C   UNL A   1      43.493  34.644  29.050  1.00  0.00     0.022 A 
BRANCH  93  96
ATOM     96  S   UNL A   1      42.705  35.711  26.658  1.00  0.00     0.127 S 
ATOM     97  O   UNL A   1      42.612  34.939  25.420  1.00  0.00    -0.237 OA
ATOM     98  O   UNL A   1      41.475  35.758  27.448  1.00  0.00    -0.237 OA
ATOM     99  O   UNL A   1      43.407  36.982  26.551  1.00  0.00    -0.744 OA
ENDBRANCH  93  96
ENDBRANCH  65  89
BRANCH  77 100
ATOM    100  C   UNL A   1      51.933  35.457  25.895  1.00  0.00     0.023 A 
ATOM    101  C   UNL A   1      51.835  36.226  24.717  1.00  0.00     0.012 A 
ATOM    102  C   UNL A   1      52.547  36.008  27.036  1.00  0.00     0.148 A 
ATOM    103  C   UNL A   1      52.349  37.520  24.674  1.00  0.00     0.002 A 
ATOM    104  C   UNL A   1      53.030  37.311  26.994  1.00  0.00     0.091 A 
ATOM    105  F   UNL A   1      52.639  35.252  28.138  1.00  0.00    -0.205 F 
ATOM    106  C   UNL A   1      52.936  38.067  25.813  1.00  0.00     0.022 A 
BRANCH 104 107
ATOM    107  S   UNL A   1      53.740  38.128  28.428  1.00  0.00     0.127 S 
ATOM    108  O   UNL A   1      52.635  38.065  29.383  1.00  0.00    -0.237 OA
ATOM    109  O   UNL A   1      54.874  37.260  28.749  1.00  0.00    -0.237 OA
ATOM    110  O   UNL A   1      54.106  39.468  27.988  1.00  0.00    -0.744 OA
ENDBRANCH 104 107
ENDBRANCH  77 100
ENDBRANCH  51  52
ENDBRANCH  44  46
ENDBRANCH  43  44
ENDBRANCH  42  43
ENDBRANCH  41  42
ENDBRANCH  40  41
ENDBRANCH  39  40
ENDBRANCH   1  39
TORSDOF 24
ENDMDL
