MODEL 1
REMARK VINA RESULT:     -10.8      0.000      0.000
REMARK SMILES CC1(C)C(C(=O)Nc2ccc(CC(=O)OCCOCCOCCOCCOC(=O)c3ccc(-c4c5nc(c(-c6cccc(S(=O)(=O)[O-])c6F)c6ccc([nH]6)c(-c6cccc(S(=O)(=O)[O-])c6F)c6nc(c(-c7cccc(S(=O)(=O)[O-])c7F)c7ccc4[nH]7)C=C6)C=C5)cc3)cc2)C1(C)C
REMARK SMILES IDX 21 1 20 2 19 3 18 4 17 5 16 6 15 7 13 8 14 9 12 10 11 11
REMARK SMILES IDX 8 12 9 13 94 14 10 15 93 16 7 17 5 18 6 19 4 21 1 22 2 23
REMARK SMILES IDX 3 24 95 25 96 26 97 27 22 28 23 29 24 30 25 31 26 32 27 33
REMARK SMILES IDX 28 34 29 35 30 36 31 37 92 38 32 39 91 40 33 41 34 42 35 43
REMARK SMILES IDX 85 44 36 45 90 46 84 47 86 48 37 49 89 50 83 51 82 52 38 54
REMARK SMILES IDX 70 55 50 56 69 57 51 58 54 59 68 60 87 61 52 62 53 63 67 65
REMARK SMILES IDX 88 66 55 67 39 68 40 69 48 70 41 71 43 72 49 73 42 74 44 75
REMARK SMILES IDX 45 76 46 77 47 78 71 79 72 80 80 81 73 82 75 83 81 84 74 85
REMARK SMILES IDX 76 86 77 87 78 88 79 89 56 90 57 91 65 92 58 93 60 94 66 95
REMARK SMILES IDX 59 96 61 97 62 98 63 99 64 100
REMARK H PARENT 7 20 86 53 54 64
REMARK Flexibility Score: inf
ROOT
ATOM      1  O   UNL A   1      41.721  21.573  26.005  1.00  0.00    -0.377 OA
ENDROOT
BRANCH   1   2
ATOM      2  C   UNL A   1      40.420  22.100  26.183  1.00  0.00     0.188 C 
BRANCH   2   3
ATOM      3  C   UNL A   1      39.294  21.079  25.921  1.00  0.00     0.188 C 
BRANCH   3   4
ATOM      4  O   UNL A   1      38.080  21.451  25.265  1.00  0.00    -0.376 OA
BRANCH   4   5
ATOM      5  C   UNL A   1      37.339  22.557  25.753  1.00  0.00     0.202 C 
BRANCH   5   6
ATOM      6  C   UNL A   1      36.069  22.911  24.961  1.00  0.00     0.261 C 
BRANCH   6   7
ATOM      7  O   UNL A   1      35.578  21.875  24.089  1.00  0.00    -0.463 OA
BRANCH   7   8
ATOM      8  C   UNL A   1      34.710  20.988  24.631  1.00  0.00     0.310 C 
ATOM      9  O   UNL A   1      35.036  20.070  25.379  1.00  0.00    -0.252 OA
BRANCH   8  10
ATOM     10  C   UNL A   1      33.269  21.181  24.207  1.00  0.00     0.158 C 
BRANCH  10  11
ATOM     11  C   UNL A   1      32.354  22.148  24.934  1.00  0.00    -0.037 A 
ATOM     12  C   UNL A   1      31.092  24.359  26.095  1.00  0.00     0.041 A 
ATOM     13  C   UNL A   1      30.669  23.915  24.846  1.00  0.00     0.026 A 
ATOM     14  C   UNL A   1      31.926  23.558  26.867  1.00  0.00     0.026 A 
ATOM     15  C   UNL A   1      31.341  22.844  24.244  1.00  0.00     0.006 A 
ATOM     16  C   UNL A   1      32.559  22.452  26.287  1.00  0.00     0.006 A 
BRANCH  12  17
ATOM     17  N   UNL A   1      30.718  25.646  26.501  1.00  0.00    -0.326 N 
ATOM     18  C   UNL A   1      31.490  26.789  26.474  1.00  0.00     0.228 C 
ATOM     19  O   UNL A   1      31.478  27.502  27.481  1.00  0.00    -0.274 OA
ATOM     20  H   UNL A   1      29.800  25.747  26.843  1.00  0.00     0.169 HD
BRANCH  18  21
ATOM     21  C   UNL A   1      32.052  27.412  25.220  1.00  0.00     0.091 C 
ATOM     22  C   UNL A   1      31.923  27.146  22.644  1.00  0.00     0.012 C 
ATOM     23  C   UNL A   1      31.319  27.720  23.914  1.00  0.00    -0.017 C 
ATOM     24  C   UNL A   1      29.820  27.743  23.790  1.00  0.00     0.012 C 
ATOM     25  C   UNL A   1      32.086  28.835  24.681  1.00  0.00    -0.017 C 
ATOM     26  C   UNL A   1      33.402  29.328  24.105  1.00  0.00     0.012 C 
ATOM     27  C   UNL A   1      31.404  29.967  25.395  1.00  0.00     0.012 C 
ENDBRANCH  18  21
ENDBRANCH  12  17
ENDBRANCH  10  11
ENDBRANCH   8  10
ENDBRANCH   7   8
ENDBRANCH   6   7
ENDBRANCH   5   6
ENDBRANCH   4   5
ENDBRANCH   3   4
ENDBRANCH   2   3
ENDBRANCH   1   2
BRANCH   1  28
ATOM     28  C   UNL A   1      41.827  20.186  26.240  1.00  0.00     0.188 C 
BRANCH  28  29
ATOM     29  C   UNL A   1      43.063  19.576  25.571  1.00  0.00     0.188 C 
BRANCH  29  30
ATOM     30  O   UNL A   1      43.788  20.547  24.826  1.00  0.00    -0.376 OA
BRANCH  30  31
ATOM     31  C   UNL A   1      45.130  20.847  25.147  1.00  0.00     0.202 C 
BRANCH  31  32
ATOM     32  C   UNL A   1      45.546  22.247  25.633  1.00  0.00     0.261 C 
BRANCH  32  33
ATOM     33  O   UNL A   1      44.519  23.146  26.052  1.00  0.00    -0.460 OA
BRANCH  33  34
ATOM     34  C   UNL A   1      44.602  24.429  25.637  1.00  0.00     0.338 C 
ATOM     35  O   UNL A   1      45.139  24.829  24.617  1.00  0.00    -0.246 OA
BRANCH  34  36
ATOM     36  C   UNL A   1      43.737  25.241  26.522  1.00  0.00     0.060 A 
ATOM     37  C   UNL A   1      43.857  26.636  26.479  1.00  0.00     0.016 A 
ATOM     38  C   UNL A   1      42.782  24.640  27.349  1.00  0.00     0.016 A 
ATOM     39  C   UNL A   1      43.033  27.435  27.269  1.00  0.00     0.010 A 
ATOM     40  C   UNL A   1      41.987  25.440  28.174  1.00  0.00     0.010 A 
ATOM     41  C   UNL A   1      42.131  26.839  28.158  1.00  0.00    -0.014 A 
BRANCH  41  42
ATOM     42  C   UNL A   1      41.529  27.661  29.232  1.00  0.00     0.031 A 
ATOM     43  C   UNL A   1      42.254  27.726  30.550  1.00  0.00     0.074 A 
ATOM     44  C   UNL A   1      40.385  28.342  29.049  1.00  0.00     0.049 A 
ATOM     45  N   UNL A   1      41.923  28.346  31.649  1.00  0.00    -0.248 NA
ATOM     46  C   UNL A   1      43.527  26.988  30.633  1.00  0.00     0.031 C 
ATOM     47  C   UNL A   1      39.608  28.377  27.812  1.00  0.00     0.029 A 
ATOM     48  N   UNL A   1      39.666  29.120  29.922  1.00  0.00    -0.354 N 
ATOM     49  C   UNL A   1      42.927  28.052  32.563  1.00  0.00     0.074 A 
ATOM     50  C   UNL A   1      43.876  27.191  31.893  1.00  0.00     0.031 C 
ATOM     51  C   UNL A   1      38.498  29.108  28.017  1.00  0.00     0.029 A 
ATOM     52  C   UNL A   1      38.475  29.571  29.403  1.00  0.00     0.049 A 
ATOM     53  H   UNL A   1      39.974  29.335  30.832  1.00  0.00     0.167 HD
ATOM     54  C   UNL A   1      43.054  28.466  33.844  1.00  0.00     0.034 A 
ATOM     55  C   UNL A   1      37.473  30.252  29.996  1.00  0.00     0.034 A 
ATOM     56  C   UNL A   1      42.109  29.321  34.507  1.00  0.00     0.049 A 
ATOM     57  C   UNL A   1      37.617  30.663  31.440  1.00  0.00     0.074 A 
ATOM     58  C   UNL A   1      42.164  29.829  35.792  1.00  0.00     0.029 A 
ATOM     59  N   UNL A   1      40.929  29.779  33.944  1.00  0.00    -0.354 N 
ATOM     60  N   UNL A   1      38.622  30.470  32.260  1.00  0.00    -0.248 NA
ATOM     61  C   UNL A   1      36.499  31.413  32.033  1.00  0.00     0.031 C 
ATOM     62  C   UNL A   1      40.994  30.560  36.020  1.00  0.00     0.029 A 
ATOM     63  C   UNL A   1      40.235  30.547  34.860  1.00  0.00     0.049 A 
ATOM     64  H   UNL A   1      40.628  29.585  33.026  1.00  0.00     0.167 HD
ATOM     65  C   UNL A   1      38.276  31.107  33.449  1.00  0.00     0.074 A 
ATOM     66  C   UNL A   1      36.975  31.708  33.234  1.00  0.00     0.031 C 
ATOM     67  C   UNL A   1      38.964  31.181  34.614  1.00  0.00     0.034 A 
BRANCH  54  68
ATOM     68  C   UNL A   1      44.261  27.996  34.613  1.00  0.00     0.023 A 
ATOM     69  C   UNL A   1      45.470  28.717  34.533  1.00  0.00     0.012 A 
ATOM     70  C   UNL A   1      44.182  26.863  35.444  1.00  0.00     0.148 A 
ATOM     71  C   UNL A   1      46.593  28.297  35.245  1.00  0.00     0.002 A 
ATOM     72  C   UNL A   1      45.292  26.480  36.188  1.00  0.00     0.091 A 
ATOM     73  F   UNL A   1      43.032  26.177  35.484  1.00  0.00    -0.205 F 
ATOM     74  C   UNL A   1      46.500  27.187  36.081  1.00  0.00     0.022 A 
BRANCH  72  75
ATOM     75  S   UNL A   1      45.251  25.113  37.353  1.00  0.00     0.127 S 
ATOM     76  O   UNL A   1      44.264  25.584  38.324  1.00  0.00    -0.237 OA
ATOM     77  O   UNL A   1      44.797  24.007  36.510  1.00  0.00    -0.237 OA
ATOM     78  O   UNL A   1      46.608  24.976  37.861  1.00  0.00    -0.744 OA
ENDBRANCH  72  75
ENDBRANCH  54  68
BRANCH  55  79
ATOM     79  C   UNL A   1      36.245  30.603  29.225  1.00  0.00     0.023 A 
ATOM     80  C   UNL A   1      35.542  29.597  28.535  1.00  0.00     0.012 A 
ATOM     81  C   UNL A   1      35.777  31.931  29.165  1.00  0.00     0.148 A 
ATOM     82  C   UNL A   1      34.417  29.911  27.771  1.00  0.00     0.002 A 
ATOM     83  C   UNL A   1      34.624  32.228  28.449  1.00  0.00     0.091 A 
ATOM     84  F   UNL A   1      36.469  32.878  29.813  1.00  0.00    -0.205 F 
ATOM     85  C   UNL A   1      33.953  31.224  27.734  1.00  0.00     0.022 A 
BRANCH  83  86
ATOM     86  S   UNL A   1      33.884  33.864  28.444  1.00  0.00     0.127 S 
ATOM     87  O   UNL A   1      33.658  34.095  29.869  1.00  0.00    -0.237 OA
ATOM     88  O   UNL A   1      34.948  34.672  27.849  1.00  0.00    -0.237 OA
ATOM     89  O   UNL A   1      32.684  33.753  27.626  1.00  0.00    -0.744 OA
ENDBRANCH  83  86
ENDBRANCH  55  79
BRANCH  67  90
ATOM     90  C   UNL A   1      38.358  31.979  35.742  1.00  0.00     0.023 A 
ATOM     91  C   UNL A   1      38.168  33.368  35.603  1.00  0.00     0.012 A 
ATOM     92  C   UNL A   1      37.904  31.333  36.909  1.00  0.00     0.148 A 
ATOM     93  C   UNL A   1      37.569  34.106  36.625  1.00  0.00     0.002 A 
ATOM     94  C   UNL A   1      37.260  32.065  37.898  1.00  0.00     0.091 A 
ATOM     95  F   UNL A   1      38.106  30.012  37.028  1.00  0.00    -0.205 F 
ATOM     96  C   UNL A   1      37.104  33.453  37.764  1.00  0.00     0.022 A 
BRANCH  94  97
ATOM     97  S   UNL A   1      36.538  31.296  39.352  1.00  0.00     0.127 S 
ATOM     98  O   UNL A   1      35.917  30.103  38.780  1.00  0.00    -0.237 OA
ATOM     99  O   UNL A   1      37.717  31.034  40.179  1.00  0.00    -0.237 OA
ATOM    100  O   UNL A   1      35.613  32.273  39.910  1.00  0.00    -0.744 OA
ENDBRANCH  94  97
ENDBRANCH  67  90
ENDBRANCH  41  42
ENDBRANCH  34  36
ENDBRANCH  33  34
ENDBRANCH  32  33
ENDBRANCH  31  32
ENDBRANCH  30  31
ENDBRANCH  29  30
ENDBRANCH  28  29
ENDBRANCH   1  28
TORSDOF 26
ENDMDL
MODEL 2
REMARK VINA RESULT:     -10.1      2.712      9.430
REMARK SMILES CC1(C)C(C(=O)Nc2ccc(CC(=O)OCCOCCOCCOCCOC(=O)c3ccc(-c4c5nc(c(-c6cccc(S(=O)(=O)[O-])c6F)c6ccc([nH]6)c(-c6cccc(S(=O)(=O)[O-])c6F)c6nc(c(-c7cccc(S(=O)(=O)[O-])c7F)c7ccc4[nH]7)C=C6)C=C5)cc3)cc2)C1(C)C
REMARK SMILES IDX 21 1 20 2 19 3 18 4 17 5 16 6 15 7 13 8 14 9 12 10 11 11
REMARK SMILES IDX 8 12 9 13 94 14 10 15 93 16 7 17 5 18 6 19 4 21 1 22 2 23
REMARK SMILES IDX 3 24 95 25 96 26 97 27 22 28 23 29 24 30 25 31 26 32 27 33
REMARK SMILES IDX 28 34 29 35 30 36 31 37 92 38 32 39 91 40 33 41 34 42 35 43
REMARK SMILES IDX 85 44 36 45 90 46 84 47 86 48 37 49 89 50 83 51 82 52 38 54
REMARK SMILES IDX 70 55 50 56 69 57 51 58 54 59 68 60 87 61 52 62 53 63 67 65
REMARK SMILES IDX 88 66 55 67 39 68 40 69 48 70 41 71 43 72 49 73 42 74 44 75
REMARK SMILES IDX 45 76 46 77 47 78 71 79 72 80 80 81 73 82 75 83 81 84 74 85
REMARK SMILES IDX 76 86 77 87 78 88 79 89 56 90 57 91 65 92 58 93 60 94 66 95
REMARK SMILES IDX 59 96 61 97 62 98 63 99 64 100
REMARK H PARENT 7 20 86 53 54 64
REMARK Flexibility Score: inf
ROOT
ATOM      1  O   UNL A   1      33.025  29.323  26.078  1.00  0.00    -0.377 OA
ENDROOT
BRANCH   1   2
ATOM      2  C   UNL A   1      32.902  28.331  27.079  1.00  0.00     0.188 C 
BRANCH   2   3
ATOM      3  C   UNL A   1      31.526  27.634  27.098  1.00  0.00     0.188 C 
BRANCH   3   4
ATOM      4  O   UNL A   1      31.405  26.209  27.071  1.00  0.00    -0.376 OA
BRANCH   4   5
ATOM      5  C   UNL A   1      30.664  25.597  26.028  1.00  0.00     0.202 C 
BRANCH   5   6
ATOM      6  C   UNL A   1      31.491  25.075  24.841  1.00  0.00     0.261 C 
BRANCH   6   7
ATOM      7  O   UNL A   1      32.203  26.081  24.096  1.00  0.00    -0.463 OA
BRANCH   7   8
ATOM      8  C   UNL A   1      33.524  25.863  23.895  1.00  0.00     0.310 C 
ATOM      9  O   UNL A   1      34.074  25.911  22.797  1.00  0.00    -0.252 OA
BRANCH   8  10
ATOM     10  C   UNL A   1      34.300  25.504  25.145  1.00  0.00     0.158 C 
BRANCH  10  11
ATOM     11  C   UNL A   1      35.015  24.172  25.276  1.00  0.00    -0.037 A 
ATOM     12  C   UNL A   1      35.862  21.508  25.157  1.00  0.00     0.041 A 
ATOM     13  C   UNL A   1      36.425  22.438  24.289  1.00  0.00     0.026 A 
ATOM     14  C   UNL A   1      35.106  21.943  26.240  1.00  0.00     0.026 A 
ATOM     15  C   UNL A   1      35.958  23.758  24.313  1.00  0.00     0.006 A 
ATOM     16  C   UNL A   1      34.681  23.275  26.300  1.00  0.00     0.006 A 
BRANCH  12  17
ATOM     17  N   UNL A   1      36.017  20.149  24.860  1.00  0.00    -0.326 N 
ATOM     18  C   UNL A   1      35.030  19.187  24.800  1.00  0.00     0.228 C 
ATOM     19  O   UNL A   1      35.254  18.111  25.362  1.00  0.00    -0.274 OA
ATOM     20  H   UNL A   1      36.934  19.844  24.671  1.00  0.00     0.169 HD
BRANCH  18  21
ATOM     21  C   UNL A   1      33.875  19.206  23.829  1.00  0.00     0.091 C 
ATOM     22  C   UNL A   1      32.282  17.564  22.608  1.00  0.00     0.012 C 
ATOM     23  C   UNL A   1      32.604  18.357  23.863  1.00  0.00    -0.017 C 
ATOM     24  C   UNL A   1      32.155  17.584  25.073  1.00  0.00     0.012 C 
ATOM     25  C   UNL A   1      32.525  19.910  23.819  1.00  0.00    -0.017 C 
ATOM     26  C   UNL A   1      32.097  20.570  22.519  1.00  0.00     0.012 C 
ATOM     27  C   UNL A   1      32.063  20.748  24.976  1.00  0.00     0.012 C 
ENDBRANCH  18  21
ENDBRANCH  12  17
ENDBRANCH  10  11
ENDBRANCH   8  10
ENDBRANCH   7   8
ENDBRANCH   6   7
ENDBRANCH   5   6
ENDBRANCH   4   5
ENDBRANCH   3   4
ENDBRANCH   2   3
ENDBRANCH   1   2
BRANCH   1  28
ATOM     28  C   UNL A   1      32.179  29.137  24.964  1.00  0.00     0.188 C 
BRANCH  28  29
ATOM     29  C   UNL A   1      31.106  30.227  24.863  1.00  0.00     0.188 C 
BRANCH  29  30
ATOM     30  O   UNL A   1      31.011  30.982  26.064  1.00  0.00    -0.376 OA
BRANCH  30  31
ATOM     31  C   UNL A   1      31.047  32.393  26.032  1.00  0.00     0.202 C 
BRANCH  31  32
ATOM     32  C   UNL A   1      31.790  33.203  27.110  1.00  0.00     0.261 C 
BRANCH  32  33
ATOM     33  O   UNL A   1      33.212  33.300  27.017  1.00  0.00    -0.460 OA
BRANCH  33  34
ATOM     34  C   UNL A   1      33.859  33.978  27.990  1.00  0.00     0.338 C 
ATOM     35  O   UNL A   1      33.461  34.978  28.566  1.00  0.00    -0.246 OA
BRANCH  34  36
ATOM     36  C   UNL A   1      35.033  33.171  28.391  1.00  0.00     0.060 A 
ATOM     37  C   UNL A   1      34.827  31.848  28.803  1.00  0.00     0.016 A 
ATOM     38  C   UNL A   1      36.328  33.694  28.316  1.00  0.00     0.016 A 
ATOM     39  C   UNL A   1      35.912  31.046  29.152  1.00  0.00     0.010 A 
ATOM     40  C   UNL A   1      37.411  32.902  28.709  1.00  0.00     0.010 A 
ATOM     41  C   UNL A   1      37.203  31.586  29.156  1.00  0.00    -0.014 A 
BRANCH  41  42
ATOM     42  C   UNL A   1      38.285  30.858  29.859  1.00  0.00     0.031 A 
ATOM     43  C   UNL A   1      38.541  31.210  31.299  1.00  0.00     0.074 A 
ATOM     44  C   UNL A   1      39.011  29.906  29.250  1.00  0.00     0.049 A 
ATOM     45  N   UNL A   1      39.442  30.745  32.120  1.00  0.00    -0.248 NA
ATOM     46  C   UNL A   1      37.654  32.229  31.891  1.00  0.00     0.031 C 
ATOM     47  C   UNL A   1      38.840  29.461  27.869  1.00  0.00     0.029 A 
ATOM     48  N   UNL A   1      40.061  29.156  29.719  1.00  0.00    -0.354 N 
ATOM     49  C   UNL A   1      39.253  31.430  33.314  1.00  0.00     0.074 A 
ATOM     50  C   UNL A   1      38.157  32.351  33.109  1.00  0.00     0.031 C 
ATOM     51  C   UNL A   1      39.779  28.540  27.589  1.00  0.00     0.029 A 
ATOM     52  C   UNL A   1      40.632  28.350  28.762  1.00  0.00     0.049 A 
ATOM     53  H   UNL A   1      40.376  29.192  30.651  1.00  0.00     0.167 HD
ATOM     54  C   UNL A   1      39.926  31.302  34.480  1.00  0.00     0.034 A 
ATOM     55  C   UNL A   1      41.733  27.574  28.824  1.00  0.00     0.034 A 
ATOM     56  C   UNL A   1      41.015  30.387  34.680  1.00  0.00     0.049 A 
ATOM     57  C   UNL A   1      42.496  27.483  30.122  1.00  0.00     0.074 A 
ATOM     58  C   UNL A   1      41.740  30.153  35.833  1.00  0.00     0.029 A 
ATOM     59  N   UNL A   1      41.548  29.568  33.697  1.00  0.00    -0.354 N 
ATOM     60  N   UNL A   1      42.240  28.055  31.274  1.00  0.00    -0.248 NA
ATOM     61  C   UNL A   1      43.682  26.614  30.138  1.00  0.00     0.031 C 
ATOM     62  C   UNL A   1      42.741  29.223  35.536  1.00  0.00     0.029 A 
ATOM     63  C   UNL A   1      42.607  28.841  34.210  1.00  0.00     0.049 A 
ATOM     64  H   UNL A   1      41.222  29.512  32.769  1.00  0.00     0.167 HD
ATOM     65  C   UNL A   1      43.207  27.586  32.159  1.00  0.00     0.074 A 
ATOM     66  C   UNL A   1      44.042  26.667  31.413  1.00  0.00     0.031 C 
ATOM     67  C   UNL A   1      43.396  27.893  33.466  1.00  0.00     0.034 A 
BRANCH  54  68
ATOM     68  C   UNL A   1      39.501  32.177  35.630  1.00  0.00     0.023 A 
ATOM     69  C   UNL A   1      38.686  31.648  36.651  1.00  0.00     0.012 A 
ATOM     70  C   UNL A   1      39.946  33.509  35.717  1.00  0.00     0.148 A 
ATOM     71  C   UNL A   1      38.291  32.444  37.726  1.00  0.00     0.002 A 
ATOM     72  C   UNL A   1      39.588  34.281  36.815  1.00  0.00     0.091 A 
ATOM     73  F   UNL A   1      40.697  33.999  34.722  1.00  0.00    -0.205 F 
ATOM     74  C   UNL A   1      38.752  33.756  37.813  1.00  0.00     0.022 A 
BRANCH  72  75
ATOM     75  S   UNL A   1      40.194  35.954  37.061  1.00  0.00     0.127 S 
ATOM     76  O   UNL A   1      41.636  35.733  37.156  1.00  0.00    -0.237 OA
ATOM     77  O   UNL A   1      39.758  36.620  35.834  1.00  0.00    -0.237 OA
ATOM     78  O   UNL A   1      39.557  36.439  38.277  1.00  0.00    -0.744 OA
ENDBRANCH  72  75
ENDBRANCH  54  68
BRANCH  55  79
ATOM     79  C   UNL A   1      42.181  26.808  27.625  1.00  0.00     0.023 A 
ATOM     80  C   UNL A   1      42.861  27.472  26.585  1.00  0.00     0.012 A 
ATOM     81  C   UNL A   1      41.928  25.426  27.507  1.00  0.00     0.148 A 
ATOM     82  C   UNL A   1      43.248  26.783  25.435  1.00  0.00     0.002 A 
ATOM     83  C   UNL A   1      42.366  24.736  26.384  1.00  0.00     0.091 A 
ATOM     84  F   UNL A   1      41.264  24.816  28.498  1.00  0.00    -0.205 F 
ATOM     85  C   UNL A   1      43.009  25.414  25.337  1.00  0.00     0.022 A 
BRANCH  83  86
ATOM     86  S   UNL A   1      42.211  22.953  26.225  1.00  0.00     0.127 S 
ATOM     87  O   UNL A   1      40.768  22.764  26.352  1.00  0.00    -0.237 OA
ATOM     88  O   UNL A   1      42.748  22.725  24.883  1.00  0.00    -0.237 OA
ATOM     89  O   UNL A   1      43.018  22.389  27.299  1.00  0.00    -0.744 OA
ENDBRANCH  83  86
ENDBRANCH  55  79
BRANCH  67  90
ATOM     90  C   UNL A   1      44.516  27.198  34.200  1.00  0.00     0.023 A 
ATOM     91  C   UNL A   1      45.740  27.861  34.414  1.00  0.00     0.012 A 
ATOM     92  C   UNL A   1      44.321  25.913  34.745  1.00  0.00     0.148 A 
ATOM     93  C   UNL A   1      46.766  27.241  35.129  1.00  0.00     0.002 A 
ATOM     94  C   UNL A   1      45.327  25.324  35.501  1.00  0.00     0.091 A 
ATOM     95  F   UNL A   1      43.154  25.293  34.518  1.00  0.00    -0.205 F 
ATOM     96  C   UNL A   1      46.554  25.980  35.682  1.00  0.00     0.022 A 
BRANCH  94  97
ATOM     97  S   UNL A   1      45.109  23.750  36.337  1.00  0.00     0.127 S 
ATOM     98  O   UNL A   1      46.408  23.115  36.121  1.00  0.00    -0.237 OA
ATOM     99  O   UNL A   1      44.855  24.165  37.718  1.00  0.00    -0.237 OA
ATOM    100  O   UNL A   1      43.981  23.098  35.685  1.00  0.00    -0.744 OA
ENDBRANCH  94  97
ENDBRANCH  67  90
ENDBRANCH  41  42
ENDBRANCH  34  36
ENDBRANCH  33  34
ENDBRANCH  32  33
ENDBRANCH  31  32
ENDBRANCH  30  31
ENDBRANCH  29  30
ENDBRANCH  28  29
ENDBRANCH   1  28
TORSDOF 26
ENDMDL
MODEL 3
REMARK VINA RESULT:      -9.9      5.723     10.039
REMARK SMILES CC1(C)C(C(=O)Nc2ccc(CC(=O)OCCOCCOCCOCCOC(=O)c3ccc(-c4c5nc(c(-c6cccc(S(=O)(=O)[O-])c6F)c6ccc([nH]6)c(-c6cccc(S(=O)(=O)[O-])c6F)c6nc(c(-c7cccc(S(=O)(=O)[O-])c7F)c7ccc4[nH]7)C=C6)C=C5)cc3)cc2)C1(C)C
REMARK SMILES IDX 21 1 20 2 19 3 18 4 17 5 16 6 15 7 13 8 14 9 12 10 11 11
REMARK SMILES IDX 8 12 9 13 94 14 10 15 93 16 7 17 5 18 6 19 4 21 1 22 2 23
REMARK SMILES IDX 3 24 95 25 96 26 97 27 22 28 23 29 24 30 25 31 26 32 27 33
REMARK SMILES IDX 28 34 29 35 30 36 31 37 92 38 32 39 91 40 33 41 34 42 35 43
REMARK SMILES IDX 85 44 36 45 90 46 84 47 86 48 37 49 89 50 83 51 82 52 38 54
REMARK SMILES IDX 70 55 50 56 69 57 51 58 54 59 68 60 87 61 52 62 53 63 67 65
REMARK SMILES IDX 88 66 55 67 39 68 40 69 48 70 41 71 43 72 49 73 42 74 44 75
REMARK SMILES IDX 45 76 46 77 47 78 71 79 72 80 80 81 73 82 75 83 81 84 74 85
REMARK SMILES IDX 76 86 77 87 78 88 79 89 56 90 57 91 65 92 58 93 60 94 66 95
REMARK SMILES IDX 59 96 61 97 62 98 63 99 64 100
REMARK H PARENT 7 20 86 53 54 64
REMARK Flexibility Score: inf
ROOT
ATOM      1  O   UNL A   1      39.711  22.314  26.994  1.00  0.00    -0.377 OA
ENDROOT
BRANCH   1   2
ATOM      2  C   UNL A   1      39.406  21.429  25.933  1.00  0.00     0.188 C 
BRANCH   2   3
ATOM      3  C   UNL A   1      37.967  21.574  25.396  1.00  0.00     0.188 C 
BRANCH   3   4
ATOM      4  O   UNL A   1      37.306  22.841  25.350  1.00  0.00    -0.376 OA
BRANCH   4   5
ATOM      5  C   UNL A   1      36.147  23.046  26.141  1.00  0.00     0.202 C 
BRANCH   5   6
ATOM      6  C   UNL A   1      34.821  23.142  25.368  1.00  0.00     0.261 C 
BRANCH   6   7
ATOM      7  O   UNL A   1      34.681  22.224  24.268  1.00  0.00    -0.463 OA
BRANCH   7   8
ATOM      8  C   UNL A   1      33.874  21.156  24.469  1.00  0.00     0.310 C 
ATOM      9  O   UNL A   1      34.243  20.092  24.961  1.00  0.00    -0.252 OA
BRANCH   8  10
ATOM     10  C   UNL A   1      32.449  21.346  23.992  1.00  0.00     0.158 C 
BRANCH  10  11
ATOM     11  C   UNL A   1      31.568  22.447  24.554  1.00  0.00    -0.037 A 
ATOM     12  C   UNL A   1      30.488  24.702  25.808  1.00  0.00     0.041 A 
ATOM     13  C   UNL A   1      30.752  24.746  24.442  1.00  0.00     0.026 A 
ATOM     14  C   UNL A   1      30.498  23.482  26.474  1.00  0.00     0.026 A 
ATOM     15  C   UNL A   1      31.346  23.635  23.830  1.00  0.00     0.006 A 
ATOM     16  C   UNL A   1      31.039  22.353  25.848  1.00  0.00     0.006 A 
BRANCH  12  17
ATOM     17  N   UNL A   1      30.294  25.913  26.483  1.00  0.00    -0.326 N 
ATOM     18  C   UNL A   1      31.221  26.916  26.685  1.00  0.00     0.228 C 
ATOM     19  O   UNL A   1      31.297  27.393  27.820  1.00  0.00    -0.274 OA
ATOM     20  H   UNL A   1      29.396  26.068  26.855  1.00  0.00     0.169 HD
BRANCH  18  21
ATOM     21  C   UNL A   1      31.881  27.705  25.581  1.00  0.00     0.091 C 
ATOM     22  C   UNL A   1      32.810  30.083  25.126  1.00  0.00     0.012 C 
ATOM     23  C   UNL A   1      33.041  28.695  25.698  1.00  0.00    -0.017 C 
ATOM     24  C   UNL A   1      33.929  28.792  26.908  1.00  0.00     0.012 C 
ATOM     25  C   UNL A   1      33.122  27.480  24.729  1.00  0.00    -0.017 C 
ATOM     26  C   UNL A   1      32.996  27.742  23.238  1.00  0.00     0.012 C 
ATOM     27  C   UNL A   1      34.029  26.304  24.951  1.00  0.00     0.012 C 
ENDBRANCH  18  21
ENDBRANCH  12  17
ENDBRANCH  10  11
ENDBRANCH   8  10
ENDBRANCH   7   8
ENDBRANCH   6   7
ENDBRANCH   5   6
ENDBRANCH   4   5
ENDBRANCH   3   4
ENDBRANCH   2   3
ENDBRANCH   1   2
BRANCH   1  28
ATOM     28  C   UNL A   1      40.926  22.037  27.655  1.00  0.00     0.188 C 
BRANCH  28  29
ATOM     29  C   UNL A   1      41.851  21.145  26.820  1.00  0.00     0.188 C 
BRANCH  29  30
ATOM     30  O   UNL A   1      42.267  19.996  27.547  1.00  0.00    -0.376 OA
BRANCH  30  31
ATOM     31  C   UNL A   1      42.622  18.806  26.874  1.00  0.00     0.202 C 
BRANCH  31  32
ATOM     32  C   UNL A   1      43.098  18.824  25.409  1.00  0.00     0.261 C 
BRANCH  32  33
ATOM     33  O   UNL A   1      44.491  19.015  25.157  1.00  0.00    -0.460 OA
BRANCH  33  34
ATOM     34  C   UNL A   1      44.838  19.867  24.169  1.00  0.00     0.338 C 
ATOM     35  O   UNL A   1      44.891  19.614  22.977  1.00  0.00    -0.246 OA
BRANCH  34  36
ATOM     36  C   UNL A   1      44.928  21.221  24.760  1.00  0.00     0.060 A 
ATOM     37  C   UNL A   1      44.546  22.319  23.977  1.00  0.00     0.016 A 
ATOM     38  C   UNL A   1      45.335  21.406  26.085  1.00  0.00     0.016 A 
ATOM     39  C   UNL A   1      44.580  23.606  24.511  1.00  0.00     0.010 A 
ATOM     40  C   UNL A   1      45.412  22.702  26.604  1.00  0.00     0.010 A 
ATOM     41  C   UNL A   1      45.063  23.808  25.810  1.00  0.00    -0.014 A 
BRANCH  41  42
ATOM     42  C   UNL A   1      45.432  25.177  26.235  1.00  0.00     0.031 A 
ATOM     43  C   UNL A   1      44.328  26.082  26.710  1.00  0.00     0.074 A 
ATOM     44  C   UNL A   1      46.706  25.607  26.217  1.00  0.00     0.049 A 
ATOM     45  N   UNL A   1      44.385  27.325  27.104  1.00  0.00    -0.248 NA
ATOM     46  C   UNL A   1      42.974  25.499  26.744  1.00  0.00     0.031 C 
ATOM     47  C   UNL A   1      47.862  24.815  25.801  1.00  0.00     0.029 A 
ATOM     48  N   UNL A   1      47.232  26.833  26.536  1.00  0.00    -0.354 N 
ATOM     49  C   UNL A   1      43.077  27.684  27.405  1.00  0.00     0.074 A 
ATOM     50  C   UNL A   1      42.245  26.531  27.139  1.00  0.00     0.031 C 
ATOM     51  C   UNL A   1      48.961  25.590  25.856  1.00  0.00     0.029 A 
ATOM     52  C   UNL A   1      48.581  26.935  26.286  1.00  0.00     0.049 A 
ATOM     53  H   UNL A   1      46.696  27.570  26.910  1.00  0.00     0.167 HD
ATOM     54  C   UNL A   1      42.607  28.865  27.867  1.00  0.00     0.034 A 
ATOM     55  C   UNL A   1      49.401  28.002  26.366  1.00  0.00     0.034 A 
ATOM     56  C   UNL A   1      43.436  30.009  28.128  1.00  0.00     0.049 A 
ATOM     57  C   UNL A   1      48.845  29.322  26.839  1.00  0.00     0.074 A 
ATOM     58  C   UNL A   1      43.064  31.241  28.632  1.00  0.00     0.029 A 
ATOM     59  N   UNL A   1      44.799  30.067  27.887  1.00  0.00    -0.354 N 
ATOM     60  N   UNL A   1      47.627  29.618  27.224  1.00  0.00    -0.248 NA
ATOM     61  C   UNL A   1      49.785  30.451  26.919  1.00  0.00     0.031 C 
ATOM     62  C   UNL A   1      44.197  32.060  28.656  1.00  0.00     0.029 A 
ATOM     63  C   UNL A   1      45.283  31.320  28.213  1.00  0.00     0.049 A 
ATOM     64  H   UNL A   1      45.343  29.326  27.535  1.00  0.00     0.167 HD
ATOM     65  C   UNL A   1      47.663  30.949  27.627  1.00  0.00     0.074 A 
ATOM     66  C   UNL A   1      49.030  31.397  27.459  1.00  0.00     0.031 C 
ATOM     67  C   UNL A   1      46.657  31.735  28.086  1.00  0.00     0.034 A 
BRANCH  54  68
ATOM     68  C   UNL A   1      41.127  28.977  28.117  1.00  0.00     0.023 A 
ATOM     69  C   UNL A   1      40.250  29.229  27.042  1.00  0.00     0.012 A 
ATOM     70  C   UNL A   1      40.603  28.791  29.410  1.00  0.00     0.148 A 
ATOM     71  C   UNL A   1      38.875  29.328  27.257  1.00  0.00     0.002 A 
ATOM     72  C   UNL A   1      39.229  28.843  29.608  1.00  0.00     0.091 A 
ATOM     73  F   UNL A   1      41.456  28.580  30.421  1.00  0.00    -0.205 F 
ATOM     74  C   UNL A   1      38.365  29.123  28.537  1.00  0.00     0.022 A 
BRANCH  72  75
ATOM     75  S   UNL A   1      38.467  28.515  31.201  1.00  0.00     0.127 S 
ATOM     76  O   UNL A   1      37.083  28.915  30.952  1.00  0.00    -0.237 OA
ATOM     77  O   UNL A   1      38.669  27.073  31.345  1.00  0.00    -0.237 OA
ATOM     78  O   UNL A   1      39.187  29.331  32.168  1.00  0.00    -0.744 OA
ENDBRANCH  72  75
ENDBRANCH  54  68
BRANCH  55  79
ATOM     79  C   UNL A   1      50.842  27.872  26.003  1.00  0.00     0.023 A 
ATOM     80  C   UNL A   1      51.810  27.741  27.018  1.00  0.00     0.012 A 
ATOM     81  C   UNL A   1      51.258  27.886  24.656  1.00  0.00     0.148 A 
ATOM     82  C   UNL A   1      53.167  27.663  26.701  1.00  0.00     0.002 A 
ATOM     83  C   UNL A   1      52.605  27.751  24.346  1.00  0.00     0.091 A 
ATOM     84  F   UNL A   1      50.324  28.029  23.706  1.00  0.00    -0.205 F 
ATOM     85  C   UNL A   1      53.564  27.660  25.366  1.00  0.00     0.022 A 
BRANCH  83  86
ATOM     86  S   UNL A   1      53.198  27.614  22.656  1.00  0.00     0.127 S 
ATOM     87  O   UNL A   1      54.508  28.255  22.744  1.00  0.00    -0.237 OA
ATOM     88  O   UNL A   1      53.232  26.163  22.468  1.00  0.00    -0.237 OA
ATOM     89  O   UNL A   1      52.213  28.304  21.834  1.00  0.00    -0.744 OA
ENDBRANCH  83  86
ENDBRANCH  55  79
BRANCH  67  90
ATOM     90  C   UNL A   1      46.995  33.148  28.490  1.00  0.00     0.023 A 
ATOM     91  C   UNL A   1      47.362  33.436  29.820  1.00  0.00     0.012 A 
ATOM     92  C   UNL A   1      47.025  34.177  27.528  1.00  0.00     0.148 A 
ATOM     93  C   UNL A   1      47.717  34.733  30.192  1.00  0.00     0.002 A 
ATOM     94  C   UNL A   1      47.432  35.454  27.894  1.00  0.00     0.091 A 
ATOM     95  F   UNL A   1      46.659  33.886  26.270  1.00  0.00    -0.205 F 
ATOM     96  C   UNL A   1      47.764  35.737  29.228  1.00  0.00     0.022 A 
BRANCH  94  97
ATOM     97  S   UNL A   1      47.621  36.784  26.702  1.00  0.00     0.127 S 
ATOM     98  O   UNL A   1      47.578  37.964  27.564  1.00  0.00    -0.237 OA
ATOM     99  O   UNL A   1      48.935  36.497  26.125  1.00  0.00    -0.237 OA
ATOM    100  O   UNL A   1      46.509  36.654  25.770  1.00  0.00    -0.744 OA
ENDBRANCH  94  97
ENDBRANCH  67  90
ENDBRANCH  41  42
ENDBRANCH  34  36
ENDBRANCH  33  34
ENDBRANCH  32  33
ENDBRANCH  31  32
ENDBRANCH  30  31
ENDBRANCH  29  30
ENDBRANCH  28  29
ENDBRANCH   1  28
TORSDOF 26
ENDMDL
