MODEL 1
REMARK VINA RESULT:     -10.7      0.000      0.000
REMARK SMILES O=C(OCCOCCOCCOCCOC(=O)c1ccc2c(c1O)C(=O)c1ccccc1C2=O)c1ccc(-c2c3nc(c(-c4cccc(S(=O)(=O)[O-])c4F)c4ccc([nH]4)c(-c4cccc(S(=O)(=O)[O-])c4F)c4nc(c(-c5cccc(S(=O)(=O)[O-])c5F)c5ccc2[nH]5)C=C4)C=C3)cc1
REMARK SMILES IDX 8 1 7 2 6 3 5 4 4 5 3 6 2 7 1 8 35 9 36 10 97 11 37 12 96 13
REMARK SMILES IDX 38 14 39 15 40 16 90 17 41 18 95 19 89 20 91 21 42 22 94 23
REMARK SMILES IDX 88 24 87 25 43 27 75 28 55 29 74 30 56 31 59 32 73 33 92 34
REMARK SMILES IDX 57 35 58 36 72 38 93 39 60 40 44 41 45 42 53 43 46 44 48 45
REMARK SMILES IDX 54 46 47 47 49 48 50 49 51 50 52 51 76 52 77 53 85 54 78 55
REMARK SMILES IDX 80 56 86 57 79 58 81 59 82 60 83 61 84 62 61 63 62 64 70 65
REMARK SMILES IDX 63 66 65 67 71 68 64 69 66 70 67 71 68 72 69 73 9 74 10 75
REMARK SMILES IDX 11 76 12 77 13 78 14 79 15 80 16 81 17 82 18 83 19 84 23 85
REMARK SMILES IDX 20 86 22 87 21 88 25 89 33 90 26 91 27 92 32 93 34 94 28 95
REMARK SMILES IDX 31 96 29 97 30 98 24 99
REMARK H PARENT 91 26 59 37 24 100
REMARK Flexibility Score: inf
ROOT
ATOM      1  C   UNL A   1      35.538  22.844  24.133  1.00  0.00     0.188 C 
ENDROOT
BRANCH   1   2
ATOM      2  C   UNL A   1      36.245  21.589  24.648  1.00  0.00     0.188 C 
BRANCH   2   3
ATOM      3  O   UNL A   1      37.663  21.713  24.515  1.00  0.00    -0.376 OA
BRANCH   3   4
ATOM      4  C   UNL A   1      38.433  21.122  25.561  1.00  0.00     0.202 C 
BRANCH   4   5
ATOM      5  C   UNL A   1      38.948  19.717  25.241  1.00  0.00     0.261 C 
BRANCH   5   6
ATOM      6  O   UNL A   1      39.942  19.287  26.179  1.00  0.00    -0.460 OA
BRANCH   6   7
ATOM      7  C   UNL A   1      41.272  19.562  26.159  1.00  0.00     0.338 C 
ATOM      8  O   UNL A   1      42.040  18.658  25.828  1.00  0.00    -0.246 OA
BRANCH   7   9
ATOM      9  C   UNL A   1      41.865  20.899  26.494  1.00  0.00     0.060 A 
ATOM     10  C   UNL A   1      42.240  21.332  27.769  1.00  0.00     0.016 A 
ATOM     11  C   UNL A   1      42.106  21.769  25.416  1.00  0.00     0.016 A 
ATOM     12  C   UNL A   1      42.747  22.602  27.992  1.00  0.00     0.010 A 
ATOM     13  C   UNL A   1      42.644  23.044  25.624  1.00  0.00     0.010 A 
ATOM     14  C   UNL A   1      42.924  23.474  26.925  1.00  0.00    -0.014 A 
BRANCH  14  15
ATOM     15  C   UNL A   1      43.218  24.881  27.237  1.00  0.00     0.031 A 
ATOM     16  C   UNL A   1      44.557  25.416  26.827  1.00  0.00     0.074 A 
ATOM     17  C   UNL A   1      42.262  25.674  27.747  1.00  0.00     0.049 A 
ATOM     18  N   UNL A   1      45.064  26.602  27.009  1.00  0.00    -0.248 NA
ATOM     19  C   UNL A   1      45.440  24.489  26.095  1.00  0.00     0.031 C 
ATOM     20  C   UNL A   1      40.896  25.251  28.064  1.00  0.00     0.029 A 
ATOM     21  N   UNL A   1      42.287  27.003  28.079  1.00  0.00    -0.354 N 
ATOM     22  C   UNL A   1      46.344  26.546  26.472  1.00  0.00     0.074 A 
ATOM     23  C   UNL A   1      46.530  25.220  25.933  1.00  0.00     0.031 C 
ATOM     24  C   UNL A   1      40.216  26.300  28.556  1.00  0.00     0.029 A 
ATOM     25  C   UNL A   1      41.114  27.446  28.642  1.00  0.00     0.049 A 
ATOM     26  H   UNL A   1      43.068  27.582  27.929  1.00  0.00     0.167 HD
ATOM     27  C   UNL A   1      47.280  27.520  26.444  1.00  0.00     0.034 A 
ATOM     28  C   UNL A   1      40.826  28.638  29.200  1.00  0.00     0.034 A 
ATOM     29  C   UNL A   1      47.056  28.832  26.977  1.00  0.00     0.049 A 
ATOM     30  C   UNL A   1      41.902  29.691  29.198  1.00  0.00     0.074 A 
ATOM     31  C   UNL A   1      47.931  29.898  27.044  1.00  0.00     0.029 A 
ATOM     32  N   UNL A   1      45.860  29.251  27.545  1.00  0.00    -0.354 N 
ATOM     33  N   UNL A   1      43.108  29.636  28.679  1.00  0.00    -0.248 NA
ATOM     34  C   UNL A   1      41.583  30.971  29.842  1.00  0.00     0.031 C 
ATOM     35  C   UNL A   1      47.270  30.955  27.680  1.00  0.00     0.029 A 
ATOM     36  C   UNL A   1      45.974  30.557  27.976  1.00  0.00     0.049 A 
ATOM     37  H   UNL A   1      45.051  28.697  27.630  1.00  0.00     0.167 HD
ATOM     38  C   UNL A   1      43.684  30.878  28.914  1.00  0.00     0.074 A 
ATOM     39  C   UNL A   1      42.682  31.673  29.599  1.00  0.00     0.031 C 
ATOM     40  C   UNL A   1      44.929  31.322  28.612  1.00  0.00     0.034 A 
BRANCH  27  41
ATOM     41  C   UNL A   1      48.622  27.167  25.866  1.00  0.00     0.023 A 
ATOM     42  C   UNL A   1      49.620  26.595  26.680  1.00  0.00     0.012 A 
ATOM     43  C   UNL A   1      48.901  27.428  24.510  1.00  0.00     0.148 A 
ATOM     44  C   UNL A   1      50.888  26.323  26.163  1.00  0.00     0.002 A 
ATOM     45  C   UNL A   1      50.151  27.118  23.993  1.00  0.00     0.091 A 
ATOM     46  F   UNL A   1      47.948  28.002  23.763  1.00  0.00    -0.205 F 
ATOM     47  C   UNL A   1      51.150  26.578  24.820  1.00  0.00     0.022 A 
BRANCH  45  48
ATOM     48  S   UNL A   1      50.571  27.358  22.263  1.00  0.00     0.127 S 
ATOM     49  O   UNL A   1      50.370  28.798  22.108  1.00  0.00    -0.237 OA
ATOM     50  O   UNL A   1      51.969  26.930  22.226  1.00  0.00    -0.237 OA
ATOM     51  O   UNL A   1      49.655  26.517  21.505  1.00  0.00    -0.744 OA
ENDBRANCH  45  48
ENDBRANCH  27  41
BRANCH  28  52
ATOM     52  C   UNL A   1      39.486  28.881  29.808  1.00  0.00     0.023 A 
ATOM     53  C   UNL A   1      39.239  28.507  31.143  1.00  0.00     0.012 A 
ATOM     54  C   UNL A   1      38.459  29.510  29.074  1.00  0.00     0.148 A 
ATOM     55  C   UNL A   1      37.989  28.733  31.726  1.00  0.00     0.002 A 
ATOM     56  C   UNL A   1      37.237  29.785  29.679  1.00  0.00     0.091 A 
ATOM     57  F   UNL A   1      38.699  29.838  27.797  1.00  0.00    -0.205 F 
ATOM     58  C   UNL A   1      36.995  29.382  31.000  1.00  0.00     0.022 A 
BRANCH  56  59
ATOM     59  S   UNL A   1      35.951  30.735  28.859  1.00  0.00     0.127 S 
ATOM     60  O   UNL A   1      35.306  31.401  29.987  1.00  0.00    -0.237 OA
ATOM     61  O   UNL A   1      36.733  31.614  27.989  1.00  0.00    -0.237 OA
ATOM     62  O   UNL A   1      35.136  29.760  28.147  1.00  0.00    -0.744 OA
ENDBRANCH  56  59
ENDBRANCH  28  52
BRANCH  40  63
ATOM     63  C   UNL A   1      45.265  32.737  28.990  1.00  0.00     0.023 A 
ATOM     64  C   UNL A   1      45.890  33.003  30.223  1.00  0.00     0.012 A 
ATOM     65  C   UNL A   1      45.053  33.784  28.073  1.00  0.00     0.148 A 
ATOM     66  C   UNL A   1      46.276  34.301  30.550  1.00  0.00     0.002 A 
ATOM     67  C   UNL A   1      45.490  35.064  28.384  1.00  0.00     0.091 A 
ATOM     68  F   UNL A   1      44.438  33.506  26.914  1.00  0.00    -0.205 F 
ATOM     69  C   UNL A   1      46.091  35.327  29.626  1.00  0.00     0.022 A 
BRANCH  67  70
ATOM     70  S   UNL A   1      45.391  36.418  27.208  1.00  0.00     0.127 S 
ATOM     71  O   UNL A   1      46.197  35.908  26.100  1.00  0.00    -0.237 OA
ATOM     72  O   UNL A   1      43.956  36.490  26.937  1.00  0.00    -0.237 OA
ATOM     73  O   UNL A   1      45.934  37.583  27.893  1.00  0.00    -0.744 OA
ENDBRANCH  67  70
ENDBRANCH  40  63
ENDBRANCH  14  15
ENDBRANCH   7   9
ENDBRANCH   6   7
ENDBRANCH   5   6
ENDBRANCH   4   5
ENDBRANCH   3   4
ENDBRANCH   2   3
ENDBRANCH   1   2
BRANCH   1  74
ATOM     74  O   UNL A   1      35.782  24.030  24.889  1.00  0.00    -0.377 OA
BRANCH  74  75
ATOM     75  C   UNL A   1      34.672  24.902  25.078  1.00  0.00     0.188 C 
BRANCH  75  76
ATOM     76  C   UNL A   1      34.006  25.549  23.844  1.00  0.00     0.188 C 
BRANCH  76  77
ATOM     77  O   UNL A   1      33.198  26.680  24.127  1.00  0.00    -0.376 OA
BRANCH  77  78
ATOM     78  C   UNL A   1      33.279  27.183  25.456  1.00  0.00     0.202 C 
BRANCH  78  79
ATOM     79  C   UNL A   1      31.930  27.221  26.187  1.00  0.00     0.261 C 
BRANCH  79  80
ATOM     80  O   UNL A   1      31.568  26.008  26.879  1.00  0.00    -0.460 OA
BRANCH  80  81
ATOM     81  C   UNL A   1      30.454  25.354  26.478  1.00  0.00     0.342 C 
ATOM     82  O   UNL A   1      29.296  25.705  26.606  1.00  0.00    -0.246 OA
BRANCH  81  83
ATOM     83  C   UNL A   1      30.895  24.220  25.636  1.00  0.00     0.102 A 
ATOM     84  C   UNL A   1      30.562  24.261  24.272  1.00  0.00     0.020 A 
ATOM     85  C   UNL A   1      31.695  23.183  26.140  1.00  0.00     0.142 A 
ATOM     86  C   UNL A   1      31.061  23.292  23.405  1.00  0.00     0.014 A 
ATOM     87  C   UNL A   1      32.107  22.150  25.288  1.00  0.00     0.076 A 
ATOM     88  C   UNL A   1      31.811  22.230  23.920  1.00  0.00     0.037 A 
ATOM     89  C   UNL A   1      32.809  20.941  25.786  1.00  0.00     0.198 C 
ATOM     90  C   UNL A   1      32.239  21.153  23.003  1.00  0.00     0.194 C 
ATOM     91  O   UNL A   1      33.420  20.899  26.844  1.00  0.00    -0.288 OA
ATOM     92  C   UNL A   1      32.732  19.722  24.958  1.00  0.00     0.034 A 
ATOM     93  C   UNL A   1      32.498  19.828  23.590  1.00  0.00     0.034 A 
ATOM     94  O   UNL A   1      32.307  21.335  21.795  1.00  0.00    -0.289 OA
ATOM     95  C   UNL A   1      32.865  18.463  25.549  1.00  0.00     0.013 A 
ATOM     96  C   UNL A   1      32.428  18.682  22.793  1.00  0.00     0.013 A 
ATOM     97  C   UNL A   1      32.752  17.315  24.764  1.00  0.00     0.001 A 
ATOM     98  C   UNL A   1      32.543  17.424  23.387  1.00  0.00     0.001 A 
BRANCH  85  99
ATOM     99  O   UNL A   1      32.051  23.167  27.459  1.00  0.00    -0.506 OA
ATOM    100  H   UNL A   1      31.422  22.927  28.111  1.00  0.00     0.293 HD
ENDBRANCH  85  99
ENDBRANCH  81  83
ENDBRANCH  80  81
ENDBRANCH  79  80
ENDBRANCH  78  79
ENDBRANCH  77  78
ENDBRANCH  76  77
ENDBRANCH  75  76
ENDBRANCH  74  75
ENDBRANCH   1  74
TORSDOF 24
ENDMDL
MODEL 2
REMARK VINA RESULT:     -10.2      1.837      2.164
REMARK SMILES O=C(OCCOCCOCCOCCOC(=O)c1ccc2c(c1O)C(=O)c1ccccc1C2=O)c1ccc(-c2c3nc(c(-c4cccc(S(=O)(=O)[O-])c4F)c4ccc([nH]4)c(-c4cccc(S(=O)(=O)[O-])c4F)c4nc(c(-c5cccc(S(=O)(=O)[O-])c5F)c5ccc2[nH]5)C=C4)C=C3)cc1
REMARK SMILES IDX 8 1 7 2 6 3 5 4 4 5 3 6 2 7 1 8 35 9 36 10 97 11 37 12 96 13
REMARK SMILES IDX 38 14 39 15 40 16 90 17 41 18 95 19 89 20 91 21 42 22 94 23
REMARK SMILES IDX 88 24 87 25 43 27 75 28 55 29 74 30 56 31 59 32 73 33 92 34
REMARK SMILES IDX 57 35 58 36 72 38 93 39 60 40 44 41 45 42 53 43 46 44 48 45
REMARK SMILES IDX 54 46 47 47 49 48 50 49 51 50 52 51 76 52 77 53 85 54 78 55
REMARK SMILES IDX 80 56 86 57 79 58 81 59 82 60 83 61 84 62 61 63 62 64 70 65
REMARK SMILES IDX 63 66 65 67 71 68 64 69 66 70 67 71 68 72 69 73 9 74 10 75
REMARK SMILES IDX 11 76 12 77 13 78 14 79 15 80 16 81 17 82 18 83 19 84 23 85
REMARK SMILES IDX 20 86 22 87 21 88 25 89 33 90 26 91 27 92 32 93 34 94 28 95
REMARK SMILES IDX 31 96 29 97 30 98 24 99
REMARK H PARENT 91 26 59 37 24 100
REMARK Flexibility Score: inf
ROOT
ATOM      1  C   UNL A   1      36.064  22.437  24.726  1.00  0.00     0.188 C 
ENDROOT
BRANCH   1   2
ATOM      2  C   UNL A   1      37.048  21.305  25.022  1.00  0.00     0.188 C 
BRANCH   2   3
ATOM      3  O   UNL A   1      38.380  21.808  25.148  1.00  0.00    -0.376 OA
BRANCH   3   4
ATOM      4  C   UNL A   1      39.193  21.162  26.126  1.00  0.00     0.202 C 
BRANCH   4   5
ATOM      5  C   UNL A   1      39.607  19.736  25.753  1.00  0.00     0.261 C 
BRANCH   5   6
ATOM      6  O   UNL A   1      40.918  19.417  26.235  1.00  0.00    -0.460 OA
BRANCH   6   7
ATOM      7  C   UNL A   1      42.106  19.887  25.773  1.00  0.00     0.338 C 
ATOM      8  O   UNL A   1      42.745  19.170  25.003  1.00  0.00    -0.246 OA
BRANCH   7   9
ATOM      9  C   UNL A   1      42.680  21.228  26.124  1.00  0.00     0.060 A 
ATOM     10  C   UNL A   1      43.042  21.653  27.405  1.00  0.00     0.016 A 
ATOM     11  C   UNL A   1      42.917  22.111  25.055  1.00  0.00     0.016 A 
ATOM     12  C   UNL A   1      43.534  22.928  27.642  1.00  0.00     0.010 A 
ATOM     13  C   UNL A   1      43.438  23.389  25.277  1.00  0.00     0.010 A 
ATOM     14  C   UNL A   1      43.706  23.811  26.584  1.00  0.00    -0.014 A 
BRANCH  14  15
ATOM     15  C   UNL A   1      43.981  25.218  26.910  1.00  0.00     0.031 A 
ATOM     16  C   UNL A   1      45.344  25.751  26.585  1.00  0.00     0.074 A 
ATOM     17  C   UNL A   1      42.995  26.014  27.357  1.00  0.00     0.049 A 
ATOM     18  N   UNL A   1      45.839  26.938  26.796  1.00  0.00    -0.248 NA
ATOM     19  C   UNL A   1      46.270  24.822  25.912  1.00  0.00     0.031 C 
ATOM     20  C   UNL A   1      41.612  25.592  27.588  1.00  0.00     0.029 A 
ATOM     21  N   UNL A   1      43.001  27.343  27.686  1.00  0.00    -0.354 N 
ATOM     22  C   UNL A   1      47.151  26.879  26.341  1.00  0.00     0.074 A 
ATOM     23  C   UNL A   1      47.369  25.551  25.817  1.00  0.00     0.031 C 
ATOM     24  C   UNL A   1      40.903  26.643  28.034  1.00  0.00     0.029 A 
ATOM     25  C   UNL A   1      41.795  27.789  28.173  1.00  0.00     0.049 A 
ATOM     26  H   UNL A   1      43.790  27.921  27.585  1.00  0.00     0.167 HD
ATOM     27  C   UNL A   1      48.087  27.852  26.369  1.00  0.00     0.034 A 
ATOM     28  C   UNL A   1      41.474  28.982  28.709  1.00  0.00     0.034 A 
ATOM     29  C   UNL A   1      47.832  29.166  26.884  1.00  0.00     0.049 A 
ATOM     30  C   UNL A   1      42.549  30.035  28.773  1.00  0.00     0.074 A 
ATOM     31  C   UNL A   1      48.702  30.231  27.003  1.00  0.00     0.029 A 
ATOM     32  N   UNL A   1      46.603  29.587  27.374  1.00  0.00    -0.354 N 
ATOM     33  N   UNL A   1      43.784  29.977  28.330  1.00  0.00    -0.248 NA
ATOM     34  C   UNL A   1      42.190  31.316  29.392  1.00  0.00     0.031 C 
ATOM     35  C   UNL A   1      48.003  31.291  27.593  1.00  0.00     0.029 A 
ATOM     36  C   UNL A   1      46.690  30.894  27.808  1.00  0.00     0.049 A 
ATOM     37  H   UNL A   1      45.789  29.034  27.409  1.00  0.00     0.167 HD
ATOM     38  C   UNL A   1      44.346  31.219  28.599  1.00  0.00     0.074 A 
ATOM     39  C   UNL A   1      43.304  32.017  29.217  1.00  0.00     0.031 C 
ATOM     40  C   UNL A   1      45.608  31.661  28.375  1.00  0.00     0.034 A 
BRANCH  27  41
ATOM     41  C   UNL A   1      49.463  27.496  25.878  1.00  0.00     0.023 A 
ATOM     42  C   UNL A   1      49.743  27.473  24.497  1.00  0.00     0.012 A 
ATOM     43  C   UNL A   1      50.478  27.159  26.796  1.00  0.00     0.148 A 
ATOM     44  C   UNL A   1      51.001  27.082  24.035  1.00  0.00     0.002 A 
ATOM     45  C   UNL A   1      51.738  26.810  26.330  1.00  0.00     0.091 A 
ATOM     46  F   UNL A   1      50.180  27.157  28.103  1.00  0.00    -0.205 F 
ATOM     47  C   UNL A   1      51.998  26.758  24.951  1.00  0.00     0.022 A 
BRANCH  45  48
ATOM     48  S   UNL A   1      53.105  26.428  27.430  1.00  0.00     0.127 S 
ATOM     49  O   UNL A   1      53.636  25.206  26.828  1.00  0.00    -0.237 OA
ATOM     50  O   UNL A   1      53.960  27.605  27.274  1.00  0.00    -0.237 OA
ATOM     51  O   UNL A   1      52.524  26.268  28.756  1.00  0.00    -0.744 OA
ENDBRANCH  45  48
ENDBRANCH  27  41
BRANCH  28  52
ATOM     52  C   UNL A   1      40.098  29.228  29.231  1.00  0.00     0.023 A 
ATOM     53  C   UNL A   1      39.063  29.587  28.347  1.00  0.00     0.012 A 
ATOM     54  C   UNL A   1      39.803  29.079  30.602  1.00  0.00     0.148 A 
ATOM     55  C   UNL A   1      37.768  29.816  28.821  1.00  0.00     0.002 A 
ATOM     56  C   UNL A   1      38.501  29.251  31.058  1.00  0.00     0.091 A 
ATOM     57  F   UNL A   1      40.803  28.761  31.436  1.00  0.00    -0.205 F 
ATOM     58  C   UNL A   1      37.485  29.636  30.172  1.00  0.00     0.022 A 
BRANCH  56  59
ATOM     59  S   UNL A   1      38.025  28.908  32.757  1.00  0.00     0.127 S 
ATOM     60  O   UNL A   1      36.653  29.408  32.790  1.00  0.00    -0.237 OA
ATOM     61  O   UNL A   1      38.153  27.452  32.819  1.00  0.00    -0.237 OA
ATOM     62  O   UNL A   1      38.983  29.629  33.586  1.00  0.00    -0.744 OA
ENDBRANCH  56  59
ENDBRANCH  28  52
BRANCH  40  63
ATOM     63  C   UNL A   1      45.921  33.077  28.770  1.00  0.00     0.023 A 
ATOM     64  C   UNL A   1      46.524  33.340  30.014  1.00  0.00     0.012 A 
ATOM     65  C   UNL A   1      45.709  34.129  27.859  1.00  0.00     0.148 A 
ATOM     66  C   UNL A   1      46.890  34.639  30.358  1.00  0.00     0.002 A 
ATOM     67  C   UNL A   1      46.125  35.412  28.187  1.00  0.00     0.091 A 
ATOM     68  F   UNL A   1      45.115  33.854  26.688  1.00  0.00    -0.205 F 
ATOM     69  C   UNL A   1      46.705  35.671  29.440  1.00  0.00     0.022 A 
BRANCH  67  70
ATOM     70  S   UNL A   1      46.027  36.774  27.021  1.00  0.00     0.127 S 
ATOM     71  O   UNL A   1      44.582  36.938  26.877  1.00  0.00    -0.237 OA
ATOM     72  O   UNL A   1      46.696  37.854  27.748  1.00  0.00    -0.237 OA
ATOM     73  O   UNL A   1      46.731  36.329  25.826  1.00  0.00    -0.744 OA
ENDBRANCH  67  70
ENDBRANCH  40  63
ENDBRANCH  14  15
ENDBRANCH   7   9
ENDBRANCH   6   7
ENDBRANCH   5   6
ENDBRANCH   4   5
ENDBRANCH   3   4
ENDBRANCH   2   3
ENDBRANCH   1   2
BRANCH   1  74
ATOM     74  O   UNL A   1      36.061  23.501  25.678  1.00  0.00    -0.377 OA
BRANCH  74  75
ATOM     75  C   UNL A   1      34.984  24.428  25.592  1.00  0.00     0.188 C 
BRANCH  75  76
ATOM     76  C   UNL A   1      34.436  24.816  24.201  1.00  0.00     0.188 C 
BRANCH  76  77
ATOM     77  O   UNL A   1      33.650  25.996  24.176  1.00  0.00    -0.376 OA
BRANCH  77  78
ATOM     78  C   UNL A   1      33.531  26.687  25.416  1.00  0.00     0.202 C 
BRANCH  78  79
ATOM     79  C   UNL A   1      32.080  26.918  25.859  1.00  0.00     0.261 C 
BRANCH  79  80
ATOM     80  O   UNL A   1      31.563  25.955  26.801  1.00  0.00    -0.460 OA
BRANCH  80  81
ATOM     81  C   UNL A   1      30.454  25.261  26.457  1.00  0.00     0.342 C 
ATOM     82  O   UNL A   1      29.291  25.577  26.627  1.00  0.00    -0.246 OA
BRANCH  81  83
ATOM     83  C   UNL A   1      30.895  24.127  25.615  1.00  0.00     0.102 A 
ATOM     84  C   UNL A   1      30.533  24.150  24.258  1.00  0.00     0.020 A 
ATOM     85  C   UNL A   1      31.724  23.108  26.110  1.00  0.00     0.142 A 
ATOM     86  C   UNL A   1      31.029  23.181  23.389  1.00  0.00     0.014 A 
ATOM     87  C   UNL A   1      32.134  22.075  25.258  1.00  0.00     0.076 A 
ATOM     88  C   UNL A   1      31.808  22.137  23.896  1.00  0.00     0.037 A 
ATOM     89  C   UNL A   1      32.867  20.881  25.751  1.00  0.00     0.198 C 
ATOM     90  C   UNL A   1      32.235  21.059  22.980  1.00  0.00     0.194 C 
ATOM     91  O   UNL A   1      33.502  20.859  26.795  1.00  0.00    -0.288 OA
ATOM     92  C   UNL A   1      32.793  19.654  24.935  1.00  0.00     0.034 A 
ATOM     93  C   UNL A   1      32.528  19.744  23.572  1.00  0.00     0.034 A 
ATOM     94  O   UNL A   1      32.272  21.232  21.769  1.00  0.00    -0.289 OA
ATOM     95  C   UNL A   1      32.960  18.403  25.534  1.00  0.00     0.013 A 
ATOM     96  C   UNL A   1      32.460  18.590  22.786  1.00  0.00     0.013 A 
ATOM     97  C   UNL A   1      32.850  17.246  24.761  1.00  0.00     0.001 A 
ATOM     98  C   UNL A   1      32.610  17.339  23.388  1.00  0.00     0.001 A 
BRANCH  85  99
ATOM     99  O   UNL A   1      32.108  23.109  27.422  1.00  0.00    -0.506 OA
ATOM    100  H   UNL A   1      31.495  22.878  28.090  1.00  0.00     0.293 HD
ENDBRANCH  85  99
ENDBRANCH  81  83
ENDBRANCH  80  81
ENDBRANCH  79  80
ENDBRANCH  78  79
ENDBRANCH  77  78
ENDBRANCH  76  77
ENDBRANCH  75  76
ENDBRANCH  74  75
ENDBRANCH   1  74
TORSDOF 24
ENDMDL
MODEL 3
REMARK VINA RESULT:      -8.8      6.429     10.178
REMARK SMILES O=C(OCCOCCOCCOCCOC(=O)c1ccc2c(c1O)C(=O)c1ccccc1C2=O)c1ccc(-c2c3nc(c(-c4cccc(S(=O)(=O)[O-])c4F)c4ccc([nH]4)c(-c4cccc(S(=O)(=O)[O-])c4F)c4nc(c(-c5cccc(S(=O)(=O)[O-])c5F)c5ccc2[nH]5)C=C4)C=C3)cc1
REMARK SMILES IDX 8 1 7 2 6 3 5 4 4 5 3 6 2 7 1 8 35 9 36 10 97 11 37 12 96 13
REMARK SMILES IDX 38 14 39 15 40 16 90 17 41 18 95 19 89 20 91 21 42 22 94 23
REMARK SMILES IDX 88 24 87 25 43 27 75 28 55 29 74 30 56 31 59 32 73 33 92 34
REMARK SMILES IDX 57 35 58 36 72 38 93 39 60 40 44 41 45 42 53 43 46 44 48 45
REMARK SMILES IDX 54 46 47 47 49 48 50 49 51 50 52 51 76 52 77 53 85 54 78 55
REMARK SMILES IDX 80 56 86 57 79 58 81 59 82 60 83 61 84 62 61 63 62 64 70 65
REMARK SMILES IDX 63 66 65 67 71 68 64 69 66 70 67 71 68 72 69 73 9 74 10 75
REMARK SMILES IDX 11 76 12 77 13 78 14 79 15 80 16 81 17 82 18 83 19 84 23 85
REMARK SMILES IDX 20 86 22 87 21 88 25 89 33 90 26 91 27 92 32 93 34 94 28 95
REMARK SMILES IDX 31 96 29 97 30 98 24 99
REMARK H PARENT 91 26 59 37 24 100
REMARK Flexibility Score: inf
ROOT
ATOM      1  C   UNL A   1      33.240  33.413  28.027  1.00  0.00     0.188 C 
ENDROOT
BRANCH   1   2
ATOM      2  C   UNL A   1      33.719  34.826  28.359  1.00  0.00     0.188 C 
BRANCH   2   3
ATOM      3  O   UNL A   1      32.627  35.647  28.781  1.00  0.00    -0.376 OA
BRANCH   3   4
ATOM      4  C   UNL A   1      32.845  36.396  29.976  1.00  0.00     0.202 C 
BRANCH   4   5
ATOM      5  C   UNL A   1      33.201  35.541  31.194  1.00  0.00     0.261 C 
BRANCH   5   6
ATOM      6  O   UNL A   1      34.296  36.096  31.934  1.00  0.00    -0.460 OA
BRANCH   6   7
ATOM      7  C   UNL A   1      34.841  35.623  33.084  1.00  0.00     0.338 C 
ATOM      8  O   UNL A   1      34.377  36.033  34.149  1.00  0.00    -0.246 OA
BRANCH   7   9
ATOM      9  C   UNL A   1      35.956  34.621  33.144  1.00  0.00     0.060 A 
ATOM     10  C   UNL A   1      35.914  33.389  33.804  1.00  0.00     0.016 A 
ATOM     11  C   UNL A   1      37.125  34.936  32.430  1.00  0.00     0.016 A 
ATOM     12  C   UNL A   1      37.009  32.539  33.838  1.00  0.00     0.010 A 
ATOM     13  C   UNL A   1      38.227  34.074  32.433  1.00  0.00     0.010 A 
ATOM     14  C   UNL A   1      38.179  32.891  33.177  1.00  0.00    -0.014 A 
BRANCH  14  15
ATOM     15  C   UNL A   1      39.383  32.091  33.452  1.00  0.00     0.031 A 
ATOM     16  C   UNL A   1      39.797  31.087  32.420  1.00  0.00     0.074 A 
ATOM     17  C   UNL A   1      40.142  32.359  34.527  1.00  0.00     0.049 A 
ATOM     18  N   UNL A   1      40.794  30.248  32.436  1.00  0.00    -0.248 NA
ATOM     19  C   UNL A   1      38.984  31.033  31.190  1.00  0.00     0.031 C 
ATOM     20  C   UNL A   1      39.862  33.403  35.517  1.00  0.00     0.029 A 
ATOM     21  N   UNL A   1      41.306  31.786  34.963  1.00  0.00    -0.354 N 
ATOM     22  C   UNL A   1      40.692  29.526  31.253  1.00  0.00     0.074 A 
ATOM     23  C   UNL A   1      39.554  30.040  30.528  1.00  0.00     0.031 C 
ATOM     24  C   UNL A   1      40.827  33.387  36.453  1.00  0.00     0.029 A 
ATOM     25  C   UNL A   1      41.752  32.299  36.158  1.00  0.00     0.049 A 
ATOM     26  H   UNL A   1      41.777  31.077  34.470  1.00  0.00     0.167 HD
ATOM     27  C   UNL A   1      41.480  28.517  30.822  1.00  0.00     0.034 A 
ATOM     28  C   UNL A   1      42.773  31.894  36.939  1.00  0.00     0.034 A 
ATOM     29  C   UNL A   1      42.612  28.040  31.561  1.00  0.00     0.049 A 
ATOM     30  C   UNL A   1      43.607  30.736  36.458  1.00  0.00     0.074 A 
ATOM     31  C   UNL A   1      43.470  27.003  31.254  1.00  0.00     0.029 A 
ATOM     32  N   UNL A   1      43.036  28.576  32.770  1.00  0.00    -0.354 N 
ATOM     33  N   UNL A   1      43.513  30.064  35.333  1.00  0.00    -0.248 NA
ATOM     34  C   UNL A   1      44.692  30.287  37.338  1.00  0.00     0.031 C 
ATOM     35  C   UNL A   1      44.399  26.894  32.295  1.00  0.00     0.029 A 
ATOM     36  C   UNL A   1      44.139  27.885  33.232  1.00  0.00     0.049 A 
ATOM     37  H   UNL A   1      42.612  29.335  33.232  1.00  0.00     0.167 HD
ATOM     38  C   UNL A   1      44.537  29.127  35.359  1.00  0.00     0.074 A 
ATOM     39  C   UNL A   1      45.256  29.338  36.602  1.00  0.00     0.031 C 
ATOM     40  C   UNL A   1      44.850  28.166  34.455  1.00  0.00     0.034 A 
BRANCH  27  41
ATOM     41  C   UNL A   1      41.098  27.852  29.529  1.00  0.00     0.023 A 
ATOM     42  C   UNL A   1      39.987  26.986  29.475  1.00  0.00     0.012 A 
ATOM     43  C   UNL A   1      41.862  28.071  28.366  1.00  0.00     0.148 A 
ATOM     44  C   UNL A   1      39.666  26.317  28.292  1.00  0.00     0.002 A 
ATOM     45  C   UNL A   1      41.513  27.434  27.183  1.00  0.00     0.091 A 
ATOM     46  F   UNL A   1      42.932  28.873  28.449  1.00  0.00    -0.205 F 
ATOM     47  C   UNL A   1      40.425  26.546  27.147  1.00  0.00     0.022 A 
BRANCH  45  48
ATOM     48  S   UNL A   1      42.392  27.704  25.641  1.00  0.00     0.127 S 
ATOM     49  O   UNL A   1      43.785  27.649  26.082  1.00  0.00    -0.237 OA
ATOM     50  O   UNL A   1      41.961  26.559  24.839  1.00  0.00    -0.237 OA
ATOM     51  O   UNL A   1      41.948  28.999  25.145  1.00  0.00    -0.744 OA
ENDBRANCH  45  48
ENDBRANCH  27  41
BRANCH  28  52
ATOM     52  C   UNL A   1      43.042  32.573  38.240  1.00  0.00     0.023 A 
ATOM     53  C   UNL A   1      42.432  32.105  39.419  1.00  0.00     0.012 A 
ATOM     54  C   UNL A   1      43.927  33.669  38.317  1.00  0.00     0.148 A 
ATOM     55  C   UNL A   1      42.678  32.729  40.645  1.00  0.00     0.002 A 
ATOM     56  C   UNL A   1      44.213  34.247  39.549  1.00  0.00     0.091 A 
ATOM     57  F   UNL A   1      44.482  34.119  37.184  1.00  0.00    -0.205 F 
ATOM     58  C   UNL A   1      43.578  33.790  40.711  1.00  0.00     0.022 A 
BRANCH  56  59
ATOM     59  S   UNL A   1      45.459  35.529  39.742  1.00  0.00     0.127 S 
ATOM     60  O   UNL A   1      45.557  35.634  41.195  1.00  0.00    -0.237 OA
ATOM     61  O   UNL A   1      46.619  34.924  39.088  1.00  0.00    -0.237 OA
ATOM     62  O   UNL A   1      44.928  36.699  39.054  1.00  0.00    -0.744 OA
ENDBRANCH  56  59
ENDBRANCH  28  52
BRANCH  40  63
ATOM     63  C   UNL A   1      46.036  27.295  34.759  1.00  0.00     0.023 A 
ATOM     64  C   UNL A   1      47.328  27.720  34.400  1.00  0.00     0.012 A 
ATOM     65  C   UNL A   1      45.871  26.106  35.495  1.00  0.00     0.148 A 
ATOM     66  C   UNL A   1      48.442  26.959  34.746  1.00  0.00     0.002 A 
ATOM     67  C   UNL A   1      46.989  25.381  35.883  1.00  0.00     0.091 A 
ATOM     68  F   UNL A   1      44.627  25.713  35.808  1.00  0.00    -0.205 F 
ATOM     69  C   UNL A   1      48.274  25.799  35.500  1.00  0.00     0.022 A 
BRANCH  67  70
ATOM     70  S   UNL A   1      46.869  23.940  36.948  1.00  0.00     0.127 S 
ATOM     71  O   UNL A   1      46.869  22.850  35.975  1.00  0.00    -0.237 OA
ATOM     72  O   UNL A   1      48.088  24.045  37.751  1.00  0.00    -0.237 OA
ATOM     73  O   UNL A   1      45.635  24.104  37.706  1.00  0.00    -0.744 OA
ENDBRANCH  67  70
ENDBRANCH  40  63
ENDBRANCH  14  15
ENDBRANCH   7   9
ENDBRANCH   6   7
ENDBRANCH   5   6
ENDBRANCH   4   5
ENDBRANCH   3   4
ENDBRANCH   2   3
ENDBRANCH   1   2
BRANCH   1  74
ATOM     74  O   UNL A   1      34.168  32.371  28.331  1.00  0.00    -0.377 OA
BRANCH  74  75
ATOM     75  C   UNL A   1      34.042  31.168  27.581  1.00  0.00     0.188 C 
BRANCH  75  76
ATOM     76  C   UNL A   1      32.647  30.743  27.072  1.00  0.00     0.188 C 
BRANCH  76  77
ATOM     77  O   UNL A   1      32.645  29.617  26.209  1.00  0.00    -0.376 OA
BRANCH  77  78
ATOM     78  C   UNL A   1      33.632  28.627  26.479  1.00  0.00     0.202 C 
BRANCH  78  79
ATOM     79  C   UNL A   1      33.591  27.434  25.514  1.00  0.00     0.261 C 
BRANCH  79  80
ATOM     80  O   UNL A   1      33.506  26.136  26.140  1.00  0.00    -0.460 OA
BRANCH  80  81
ATOM     81  C   UNL A   1      32.284  25.575  26.278  1.00  0.00     0.342 C 
ATOM     82  O   UNL A   1      31.299  26.050  26.812  1.00  0.00    -0.246 OA
BRANCH  81  83
ATOM     83  C   UNL A   1      32.274  24.347  25.451  1.00  0.00     0.102 A 
ATOM     84  C   UNL A   1      31.298  24.254  24.445  1.00  0.00     0.020 A 
ATOM     85  C   UNL A   1      33.250  23.348  25.587  1.00  0.00     0.142 A 
ATOM     86  C   UNL A   1      31.322  23.186  23.551  1.00  0.00     0.014 A 
ATOM     87  C   UNL A   1      33.207  22.221  24.756  1.00  0.00     0.076 A 
ATOM     88  C   UNL A   1      32.260  22.164  23.724  1.00  0.00     0.037 A 
ATOM     89  C   UNL A   1      34.101  21.053  24.955  1.00  0.00     0.198 C 
ATOM     90  C   UNL A   1      32.201  20.987  22.834  1.00  0.00     0.194 C 
ATOM     91  O   UNL A   1      35.163  21.106  25.558  1.00  0.00    -0.288 OA
ATOM     92  C   UNL A   1      33.655  19.756  24.410  1.00  0.00     0.034 A 
ATOM     93  C   UNL A   1      32.760  19.724  23.344  1.00  0.00     0.034 A 
ATOM     94  O   UNL A   1      31.645  21.039  21.746  1.00  0.00    -0.289 OA
ATOM     95  C   UNL A   1      34.106  18.563  24.981  1.00  0.00     0.013 A 
ATOM     96  C   UNL A   1      32.333  18.503  22.815  1.00  0.00     0.013 A 
ATOM     97  C   UNL A   1      33.647  17.342  24.483  1.00  0.00     0.001 A 
ATOM     98  C   UNL A   1      32.770  17.312  23.397  1.00  0.00     0.001 A 
BRANCH  85  99
ATOM     99  O   UNL A   1      34.223  23.461  26.540  1.00  0.00    -0.506 OA
ATOM    100  H   UNL A   1      34.046  23.203  27.423  1.00  0.00     0.293 HD
ENDBRANCH  85  99
ENDBRANCH  81  83
ENDBRANCH  80  81
ENDBRANCH  79  80
ENDBRANCH  78  79
ENDBRANCH  77  78
ENDBRANCH  76  77
ENDBRANCH  75  76
ENDBRANCH  74  75
ENDBRANCH   1  74
TORSDOF 24
ENDMDL
