MODEL 1
REMARK VINA RESULT:      -9.7      0.000      0.000
REMARK SMILES CC(C)(C[N@@H+]1C[C@@H]2C[NH2+]C[C@H]2C1(C)C)C(=O)OCCOCCOCCOCCOC(=O)c1ccc(-c2c3nc(c(-c4cccc(S(=O)(=O)[O-])c4F)c4ccc([nH]4)c(-c4cccc(S(=O)(=O)[O-])c4F)c4nc(c(-c5cccc(S(=O)(=O)[O-])c5F)c5ccc2[nH]5)C=C4)C=C3)cc1
REMARK SMILES IDX 24 1 23 2 22 3 21 4 20 5 19 6 18 7 17 8 15 9 16 10 2 11 1 12
REMARK SMILES IDX 3 13 4 14 5 15 6 16 12 17 7 19 11 20 13 21 14 22 8 23 10 24
REMARK SMILES IDX 9 25 25 28 26 29 27 30 28 31 29 32 30 33 31 34 32 35 33 36
REMARK SMILES IDX 94 37 34 38 93 39 35 40 36 41 37 42 87 43 38 44 92 45 86 46
REMARK SMILES IDX 88 47 39 48 91 49 85 50 84 51 40 53 72 54 52 55 71 56 53 57
REMARK SMILES IDX 56 58 70 59 89 60 54 61 55 62 69 64 90 65 57 66 41 67 42 68
REMARK SMILES IDX 50 69 43 70 45 71 51 72 44 73 46 74 47 75 48 76 49 77 73 78
REMARK SMILES IDX 74 79 82 80 75 81 77 82 83 83 76 84 78 85 79 86 80 87 81 88
REMARK SMILES IDX 58 89 59 90 67 91 60 92 62 93 68 94 61 95 63 96 64 97 65 98
REMARK SMILES IDX 66 99
REMARK H PARENT 5 18 9 26 9 27 88 52 56 63
REMARK Flexibility Score: inf
ROOT
ATOM      1  C   UNL A   1      35.585  20.695  24.986  1.00  0.00     0.188 C 
ENDROOT
BRANCH   1   2
ATOM      2  O   UNL A   1      34.237  20.252  25.091  1.00  0.00    -0.377 OA
BRANCH   2   3
ATOM      3  C   UNL A   1      33.469  19.132  24.699  1.00  0.00     0.188 C 
BRANCH   3   4
ATOM      4  C   UNL A   1      32.456  18.984  23.590  1.00  0.00     0.188 C 
BRANCH   4   5
ATOM      5  O   UNL A   1      32.612  19.721  22.418  1.00  0.00    -0.376 OA
BRANCH   5   6
ATOM      6  C   UNL A   1      31.858  20.919  22.320  1.00  0.00     0.202 C 
BRANCH   6   7
ATOM      7  C   UNL A   1      32.377  22.216  23.003  1.00  0.00     0.261 C 
BRANCH   7   8
ATOM      8  O   UNL A   1      31.459  22.894  23.934  1.00  0.00    -0.463 OA
BRANCH   8   9
ATOM      9  C   UNL A   1      31.440  22.470  25.232  1.00  0.00     0.317 C 
ATOM     10  O   UNL A   1      31.079  21.327  25.523  1.00  0.00    -0.251 OA
BRANCH   9  11
ATOM     11  C   UNL A   1      31.873  23.506  26.365  1.00  0.00     0.111 C 
ATOM     12  C   UNL A   1      32.608  22.686  27.445  1.00  0.00     0.029 C 
ATOM     13  C   UNL A   1      30.494  23.922  26.945  1.00  0.00     0.029 C 
BRANCH  11  14
ATOM     14  C   UNL A   1      32.744  24.848  26.063  1.00  0.00     0.280 C 
BRANCH  14  15
ATOM     15  N   UNL A   1      32.426  25.798  24.900  1.00  0.00    -0.329 N 
ATOM     16  C   UNL A   1      33.631  26.472  24.306  1.00  0.00     0.272 C 
ATOM     17  C   UNL A   1      31.445  26.975  25.093  1.00  0.00     0.101 C 
ATOM     18  H   UNL A   1      31.979  25.091  24.315  1.00  0.00     0.348 HD
ATOM     19  C   UNL A   1      32.941  27.378  23.304  1.00  0.00     0.114 C 
ATOM     20  C   UNL A   1      31.999  28.123  24.206  1.00  0.00     0.119 C 
ATOM     21  C   UNL A   1      30.118  26.742  24.352  1.00  0.00     0.079 C 
ATOM     22  C   UNL A   1      31.425  27.455  26.573  1.00  0.00     0.079 C 
ATOM     23  C   UNL A   1      33.484  28.545  22.512  1.00  0.00     0.270 C 
ATOM     24  C   UNL A   1      31.223  28.918  23.144  1.00  0.00     0.271 C 
ATOM     25  N   UNL A   1      32.272  29.360  22.210  1.00  0.00    -0.345 N 
ATOM     26  H   UNL A   1      31.974  29.206  21.247  1.00  0.00     0.346 HD
ATOM     27  H   UNL A   1      32.463  30.357  22.318  1.00  0.00     0.346 HD
ENDBRANCH  14  15
ENDBRANCH  11  14
ENDBRANCH   9  11
ENDBRANCH   8   9
ENDBRANCH   7   8
ENDBRANCH   6   7
ENDBRANCH   5   6
ENDBRANCH   4   5
ENDBRANCH   3   4
ENDBRANCH   2   3
ENDBRANCH   1   2
BRANCH   1  28
ATOM     28  C   UNL A   1      36.070  21.910  24.168  1.00  0.00     0.188 C 
BRANCH  28  29
ATOM     29  O   UNL A   1      37.368  22.428  24.588  1.00  0.00    -0.376 OA
BRANCH  29  30
ATOM     30  C   UNL A   1      37.879  21.830  25.773  1.00  0.00     0.202 C 
BRANCH  30  31
ATOM     31  C   UNL A   1      38.946  20.713  25.739  1.00  0.00     0.261 C 
BRANCH  31  32
ATOM     32  O   UNL A   1      39.844  20.798  26.818  1.00  0.00    -0.460 OA
BRANCH  32  33
ATOM     33  C   UNL A   1      41.026  20.265  26.425  1.00  0.00     0.338 C 
ATOM     34  O   UNL A   1      41.187  19.299  25.716  1.00  0.00    -0.246 OA
BRANCH  33  35
ATOM     35  C   UNL A   1      42.043  21.280  26.717  1.00  0.00     0.060 A 
ATOM     36  C   UNL A   1      42.274  21.530  28.073  1.00  0.00     0.016 A 
ATOM     37  C   UNL A   1      42.764  21.922  25.705  1.00  0.00     0.016 A 
ATOM     38  C   UNL A   1      43.125  22.549  28.426  1.00  0.00     0.010 A 
ATOM     39  C   UNL A   1      43.610  22.959  26.056  1.00  0.00     0.010 A 
ATOM     40  C   UNL A   1      43.689  23.324  27.408  1.00  0.00    -0.014 A 
BRANCH  40  41
ATOM     41  C   UNL A   1      43.992  24.713  27.759  1.00  0.00     0.031 A 
ATOM     42  C   UNL A   1      45.429  25.140  27.654  1.00  0.00     0.074 A 
ATOM     43  C   UNL A   1      42.991  25.557  28.032  1.00  0.00     0.049 A 
ATOM     44  N   UNL A   1      45.952  26.322  27.815  1.00  0.00    -0.248 NA
ATOM     45  C   UNL A   1      46.415  24.094  27.312  1.00  0.00     0.031 C 
ATOM     46  C   UNL A   1      41.576  25.194  28.100  1.00  0.00     0.029 A 
ATOM     47  N   UNL A   1      43.022  26.892  28.297  1.00  0.00    -0.354 N 
ATOM     48  C   UNL A   1      47.318  26.156  27.618  1.00  0.00     0.074 A 
ATOM     49  C   UNL A   1      47.555  24.761  27.343  1.00  0.00     0.031 C 
ATOM     50  C   UNL A   1      40.867  26.291  28.415  1.00  0.00     0.029 A 
ATOM     51  C   UNL A   1      41.786  27.411  28.584  1.00  0.00     0.049 A 
ATOM     52  H   UNL A   1      43.846  27.430  28.283  1.00  0.00     0.167 HD
ATOM     53  C   UNL A   1      48.286  27.097  27.651  1.00  0.00     0.034 A 
ATOM     54  C   UNL A   1      41.462  28.658  28.964  1.00  0.00     0.034 A 
ATOM     55  C   UNL A   1      48.009  28.476  27.928  1.00  0.00     0.049 A 
ATOM     56  C   UNL A   1      42.564  29.680  29.028  1.00  0.00     0.074 A 
ATOM     57  C   UNL A   1      48.888  29.539  27.982  1.00  0.00     0.029 A 
ATOM     58  N   UNL A   1      46.746  28.976  28.212  1.00  0.00    -0.354 N 
ATOM     59  N   UNL A   1      43.843  29.535  28.768  1.00  0.00    -0.248 NA
ATOM     60  C   UNL A   1      42.173  31.043  29.398  1.00  0.00     0.031 C 
ATOM     61  C   UNL A   1      48.159  30.677  28.344  1.00  0.00     0.029 A 
ATOM     62  C   UNL A   1      46.819  30.332  28.461  1.00  0.00     0.049 A 
ATOM     63  H   UNL A   1      45.919  28.443  28.234  1.00  0.00     0.167 HD
ATOM     64  C   UNL A   1      44.407  30.795  28.906  1.00  0.00     0.074 A 
ATOM     65  C   UNL A   1      43.320  31.693  29.251  1.00  0.00     0.031 C 
ATOM     66  C   UNL A   1      45.701  31.185  28.773  1.00  0.00     0.034 A 
BRANCH  53  67
ATOM     67  C   UNL A   1      49.704  26.656  27.405  1.00  0.00     0.023 A 
ATOM     68  C   UNL A   1      50.086  26.156  26.142  1.00  0.00     0.012 A 
ATOM     69  C   UNL A   1      50.667  26.753  28.428  1.00  0.00     0.148 A 
ATOM     70  C   UNL A   1      51.397  25.735  25.912  1.00  0.00     0.002 A 
ATOM     71  C   UNL A   1      51.981  26.378  28.175  1.00  0.00     0.091 A 
ATOM     72  F   UNL A   1      50.277  27.194  29.632  1.00  0.00    -0.205 F 
ATOM     73  C   UNL A   1      52.345  25.857  26.923  1.00  0.00     0.022 A 
BRANCH  71  74
ATOM     74  S   UNL A   1      53.292  26.567  29.388  1.00  0.00     0.127 S 
ATOM     75  O   UNL A   1      54.410  25.899  28.721  1.00  0.00    -0.237 OA
ATOM     76  O   UNL A   1      53.416  28.021  29.478  1.00  0.00    -0.237 OA
ATOM     77  O   UNL A   1      52.817  25.918  30.602  1.00  0.00    -0.744 OA
ENDBRANCH  71  74
ENDBRANCH  53  67
BRANCH  54  78
ATOM     78  C   UNL A   1      40.049  28.989  29.278  1.00  0.00     0.023 A 
ATOM     79  C   UNL A   1      39.113  29.142  28.239  1.00  0.00     0.012 A 
ATOM     80  C   UNL A   1      39.619  29.106  30.614  1.00  0.00     0.148 A 
ATOM     81  C   UNL A   1      37.780  29.437  28.524  1.00  0.00     0.002 A 
ATOM     82  C   UNL A   1      38.280  29.342  30.894  1.00  0.00     0.091 A 
ATOM     83  F   UNL A   1      40.529  28.963  31.589  1.00  0.00    -0.205 F 
ATOM     84  C   UNL A   1      37.361  29.527  29.850  1.00  0.00     0.022 A 
BRANCH  82  85
ATOM     85  S   UNL A   1      37.633  29.336  32.569  1.00  0.00     0.127 S 
ATOM     86  O   UNL A   1      36.293  29.884  32.372  1.00  0.00    -0.237 OA
ATOM     87  O   UNL A   1      37.675  27.912  32.902  1.00  0.00    -0.237 OA
ATOM     88  O   UNL A   1      38.545  30.162  33.348  1.00  0.00    -0.744 OA
ENDBRANCH  82  85
ENDBRANCH  54  78
BRANCH  66  89
ATOM     89  C   UNL A   1      45.990  32.649  28.965  1.00  0.00     0.023 A 
ATOM     90  C   UNL A   1      46.477  33.117  30.201  1.00  0.00     0.012 A 
ATOM     91  C   UNL A   1      45.821  33.549  27.895  1.00  0.00     0.148 A 
ATOM     92  C   UNL A   1      46.741  34.472  30.386  1.00  0.00     0.002 A 
ATOM     93  C   UNL A   1      46.144  34.887  28.069  1.00  0.00     0.091 A 
ATOM     94  F   UNL A   1      45.344  33.082  26.732  1.00  0.00    -0.205 F 
ATOM     95  C   UNL A   1      46.585  35.354  29.318  1.00  0.00     0.022 A 
BRANCH  93  96
ATOM     96  S   UNL A   1      46.080  36.069  26.721  1.00  0.00     0.127 S 
ATOM     97  O   UNL A   1      47.079  35.526  25.803  1.00  0.00    -0.237 OA
ATOM     98  O   UNL A   1      44.696  35.941  26.264  1.00  0.00    -0.237 OA
ATOM     99  O   UNL A   1      46.405  37.363  27.305  1.00  0.00    -0.744 OA
ENDBRANCH  93  96
ENDBRANCH  66  89
ENDBRANCH  40  41
ENDBRANCH  33  35
ENDBRANCH  32  33
ENDBRANCH  31  32
ENDBRANCH  30  31
ENDBRANCH  29  30
ENDBRANCH  28  29
ENDBRANCH   1  28
TORSDOF 25
ENDMDL
MODEL 2
REMARK VINA RESULT:      -9.2      2.220      7.860
REMARK SMILES CC(C)(C[N@@H+]1C[C@@H]2C[NH2+]C[C@H]2C1(C)C)C(=O)OCCOCCOCCOCCOC(=O)c1ccc(-c2c3nc(c(-c4cccc(S(=O)(=O)[O-])c4F)c4ccc([nH]4)c(-c4cccc(S(=O)(=O)[O-])c4F)c4nc(c(-c5cccc(S(=O)(=O)[O-])c5F)c5ccc2[nH]5)C=C4)C=C3)cc1
REMARK SMILES IDX 24 1 23 2 22 3 21 4 20 5 19 6 18 7 17 8 15 9 16 10 2 11 1 12
REMARK SMILES IDX 3 13 4 14 5 15 6 16 12 17 7 19 11 20 13 21 14 22 8 23 10 24
REMARK SMILES IDX 9 25 25 28 26 29 27 30 28 31 29 32 30 33 31 34 32 35 33 36
REMARK SMILES IDX 94 37 34 38 93 39 35 40 36 41 37 42 87 43 38 44 92 45 86 46
REMARK SMILES IDX 88 47 39 48 91 49 85 50 84 51 40 53 72 54 52 55 71 56 53 57
REMARK SMILES IDX 56 58 70 59 89 60 54 61 55 62 69 64 90 65 57 66 41 67 42 68
REMARK SMILES IDX 50 69 43 70 45 71 51 72 44 73 46 74 47 75 48 76 49 77 73 78
REMARK SMILES IDX 74 79 82 80 75 81 77 82 83 83 76 84 78 85 79 86 80 87 81 88
REMARK SMILES IDX 58 89 59 90 67 91 60 92 62 93 68 94 61 95 63 96 64 97 65 98
REMARK SMILES IDX 66 99
REMARK H PARENT 5 18 9 26 9 27 88 52 56 63
REMARK Flexibility Score: inf
ROOT
ATOM      1  C   UNL A   1      37.883  23.884  26.148  1.00  0.00     0.188 C 
ENDROOT
BRANCH   1   2
ATOM      2  O   UNL A   1      37.630  22.631  25.522  1.00  0.00    -0.377 OA
BRANCH   2   3
ATOM      3  C   UNL A   1      36.693  21.577  25.627  1.00  0.00     0.188 C 
BRANCH   3   4
ATOM      4  C   UNL A   1      35.573  21.172  24.700  1.00  0.00     0.188 C 
BRANCH   4   5
ATOM      5  O   UNL A   1      34.612  20.266  25.144  1.00  0.00    -0.376 OA
BRANCH   5   6
ATOM      6  C   UNL A   1      33.304  20.780  25.342  1.00  0.00     0.202 C 
BRANCH   6   7
ATOM      7  C   UNL A   1      33.081  21.961  26.328  1.00  0.00     0.261 C 
BRANCH   7   8
ATOM      8  O   UNL A   1      32.414  23.161  25.793  1.00  0.00    -0.463 OA
BRANCH   8   9
ATOM      9  C   UNL A   1      33.052  23.858  24.808  1.00  0.00     0.317 C 
ATOM     10  O   UNL A   1      34.141  24.398  25.013  1.00  0.00    -0.251 OA
BRANCH   9  11
ATOM     11  C   UNL A   1      32.333  23.977  23.388  1.00  0.00     0.111 C 
ATOM     12  C   UNL A   1      30.991  23.229  23.517  1.00  0.00     0.029 C 
ATOM     13  C   UNL A   1      33.269  23.116  22.496  1.00  0.00     0.029 C 
BRANCH  11  14
ATOM     14  C   UNL A   1      32.057  25.397  22.643  1.00  0.00     0.280 C 
BRANCH  14  15
ATOM     15  N   UNL A   1      31.459  26.611  23.369  1.00  0.00    -0.329 N 
ATOM     16  C   UNL A   1      30.649  27.521  22.488  1.00  0.00     0.272 C 
ATOM     17  C   UNL A   1      32.373  27.603  24.122  1.00  0.00     0.101 C 
ATOM     18  H   UNL A   1      30.931  26.067  24.051  1.00  0.00     0.348 HD
ATOM     19  C   UNL A   1      30.331  28.617  23.486  1.00  0.00     0.114 C 
ATOM     20  C   UNL A   1      31.715  28.997  23.932  1.00  0.00     0.119 C 
ATOM     21  C   UNL A   1      32.208  27.487  25.646  1.00  0.00     0.079 C 
ATOM     22  C   UNL A   1      33.799  27.637  23.503  1.00  0.00     0.079 C 
ATOM     23  C   UNL A   1      29.765  30.001  23.265  1.00  0.00     0.270 C 
ATOM     24  C   UNL A   1      31.347  29.997  25.039  1.00  0.00     0.271 C 
ATOM     25  N   UNL A   1      30.240  30.770  24.452  1.00  0.00    -0.345 N 
ATOM     26  H   UNL A   1      29.485  30.873  25.130  1.00  0.00     0.346 HD
ATOM     27  H   UNL A   1      30.546  31.706  24.186  1.00  0.00     0.346 HD
ENDBRANCH  14  15
ENDBRANCH  11  14
ENDBRANCH   9  11
ENDBRANCH   8   9
ENDBRANCH   7   8
ENDBRANCH   6   7
ENDBRANCH   5   6
ENDBRANCH   4   5
ENDBRANCH   3   4
ENDBRANCH   2   3
ENDBRANCH   1   2
BRANCH   1  28
ATOM     28  C   UNL A   1      39.258  24.381  26.639  1.00  0.00     0.188 C 
BRANCH  28  29
ATOM     29  O   UNL A   1      40.332  23.404  26.485  1.00  0.00    -0.376 OA
BRANCH  29  30
ATOM     30  C   UNL A   1      40.469  22.509  27.583  1.00  0.00     0.202 C 
BRANCH  30  31
ATOM     31  C   UNL A   1      40.821  21.017  27.392  1.00  0.00     0.261 C 
BRANCH  31  32
ATOM     32  O   UNL A   1      42.206  20.780  27.469  1.00  0.00    -0.460 OA
BRANCH  32  33
ATOM     33  C   UNL A   1      42.694  20.729  26.206  1.00  0.00     0.338 C 
ATOM     34  O   UNL A   1      42.237  20.109  25.276  1.00  0.00    -0.246 OA
BRANCH  33  35
ATOM     35  C   UNL A   1      43.649  21.837  26.098  1.00  0.00     0.060 A 
ATOM     36  C   UNL A   1      44.390  22.110  27.252  1.00  0.00     0.016 A 
ATOM     37  C   UNL A   1      43.836  22.543  24.905  1.00  0.00     0.016 A 
ATOM     38  C   UNL A   1      45.218  23.206  27.267  1.00  0.00     0.010 A 
ATOM     39  C   UNL A   1      44.658  23.657  24.922  1.00  0.00     0.010 A 
ATOM     40  C   UNL A   1      45.248  24.029  26.138  1.00  0.00    -0.014 A 
BRANCH  40  41
ATOM     41  C   UNL A   1      45.546  25.441  26.388  1.00  0.00     0.031 A 
ATOM     42  C   UNL A   1      44.404  26.303  26.849  1.00  0.00     0.074 A 
ATOM     43  C   UNL A   1      46.811  25.869  26.317  1.00  0.00     0.049 A 
ATOM     44  N   UNL A   1      44.412  27.550  27.226  1.00  0.00    -0.248 NA
ATOM     45  C   UNL A   1      43.069  25.673  26.903  1.00  0.00     0.031 C 
ATOM     46  C   UNL A   1      47.956  25.054  25.916  1.00  0.00     0.029 A 
ATOM     47  N   UNL A   1      47.333  27.098  26.587  1.00  0.00    -0.354 N 
ATOM     48  C   UNL A   1      43.092  27.854  27.536  1.00  0.00     0.074 A 
ATOM     49  C   UNL A   1      42.301  26.675  27.290  1.00  0.00     0.031 C 
ATOM     50  C   UNL A   1      49.059  25.821  25.946  1.00  0.00     0.029 A 
ATOM     51  C   UNL A   1      48.680  27.172  26.347  1.00  0.00     0.049 A 
ATOM     52  H   UNL A   1      46.799  27.853  26.922  1.00  0.00     0.167 HD
ATOM     53  C   UNL A   1      42.592  29.019  28.000  1.00  0.00     0.034 A 
ATOM     54  C   UNL A   1      49.495  28.238  26.428  1.00  0.00     0.034 A 
ATOM     55  C   UNL A   1      43.414  30.171  28.233  1.00  0.00     0.049 A 
ATOM     56  C   UNL A   1      48.906  29.533  26.914  1.00  0.00     0.074 A 
ATOM     57  C   UNL A   1      43.045  31.412  28.712  1.00  0.00     0.029 A 
ATOM     58  N   UNL A   1      44.779  30.219  27.984  1.00  0.00    -0.354 N 
ATOM     59  N   UNL A   1      47.672  29.797  27.278  1.00  0.00    -0.248 NA
ATOM     60  C   UNL A   1      49.827  30.666  27.040  1.00  0.00     0.031 C 
ATOM     61  C   UNL A   1      44.184  32.225  28.711  1.00  0.00     0.029 A 
ATOM     62  C   UNL A   1      45.270  31.474  28.283  1.00  0.00     0.049 A 
ATOM     63  H   UNL A   1      45.317  29.468  27.645  1.00  0.00     0.167 HD
ATOM     64  C   UNL A   1      47.674  31.115  27.711  1.00  0.00     0.074 A 
ATOM     65  C   UNL A   1      49.041  31.585  27.583  1.00  0.00     0.031 C 
ATOM     66  C   UNL A   1      46.647  31.881  28.164  1.00  0.00     0.034 A 
BRANCH  53  67
ATOM     67  C   UNL A   1      41.111  29.096  28.258  1.00  0.00     0.023 A 
ATOM     68  C   UNL A   1      40.207  29.244  27.186  1.00  0.00     0.012 A 
ATOM     69  C   UNL A   1      40.612  29.004  29.572  1.00  0.00     0.148 A 
ATOM     70  C   UNL A   1      38.833  29.327  27.420  1.00  0.00     0.002 A 
ATOM     71  C   UNL A   1      39.240  29.039  29.793  1.00  0.00     0.091 A 
ATOM     72  F   UNL A   1      41.488  28.903  30.582  1.00  0.00    -0.205 F 
ATOM     73  C   UNL A   1      38.350  29.212  28.720  1.00  0.00     0.022 A 
BRANCH  71  74
ATOM     74  S   UNL A   1      38.516  28.824  31.422  1.00  0.00     0.127 S 
ATOM     75  O   UNL A   1      39.031  27.508  31.803  1.00  0.00    -0.237 OA
ATOM     76  O   UNL A   1      39.097  29.944  32.162  1.00  0.00    -0.237 OA
ATOM     77  O   UNL A   1      37.074  28.897  31.237  1.00  0.00    -0.744 OA
ENDBRANCH  71  74
ENDBRANCH  53  67
BRANCH  54  78
ATOM     78  C   UNL A   1      50.928  28.099  26.067  1.00  0.00     0.023 A 
ATOM     79  C   UNL A   1      51.900  27.976  27.077  1.00  0.00     0.012 A 
ATOM     80  C   UNL A   1      51.326  28.041  24.718  1.00  0.00     0.148 A 
ATOM     81  C   UNL A   1      53.248  27.830  26.748  1.00  0.00     0.002 A 
ATOM     82  C   UNL A   1      52.661  27.837  24.396  1.00  0.00     0.091 A 
ATOM     83  F   UNL A   1      50.383  28.166  23.772  1.00  0.00    -0.205 F 
ATOM     84  C   UNL A   1      53.627  27.749  25.410  1.00  0.00     0.022 A 
BRANCH  82  85
ATOM     85  S   UNL A   1      53.214  27.584  22.706  1.00  0.00     0.127 S 
ATOM     86  O   UNL A   1      52.411  28.564  21.980  1.00  0.00    -0.237 OA
ATOM     87  O   UNL A   1      54.639  27.904  22.807  1.00  0.00    -0.237 OA
ATOM     88  O   UNL A   1      52.933  26.187  22.404  1.00  0.00    -0.744 OA
ENDBRANCH  82  85
ENDBRANCH  54  78
BRANCH  66  89
ATOM     89  C   UNL A   1      46.984  33.284  28.586  1.00  0.00     0.023 A 
ATOM     90  C   UNL A   1      47.380  33.548  29.912  1.00  0.00     0.012 A 
ATOM     91  C   UNL A   1      46.953  34.332  27.646  1.00  0.00     0.148 A 
ATOM     92  C   UNL A   1      47.687  34.846  30.310  1.00  0.00     0.002 A 
ATOM     93  C   UNL A   1      47.320  35.612  28.036  1.00  0.00     0.091 A 
ATOM     94  F   UNL A   1      46.561  34.059  26.393  1.00  0.00    -0.205 F 
ATOM     95  C   UNL A   1      47.668  35.876  29.370  1.00  0.00     0.022 A 
BRANCH  93  96
ATOM     96  S   UNL A   1      47.431  36.972  26.869  1.00  0.00     0.127 S 
ATOM     97  O   UNL A   1      48.108  37.992  27.668  1.00  0.00    -0.237 OA
ATOM     98  O   UNL A   1      48.244  36.395  25.798  1.00  0.00    -0.237 OA
ATOM     99  O   UNL A   1      46.061  37.285  26.486  1.00  0.00    -0.744 OA
ENDBRANCH  93  96
ENDBRANCH  66  89
ENDBRANCH  40  41
ENDBRANCH  33  35
ENDBRANCH  32  33
ENDBRANCH  31  32
ENDBRANCH  30  31
ENDBRANCH  29  30
ENDBRANCH  28  29
ENDBRANCH   1  28
TORSDOF 25
ENDMDL
MODEL 3
REMARK VINA RESULT:      -9.0      3.604      9.596
REMARK SMILES CC(C)(C[N@@H+]1C[C@@H]2C[NH2+]C[C@H]2C1(C)C)C(=O)OCCOCCOCCOCCOC(=O)c1ccc(-c2c3nc(c(-c4cccc(S(=O)(=O)[O-])c4F)c4ccc([nH]4)c(-c4cccc(S(=O)(=O)[O-])c4F)c4nc(c(-c5cccc(S(=O)(=O)[O-])c5F)c5ccc2[nH]5)C=C4)C=C3)cc1
REMARK SMILES IDX 24 1 23 2 22 3 21 4 20 5 19 6 18 7 17 8 15 9 16 10 2 11 1 12
REMARK SMILES IDX 3 13 4 14 5 15 6 16 12 17 7 19 11 20 13 21 14 22 8 23 10 24
REMARK SMILES IDX 9 25 25 28 26 29 27 30 28 31 29 32 30 33 31 34 32 35 33 36
REMARK SMILES IDX 94 37 34 38 93 39 35 40 36 41 37 42 87 43 38 44 92 45 86 46
REMARK SMILES IDX 88 47 39 48 91 49 85 50 84 51 40 53 72 54 52 55 71 56 53 57
REMARK SMILES IDX 56 58 70 59 89 60 54 61 55 62 69 64 90 65 57 66 41 67 42 68
REMARK SMILES IDX 50 69 43 70 45 71 51 72 44 73 46 74 47 75 48 76 49 77 73 78
REMARK SMILES IDX 74 79 82 80 75 81 77 82 83 83 76 84 78 85 79 86 80 87 81 88
REMARK SMILES IDX 58 89 59 90 67 91 60 92 62 93 68 94 61 95 63 96 64 97 65 98
REMARK SMILES IDX 66 99
REMARK H PARENT 5 18 9 26 9 27 88 52 56 63
REMARK Flexibility Score: inf
ROOT
ATOM      1  C   UNL A   1      34.672  34.791  31.379  1.00  0.00     0.188 C 
ENDROOT
BRANCH   1   2
ATOM      2  O   UNL A   1      33.832  34.223  30.382  1.00  0.00    -0.377 OA
BRANCH   2   3
ATOM      3  C   UNL A   1      33.972  33.628  29.107  1.00  0.00     0.188 C 
BRANCH   3   4
ATOM      4  C   UNL A   1      34.088  32.174  28.718  1.00  0.00     0.188 C 
BRANCH   4   5
ATOM      5  O   UNL A   1      34.752  31.832  27.541  1.00  0.00    -0.376 OA
BRANCH   5   6
ATOM      6  C   UNL A   1      35.878  30.979  27.677  1.00  0.00     0.202 C 
BRANCH   6   7
ATOM      7  C   UNL A   1      35.669  29.457  27.913  1.00  0.00     0.261 C 
BRANCH   7   8
ATOM      8  O   UNL A   1      34.302  28.936  27.738  1.00  0.00    -0.463 OA
BRANCH   8   9
ATOM      9  C   UNL A   1      33.787  28.913  26.474  1.00  0.00     0.317 C 
ATOM     10  O   UNL A   1      34.524  28.870  25.486  1.00  0.00    -0.251 OA
BRANCH   9  11
ATOM     11  C   UNL A   1      32.201  28.970  26.310  1.00  0.00     0.111 C 
ATOM     12  C   UNL A   1      31.830  30.462  26.191  1.00  0.00     0.029 C 
ATOM     13  C   UNL A   1      31.730  28.475  27.704  1.00  0.00     0.029 C 
BRANCH  11  14
ATOM     14  C   UNL A   1      31.391  28.149  25.160  1.00  0.00     0.280 C 
BRANCH  14  15
ATOM     15  N   UNL A   1      31.757  26.714  24.753  1.00  0.00    -0.329 N 
ATOM     16  C   UNL A   1      32.606  26.621  23.516  1.00  0.00     0.272 C 
ATOM     17  C   UNL A   1      30.652  25.670  24.480  1.00  0.00     0.101 C 
ATOM     18  H   UNL A   1      32.222  26.479  25.630  1.00  0.00     0.348 HD
ATOM     19  C   UNL A   1      32.665  25.113  23.368  1.00  0.00     0.114 C 
ATOM     20  C   UNL A   1      31.201  24.779  23.333  1.00  0.00     0.119 C 
ATOM     21  C   UNL A   1      30.591  24.601  25.583  1.00  0.00     0.079 C 
ATOM     22  C   UNL A   1      29.340  26.352  23.996  1.00  0.00     0.079 C 
ATOM     23  C   UNL A   1      33.129  24.266  22.205  1.00  0.00     0.270 C 
ATOM     24  C   UNL A   1      31.301  23.245  23.331  1.00  0.00     0.271 C 
ATOM     25  N   UNL A   1      32.410  22.974  22.402  1.00  0.00    -0.345 N 
ATOM     26  H   UNL A   1      33.039  22.277  22.798  1.00  0.00     0.346 HD
ATOM     27  H   UNL A   1      32.064  22.607  21.514  1.00  0.00     0.346 HD
ENDBRANCH  14  15
ENDBRANCH  11  14
ENDBRANCH   9  11
ENDBRANCH   8   9
ENDBRANCH   7   8
ENDBRANCH   6   7
ENDBRANCH   5   6
ENDBRANCH   4   5
ENDBRANCH   3   4
ENDBRANCH   2   3
ENDBRANCH   1   2
BRANCH   1  28
ATOM     28  C   UNL A   1      34.200  35.372  32.728  1.00  0.00     0.188 C 
BRANCH  28  29
ATOM     29  O   UNL A   1      34.807  34.736  33.893  1.00  0.00    -0.376 OA
BRANCH  29  30
ATOM     30  C   UNL A   1      35.211  33.388  33.678  1.00  0.00     0.202 C 
BRANCH  30  31
ATOM     31  C   UNL A   1      36.698  32.971  33.632  1.00  0.00     0.261 C 
BRANCH  31  32
ATOM     32  O   UNL A   1      36.947  31.798  34.368  1.00  0.00    -0.460 OA
BRANCH  32  33
ATOM     33  C   UNL A   1      38.282  31.707  34.578  1.00  0.00     0.338 C 
ATOM     34  O   UNL A   1      38.873  31.941  35.606  1.00  0.00    -0.246 OA
BRANCH  33  35
ATOM     35  C   UNL A   1      38.816  30.936  33.451  1.00  0.00     0.060 A 
ATOM     36  C   UNL A   1      39.402  29.710  33.782  1.00  0.00     0.016 A 
ATOM     37  C   UNL A   1      38.704  31.379  32.129  1.00  0.00     0.016 A 
ATOM     38  C   UNL A   1      40.028  28.985  32.798  1.00  0.00     0.010 A 
ATOM     39  C   UNL A   1      39.348  30.659  31.138  1.00  0.00     0.010 A 
ATOM     40  C   UNL A   1      40.092  29.531  31.512  1.00  0.00    -0.014 A 
BRANCH  40  41
ATOM     41  C   UNL A   1      41.257  29.142  30.713  1.00  0.00     0.031 A 
ATOM     42  C   UNL A   1      41.092  27.952  29.812  1.00  0.00     0.074 A 
ATOM     43  C   UNL A   1      42.349  29.913  30.724  1.00  0.00     0.049 A 
ATOM     44  N   UNL A   1      41.924  27.457  28.939  1.00  0.00    -0.248 NA
ATOM     45  C   UNL A   1      39.811  27.220  29.894  1.00  0.00     0.031 C 
ATOM     46  C   UNL A   1      42.534  31.104  31.553  1.00  0.00     0.029 A 
ATOM     47  N   UNL A   1      43.504  29.803  30.010  1.00  0.00    -0.354 N 
ATOM     48  C   UNL A   1      41.279  26.353  28.393  1.00  0.00     0.074 A 
ATOM     49  C   UNL A   1      39.996  26.232  29.037  1.00  0.00     0.031 C 
ATOM     50  C   UNL A   1      43.756  31.608  31.311  1.00  0.00     0.029 A 
ATOM     51  C   UNL A   1      44.429  30.760  30.333  1.00  0.00     0.049 A 
ATOM     52  H   UNL A   1      43.657  29.108  29.330  1.00  0.00     0.167 HD
ATOM     53  C   UNL A   1      41.722  25.523  27.425  1.00  0.00     0.034 A 
ATOM     54  C   UNL A   1      45.688  30.902  29.888  1.00  0.00     0.034 A 
ATOM     55  C   UNL A   1      43.007  25.677  26.808  1.00  0.00     0.049 A 
ATOM     56  C   UNL A   1      46.171  29.942  28.835  1.00  0.00     0.074 A 
ATOM     57  C   UNL A   1      43.581  24.919  25.808  1.00  0.00     0.029 A 
ATOM     58  N   UNL A   1      43.925  26.660  27.153  1.00  0.00    -0.354 N 
ATOM     59  N   UNL A   1      45.530  28.946  28.267  1.00  0.00    -0.248 NA
ATOM     60  C   UNL A   1      47.532  30.150  28.332  1.00  0.00     0.031 C 
ATOM     61  C   UNL A   1      44.868  25.419  25.578  1.00  0.00     0.029 A 
ATOM     62  C   UNL A   1      45.073  26.521  26.397  1.00  0.00     0.049 A 
ATOM     63  H   UNL A   1      43.780  27.354  27.835  1.00  0.00     0.167 HD
ATOM     64  C   UNL A   1      46.396  28.429  27.314  1.00  0.00     0.074 A 
ATOM     65  C   UNL A   1      47.597  29.242  27.369  1.00  0.00     0.031 C 
ATOM     66  C   UNL A   1      46.230  27.376  26.473  1.00  0.00     0.034 A 
BRANCH  53  67
ATOM     67  C   UNL A   1      40.826  24.388  27.007  1.00  0.00     0.023 A 
ATOM     68  C   UNL A   1      39.545  24.649  26.477  1.00  0.00     0.012 A 
ATOM     69  C   UNL A   1      41.263  23.055  27.126  1.00  0.00     0.148 A 
ATOM     70  C   UNL A   1      38.705  23.601  26.098  1.00  0.00     0.002 A 
ATOM     71  C   UNL A   1      40.440  22.018  26.701  1.00  0.00     0.091 A 
ATOM     72  F   UNL A   1      42.467  22.824  27.667  1.00  0.00    -0.205 F 
ATOM     73  C   UNL A   1      39.156  22.289  26.198  1.00  0.00     0.022 A 
BRANCH  71  74
ATOM     74  S   UNL A   1      40.959  20.300  26.720  1.00  0.00     0.127 S 
ATOM     75  O   UNL A   1      42.361  20.410  26.316  1.00  0.00    -0.237 OA
ATOM     76  O   UNL A   1      40.756  19.936  28.122  1.00  0.00    -0.237 OA
ATOM     77  O   UNL A   1      40.095  19.605  25.777  1.00  0.00    -0.744 OA
ENDBRANCH  71  74
ENDBRANCH  53  67
BRANCH  54  78
ATOM     78  C   UNL A   1      46.540  31.995  30.420  1.00  0.00     0.023 A 
ATOM     79  C   UNL A   1      47.347  31.773  31.552  1.00  0.00     0.012 A 
ATOM     80  C   UNL A   1      46.588  33.246  29.775  1.00  0.00     0.148 A 
ATOM     81  C   UNL A   1      48.162  32.789  32.051  1.00  0.00     0.002 A 
ATOM     82  C   UNL A   1      47.444  34.234  30.241  1.00  0.00     0.091 A 
ATOM     83  F   UNL A   1      45.806  33.438  28.703  1.00  0.00    -0.205 F 
ATOM     84  C   UNL A   1      48.219  34.015  31.390  1.00  0.00     0.022 A 
BRANCH  82  85
ATOM     85  S   UNL A   1      47.681  35.789  29.373  1.00  0.00     0.127 S 
ATOM     86  O   UNL A   1      48.620  36.480  30.252  1.00  0.00    -0.237 OA
ATOM     87  O   UNL A   1      48.244  35.338  28.099  1.00  0.00    -0.237 OA
ATOM     88  O   UNL A   1      46.357  36.387  29.266  1.00  0.00    -0.744 OA
ENDBRANCH  82  85
ENDBRANCH  54  78
BRANCH  66  89
ATOM     89  C   UNL A   1      47.361  27.080  25.527  1.00  0.00     0.023 A 
ATOM     90  C   UNL A   1      48.416  26.237  25.929  1.00  0.00     0.012 A 
ATOM     91  C   UNL A   1      47.346  27.605  24.220  1.00  0.00     0.148 A 
ATOM     92  C   UNL A   1      49.469  25.964  25.059  1.00  0.00     0.002 A 
ATOM     93  C   UNL A   1      48.368  27.278  23.340  1.00  0.00     0.091 A 
ATOM     94  F   UNL A   1      46.338  28.414  23.865  1.00  0.00    -0.205 F 
ATOM     95  C   UNL A   1      49.439  26.475  23.763  1.00  0.00     0.022 A 
BRANCH  93  96
ATOM     96  S   UNL A   1      48.354  27.800  21.623  1.00  0.00     0.127 S 
ATOM     97  O   UNL A   1      48.475  26.522  20.924  1.00  0.00    -0.237 OA
ATOM     98  O   UNL A   1      47.043  28.439  21.505  1.00  0.00    -0.237 OA
ATOM     99  O   UNL A   1      49.483  28.706  21.469  1.00  0.00    -0.744 OA
ENDBRANCH  93  96
ENDBRANCH  66  89
ENDBRANCH  40  41
ENDBRANCH  33  35
ENDBRANCH  32  33
ENDBRANCH  31  32
ENDBRANCH  30  31
ENDBRANCH  29  30
ENDBRANCH  28  29
ENDBRANCH   1  28
TORSDOF 25
ENDMDL
