MODEL 1
REMARK VINA RESULT:      -9.1      0.000      0.000
REMARK SMILES O=C(CSc1nnc(-c2cccc(C(F)(F)F)c2F)o1)OCCOCCOCCOCCOC(=O)c1ccc(-c2c3nc(c(-c4cccc(S(=O)(=O)[O-])c4F)c4ccc([nH]4)c(-c4cccc(S(=O)(=O)[O-])c4F)c4nc(c(-c5cccc(S(=O)(=O)[O-])c5F)c5ccc2[nH]5)C=C4)C=C3)cc1
REMARK SMILES IDX 26 1 25 2 24 3 23 4 22 5 21 6 2 7 1 8 3 9 4 10 5 11 6 12
REMARK SMILES IDX 20 13 7 14 8 15 9 16 10 17 18 18 11 19 13 20 19 21 12 22
REMARK SMILES IDX 14 23 15 24 16 25 17 26 27 27 28 28 29 29 30 30 31 31 32 32
REMARK SMILES IDX 33 33 34 34 35 35 36 36 37 37 98 38 38 39 97 40 39 41 40 42
REMARK SMILES IDX 41 43 91 44 42 45 96 46 90 47 92 48 43 49 95 50 89 51 88 52
REMARK SMILES IDX 44 54 76 55 56 56 75 57 57 58 60 59 74 60 93 61 58 62 59 63
REMARK SMILES IDX 73 65 94 66 61 67 45 68 46 69 54 70 47 71 49 72 55 73 48 74
REMARK SMILES IDX 50 75 51 76 52 77 53 78 77 79 78 80 86 81 79 82 81 83 87 84
REMARK SMILES IDX 80 85 82 86 83 87 84 88 85 89 62 90 63 91 71 92 64 93 66 94
REMARK SMILES IDX 72 95 65 96 67 97 68 98 69 99 70 100
REMARK H PARENT 92 53 60 64
REMARK Flexibility Score: inf
ROOT
ATOM      1  C   UNL A   1      34.950  23.527  24.718  1.00  0.00     0.188 C 
ENDROOT
BRANCH   1   2
ATOM      2  C   UNL A   1      34.194  24.854  24.885  1.00  0.00     0.188 C 
BRANCH   2   3
ATOM      3  O   UNL A   1      33.478  25.353  23.771  1.00  0.00    -0.376 OA
BRANCH   3   4
ATOM      4  C   UNL A   1      33.006  26.671  23.569  1.00  0.00     0.202 C 
BRANCH   4   5
ATOM      5  C   UNL A   1      32.529  27.557  24.710  1.00  0.00     0.261 C 
BRANCH   5   6
ATOM      6  O   UNL A   1      33.456  28.505  25.269  1.00  0.00    -0.463 OA
BRANCH   6   7
ATOM      7  C   UNL A   1      33.562  28.958  26.530  1.00  0.00     0.316 C 
ATOM      8  O   UNL A   1      34.610  28.769  27.148  1.00  0.00    -0.251 OA
BRANCH   7   9
ATOM      9  C   UNL A   1      32.389  29.615  27.222  1.00  0.00     0.202 C 
BRANCH   9  10
ATOM     10  S   UNL A   1      31.750  31.032  26.295  1.00  0.00    -0.054 SA
BRANCH  10  11
ATOM     11  C   UNL A   1      32.472  32.259  27.280  1.00  0.00     0.277 A 
ATOM     12  N   UNL A   1      31.974  33.457  27.485  1.00  0.00    -0.101 NA
ATOM     13  O   UNL A   1      33.713  32.102  27.828  1.00  0.00    -0.411 OA
ATOM     14  N   UNL A   1      32.945  34.167  28.169  1.00  0.00    -0.107 NA
ATOM     15  C   UNL A   1      33.972  33.354  28.296  1.00  0.00     0.251 A 
BRANCH  15  16
ATOM     16  C   UNL A   1      35.203  33.487  29.034  1.00  0.00     0.075 A 
ATOM     17  C   UNL A   1      36.409  33.394  28.332  1.00  0.00     0.017 A 
ATOM     18  C   UNL A   1      35.222  33.744  30.409  1.00  0.00     0.148 A 
ATOM     19  C   UNL A   1      37.620  33.549  28.996  1.00  0.00     0.002 A 
ATOM     20  C   UNL A   1      36.429  33.903  31.091  1.00  0.00     0.092 A 
ATOM     21  F   UNL A   1      34.070  33.828  31.086  1.00  0.00    -0.205 F 
ATOM     22  C   UNL A   1      37.631  33.798  30.368  1.00  0.00     0.016 A 
BRANCH  20  23
ATOM     23  C   UNL A   1      36.473  34.154  32.572  1.00  0.00     0.419 C 
ATOM     24  F   UNL A   1      35.954  35.374  32.895  1.00  0.00    -0.166 F 
ATOM     25  F   UNL A   1      35.708  33.250  33.256  1.00  0.00    -0.166 F 
ATOM     26  F   UNL A   1      37.700  34.099  33.146  1.00  0.00    -0.166 F 
ENDBRANCH  20  23
ENDBRANCH  15  16
ENDBRANCH  10  11
ENDBRANCH   9  10
ENDBRANCH   7   9
ENDBRANCH   6   7
ENDBRANCH   5   6
ENDBRANCH   4   5
ENDBRANCH   3   4
ENDBRANCH   2   3
ENDBRANCH   1   2
BRANCH   1  27
ATOM     27  O   UNL A   1      35.272  22.804  25.894  1.00  0.00    -0.377 OA
BRANCH  27  28
ATOM     28  C   UNL A   1      36.255  21.799  25.730  1.00  0.00     0.188 C 
BRANCH  28  29
ATOM     29  C   UNL A   1      37.696  22.355  25.656  1.00  0.00     0.188 C 
BRANCH  29  30
ATOM     30  O   UNL A   1      38.831  21.503  25.721  1.00  0.00    -0.376 OA
BRANCH  30  31
ATOM     31  C   UNL A   1      38.757  20.150  25.304  1.00  0.00     0.202 C 
BRANCH  31  32
ATOM     32  C   UNL A   1      39.806  19.081  25.677  1.00  0.00     0.261 C 
BRANCH  32  33
ATOM     33  O   UNL A   1      40.839  19.459  26.587  1.00  0.00    -0.460 OA
BRANCH  33  34
ATOM     34  C   UNL A   1      42.042  19.744  26.043  1.00  0.00     0.338 C 
ATOM     35  O   UNL A   1      42.669  19.072  25.239  1.00  0.00    -0.246 OA
BRANCH  34  36
ATOM     36  C   UNL A   1      42.381  21.135  26.409  1.00  0.00     0.060 A 
ATOM     37  C   UNL A   1      42.834  22.005  25.404  1.00  0.00     0.016 A 
ATOM     38  C   UNL A   1      42.195  21.596  27.714  1.00  0.00     0.016 A 
ATOM     39  C   UNL A   1      43.096  23.340  25.699  1.00  0.00     0.010 A 
ATOM     40  C   UNL A   1      42.507  22.920  28.019  1.00  0.00     0.010 A 
ATOM     41  C   UNL A   1      42.976  23.789  27.017  1.00  0.00    -0.014 A 
BRANCH  41  42
ATOM     42  C   UNL A   1      43.540  25.099  27.403  1.00  0.00     0.031 A 
ATOM     43  C   UNL A   1      42.591  26.153  27.892  1.00  0.00     0.074 A 
ATOM     44  C   UNL A   1      44.854  25.354  27.298  1.00  0.00     0.049 A 
ATOM     45  N   UNL A   1      42.818  27.406  28.174  1.00  0.00    -0.248 NA
ATOM     46  C   UNL A   1      41.192  25.732  28.085  1.00  0.00     0.031 C 
ATOM     47  C   UNL A   1      45.873  24.393  26.879  1.00  0.00     0.029 A 
ATOM     48  N   UNL A   1      45.550  26.517  27.512  1.00  0.00    -0.354 N 
ATOM     49  C   UNL A   1      41.590  27.934  28.551  1.00  0.00     0.074 A 
ATOM     50  C   UNL A   1      40.617  26.868  28.453  1.00  0.00     0.031 C 
ATOM     51  C   UNL A   1      47.063  25.016  26.837  1.00  0.00     0.029 A 
ATOM     52  C   UNL A   1      46.881  26.425  27.187  1.00  0.00     0.049 A 
ATOM     53  H   UNL A   1      45.135  27.338  27.864  1.00  0.00     0.167 HD
ATOM     54  C   UNL A   1      41.300  29.192  28.952  1.00  0.00     0.034 A 
ATOM     55  C   UNL A   1      47.835  27.378  27.150  1.00  0.00     0.034 A 
ATOM     56  C   UNL A   1      42.271  30.247  29.037  1.00  0.00     0.049 A 
ATOM     57  C   UNL A   1      47.476  28.791  27.534  1.00  0.00     0.074 A 
ATOM     58  C   UNL A   1      42.082  31.559  29.430  1.00  0.00     0.029 A 
ATOM     59  N   UNL A   1      43.615  30.115  28.714  1.00  0.00    -0.354 N 
ATOM     60  N   UNL A   1      46.324  29.271  27.937  1.00  0.00    -0.248 NA
ATOM     61  C   UNL A   1      48.556  29.788  27.484  1.00  0.00     0.031 C 
ATOM     62  C   UNL A   1      43.304  32.228  29.314  1.00  0.00     0.029 A 
ATOM     63  C   UNL A   1      44.265  31.322  28.897  1.00  0.00     0.049 A 
ATOM     64  H   UNL A   1      44.041  29.285  28.402  1.00  0.00     0.167 HD
ATOM     65  C   UNL A   1      46.548  30.612  28.232  1.00  0.00     0.074 A 
ATOM     66  C   UNL A   1      47.950  30.865  27.968  1.00  0.00     0.031 C 
ATOM     67  C   UNL A   1      45.673  31.548  28.676  1.00  0.00     0.034 A 
BRANCH  54  68
ATOM     68  C   UNL A   1      39.877  29.489  29.342  1.00  0.00     0.023 A 
ATOM     69  C   UNL A   1      38.909  29.708  28.339  1.00  0.00     0.012 A 
ATOM     70  C   UNL A   1      39.485  29.502  30.694  1.00  0.00     0.148 A 
ATOM     71  C   UNL A   1      37.581  29.962  28.677  1.00  0.00     0.002 A 
ATOM     72  C   UNL A   1      38.149  29.704  31.021  1.00  0.00     0.091 A 
ATOM     73  F   UNL A   1      40.423  29.322  31.634  1.00  0.00    -0.205 F 
ATOM     74  C   UNL A   1      37.200  29.946  30.016  1.00  0.00     0.022 A 
BRANCH  72  75
ATOM     75  S   UNL A   1      37.540  29.618  32.709  1.00  0.00     0.127 S 
ATOM     76  O   UNL A   1      36.209  30.206  32.573  1.00  0.00    -0.237 OA
ATOM     77  O   UNL A   1      37.546  28.176  32.963  1.00  0.00    -0.237 OA
ATOM     78  O   UNL A   1      38.480  30.383  33.516  1.00  0.00    -0.744 OA
ENDBRANCH  72  75
ENDBRANCH  54  68
BRANCH  55  79
ATOM     79  C   UNL A   1      49.230  27.010  26.779  1.00  0.00     0.023 A 
ATOM     80  C   UNL A   1      49.542  26.775  25.426  1.00  0.00     0.012 A 
ATOM     81  C   UNL A   1      50.255  26.949  27.742  1.00  0.00     0.148 A 
ATOM     82  C   UNL A   1      50.848  26.473  25.040  1.00  0.00     0.002 A 
ATOM     83  C   UNL A   1      51.564  26.702  27.345  1.00  0.00     0.091 A 
ATOM     84  F   UNL A   1      49.932  27.166  29.026  1.00  0.00    -0.205 F 
ATOM     85  C   UNL A   1      51.859  26.449  25.997  1.00  0.00     0.022 A 
BRANCH  83  86
ATOM     86  S   UNL A   1      52.954  26.778  28.479  1.00  0.00     0.127 S 
ATOM     87  O   UNL A   1      54.025  26.189  27.680  1.00  0.00    -0.237 OA
ATOM     88  O   UNL A   1      53.071  28.219  28.703  1.00  0.00    -0.237 OA
ATOM     89  O   UNL A   1      52.553  26.011  29.651  1.00  0.00    -0.744 OA
ENDBRANCH  83  86
ENDBRANCH  55  79
BRANCH  67  90
ATOM     90  C   UNL A   1      46.200  32.933  28.964  1.00  0.00     0.023 A 
ATOM     91  C   UNL A   1      46.740  33.237  30.229  1.00  0.00     0.012 A 
ATOM     92  C   UNL A   1      46.249  33.903  27.941  1.00  0.00     0.148 A 
ATOM     93  C   UNL A   1      47.290  34.493  30.480  1.00  0.00     0.002 A 
ATOM     94  C   UNL A   1      46.850  35.132  28.183  1.00  0.00     0.091 A 
ATOM     95  F   UNL A   1      45.715  33.602  26.748  1.00  0.00    -0.205 F 
ATOM     96  C   UNL A   1      47.358  35.435  29.455  1.00  0.00     0.022 A 
BRANCH  94  97
ATOM     97  S   UNL A   1      47.081  36.362  26.893  1.00  0.00     0.127 S 
ATOM     98  O   UNL A   1      46.447  37.538  27.486  1.00  0.00    -0.237 OA
ATOM     99  O   UNL A   1      48.539  36.439  26.796  1.00  0.00    -0.237 OA
ATOM    100  O   UNL A   1      46.424  35.830  25.707  1.00  0.00    -0.744 OA
ENDBRANCH  94  97
ENDBRANCH  67  90
ENDBRANCH  41  42
ENDBRANCH  34  36
ENDBRANCH  33  34
ENDBRANCH  32  33
ENDBRANCH  31  32
ENDBRANCH  30  31
ENDBRANCH  29  30
ENDBRANCH  28  29
ENDBRANCH  27  28
ENDBRANCH   1  27
TORSDOF 27
ENDMDL
MODEL 2
REMARK VINA RESULT:      -8.6      4.503      6.906
REMARK SMILES O=C(CSc1nnc(-c2cccc(C(F)(F)F)c2F)o1)OCCOCCOCCOCCOC(=O)c1ccc(-c2c3nc(c(-c4cccc(S(=O)(=O)[O-])c4F)c4ccc([nH]4)c(-c4cccc(S(=O)(=O)[O-])c4F)c4nc(c(-c5cccc(S(=O)(=O)[O-])c5F)c5ccc2[nH]5)C=C4)C=C3)cc1
REMARK SMILES IDX 26 1 25 2 24 3 23 4 22 5 21 6 2 7 1 8 3 9 4 10 5 11 6 12
REMARK SMILES IDX 20 13 7 14 8 15 9 16 10 17 18 18 11 19 13 20 19 21 12 22
REMARK SMILES IDX 14 23 15 24 16 25 17 26 27 27 28 28 29 29 30 30 31 31 32 32
REMARK SMILES IDX 33 33 34 34 35 35 36 36 37 37 98 38 38 39 97 40 39 41 40 42
REMARK SMILES IDX 41 43 91 44 42 45 96 46 90 47 92 48 43 49 95 50 89 51 88 52
REMARK SMILES IDX 44 54 76 55 56 56 75 57 57 58 60 59 74 60 93 61 58 62 59 63
REMARK SMILES IDX 73 65 94 66 61 67 45 68 46 69 54 70 47 71 49 72 55 73 48 74
REMARK SMILES IDX 50 75 51 76 52 77 53 78 77 79 78 80 86 81 79 82 81 83 87 84
REMARK SMILES IDX 80 85 82 86 83 87 84 88 85 89 62 90 63 91 71 92 64 93 66 94
REMARK SMILES IDX 72 95 65 96 67 97 68 98 69 99 70 100
REMARK H PARENT 92 53 60 64
REMARK Flexibility Score: inf
ROOT
ATOM      1  C   UNL A   1      34.002  25.693  25.689  1.00  0.00     0.188 C 
ENDROOT
BRANCH   1   2
ATOM      2  C   UNL A   1      33.445  27.044  26.162  1.00  0.00     0.188 C 
BRANCH   2   3
ATOM      3  O   UNL A   1      32.677  27.801  25.246  1.00  0.00    -0.376 OA
BRANCH   3   4
ATOM      4  C   UNL A   1      33.088  28.932  24.503  1.00  0.00     0.202 C 
BRANCH   4   5
ATOM      5  C   UNL A   1      33.097  28.956  22.981  1.00  0.00     0.261 C 
BRANCH   5   6
ATOM      6  O   UNL A   1      31.844  28.806  22.291  1.00  0.00    -0.463 OA
BRANCH   6   7
ATOM      7  C   UNL A   1      30.639  28.453  22.769  1.00  0.00     0.316 C 
ATOM      8  O   UNL A   1      29.821  29.332  23.041  1.00  0.00    -0.251 OA
BRANCH   7   9
ATOM      9  C   UNL A   1      30.309  27.005  23.058  1.00  0.00     0.202 C 
BRANCH   9  10
ATOM     10  S   UNL A   1      31.413  25.864  22.188  1.00  0.00    -0.054 SA
BRANCH  10  11
ATOM     11  C   UNL A   1      31.336  24.585  23.352  1.00  0.00     0.277 A 
ATOM     12  N   UNL A   1      30.864  24.698  24.572  1.00  0.00    -0.101 NA
ATOM     13  O   UNL A   1      31.896  23.362  23.113  1.00  0.00    -0.411 OA
ATOM     14  N   UNL A   1      31.157  23.506  25.212  1.00  0.00    -0.107 NA
ATOM     15  C   UNL A   1      31.817  22.775  24.339  1.00  0.00     0.251 A 
BRANCH  15  16
ATOM     16  C   UNL A   1      32.252  21.401  24.386  1.00  0.00     0.075 A 
ATOM     17  C   UNL A   1      32.744  20.905  25.597  1.00  0.00     0.017 A 
ATOM     18  C   UNL A   1      32.157  20.552  23.278  1.00  0.00     0.148 A 
ATOM     19  C   UNL A   1      33.144  19.577  25.699  1.00  0.00     0.002 A 
ATOM     20  C   UNL A   1      32.553  19.217  23.363  1.00  0.00     0.092 A 
ATOM     21  F   UNL A   1      31.691  21.025  22.116  1.00  0.00    -0.205 F 
ATOM     22  C   UNL A   1      33.054  18.739  24.588  1.00  0.00     0.016 A 
BRANCH  20  23
ATOM     23  C   UNL A   1      32.483  18.295  22.180  1.00  0.00     0.419 C 
ATOM     24  F   UNL A   1      31.425  17.439  22.265  1.00  0.00    -0.166 F 
ATOM     25  F   UNL A   1      32.288  18.987  21.016  1.00  0.00    -0.166 F 
ATOM     26  F   UNL A   1      33.578  17.524  21.963  1.00  0.00    -0.166 F 
ENDBRANCH  20  23
ENDBRANCH  15  16
ENDBRANCH  10  11
ENDBRANCH   9  10
ENDBRANCH   7   9
ENDBRANCH   6   7
ENDBRANCH   5   6
ENDBRANCH   4   5
ENDBRANCH   3   4
ENDBRANCH   2   3
ENDBRANCH   1   2
BRANCH   1  27
ATOM     27  O   UNL A   1      34.540  25.628  24.379  1.00  0.00    -0.377 OA
BRANCH  27  28
ATOM     28  C   UNL A   1      34.838  24.324  23.917  1.00  0.00     0.188 C 
BRANCH  28  29
ATOM     29  C   UNL A   1      35.221  23.342  25.048  1.00  0.00     0.188 C 
BRANCH  29  30
ATOM     30  O   UNL A   1      36.334  23.576  25.898  1.00  0.00    -0.376 OA
BRANCH  30  31
ATOM     31  C   UNL A   1      37.630  23.117  25.552  1.00  0.00     0.202 C 
BRANCH  31  32
ATOM     32  C   UNL A   1      38.167  21.717  25.919  1.00  0.00     0.261 C 
BRANCH  32  33
ATOM     33  O   UNL A   1      39.531  21.430  25.608  1.00  0.00    -0.460 OA
BRANCH  33  34
ATOM     34  C   UNL A   1      40.360  21.244  26.659  1.00  0.00     0.338 C 
ATOM     35  O   UNL A   1      40.810  20.186  27.067  1.00  0.00    -0.246 OA
BRANCH  34  36
ATOM     36  C   UNL A   1      40.825  22.574  27.103  1.00  0.00     0.060 A 
ATOM     37  C   UNL A   1      40.569  23.686  26.284  1.00  0.00     0.016 A 
ATOM     38  C   UNL A   1      41.451  22.735  28.340  1.00  0.00     0.016 A 
ATOM     39  C   UNL A   1      40.931  24.963  26.703  1.00  0.00     0.010 A 
ATOM     40  C   UNL A   1      41.859  24.008  28.737  1.00  0.00     0.010 A 
ATOM     41  C   UNL A   1      41.619  25.121  27.910  1.00  0.00    -0.014 A 
BRANCH  41  42
ATOM     42  C   UNL A   1      42.277  26.406  28.220  1.00  0.00     0.031 A 
ATOM     43  C   UNL A   1      41.456  27.472  28.884  1.00  0.00     0.074 A 
ATOM     44  C   UNL A   1      43.562  26.631  27.897  1.00  0.00     0.049 A 
ATOM     45  N   UNL A   1      41.764  28.712  29.147  1.00  0.00    -0.248 NA
ATOM     46  C   UNL A   1      40.098  27.083  29.305  1.00  0.00     0.031 C 
ATOM     47  C   UNL A   1      44.466  25.655  27.292  1.00  0.00     0.029 A 
ATOM     48  N   UNL A   1      44.317  27.770  28.012  1.00  0.00    -0.354 N 
ATOM     49  C   UNL A   1      40.634  29.262  29.738  1.00  0.00     0.074 A 
ATOM     50  C   UNL A   1      39.628  28.223  29.786  1.00  0.00     0.031 C 
ATOM     51  C   UNL A   1      45.649  26.248  27.060  1.00  0.00     0.029 A 
ATOM     52  C   UNL A   1      45.571  27.652  27.463  1.00  0.00     0.049 A 
ATOM     53  H   UNL A   1      43.992  28.593  28.445  1.00  0.00     0.167 HD
ATOM     54  C   UNL A   1      40.454  30.517  30.207  1.00  0.00     0.034 A 
ATOM     55  C   UNL A   1      46.531  28.581  27.282  1.00  0.00     0.034 A 
ATOM     56  C   UNL A   1      41.455  31.545  30.145  1.00  0.00     0.049 A 
ATOM     57  C   UNL A   1      46.284  29.993  27.749  1.00  0.00     0.074 A 
ATOM     58  C   UNL A   1      41.374  32.851  30.590  1.00  0.00     0.029 A 
ATOM     59  N   UNL A   1      42.720  31.386  29.596  1.00  0.00    -0.354 N 
ATOM     60  N   UNL A   1      45.232  30.492  28.352  1.00  0.00    -0.248 NA
ATOM     61  C   UNL A   1      47.368  30.963  27.535  1.00  0.00     0.031 C 
ATOM     62  C   UNL A   1      42.577  33.492  30.281  1.00  0.00     0.029 A 
ATOM     63  C   UNL A   1      43.427  32.572  29.688  1.00  0.00     0.049 A 
ATOM     64  H   UNL A   1      43.062  30.553  29.199  1.00  0.00     0.167 HD
ATOM     65  C   UNL A   1      45.541  31.820  28.630  1.00  0.00     0.074 A 
ATOM     66  C   UNL A   1      46.885  32.044  28.136  1.00  0.00     0.031 C 
ATOM     67  C   UNL A   1      44.782  32.767  29.235  1.00  0.00     0.034 A 
BRANCH  54  68
ATOM     68  C   UNL A   1      39.126  30.841  30.839  1.00  0.00     0.023 A 
ATOM     69  C   UNL A   1      38.949  30.655  32.226  1.00  0.00     0.012 A 
ATOM     70  C   UNL A   1      38.072  31.375  30.073  1.00  0.00     0.148 A 
ATOM     71  C   UNL A   1      37.736  30.971  32.835  1.00  0.00     0.002 A 
ATOM     72  C   UNL A   1      36.883  31.736  30.697  1.00  0.00     0.091 A 
ATOM     73  F   UNL A   1      38.248  31.516  28.752  1.00  0.00    -0.205 F 
ATOM     74  C   UNL A   1      36.709  31.522  32.074  1.00  0.00     0.022 A 
BRANCH  72  75
ATOM     75  S   UNL A   1      35.532  32.533  29.823  1.00  0.00     0.127 S 
ATOM     76  O   UNL A   1      36.143  33.802  29.428  1.00  0.00    -0.237 OA
ATOM     77  O   UNL A   1      35.292  31.603  28.719  1.00  0.00    -0.237 OA
ATOM     78  O   UNL A   1      34.439  32.639  30.780  1.00  0.00    -0.744 OA
ENDBRANCH  72  75
ENDBRANCH  54  68
BRANCH  55  79
ATOM     79  C   UNL A   1      47.832  28.188  26.672  1.00  0.00     0.023 A 
ATOM     80  C   UNL A   1      48.926  27.902  27.510  1.00  0.00     0.012 A 
ATOM     81  C   UNL A   1      47.975  28.039  25.279  1.00  0.00     0.148 A 
ATOM     82  C   UNL A   1      50.145  27.488  26.973  1.00  0.00     0.002 A 
ATOM     83  C   UNL A   1      49.175  27.574  24.753  1.00  0.00     0.091 A 
ATOM     84  F   UNL A   1      46.923  28.328  24.499  1.00  0.00    -0.205 F 
ATOM     85  C   UNL A   1      50.265  27.312  25.597  1.00  0.00     0.022 A 
BRANCH  83  86
ATOM     86  S   UNL A   1      49.388  27.192  23.011  1.00  0.00     0.127 S 
ATOM     87  O   UNL A   1      50.833  26.996  22.922  1.00  0.00    -0.237 OA
ATOM     88  O   UNL A   1      48.591  25.972  22.879  1.00  0.00    -0.237 OA
ATOM     89  O   UNL A   1      48.867  28.342  22.285  1.00  0.00    -0.744 OA
ENDBRANCH  83  86
ENDBRANCH  55  79
BRANCH  67  90
ATOM     90  C   UNL A   1      45.390  34.131  29.455  1.00  0.00     0.023 A 
ATOM     91  C   UNL A   1      46.360  34.320  30.459  1.00  0.00     0.012 A 
ATOM     92  C   UNL A   1      45.069  35.201  28.595  1.00  0.00     0.148 A 
ATOM     93  C   UNL A   1      46.976  35.561  30.624  1.00  0.00     0.002 A 
ATOM     94  C   UNL A   1      45.728  36.417  28.729  1.00  0.00     0.091 A 
ATOM     95  F   UNL A   1      44.131  35.008  27.656  1.00  0.00    -0.205 F 
ATOM     96  C   UNL A   1      46.671  36.604  29.752  1.00  0.00     0.022 A 
BRANCH  94  97
ATOM     97  S   UNL A   1      45.480  37.779  27.583  1.00  0.00     0.127 S 
ATOM     98  O   UNL A   1      45.994  37.216  26.336  1.00  0.00    -0.237 OA
ATOM     99  O   UNL A   1      44.028  37.955  27.620  1.00  0.00    -0.237 OA
ATOM    100  O   UNL A   1      46.238  38.901  28.121  1.00  0.00    -0.744 OA
ENDBRANCH  94  97
ENDBRANCH  67  90
ENDBRANCH  41  42
ENDBRANCH  34  36
ENDBRANCH  33  34
ENDBRANCH  32  33
ENDBRANCH  31  32
ENDBRANCH  30  31
ENDBRANCH  29  30
ENDBRANCH  28  29
ENDBRANCH  27  28
ENDBRANCH   1  27
TORSDOF 27
ENDMDL
MODEL 3
REMARK VINA RESULT:      -8.3      3.876      9.076
REMARK SMILES O=C(CSc1nnc(-c2cccc(C(F)(F)F)c2F)o1)OCCOCCOCCOCCOC(=O)c1ccc(-c2c3nc(c(-c4cccc(S(=O)(=O)[O-])c4F)c4ccc([nH]4)c(-c4cccc(S(=O)(=O)[O-])c4F)c4nc(c(-c5cccc(S(=O)(=O)[O-])c5F)c5ccc2[nH]5)C=C4)C=C3)cc1
REMARK SMILES IDX 26 1 25 2 24 3 23 4 22 5 21 6 2 7 1 8 3 9 4 10 5 11 6 12
REMARK SMILES IDX 20 13 7 14 8 15 9 16 10 17 18 18 11 19 13 20 19 21 12 22
REMARK SMILES IDX 14 23 15 24 16 25 17 26 27 27 28 28 29 29 30 30 31 31 32 32
REMARK SMILES IDX 33 33 34 34 35 35 36 36 37 37 98 38 38 39 97 40 39 41 40 42
REMARK SMILES IDX 41 43 91 44 42 45 96 46 90 47 92 48 43 49 95 50 89 51 88 52
REMARK SMILES IDX 44 54 76 55 56 56 75 57 57 58 60 59 74 60 93 61 58 62 59 63
REMARK SMILES IDX 73 65 94 66 61 67 45 68 46 69 54 70 47 71 49 72 55 73 48 74
REMARK SMILES IDX 50 75 51 76 52 77 53 78 77 79 78 80 86 81 79 82 81 83 87 84
REMARK SMILES IDX 80 85 82 86 83 87 84 88 85 89 62 90 63 91 71 92 64 93 66 94
REMARK SMILES IDX 72 95 65 96 67 97 68 98 69 99 70 100
REMARK H PARENT 92 53 60 64
REMARK Flexibility Score: inf
ROOT
ATOM      1  C   UNL A   1      34.480  24.437  25.403  1.00  0.00     0.188 C 
ENDROOT
BRANCH   1   2
ATOM      2  C   UNL A   1      34.338  25.892  25.874  1.00  0.00     0.188 C 
BRANCH   2   3
ATOM      3  O   UNL A   1      33.103  26.544  25.649  1.00  0.00    -0.376 OA
BRANCH   3   4
ATOM      4  C   UNL A   1      32.391  27.376  26.544  1.00  0.00     0.202 C 
BRANCH   4   5
ATOM      5  C   UNL A   1      32.313  28.887  26.376  1.00  0.00     0.261 C 
BRANCH   5   6
ATOM      6  O   UNL A   1      32.127  29.415  25.051  1.00  0.00    -0.463 OA
BRANCH   6   7
ATOM      7  C   UNL A   1      32.801  29.149  23.920  1.00  0.00     0.316 C 
ATOM      8  O   UNL A   1      34.032  29.177  23.934  1.00  0.00    -0.251 OA
BRANCH   7   9
ATOM      9  C   UNL A   1      32.071  28.904  22.618  1.00  0.00     0.202 C 
BRANCH   9  10
ATOM     10  S   UNL A   1      30.321  29.358  22.717  1.00  0.00    -0.054 SA
BRANCH  10  11
ATOM     11  C   UNL A   1      29.745  27.818  23.260  1.00  0.00     0.277 A 
ATOM     12  N   UNL A   1      28.484  27.510  23.464  1.00  0.00    -0.101 NA
ATOM     13  O   UNL A   1      30.601  26.827  23.647  1.00  0.00    -0.411 OA
ATOM     14  N   UNL A   1      28.484  26.262  24.062  1.00  0.00    -0.107 NA
ATOM     15  C   UNL A   1      29.748  25.925  24.206  1.00  0.00     0.251 A 
BRANCH  15  16
ATOM     16  C   UNL A   1      30.359  24.691  24.632  1.00  0.00     0.075 A 
ATOM     17  C   UNL A   1      30.158  24.273  25.951  1.00  0.00     0.017 A 
ATOM     18  C   UNL A   1      31.105  23.890  23.759  1.00  0.00     0.148 A 
ATOM     19  C   UNL A   1      30.700  23.073  26.397  1.00  0.00     0.002 A 
ATOM     20  C   UNL A   1      31.655  22.682  24.189  1.00  0.00     0.092 A 
ATOM     21  F   UNL A   1      31.305  24.290  22.497  1.00  0.00    -0.205 F 
ATOM     22  C   UNL A   1      31.448  22.284  25.522  1.00  0.00     0.016 A 
BRANCH  20  23
ATOM     23  C   UNL A   1      32.480  21.820  23.277  1.00  0.00     0.419 C 
ATOM     24  F   UNL A   1      33.486  22.525  22.685  1.00  0.00    -0.166 F 
ATOM     25  F   UNL A   1      33.106  20.817  23.965  1.00  0.00    -0.166 F 
ATOM     26  F   UNL A   1      31.807  21.204  22.274  1.00  0.00    -0.166 F 
ENDBRANCH  20  23
ENDBRANCH  15  16
ENDBRANCH  10  11
ENDBRANCH   9  10
ENDBRANCH   7   9
ENDBRANCH   6   7
ENDBRANCH   5   6
ENDBRANCH   4   5
ENDBRANCH   3   4
ENDBRANCH   2   3
ENDBRANCH   1   2
BRANCH   1  27
ATOM     27  O   UNL A   1      34.608  23.434  26.397  1.00  0.00    -0.377 OA
BRANCH  27  28
ATOM     28  C   UNL A   1      35.346  22.292  26.006  1.00  0.00     0.188 C 
BRANCH  28  29
ATOM     29  C   UNL A   1      36.603  22.627  25.171  1.00  0.00     0.188 C 
BRANCH  29  30
ATOM     30  O   UNL A   1      37.826  21.925  25.343  1.00  0.00    -0.376 OA
BRANCH  30  31
ATOM     31  C   UNL A   1      37.852  20.511  25.440  1.00  0.00     0.202 C 
BRANCH  31  32
ATOM     32  C   UNL A   1      39.149  19.687  25.586  1.00  0.00     0.261 C 
BRANCH  32  33
ATOM     33  O   UNL A   1      40.369  20.404  25.770  1.00  0.00    -0.460 OA
BRANCH  33  34
ATOM     34  C   UNL A   1      40.751  20.619  27.048  1.00  0.00     0.338 C 
ATOM     35  O   UNL A   1      40.777  19.807  27.959  1.00  0.00    -0.246 OA
BRANCH  34  36
ATOM     36  C   UNL A   1      41.359  21.965  27.114  1.00  0.00     0.060 A 
ATOM     37  C   UNL A   1      42.008  22.354  28.297  1.00  0.00     0.016 A 
ATOM     38  C   UNL A   1      41.345  22.809  26.003  1.00  0.00     0.016 A 
ATOM     39  C   UNL A   1      42.652  23.585  28.370  1.00  0.00     0.010 A 
ATOM     40  C   UNL A   1      41.945  24.065  26.094  1.00  0.00     0.010 A 
ATOM     41  C   UNL A   1      42.582  24.463  27.283  1.00  0.00    -0.014 A 
BRANCH  41  42
ATOM     42  C   UNL A   1      42.983  25.875  27.450  1.00  0.00     0.031 A 
ATOM     43  C   UNL A   1      44.400  26.244  27.121  1.00  0.00     0.074 A 
ATOM     44  C   UNL A   1      42.121  26.799  27.906  1.00  0.00     0.049 A 
ATOM     45  N   UNL A   1      45.023  27.377  27.295  1.00  0.00    -0.248 NA
ATOM     46  C   UNL A   1      45.226  25.185  26.514  1.00  0.00     0.031 C 
ATOM     47  C   UNL A   1      40.712  26.563  28.213  1.00  0.00     0.029 A 
ATOM     48  N   UNL A   1      42.321  28.120  28.215  1.00  0.00    -0.354 N 
ATOM     49  C   UNL A   1      46.320  27.164  26.847  1.00  0.00     0.074 A 
ATOM     50  C   UNL A   1      46.399  25.790  26.402  1.00  0.00     0.031 C 
ATOM     51  C   UNL A   1      40.180  27.698  28.698  1.00  0.00     0.029 A 
ATOM     52  C   UNL A   1      41.220  28.724  28.771  1.00  0.00     0.049 A 
ATOM     53  H   UNL A   1      43.172  28.590  28.054  1.00  0.00     0.167 HD
ATOM     54  C   UNL A   1      47.350  28.038  26.803  1.00  0.00     0.034 A 
ATOM     55  C   UNL A   1      41.080  29.955  29.302  1.00  0.00     0.034 A 
ATOM     56  C   UNL A   1      47.265  29.398  27.257  1.00  0.00     0.049 A 
ATOM     57  C   UNL A   1      42.261  30.892  29.307  1.00  0.00     0.074 A 
ATOM     58  C   UNL A   1      48.251  30.367  27.257  1.00  0.00     0.029 A 
ATOM     59  N   UNL A   1      46.129  29.981  27.800  1.00  0.00    -0.354 N 
ATOM     60  N   UNL A   1      43.470  30.700  28.836  1.00  0.00    -0.248 NA
ATOM     61  C   UNL A   1      42.051  32.225  29.890  1.00  0.00     0.031 C 
ATOM     62  C   UNL A   1      47.722  31.526  27.831  1.00  0.00     0.029 A 
ATOM     63  C   UNL A   1      46.391  31.296  28.143  1.00  0.00     0.049 A 
ATOM     64  H   UNL A   1      45.265  29.527  27.924  1.00  0.00     0.167 HD
ATOM     65  C   UNL A   1      44.152  31.898  29.025  1.00  0.00     0.074 A 
ATOM     66  C   UNL A   1      43.215  32.813  29.646  1.00  0.00     0.031 C 
ATOM     67  C   UNL A   1      45.435  32.211  28.716  1.00  0.00     0.034 A 
BRANCH  54  68
ATOM     68  C   UNL A   1      48.654  27.549  26.231  1.00  0.00     0.023 A 
ATOM     69  C   UNL A   1      49.588  26.907  27.070  1.00  0.00     0.012 A 
ATOM     70  C   UNL A   1      48.935  27.678  24.857  1.00  0.00     0.148 A 
ATOM     71  C   UNL A   1      50.792  26.426  26.557  1.00  0.00     0.002 A 
ATOM     72  C   UNL A   1      50.113  27.150  24.343  1.00  0.00     0.091 A 
ATOM     73  F   UNL A   1      48.049  28.317  24.080  1.00  0.00    -0.205 F 
ATOM     74  C   UNL A   1      51.047  26.536  25.192  1.00  0.00     0.022 A 
BRANCH  72  75
ATOM     75  S   UNL A   1      50.498  27.162  22.588  1.00  0.00     0.127 S 
ATOM     76  O   UNL A   1      50.373  28.583  22.268  1.00  0.00    -0.237 OA
ATOM     77  O   UNL A   1      51.869  26.652  22.572  1.00  0.00    -0.237 OA
ATOM     78  O   UNL A   1      49.516  26.292  21.955  1.00  0.00    -0.744 OA
ENDBRANCH  72  75
ENDBRANCH  54  68
BRANCH  55  79
ATOM     79  C   UNL A   1      39.754  30.384  29.829  1.00  0.00     0.023 A 
ATOM     80  C   UNL A   1      38.781  30.865  28.933  1.00  0.00     0.012 A 
ATOM     81  C   UNL A   1      39.433  30.267  31.195  1.00  0.00     0.148 A 
ATOM     82  C   UNL A   1      37.515  31.232  29.387  1.00  0.00     0.002 A 
ATOM     83  C   UNL A   1      38.153  30.583  31.634  1.00  0.00     0.091 A 
ATOM     84  F   UNL A   1      40.380  29.818  32.033  1.00  0.00    -0.205 F 
ATOM     85  C   UNL A   1      37.197  31.080  30.734  1.00  0.00     0.022 A 
BRANCH  83  86
ATOM     86  S   UNL A   1      37.607  30.300  33.321  1.00  0.00     0.127 S 
ATOM     87  O   UNL A   1      37.527  28.842  33.370  1.00  0.00    -0.237 OA
ATOM     88  O   UNL A   1      38.708  30.883  34.087  1.00  0.00    -0.237 OA
ATOM     89  O   UNL A   1      36.337  31.000  33.451  1.00  0.00    -0.744 OA
ENDBRANCH  83  86
ENDBRANCH  55  79
BRANCH  67  90
ATOM     90  C   UNL A   1      45.908  33.618  28.990  1.00  0.00     0.023 A 
ATOM     91  C   UNL A   1      45.801  34.608  27.993  1.00  0.00     0.012 A 
ATOM     92  C   UNL A   1      46.368  33.978  30.273  1.00  0.00     0.148 A 
ATOM     93  C   UNL A   1      46.173  35.925  28.260  1.00  0.00     0.002 A 
ATOM     94  C   UNL A   1      46.683  35.303  30.548  1.00  0.00     0.091 A 
ATOM     95  F   UNL A   1      46.480  33.019  31.205  1.00  0.00    -0.205 F 
ATOM     96  C   UNL A   1      46.600  36.276  29.540  1.00  0.00     0.022 A 
BRANCH  94  97
ATOM     97  S   UNL A   1      47.135  35.865  32.194  1.00  0.00     0.127 S 
ATOM     98  O   UNL A   1      47.741  37.164  31.910  1.00  0.00    -0.237 OA
ATOM     99  O   UNL A   1      45.837  35.931  32.866  1.00  0.00    -0.237 OA
ATOM    100  O   UNL A   1      48.041  34.857  32.729  1.00  0.00    -0.744 OA
ENDBRANCH  94  97
ENDBRANCH  67  90
ENDBRANCH  41  42
ENDBRANCH  34  36
ENDBRANCH  33  34
ENDBRANCH  32  33
ENDBRANCH  31  32
ENDBRANCH  30  31
ENDBRANCH  29  30
ENDBRANCH  28  29
ENDBRANCH  27  28
ENDBRANCH   1  27
TORSDOF 27
ENDMDL
