MODEL 1
REMARK VINA RESULT:      -6.2      0.000      0.000
REMARK SMILES CCOc1cc(OCC)cc(-c2ccc([C@@H](C)C(=O)OCCOCCOCCOCCOC(=O)c3ccc(-c4c5nc(c(-c6cccc(S(=O)(=O)[O-])c6F)c6ccc([nH]6)c(-c6cccc(S(=O)(=O)[O-])c6F)c6nc(c(-c7cccc(S(=O)(=O)[O-])c7F)c7ccc4[nH]7)C=C6)C=C5)cc3)cc2F)c1
REMARK SMILES IDX 25 1 24 2 23 3 22 4 21 5 20 6 18 7 19 8 16 9 17 10 15 11
REMARK SMILES IDX 12 12 13 13 99 14 14 15 98 16 100 17 11 18 4 19 5 20 101 21
REMARK SMILES IDX 6 22 10 23 3 24 2 25 1 26 7 27 8 28 9 29 26 30 27 31 28 32
REMARK SMILES IDX 29 33 30 34 31 35 32 36 33 37 34 38 35 39 36 40 97 41 37 42
REMARK SMILES IDX 96 43 38 44 39 45 40 46 90 47 41 48 95 49 89 50 91 51 42 52
REMARK SMILES IDX 94 53 88 54 87 55 43 57 75 58 55 59 74 60 56 61 59 62 73 63
REMARK SMILES IDX 92 64 57 65 58 66 72 68 93 69 60 70 44 71 45 72 53 73 46 74
REMARK SMILES IDX 48 75 54 76 47 77 49 78 50 79 51 80 52 81 76 82 77 83 85 84
REMARK SMILES IDX 78 85 80 86 86 87 79 88 81 89 82 90 83 91 84 92 61 93 62 94
REMARK SMILES IDX 70 95 63 96 65 97 71 98 64 99 66 100 67 101 68 102 69 103
REMARK H PARENT 91 56 59 67
REMARK Flexibility Score: inf
ROOT
ATOM      1  C   UNL A   1      41.596  35.071  29.741  1.00  0.00     0.188 C 
ENDROOT
BRANCH   1   2
ATOM      2  C   UNL A   1      40.191  35.021  29.123  1.00  0.00     0.188 C 
BRANCH   2   3
ATOM      3  O   UNL A   1      39.201  34.121  29.604  1.00  0.00    -0.376 OA
BRANCH   3   4
ATOM      4  C   UNL A   1      38.111  33.736  28.777  1.00  0.00     0.202 C 
BRANCH   4   5
ATOM      5  C   UNL A   1      37.054  32.735  29.283  1.00  0.00     0.261 C 
BRANCH   5   6
ATOM      6  O   UNL A   1      37.525  31.429  29.671  1.00  0.00    -0.463 OA
BRANCH   6   7
ATOM      7  C   UNL A   1      37.679  30.524  28.678  1.00  0.00     0.313 C 
ATOM      8  O   UNL A   1      36.953  30.474  27.686  1.00  0.00    -0.252 OA
BRANCH   7   9
ATOM      9  C   UNL A   1      38.815  29.519  28.864  1.00  0.00     0.126 C 
ATOM     10  C   UNL A   1      38.398  28.194  28.235  1.00  0.00     0.025 C 
BRANCH   9  11
ATOM     11  C   UNL A   1      39.460  29.300  30.231  1.00  0.00    -0.031 A 
ATOM     12  C   UNL A   1      40.741  28.991  32.781  1.00  0.00     0.018 A 
ATOM     13  C   UNL A   1      39.742  28.101  32.338  1.00  0.00     0.012 A 
ATOM     14  C   UNL A   1      41.065  30.049  31.928  1.00  0.00     0.131 A 
ATOM     15  C   UNL A   1      39.118  28.245  31.085  1.00  0.00     0.005 A 
ATOM     16  C   UNL A   1      40.453  30.197  30.677  1.00  0.00     0.044 A 
ATOM     17  F   UNL A   1      42.003  30.942  32.282  1.00  0.00    -0.206 F 
BRANCH  12  18
ATOM     18  C   UNL A   1      41.481  28.732  34.032  1.00  0.00    -0.008 A 
ATOM     19  C   UNL A   1      42.265  29.318  36.262  1.00  0.00     0.123 A 
ATOM     20  C   UNL A   1      42.963  28.114  36.350  1.00  0.00     0.092 A 
ATOM     21  C   UNL A   1      41.539  29.634  35.107  1.00  0.00     0.055 A 
ATOM     22  C   UNL A   1      42.952  27.221  35.282  1.00  0.00     0.123 A 
ATOM     23  C   UNL A   1      42.215  27.538  34.141  1.00  0.00     0.055 A 
BRANCH  19  24
ATOM     24  O   UNL A   1      42.475  30.236  37.257  1.00  0.00    -0.494 OA
BRANCH  24  25
ATOM     25  C   UNL A   1      41.909  31.525  37.008  1.00  0.00     0.226 C 
ATOM     26  C   UNL A   1      42.131  32.442  38.193  1.00  0.00     0.049 C 
ENDBRANCH  24  25
ENDBRANCH  19  24
BRANCH  22  27
ATOM     27  O   UNL A   1      43.686  26.077  35.448  1.00  0.00    -0.494 OA
BRANCH  27  28
ATOM     28  C   UNL A   1      45.046  26.095  35.004  1.00  0.00     0.226 C 
ATOM     29  C   UNL A   1      46.013  25.763  36.130  1.00  0.00     0.049 C 
ENDBRANCH  27  28
ENDBRANCH  22  27
ENDBRANCH  12  18
ENDBRANCH   9  11
ENDBRANCH   7   9
ENDBRANCH   6   7
ENDBRANCH   5   6
ENDBRANCH   4   5
ENDBRANCH   3   4
ENDBRANCH   2   3
ENDBRANCH   1   2
BRANCH   1  30
ATOM     30  O   UNL A   1      41.996  33.907  30.433  1.00  0.00    -0.377 OA
BRANCH  30  31
ATOM     31  C   UNL A   1      42.533  32.857  29.647  1.00  0.00     0.188 C 
BRANCH  31  32
ATOM     32  C   UNL A   1      44.020  32.967  29.260  1.00  0.00     0.188 C 
BRANCH  32  33
ATOM     33  O   UNL A   1      44.305  34.012  28.334  1.00  0.00    -0.376 OA
BRANCH  33  34
ATOM     34  C   UNL A   1      45.616  34.553  28.315  1.00  0.00     0.202 C 
BRANCH  34  35
ATOM     35  C   UNL A   1      45.856  35.909  28.992  1.00  0.00     0.261 C 
BRANCH  35  36
ATOM     36  O   UNL A   1      44.761  36.489  29.718  1.00  0.00    -0.460 OA
BRANCH  36  37
ATOM     37  C   UNL A   1      44.978  37.657  30.352  1.00  0.00     0.338 C 
ATOM     38  O   UNL A   1      45.318  38.712  29.833  1.00  0.00    -0.246 OA
BRANCH  37  39
ATOM     39  C   UNL A   1      44.532  37.524  31.756  1.00  0.00     0.060 A 
ATOM     40  C   UNL A   1      44.991  36.427  32.496  1.00  0.00     0.016 A 
ATOM     41  C   UNL A   1      43.653  38.445  32.334  1.00  0.00     0.016 A 
ATOM     42  C   UNL A   1      44.518  36.204  33.789  1.00  0.00     0.010 A 
ATOM     43  C   UNL A   1      43.159  38.206  33.623  1.00  0.00     0.010 A 
ATOM     44  C   UNL A   1      43.548  37.053  34.332  1.00  0.00    -0.014 A 
BRANCH  44  45
ATOM     45  C   UNL A   1      42.761  36.582  35.501  1.00  0.00     0.031 A 
ATOM     46  C   UNL A   1      41.608  35.646  35.243  1.00  0.00     0.074 A 
ATOM     47  C   UNL A   1      43.081  36.925  36.761  1.00  0.00     0.049 A 
ATOM     48  N   UNL A   1      40.780  35.093  36.089  1.00  0.00    -0.248 NA
ATOM     49  C   UNL A   1      41.359  35.283  33.837  1.00  0.00     0.031 C 
ATOM     50  C   UNL A   1      44.185  37.799  37.147  1.00  0.00     0.029 A 
ATOM     51  N   UNL A   1      42.486  36.584  37.951  1.00  0.00    -0.354 N 
ATOM     52  C   UNL A   1      39.894  34.348  35.319  1.00  0.00     0.074 A 
ATOM     53  C   UNL A   1      40.276  34.529  33.937  1.00  0.00     0.031 C 
ATOM     54  C   UNL A   1      44.174  37.949  38.484  1.00  0.00     0.029 A 
ATOM     55  C   UNL A   1      43.049  37.201  39.044  1.00  0.00     0.049 A 
ATOM     56  H   UNL A   1      41.730  35.958  38.016  1.00  0.00     0.167 HD
ATOM     57  C   UNL A   1      38.863  33.568  35.721  1.00  0.00     0.034 A 
ATOM     58  C   UNL A   1      42.682  37.178  40.341  1.00  0.00     0.034 A 
ATOM     59  C   UNL A   1      38.487  33.377  37.095  1.00  0.00     0.049 A 
ATOM     60  C   UNL A   1      41.509  36.328  40.762  1.00  0.00     0.074 A 
ATOM     61  C   UNL A   1      37.477  32.584  37.609  1.00  0.00     0.029 A 
ATOM     62  N   UNL A   1      39.097  33.996  38.174  1.00  0.00    -0.354 N 
ATOM     63  N   UNL A   1      40.740  35.556  40.033  1.00  0.00    -0.248 NA
ATOM     64  C   UNL A   1      41.181  36.314  42.196  1.00  0.00     0.031 C 
ATOM     65  C   UNL A   1      37.452  32.755  38.997  1.00  0.00     0.029 A 
ATOM     66  C   UNL A   1      38.481  33.611  39.352  1.00  0.00     0.049 A 
ATOM     67  H   UNL A   1      39.859  34.619  38.112  1.00  0.00     0.167 HD
ATOM     68  C   UNL A   1      39.872  34.929  40.922  1.00  0.00     0.074 A 
ATOM     69  C   UNL A   1      40.221  35.401  42.246  1.00  0.00     0.031 C 
ATOM     70  C   UNL A   1      38.872  34.047  40.668  1.00  0.00     0.034 A 
BRANCH  57  71
ATOM     71  C   UNL A   1      38.065  32.862  34.655  1.00  0.00     0.023 A 
ATOM     72  C   UNL A   1      38.420  31.558  34.254  1.00  0.00     0.012 A 
ATOM     73  C   UNL A   1      36.941  33.481  34.075  1.00  0.00     0.148 A 
ATOM     74  C   UNL A   1      37.691  30.895  33.267  1.00  0.00     0.002 A 
ATOM     75  C   UNL A   1      36.189  32.795  33.129  1.00  0.00     0.091 A 
ATOM     76  F   UNL A   1      36.634  34.731  34.449  1.00  0.00    -0.205 F 
ATOM     77  C   UNL A   1      36.571  31.509  32.713  1.00  0.00     0.022 A 
BRANCH  75  78
ATOM     78  S   UNL A   1      34.683  33.465  32.417  1.00  0.00     0.127 S 
ATOM     79  O   UNL A   1      34.384  32.479  31.379  1.00  0.00    -0.237 OA
ATOM     80  O   UNL A   1      33.770  33.444  33.560  1.00  0.00    -0.237 OA
ATOM     81  O   UNL A   1      35.022  34.795  31.934  1.00  0.00    -0.744 OA
ENDBRANCH  75  78
ENDBRANCH  57  71
BRANCH  58  82
ATOM     82  C   UNL A   1      43.446  37.966  41.351  1.00  0.00     0.023 A 
ATOM     83  C   UNL A   1      44.535  37.378  42.023  1.00  0.00     0.012 A 
ATOM     84  C   UNL A   1      43.088  39.294  41.656  1.00  0.00     0.148 A 
ATOM     85  C   UNL A   1      45.229  38.083  43.007  1.00  0.00     0.002 A 
ATOM     86  C   UNL A   1      43.820  40.011  42.595  1.00  0.00     0.091 A 
ATOM     87  F   UNL A   1      42.040  39.832  41.017  1.00  0.00    -0.205 F 
ATOM     88  C   UNL A   1      44.878  39.402  43.286  1.00  0.00     0.022 A 
BRANCH  86  89
ATOM     89  S   UNL A   1      43.521  41.749  42.929  1.00  0.00     0.127 S 
ATOM     90  O   UNL A   1      42.120  41.738  43.343  1.00  0.00    -0.237 OA
ATOM     91  O   UNL A   1      44.479  42.016  44.002  1.00  0.00    -0.237 OA
ATOM     92  O   UNL A   1      43.804  42.447  41.682  1.00  0.00    -0.744 OA
ENDBRANCH  86  89
ENDBRANCH  58  82
BRANCH  70  93
ATOM     93  C   UNL A   1      38.126  33.472  41.846  1.00  0.00     0.023 A 
ATOM     94  C   UNL A   1      37.022  34.154  42.395  1.00  0.00     0.012 A 
ATOM     95  C   UNL A   1      38.496  32.219  42.376  1.00  0.00     0.148 A 
ATOM     96  C   UNL A   1      36.331  33.622  43.485  1.00  0.00     0.002 A 
ATOM     97  C   UNL A   1      37.766  31.669  43.424  1.00  0.00     0.091 A 
ATOM     98  F   UNL A   1      39.558  31.590  41.853  1.00  0.00    -0.205 F 
ATOM     99  C   UNL A   1      36.696  32.377  43.991  1.00  0.00     0.022 A 
BRANCH  97 100
ATOM    100  S   UNL A   1      38.102  30.026  44.068  1.00  0.00     0.127 S 
ATOM    101  O   UNL A   1      38.267  29.253  42.838  1.00  0.00    -0.237 OA
ATOM    102  O   UNL A   1      39.334  30.236  44.828  1.00  0.00    -0.237 OA
ATOM    103  O   UNL A   1      36.946  29.670  44.881  1.00  0.00    -0.744 OA
ENDBRANCH  97 100
ENDBRANCH  70  93
ENDBRANCH  44  45
ENDBRANCH  37  39
ENDBRANCH  36  37
ENDBRANCH  35  36
ENDBRANCH  34  35
ENDBRANCH  33  34
ENDBRANCH  32  33
ENDBRANCH  31  32
ENDBRANCH  30  31
ENDBRANCH   1  30
TORSDOF 29
ENDMDL
MODEL 2
REMARK VINA RESULT:      -6.1      4.040      5.171
REMARK SMILES CCOc1cc(OCC)cc(-c2ccc([C@@H](C)C(=O)OCCOCCOCCOCCOC(=O)c3ccc(-c4c5nc(c(-c6cccc(S(=O)(=O)[O-])c6F)c6ccc([nH]6)c(-c6cccc(S(=O)(=O)[O-])c6F)c6nc(c(-c7cccc(S(=O)(=O)[O-])c7F)c7ccc4[nH]7)C=C6)C=C5)cc3)cc2F)c1
REMARK SMILES IDX 25 1 24 2 23 3 22 4 21 5 20 6 18 7 19 8 16 9 17 10 15 11
REMARK SMILES IDX 12 12 13 13 99 14 14 15 98 16 100 17 11 18 4 19 5 20 101 21
REMARK SMILES IDX 6 22 10 23 3 24 2 25 1 26 7 27 8 28 9 29 26 30 27 31 28 32
REMARK SMILES IDX 29 33 30 34 31 35 32 36 33 37 34 38 35 39 36 40 97 41 37 42
REMARK SMILES IDX 96 43 38 44 39 45 40 46 90 47 41 48 95 49 89 50 91 51 42 52
REMARK SMILES IDX 94 53 88 54 87 55 43 57 75 58 55 59 74 60 56 61 59 62 73 63
REMARK SMILES IDX 92 64 57 65 58 66 72 68 93 69 60 70 44 71 45 72 53 73 46 74
REMARK SMILES IDX 48 75 54 76 47 77 49 78 50 79 51 80 52 81 76 82 77 83 85 84
REMARK SMILES IDX 78 85 80 86 86 87 79 88 81 89 82 90 83 91 84 92 61 93 62 94
REMARK SMILES IDX 70 95 63 96 65 97 71 98 64 99 66 100 67 101 68 102 69 103
REMARK H PARENT 91 56 59 67
REMARK Flexibility Score: inf
ROOT
ATOM      1  C   UNL A   1      42.233  34.568  30.255  1.00  0.00     0.188 C 
ENDROOT
BRANCH   1   2
ATOM      2  C   UNL A   1      41.063  33.575  30.303  1.00  0.00     0.188 C 
BRANCH   2   3
ATOM      3  O   UNL A   1      41.272  32.194  30.568  1.00  0.00    -0.376 OA
BRANCH   3   4
ATOM      4  C   UNL A   1      40.218  31.257  30.397  1.00  0.00     0.202 C 
BRANCH   4   5
ATOM      5  C   UNL A   1      40.520  29.763  30.167  1.00  0.00     0.261 C 
BRANCH   5   6
ATOM      6  O   UNL A   1      40.604  29.318  28.798  1.00  0.00    -0.463 OA
BRANCH   6   7
ATOM      7  C   UNL A   1      39.479  28.792  28.265  1.00  0.00     0.313 C 
ATOM      8  O   UNL A   1      38.518  29.468  27.902  1.00  0.00    -0.252 OA
BRANCH   7   9
ATOM      9  C   UNL A   1      39.446  27.268  28.153  1.00  0.00     0.126 C 
ATOM     10  C   UNL A   1      39.028  26.692  29.502  1.00  0.00     0.025 C 
BRANCH   9  11
ATOM     11  C   UNL A   1      40.624  26.493  27.566  1.00  0.00    -0.031 A 
ATOM     12  C   UNL A   1      42.891  25.039  26.573  1.00  0.00     0.018 A 
ATOM     13  C   UNL A   1      41.801  25.373  25.745  1.00  0.00     0.012 A 
ATOM     14  C   UNL A   1      42.807  25.430  27.912  1.00  0.00     0.131 A 
ATOM     15  C   UNL A   1      40.691  26.093  26.226  1.00  0.00     0.005 A 
ATOM     16  C   UNL A   1      41.710  26.152  28.398  1.00  0.00     0.044 A 
ATOM     17  F   UNL A   1      43.803  25.145  28.765  1.00  0.00    -0.206 F 
BRANCH  12  18
ATOM     18  C   UNL A   1      44.104  24.414  26.009  1.00  0.00    -0.008 A 
ATOM     19  C   UNL A   1      46.253  24.469  24.865  1.00  0.00     0.123 A 
ATOM     20  C   UNL A   1      46.351  23.080  24.949  1.00  0.00     0.092 A 
ATOM     21  C   UNL A   1      45.132  25.133  25.380  1.00  0.00     0.055 A 
ATOM     22  C   UNL A   1      45.325  22.342  25.533  1.00  0.00     0.123 A 
ATOM     23  C   UNL A   1      44.219  23.014  26.054  1.00  0.00     0.055 A 
BRANCH  19  24
ATOM     24  O   UNL A   1      47.192  25.117  24.108  1.00  0.00    -0.494 OA
BRANCH  24  25
ATOM     25  C   UNL A   1      47.633  26.367  24.644  1.00  0.00     0.226 C 
ATOM     26  C   UNL A   1      49.030  26.240  25.214  1.00  0.00     0.049 C 
ENDBRANCH  24  25
ENDBRANCH  19  24
BRANCH  22  27
ATOM     27  O   UNL A   1      45.495  20.984  25.546  1.00  0.00    -0.494 OA
BRANCH  27  28
ATOM     28  C   UNL A   1      44.709  20.211  24.633  1.00  0.00     0.226 C 
ATOM     29  C   UNL A   1      45.514  19.078  24.014  1.00  0.00     0.049 C 
ENDBRANCH  27  28
ENDBRANCH  22  27
ENDBRANCH  12  18
ENDBRANCH   9  11
ENDBRANCH   7   9
ENDBRANCH   6   7
ENDBRANCH   5   6
ENDBRANCH   4   5
ENDBRANCH   3   4
ENDBRANCH   2   3
ENDBRANCH   1   2
BRANCH   1  30
ATOM     30  O   UNL A   1      43.509  33.992  30.070  1.00  0.00    -0.377 OA
BRANCH  30  31
ATOM     31  C   UNL A   1      43.810  33.525  28.767  1.00  0.00     0.188 C 
BRANCH  31  32
ATOM     32  C   UNL A   1      44.849  34.329  27.961  1.00  0.00     0.188 C 
BRANCH  32  33
ATOM     33  O   UNL A   1      44.445  35.660  27.655  1.00  0.00    -0.376 OA
BRANCH  33  34
ATOM     34  C   UNL A   1      45.444  36.664  27.579  1.00  0.00     0.202 C 
BRANCH  34  35
ATOM     35  C   UNL A   1      45.667  37.566  28.801  1.00  0.00     0.261 C 
BRANCH  35  36
ATOM     36  O   UNL A   1      44.812  37.365  29.936  1.00  0.00    -0.460 OA
BRANCH  36  37
ATOM     37  C   UNL A   1      44.461  38.449  30.655  1.00  0.00     0.338 C 
ATOM     38  O   UNL A   1      44.277  39.578  30.222  1.00  0.00    -0.246 OA
BRANCH  37  39
ATOM     39  C   UNL A   1      44.118  38.016  32.028  1.00  0.00     0.060 A 
ATOM     40  C   UNL A   1      44.403  36.695  32.397  1.00  0.00     0.016 A 
ATOM     41  C   UNL A   1      43.498  38.881  32.934  1.00  0.00     0.016 A 
ATOM     42  C   UNL A   1      44.006  36.212  33.643  1.00  0.00     0.010 A 
ATOM     43  C   UNL A   1      43.077  38.388  34.176  1.00  0.00     0.010 A 
ATOM     44  C   UNL A   1      43.280  37.036  34.510  1.00  0.00    -0.014 A 
BRANCH  44  45
ATOM     45  C   UNL A   1      42.516  36.407  35.619  1.00  0.00     0.031 A 
ATOM     46  C   UNL A   1      41.403  35.457  35.257  1.00  0.00     0.074 A 
ATOM     47  C   UNL A   1      42.824  36.623  36.910  1.00  0.00     0.049 A 
ATOM     48  N   UNL A   1      40.600  34.781  36.035  1.00  0.00    -0.248 NA
ATOM     49  C   UNL A   1      41.166  35.241  33.819  1.00  0.00     0.031 C 
ATOM     50  C   UNL A   1      43.891  37.495  37.392  1.00  0.00     0.029 A 
ATOM     51  N   UNL A   1      42.246  36.130  38.054  1.00  0.00    -0.354 N 
ATOM     52  C   UNL A   1      39.745  34.088  35.185  1.00  0.00     0.074 A 
ATOM     53  C   UNL A   1      40.116  34.436  33.833  1.00  0.00     0.031 C 
ATOM     54  C   UNL A   1      43.876  37.497  38.738  1.00  0.00     0.029 A 
ATOM     55  C   UNL A   1      42.784  36.646  39.209  1.00  0.00     0.049 A 
ATOM     56  H   UNL A   1      41.516  35.470  38.048  1.00  0.00     0.167 HD
ATOM     57  C   UNL A   1      38.747  33.227  35.498  1.00  0.00     0.034 A 
ATOM     58  C   UNL A   1      42.421  36.466  40.495  1.00  0.00     0.034 A 
ATOM     59  C   UNL A   1      38.383  32.871  36.841  1.00  0.00     0.049 A 
ATOM     60  C   UNL A   1      41.285  35.527  40.817  1.00  0.00     0.074 A 
ATOM     61  C   UNL A   1      37.408  31.986  37.262  1.00  0.00     0.029 A 
ATOM     62  N   UNL A   1      38.968  33.394  37.983  1.00  0.00    -0.354 N 
ATOM     63  N   UNL A   1      40.548  34.808  40.006  1.00  0.00    -0.248 NA
ATOM     64  C   UNL A   1      40.960  35.343  42.240  1.00  0.00     0.031 C 
ATOM     65  C   UNL A   1      37.378  32.003  38.661  1.00  0.00     0.029 A 
ATOM     66  C   UNL A   1      38.371  32.857  39.110  1.00  0.00     0.049 A 
ATOM     67  H   UNL A   1      39.703  34.051  37.991  1.00  0.00     0.167 HD
ATOM     68  C   UNL A   1      39.708  34.052  40.818  1.00  0.00     0.074 A 
ATOM     69  C   UNL A   1      40.039  34.391  42.188  1.00  0.00     0.031 C 
ATOM     70  C   UNL A   1      38.746  33.163  40.467  1.00  0.00     0.034 A 
BRANCH  57  71
ATOM     71  C   UNL A   1      37.979  32.610  34.358  1.00  0.00     0.023 A 
ATOM     72  C   UNL A   1      38.361  31.353  33.846  1.00  0.00     0.012 A 
ATOM     73  C   UNL A   1      36.853  33.262  33.817  1.00  0.00     0.148 A 
ATOM     74  C   UNL A   1      37.658  30.771  32.791  1.00  0.00     0.002 A 
ATOM     75  C   UNL A   1      36.128  32.654  32.800  1.00  0.00     0.091 A 
ATOM     76  F   UNL A   1      36.520  34.468  34.298  1.00  0.00    -0.205 F 
ATOM     77  C   UNL A   1      36.537  31.416  32.276  1.00  0.00     0.022 A 
BRANCH  75  78
ATOM     78  S   UNL A   1      34.622  33.363  32.127  1.00  0.00     0.127 S 
ATOM     79  O   UNL A   1      34.386  32.507  30.965  1.00  0.00    -0.237 OA
ATOM     80  O   UNL A   1      33.676  33.174  33.227  1.00  0.00    -0.237 OA
ATOM     81  O   UNL A   1      34.931  34.753  31.823  1.00  0.00    -0.744 OA
ENDBRANCH  75  78
ENDBRANCH  57  71
BRANCH  58  82
ATOM     82  C   UNL A   1      43.153  37.171  41.587  1.00  0.00     0.023 A 
ATOM     83  C   UNL A   1      42.731  38.448  42.005  1.00  0.00     0.012 A 
ATOM     84  C   UNL A   1      44.274  36.583  42.206  1.00  0.00     0.148 A 
ATOM     85  C   UNL A   1      43.434  39.143  42.989  1.00  0.00     0.002 A 
ATOM     86  C   UNL A   1      44.934  37.256  43.227  1.00  0.00     0.091 A 
ATOM     87  F   UNL A   1      44.669  35.373  41.785  1.00  0.00    -0.205 F 
ATOM     88  C   UNL A   1      44.528  38.544  43.607  1.00  0.00     0.022 A 
BRANCH  86  89
ATOM     89  S   UNL A   1      46.274  36.513  44.163  1.00  0.00     0.127 S 
ATOM     90  O   UNL A   1      46.443  37.468  45.254  1.00  0.00    -0.237 OA
ATOM     91  O   UNL A   1      45.690  35.228  44.551  1.00  0.00    -0.237 OA
ATOM     92  O   UNL A   1      47.394  36.409  43.236  1.00  0.00    -0.744 OA
ENDBRANCH  86  89
ENDBRANCH  58  82
BRANCH  70  93
ATOM     93  C   UNL A   1      38.026  32.431  41.573  1.00  0.00     0.023 A 
ATOM     94  C   UNL A   1      38.618  31.312  42.193  1.00  0.00     0.012 A 
ATOM     95  C   UNL A   1      36.776  32.893  42.033  1.00  0.00     0.148 A 
ATOM     96  C   UNL A   1      37.953  30.636  43.217  1.00  0.00     0.002 A 
ATOM     97  C   UNL A   1      36.147  32.249  43.091  1.00  0.00     0.091 A 
ATOM     98  F   UNL A   1      36.220  33.950  41.422  1.00  0.00    -0.205 F 
ATOM     99  C   UNL A   1      36.725  31.110  43.672  1.00  0.00     0.022 A 
BRANCH  97 100
ATOM    100  S   UNL A   1      34.616  32.853  43.809  1.00  0.00     0.127 S 
ATOM    101  O   UNL A   1      33.629  32.400  42.830  1.00  0.00    -0.237 OA
ATOM    102  O   UNL A   1      34.573  32.148  45.090  1.00  0.00    -0.237 OA
ATOM    103  O   UNL A   1      34.768  34.298  43.921  1.00  0.00    -0.744 OA
ENDBRANCH  97 100
ENDBRANCH  70  93
ENDBRANCH  44  45
ENDBRANCH  37  39
ENDBRANCH  36  37
ENDBRANCH  35  36
ENDBRANCH  34  35
ENDBRANCH  33  34
ENDBRANCH  32  33
ENDBRANCH  31  32
ENDBRANCH  30  31
ENDBRANCH   1  30
TORSDOF 29
ENDMDL
MODEL 3
REMARK VINA RESULT:      -6.0      3.795      5.129
REMARK SMILES CCOc1cc(OCC)cc(-c2ccc([C@@H](C)C(=O)OCCOCCOCCOCCOC(=O)c3ccc(-c4c5nc(c(-c6cccc(S(=O)(=O)[O-])c6F)c6ccc([nH]6)c(-c6cccc(S(=O)(=O)[O-])c6F)c6nc(c(-c7cccc(S(=O)(=O)[O-])c7F)c7ccc4[nH]7)C=C6)C=C5)cc3)cc2F)c1
REMARK SMILES IDX 25 1 24 2 23 3 22 4 21 5 20 6 18 7 19 8 16 9 17 10 15 11
REMARK SMILES IDX 12 12 13 13 99 14 14 15 98 16 100 17 11 18 4 19 5 20 101 21
REMARK SMILES IDX 6 22 10 23 3 24 2 25 1 26 7 27 8 28 9 29 26 30 27 31 28 32
REMARK SMILES IDX 29 33 30 34 31 35 32 36 33 37 34 38 35 39 36 40 97 41 37 42
REMARK SMILES IDX 96 43 38 44 39 45 40 46 90 47 41 48 95 49 89 50 91 51 42 52
REMARK SMILES IDX 94 53 88 54 87 55 43 57 75 58 55 59 74 60 56 61 59 62 73 63
REMARK SMILES IDX 92 64 57 65 58 66 72 68 93 69 60 70 44 71 45 72 53 73 46 74
REMARK SMILES IDX 48 75 54 76 47 77 49 78 50 79 51 80 52 81 76 82 77 83 85 84
REMARK SMILES IDX 78 85 80 86 86 87 79 88 81 89 82 90 83 91 84 92 61 93 62 94
REMARK SMILES IDX 70 95 63 96 65 97 71 98 64 99 66 100 67 101 68 102 69 103
REMARK H PARENT 91 56 59 67
REMARK Flexibility Score: inf
ROOT
ATOM      1  C   UNL A   1      42.208  34.678  30.130  1.00  0.00     0.188 C 
ENDROOT
BRANCH   1   2
ATOM      2  C   UNL A   1      40.990  33.750  30.244  1.00  0.00     0.188 C 
BRANCH   2   3
ATOM      3  O   UNL A   1      41.131  32.384  30.609  1.00  0.00    -0.376 OA
BRANCH   3   4
ATOM      4  C   UNL A   1      40.161  31.425  30.209  1.00  0.00     0.202 C 
BRANCH   4   5
ATOM      5  C   UNL A   1      40.526  29.931  30.107  1.00  0.00     0.261 C 
BRANCH   5   6
ATOM      6  O   UNL A   1      40.741  29.402  28.782  1.00  0.00    -0.463 OA
BRANCH   6   7
ATOM      7  C   UNL A   1      39.667  28.855  28.170  1.00  0.00     0.313 C 
ATOM      8  O   UNL A   1      38.709  29.511  27.763  1.00  0.00    -0.252 OA
BRANCH   7   9
ATOM      9  C   UNL A   1      39.688  27.333  28.024  1.00  0.00     0.126 C 
ATOM     10  C   UNL A   1      39.343  26.712  29.373  1.00  0.00     0.025 C 
BRANCH   9  11
ATOM     11  C   UNL A   1      40.873  26.619  27.376  1.00  0.00    -0.031 A 
ATOM     12  C   UNL A   1      43.145  25.256  26.271  1.00  0.00     0.018 A 
ATOM     13  C   UNL A   1      42.115  25.766  25.456  1.00  0.00     0.012 A 
ATOM     14  C   UNL A   1      42.997  25.425  27.650  1.00  0.00     0.131 A 
ATOM     15  C   UNL A   1      41.003  26.442  25.993  1.00  0.00     0.005 A 
ATOM     16  C   UNL A   1      41.898  26.101  28.194  1.00  0.00     0.044 A 
ATOM     17  F   UNL A   1      43.934  24.963  28.494  1.00  0.00    -0.206 F 
BRANCH  12  18
ATOM     18  C   UNL A   1      44.367  24.684  25.673  1.00  0.00    -0.008 A 
ATOM     19  C   UNL A   1      45.713  22.855  24.791  1.00  0.00     0.123 A 
ATOM     20  C   UNL A   1      46.777  23.728  24.563  1.00  0.00     0.092 A 
ATOM     21  C   UNL A   1      44.520  23.325  25.355  1.00  0.00     0.055 A 
ATOM     22  C   UNL A   1      46.663  25.072  24.907  1.00  0.00     0.123 A 
ATOM     23  C   UNL A   1      45.466  25.532  25.455  1.00  0.00     0.055 A 
BRANCH  19  24
ATOM     24  O   UNL A   1      45.953  21.518  24.618  1.00  0.00    -0.494 OA
BRANCH  24  25
ATOM     25  C   UNL A   1      44.802  20.746  24.265  1.00  0.00     0.226 C 
ATOM     26  C   UNL A   1      44.711  19.502  25.125  1.00  0.00     0.049 C 
ENDBRANCH  24  25
ENDBRANCH  19  24
BRANCH  22  27
ATOM     27  O   UNL A   1      47.767  25.846  24.671  1.00  0.00    -0.494 OA
BRANCH  27  28
ATOM     28  C   UNL A   1      47.911  27.044  25.441  1.00  0.00     0.226 C 
ATOM     29  C   UNL A   1      49.151  27.003  26.322  1.00  0.00     0.049 C 
ENDBRANCH  27  28
ENDBRANCH  22  27
ENDBRANCH  12  18
ENDBRANCH   9  11
ENDBRANCH   7   9
ENDBRANCH   6   7
ENDBRANCH   5   6
ENDBRANCH   4   5
ENDBRANCH   3   4
ENDBRANCH   2   3
ENDBRANCH   1   2
BRANCH   1  30
ATOM     30  O   UNL A   1      43.444  34.033  29.907  1.00  0.00    -0.377 OA
BRANCH  30  31
ATOM     31  C   UNL A   1      43.698  33.591  28.585  1.00  0.00     0.188 C 
BRANCH  31  32
ATOM     32  C   UNL A   1      44.746  34.380  27.776  1.00  0.00     0.188 C 
BRANCH  32  33
ATOM     33  O   UNL A   1      44.407  35.746  27.559  1.00  0.00    -0.376 OA
BRANCH  33  34
ATOM     34  C   UNL A   1      45.453  36.704  27.545  1.00  0.00     0.202 C 
BRANCH  34  35
ATOM     35  C   UNL A   1      45.737  37.493  28.831  1.00  0.00     0.261 C 
BRANCH  35  36
ATOM     36  O   UNL A   1      44.841  37.301  29.936  1.00  0.00    -0.460 OA
BRANCH  36  37
ATOM     37  C   UNL A   1      44.484  38.387  30.649  1.00  0.00     0.338 C 
ATOM     38  O   UNL A   1      44.299  39.513  30.209  1.00  0.00    -0.246 OA
BRANCH  37  39
ATOM     39  C   UNL A   1      44.136  37.959  32.022  1.00  0.00     0.060 A 
ATOM     40  C   UNL A   1      44.445  36.648  32.406  1.00  0.00     0.016 A 
ATOM     41  C   UNL A   1      43.489  38.820  32.914  1.00  0.00     0.016 A 
ATOM     42  C   UNL A   1      44.046  36.168  33.652  1.00  0.00     0.010 A 
ATOM     43  C   UNL A   1      43.066  38.329  34.156  1.00  0.00     0.010 A 
ATOM     44  C   UNL A   1      43.294  36.984  34.505  1.00  0.00    -0.014 A 
BRANCH  44  45
ATOM     45  C   UNL A   1      42.532  36.350  35.611  1.00  0.00     0.031 A 
ATOM     46  C   UNL A   1      41.417  35.404  35.246  1.00  0.00     0.074 A 
ATOM     47  C   UNL A   1      42.843  36.557  36.903  1.00  0.00     0.049 A 
ATOM     48  N   UNL A   1      40.614  34.724  36.022  1.00  0.00    -0.248 NA
ATOM     49  C   UNL A   1      41.176  35.196  33.808  1.00  0.00     0.031 C 
ATOM     50  C   UNL A   1      43.913  37.425  37.388  1.00  0.00     0.029 A 
ATOM     51  N   UNL A   1      42.268  36.057  38.045  1.00  0.00    -0.354 N 
ATOM     52  C   UNL A   1      39.756  34.037  35.171  1.00  0.00     0.074 A 
ATOM     53  C   UNL A   1      40.124  34.393  33.819  1.00  0.00     0.031 C 
ATOM     54  C   UNL A   1      43.902  37.418  38.733  1.00  0.00     0.029 A 
ATOM     55  C   UNL A   1      42.810  36.566  39.202  1.00  0.00     0.049 A 
ATOM     56  H   UNL A   1      41.537  35.398  38.037  1.00  0.00     0.167 HD
ATOM     57  C   UNL A   1      38.758  33.176  35.480  1.00  0.00     0.034 A 
ATOM     58  C   UNL A   1      42.450  36.378  40.488  1.00  0.00     0.034 A 
ATOM     59  C   UNL A   1      38.397  32.812  36.822  1.00  0.00     0.049 A 
ATOM     60  C   UNL A   1      41.314  35.438  40.807  1.00  0.00     0.074 A 
ATOM     61  C   UNL A   1      37.422  31.925  37.240  1.00  0.00     0.029 A 
ATOM     62  N   UNL A   1      38.986  33.327  37.966  1.00  0.00    -0.354 N 
ATOM     63  N   UNL A   1      40.573  34.726  39.993  1.00  0.00    -0.248 NA
ATOM     64  C   UNL A   1      40.992  35.246  42.230  1.00  0.00     0.031 C 
ATOM     65  C   UNL A   1      37.396  31.933  38.639  1.00  0.00     0.029 A 
ATOM     66  C   UNL A   1      38.391  32.783  39.091  1.00  0.00     0.049 A 
ATOM     67  H   UNL A   1      39.722  33.982  37.976  1.00  0.00     0.167 HD
ATOM     68  C   UNL A   1      39.734  33.966  40.803  1.00  0.00     0.074 A 
ATOM     69  C   UNL A   1      40.070  34.295  42.174  1.00  0.00     0.031 C 
ATOM     70  C   UNL A   1      38.770  33.080  40.449  1.00  0.00     0.034 A 
BRANCH  57  71
ATOM     71  C   UNL A   1      37.986  32.566  34.338  1.00  0.00     0.023 A 
ATOM     72  C   UNL A   1      38.362  31.310  33.821  1.00  0.00     0.012 A 
ATOM     73  C   UNL A   1      36.863  33.225  33.802  1.00  0.00     0.148 A 
ATOM     74  C   UNL A   1      37.656  30.736  32.764  1.00  0.00     0.002 A 
ATOM     75  C   UNL A   1      36.134  32.625  32.783  1.00  0.00     0.091 A 
ATOM     76  F   UNL A   1      36.536  34.431  34.288  1.00  0.00    -0.205 F 
ATOM     77  C   UNL A   1      36.537  31.388  32.253  1.00  0.00     0.022 A 
BRANCH  75  78
ATOM     78  S   UNL A   1      34.630  33.344  32.114  1.00  0.00     0.127 S 
ATOM     79  O   UNL A   1      35.084  34.684  31.742  1.00  0.00    -0.237 OA
ATOM     80  O   UNL A   1      34.345  32.460  30.984  1.00  0.00    -0.237 OA
ATOM     81  O   UNL A   1      33.648  33.295  33.188  1.00  0.00    -0.744 OA
ENDBRANCH  75  78
ENDBRANCH  57  71
BRANCH  58  82
ATOM     82  C   UNL A   1      43.185  37.075  41.582  1.00  0.00     0.023 A 
ATOM     83  C   UNL A   1      44.289  36.449  42.195  1.00  0.00     0.012 A 
ATOM     84  C   UNL A   1      42.787  38.351  42.026  1.00  0.00     0.148 A 
ATOM     85  C   UNL A   1      44.957  37.064  43.255  1.00  0.00     0.002 A 
ATOM     86  C   UNL A   1      43.494  38.983  43.042  1.00  0.00     0.091 A 
ATOM     87  F   UNL A   1      41.726  38.924  41.441  1.00  0.00    -0.205 F 
ATOM     88  C   UNL A   1      44.567  38.334  43.671  1.00  0.00     0.022 A 
BRANCH  86  89
ATOM     89  S   UNL A   1      43.141  40.666  43.560  1.00  0.00     0.127 S 
ATOM     90  O   UNL A   1      43.312  41.405  42.312  1.00  0.00    -0.237 OA
ATOM     91  O   UNL A   1      41.759  40.551  44.025  1.00  0.00    -0.237 OA
ATOM     92  O   UNL A   1      44.106  40.968  44.609  1.00  0.00    -0.744 OA
ENDBRANCH  86  89
ENDBRANCH  58  82
BRANCH  70  93
ATOM     93  C   UNL A   1      38.052  32.342  41.552  1.00  0.00     0.023 A 
ATOM     94  C   UNL A   1      38.625  31.194  42.135  1.00  0.00     0.012 A 
ATOM     95  C   UNL A   1      36.824  32.827  42.047  1.00  0.00     0.148 A 
ATOM     96  C   UNL A   1      37.962  30.512  43.156  1.00  0.00     0.002 A 
ATOM     97  C   UNL A   1      36.199  32.175  43.103  1.00  0.00     0.091 A 
ATOM     98  F   UNL A   1      36.285  33.912  41.472  1.00  0.00    -0.205 F 
ATOM     99  C   UNL A   1      36.757  31.008  43.647  1.00  0.00     0.022 A 
BRANCH  97 100
ATOM    100  S   UNL A   1      34.698  32.803  43.864  1.00  0.00     0.127 S 
ATOM    101  O   UNL A   1      34.939  34.245  43.851  1.00  0.00    -0.237 OA
ATOM    102  O   UNL A   1      33.664  32.348  42.934  1.00  0.00    -0.237 OA
ATOM    103  O   UNL A   1      34.632  32.191  45.186  1.00  0.00    -0.744 OA
ENDBRANCH  97 100
ENDBRANCH  70  93
ENDBRANCH  44  45
ENDBRANCH  37  39
ENDBRANCH  36  37
ENDBRANCH  35  36
ENDBRANCH  34  35
ENDBRANCH  33  34
ENDBRANCH  32  33
ENDBRANCH  31  32
ENDBRANCH  30  31
ENDBRANCH   1  30
TORSDOF 29
ENDMDL
