MODEL 1
REMARK VINA RESULT:      -9.7      0.000      0.000
REMARK SMILES O=C(OCCOCCOCCOCCOC(=O)[C@@H]1[C@@H](C(=O)Nc2ccc(F)c(F)c2)[C@H]2C=C[C@@H]1O2)c1ccc(-c2c3nc(c(-c4cccc(S(=O)(=O)[O-])c4F)c4ccc([nH]4)c(-c4cccc(S(=O)(=O)[O-])c4F)c4nc(c(-c5cccc(S(=O)(=O)[O-])c5F)c5ccc2[nH]5)C=C4)C=C3)cc1
REMARK SMILES IDX 8 1 7 2 6 3 5 4 4 5 3 6 2 7 1 8 36 9 37 10 98 11 38 12 97 13
REMARK SMILES IDX 39 14 40 15 41 16 91 17 42 18 96 19 90 20 92 21 43 22 95 23
REMARK SMILES IDX 89 24 88 25 44 27 76 28 56 29 75 30 57 31 60 32 74 33 93 34
REMARK SMILES IDX 58 35 59 36 73 38 94 39 61 40 45 41 46 42 54 43 47 44 49 45
REMARK SMILES IDX 55 46 48 47 50 48 51 49 52 50 53 51 77 52 78 53 86 54 79 55
REMARK SMILES IDX 81 56 87 57 80 58 82 59 83 60 84 61 85 62 62 63 63 64 71 65
REMARK SMILES IDX 64 66 66 67 72 68 65 69 67 70 68 71 69 72 70 73 9 74 10 75
REMARK SMILES IDX 11 76 12 77 13 78 14 79 15 80 16 81 17 82 18 83 19 84 34 85
REMARK SMILES IDX 31 86 33 87 35 88 32 89 20 90 21 91 22 92 23 94 24 95 30 96
REMARK SMILES IDX 25 97 28 98 26 99 29 100 27 101
REMARK H PARENT 92 26 60 37 22 93
REMARK Flexibility Score: inf
ROOT
ATOM      1  C   UNL A   1      36.490  21.645  25.762  1.00  0.00     0.188 C 
ENDROOT
BRANCH   1   2
ATOM      2  C   UNL A   1      37.580  21.412  24.717  1.00  0.00     0.188 C 
BRANCH   2   3
ATOM      3  O   UNL A   1      38.610  20.615  25.280  1.00  0.00    -0.376 OA
BRANCH   3   4
ATOM      4  C   UNL A   1      39.690  21.158  26.017  1.00  0.00     0.202 C 
BRANCH   4   5
ATOM      5  C   UNL A   1      40.470  20.237  26.933  1.00  0.00     0.261 C 
BRANCH   5   6
ATOM      6  O   UNL A   1      41.703  19.675  26.432  1.00  0.00    -0.460 OA
BRANCH   6   7
ATOM      7  C   UNL A   1      42.739  20.174  25.720  1.00  0.00     0.338 C 
ATOM      8  O   UNL A   1      43.264  19.470  24.862  1.00  0.00    -0.246 OA
BRANCH   7   9
ATOM      9  C   UNL A   1      43.237  21.553  25.894  1.00  0.00     0.060 A 
ATOM     10  C   UNL A   1      43.983  21.973  26.984  1.00  0.00     0.016 A 
ATOM     11  C   UNL A   1      43.061  22.454  24.843  1.00  0.00     0.016 A 
ATOM     12  C   UNL A   1      44.251  23.297  27.219  1.00  0.00     0.010 A 
ATOM     13  C   UNL A   1      43.509  23.768  24.977  1.00  0.00     0.010 A 
ATOM     14  C   UNL A   1      44.028  24.206  26.205  1.00  0.00    -0.014 A 
BRANCH  14  15
ATOM     15  C   UNL A   1      44.204  25.625  26.524  1.00  0.00     0.031 A 
ATOM     16  C   UNL A   1      45.526  26.228  26.185  1.00  0.00     0.074 A 
ATOM     17  C   UNL A   1      43.169  26.351  26.982  1.00  0.00     0.049 A 
ATOM     18  N   UNL A   1      46.024  27.373  26.546  1.00  0.00    -0.248 NA
ATOM     19  C   UNL A   1      46.420  25.420  25.332  1.00  0.00     0.031 C 
ATOM     20  C   UNL A   1      41.798  25.861  27.171  1.00  0.00     0.029 A 
ATOM     21  N   UNL A   1      43.105  27.661  27.364  1.00  0.00    -0.354 N 
ATOM     22  C   UNL A   1      47.325  27.374  26.061  1.00  0.00     0.074 A 
ATOM     23  C   UNL A   1      47.531  26.135  25.351  1.00  0.00     0.031 C 
ATOM     24  C   UNL A   1      41.029  26.859  27.629  1.00  0.00     0.029 A 
ATOM     25  C   UNL A   1      41.880  28.011  27.881  1.00  0.00     0.049 A 
ATOM     26  H   UNL A   1      43.858  28.290  27.277  1.00  0.00     0.167 HD
ATOM     27  C   UNL A   1      48.260  28.331  26.232  1.00  0.00     0.034 A 
ATOM     28  C   UNL A   1      41.523  29.114  28.562  1.00  0.00     0.034 A 
ATOM     29  C   UNL A   1      47.978  29.553  26.926  1.00  0.00     0.049 A 
ATOM     30  C   UNL A   1      42.595  30.141  28.793  1.00  0.00     0.074 A 
ATOM     31  C   UNL A   1      48.824  30.603  27.215  1.00  0.00     0.029 A 
ATOM     32  N   UNL A   1      46.730  29.879  27.445  1.00  0.00    -0.354 N 
ATOM     33  N   UNL A   1      43.845  30.128  28.389  1.00  0.00    -0.248 NA
ATOM     34  C   UNL A   1      42.218  31.330  29.561  1.00  0.00     0.031 C 
ATOM     35  C   UNL A   1      48.093  31.548  27.944  1.00  0.00     0.029 A 
ATOM     36  C   UNL A   1      46.778  31.111  28.061  1.00  0.00     0.049 A 
ATOM     37  H   UNL A   1      45.927  29.312  27.382  1.00  0.00     0.167 HD
ATOM     38  C   UNL A   1      44.401  31.321  28.825  1.00  0.00     0.074 A 
ATOM     39  C   UNL A   1      43.339  32.036  29.513  1.00  0.00     0.031 C 
ATOM     40  C   UNL A   1      45.667  31.787  28.687  1.00  0.00     0.034 A 
BRANCH  27  41
ATOM     41  C   UNL A   1      49.647  28.029  25.736  1.00  0.00     0.023 A 
ATOM     42  C   UNL A   1      49.955  28.101  24.362  1.00  0.00     0.012 A 
ATOM     43  C   UNL A   1      50.637  27.606  26.644  1.00  0.00     0.148 A 
ATOM     44  C   UNL A   1      51.211  27.706  23.895  1.00  0.00     0.002 A 
ATOM     45  C   UNL A   1      51.900  27.266  26.179  1.00  0.00     0.091 A 
ATOM     46  F   UNL A   1      50.314  27.507  27.941  1.00  0.00    -0.205 F 
ATOM     47  C   UNL A   1      52.184  27.296  24.804  1.00  0.00     0.022 A 
BRANCH  45  48
ATOM     48  S   UNL A   1      53.239  26.788  27.275  1.00  0.00     0.127 S 
ATOM     49  O   UNL A   1      54.342  27.602  26.767  1.00  0.00    -0.237 OA
ATOM     50  O   UNL A   1      52.724  27.203  28.579  1.00  0.00    -0.237 OA
ATOM     51  O   UNL A   1      53.402  25.349  27.112  1.00  0.00    -0.744 OA
ENDBRANCH  45  48
ENDBRANCH  27  41
BRANCH  28  52
ATOM     52  C   UNL A   1      40.139  29.260  29.094  1.00  0.00     0.023 A 
ATOM     53  C   UNL A   1      39.083  29.563  28.216  1.00  0.00     0.012 A 
ATOM     54  C   UNL A   1      39.855  29.055  30.462  1.00  0.00     0.148 A 
ATOM     55  C   UNL A   1      37.775  29.686  28.692  1.00  0.00     0.002 A 
ATOM     56  C   UNL A   1      38.543  29.123  30.918  1.00  0.00     0.091 A 
ATOM     57  F   UNL A   1      40.872  28.774  31.287  1.00  0.00    -0.205 F 
ATOM     58  C   UNL A   1      37.504  29.456  30.038  1.00  0.00     0.022 A 
BRANCH  56  59
ATOM     59  S   UNL A   1      38.084  28.717  32.608  1.00  0.00     0.127 S 
ATOM     60  O   UNL A   1      36.720  29.237  32.679  1.00  0.00    -0.237 OA
ATOM     61  O   UNL A   1      38.187  27.257  32.605  1.00  0.00    -0.237 OA
ATOM     62  O   UNL A   1      39.060  29.387  33.456  1.00  0.00    -0.744 OA
ENDBRANCH  56  59
ENDBRANCH  28  52
BRANCH  40  63
ATOM     63  C   UNL A   1      45.945  33.158  29.227  1.00  0.00     0.023 A 
ATOM     64  C   UNL A   1      46.452  33.316  30.530  1.00  0.00     0.012 A 
ATOM     65  C   UNL A   1      45.798  34.278  28.388  1.00  0.00     0.148 A 
ATOM     66  C   UNL A   1      46.785  34.584  31.001  1.00  0.00     0.002 A 
ATOM     67  C   UNL A   1      46.189  35.527  28.842  1.00  0.00     0.091 A 
ATOM     68  F   UNL A   1      45.292  34.094  27.159  1.00  0.00    -0.205 F 
ATOM     69  C   UNL A   1      46.670  35.684  30.152  1.00  0.00     0.022 A 
BRANCH  67  70
ATOM     70  S   UNL A   1      46.190  36.970  27.778  1.00  0.00     0.127 S 
ATOM     71  O   UNL A   1      46.123  38.057  28.752  1.00  0.00    -0.237 OA
ATOM     72  O   UNL A   1      47.475  36.844  27.089  1.00  0.00    -0.237 OA
ATOM     73  O   UNL A   1      45.025  36.836  26.913  1.00  0.00    -0.744 OA
ENDBRANCH  67  70
ENDBRANCH  40  63
ENDBRANCH  14  15
ENDBRANCH   7   9
ENDBRANCH   6   7
ENDBRANCH   5   6
ENDBRANCH   4   5
ENDBRANCH   3   4
ENDBRANCH   2   3
ENDBRANCH   1   2
BRANCH   1  74
ATOM     74  O   UNL A   1      35.547  22.664  25.427  1.00  0.00    -0.377 OA
BRANCH  74  75
ATOM     75  C   UNL A   1      34.830  23.214  26.526  1.00  0.00     0.188 C 
BRANCH  75  76
ATOM     76  C   UNL A   1      33.772  22.353  27.271  1.00  0.00     0.188 C 
BRANCH  76  77
ATOM     77  O   UNL A   1      33.296  21.216  26.584  1.00  0.00    -0.376 OA
BRANCH  77  78
ATOM     78  C   UNL A   1      32.473  21.337  25.430  1.00  0.00     0.202 C 
BRANCH  78  79
ATOM     79  C   UNL A   1      31.552  22.543  25.131  1.00  0.00     0.261 C 
BRANCH  79  80
ATOM     80  O   UNL A   1      31.548  23.001  23.773  1.00  0.00    -0.463 OA
BRANCH  80  81
ATOM     81  C   UNL A   1      32.675  23.604  23.305  1.00  0.00     0.312 C 
ATOM     82  O   UNL A   1      33.559  23.038  22.661  1.00  0.00    -0.252 OA
BRANCH  81  83
ATOM     83  C   UNL A   1      32.562  25.104  23.423  1.00  0.00     0.147 C 
ATOM     84  C   UNL A   1      31.138  25.658  23.252  1.00  0.00     0.129 C 
ATOM     85  C   UNL A   1      33.348  25.844  22.335  1.00  0.00     0.157 C 
ATOM     86  C   UNL A   1      31.345  26.663  22.108  1.00  0.00     0.155 C 
ATOM     87  C   UNL A   1      33.450  27.308  22.676  1.00  0.00     0.004 C 
ATOM     88  O   UNL A   1      32.321  25.932  21.310  1.00  0.00    -0.365 OA
ATOM     89  C   UNL A   1      32.217  27.812  22.525  1.00  0.00     0.004 C 
BRANCH  84  90
ATOM     90  C   UNL A   1      30.427  26.290  24.453  1.00  0.00     0.231 C 
ATOM     91  O   UNL A   1      29.194  26.357  24.460  1.00  0.00    -0.274 OA
ATOM     92  N   UNL A   1      31.110  26.495  25.629  1.00  0.00    -0.326 N 
ATOM     93  H   UNL A   1      30.945  25.833  26.339  1.00  0.00     0.169 HD
BRANCH  92  94
ATOM     94  C   UNL A   1      32.021  27.528  25.955  1.00  0.00     0.044 A 
ATOM     95  C   UNL A   1      33.337  27.291  26.366  1.00  0.00     0.029 A 
ATOM     96  C   UNL A   1      31.581  28.853  25.836  1.00  0.00     0.068 A 
ATOM     97  C   UNL A   1      34.178  28.352  26.734  1.00  0.00     0.044 A 
ATOM     98  C   UNL A   1      32.423  29.906  26.201  1.00  0.00     0.160 A 
ATOM     99  C   UNL A   1      33.708  29.657  26.662  1.00  0.00     0.158 A 
ATOM    100  F   UNL A   1      31.967  31.164  26.139  1.00  0.00    -0.204 F 
ATOM    101  F   UNL A   1      34.497  30.665  27.057  1.00  0.00    -0.204 F 
ENDBRANCH  92  94
ENDBRANCH  84  90
ENDBRANCH  81  83
ENDBRANCH  80  81
ENDBRANCH  79  80
ENDBRANCH  78  79
ENDBRANCH  77  78
ENDBRANCH  76  77
ENDBRANCH  75  76
ENDBRANCH  74  75
ENDBRANCH   1  74
TORSDOF 25
ENDMDL
MODEL 2
REMARK VINA RESULT:      -9.6      5.814     11.685
REMARK SMILES O=C(OCCOCCOCCOCCOC(=O)[C@@H]1[C@@H](C(=O)Nc2ccc(F)c(F)c2)[C@H]2C=C[C@@H]1O2)c1ccc(-c2c3nc(c(-c4cccc(S(=O)(=O)[O-])c4F)c4ccc([nH]4)c(-c4cccc(S(=O)(=O)[O-])c4F)c4nc(c(-c5cccc(S(=O)(=O)[O-])c5F)c5ccc2[nH]5)C=C4)C=C3)cc1
REMARK SMILES IDX 8 1 7 2 6 3 5 4 4 5 3 6 2 7 1 8 36 9 37 10 98 11 38 12 97 13
REMARK SMILES IDX 39 14 40 15 41 16 91 17 42 18 96 19 90 20 92 21 43 22 95 23
REMARK SMILES IDX 89 24 88 25 44 27 76 28 56 29 75 30 57 31 60 32 74 33 93 34
REMARK SMILES IDX 58 35 59 36 73 38 94 39 61 40 45 41 46 42 54 43 47 44 49 45
REMARK SMILES IDX 55 46 48 47 50 48 51 49 52 50 53 51 77 52 78 53 86 54 79 55
REMARK SMILES IDX 81 56 87 57 80 58 82 59 83 60 84 61 85 62 62 63 63 64 71 65
REMARK SMILES IDX 64 66 66 67 72 68 65 69 67 70 68 71 69 72 70 73 9 74 10 75
REMARK SMILES IDX 11 76 12 77 13 78 14 79 15 80 16 81 17 82 18 83 19 84 34 85
REMARK SMILES IDX 31 86 33 87 35 88 32 89 20 90 21 91 22 92 23 94 24 95 30 96
REMARK SMILES IDX 25 97 28 98 26 99 29 100 27 101
REMARK H PARENT 92 26 60 37 22 93
REMARK Flexibility Score: inf
ROOT
ATOM      1  C   UNL A   1      37.827  32.099  41.170  1.00  0.00     0.188 C 
ENDROOT
BRANCH   1   2
ATOM      2  C   UNL A   1      37.075  33.429  41.109  1.00  0.00     0.188 C 
BRANCH   2   3
ATOM      3  O   UNL A   1      37.997  34.497  41.249  1.00  0.00    -0.376 OA
BRANCH   3   4
ATOM      4  C   UNL A   1      39.371  34.300  41.528  1.00  0.00     0.202 C 
BRANCH   4   5
ATOM      5  C   UNL A   1      40.374  34.563  40.423  1.00  0.00     0.261 C 
BRANCH   5   6
ATOM      6  O   UNL A   1      40.287  35.821  39.720  1.00  0.00    -0.460 OA
BRANCH   6   7
ATOM      7  C   UNL A   1      39.959  36.168  38.455  1.00  0.00     0.338 C 
ATOM      8  O   UNL A   1      39.182  37.102  38.277  1.00  0.00    -0.246 OA
BRANCH   7   9
ATOM      9  C   UNL A   1      40.537  35.504  37.269  1.00  0.00     0.060 A 
ATOM     10  C   UNL A   1      39.785  35.026  36.209  1.00  0.00     0.016 A 
ATOM     11  C   UNL A   1      41.926  35.473  37.145  1.00  0.00     0.016 A 
ATOM     12  C   UNL A   1      40.325  34.235  35.228  1.00  0.00     0.010 A 
ATOM     13  C   UNL A   1      42.508  34.844  36.043  1.00  0.00     0.010 A 
ATOM     14  C   UNL A   1      41.698  34.150  35.130  1.00  0.00    -0.014 A 
BRANCH  14  15
ATOM     15  C   UNL A   1      42.246  33.202  34.156  1.00  0.00     0.031 A 
ATOM     16  C   UNL A   1      42.658  33.763  32.835  1.00  0.00     0.074 A 
ATOM     17  C   UNL A   1      42.469  31.923  34.505  1.00  0.00     0.049 A 
ATOM     18  N   UNL A   1      42.960  33.140  31.736  1.00  0.00    -0.248 NA
ATOM     19  C   UNL A   1      42.722  35.234  32.736  1.00  0.00     0.031 C 
ATOM     20  C   UNL A   1      42.251  31.351  35.839  1.00  0.00     0.029 A 
ATOM     21  N   UNL A   1      42.942  30.874  33.770  1.00  0.00    -0.354 N 
ATOM     22  C   UNL A   1      43.140  34.138  30.789  1.00  0.00     0.074 A 
ATOM     23  C   UNL A   1      42.949  35.408  31.445  1.00  0.00     0.031 C 
ATOM     24  C   UNL A   1      42.592  30.055  35.827  1.00  0.00     0.029 A 
ATOM     25  C   UNL A   1      42.929  29.685  34.461  1.00  0.00     0.049 A 
ATOM     26  H   UNL A   1      43.258  30.958  32.842  1.00  0.00     0.167 HD
ATOM     27  C   UNL A   1      43.415  33.980  29.477  1.00  0.00     0.034 A 
ATOM     28  C   UNL A   1      43.088  28.430  34.007  1.00  0.00     0.034 A 
ATOM     29  C   UNL A   1      43.621  32.686  28.895  1.00  0.00     0.049 A 
ATOM     30  C   UNL A   1      43.334  28.272  32.533  1.00  0.00     0.074 A 
ATOM     31  C   UNL A   1      43.870  32.355  27.580  1.00  0.00     0.029 A 
ATOM     32  N   UNL A   1      43.596  31.498  29.618  1.00  0.00    -0.354 N 
ATOM     33  N   UNL A   1      43.449  29.205  31.615  1.00  0.00    -0.248 NA
ATOM     34  C   UNL A   1      43.477  26.904  32.029  1.00  0.00     0.031 C 
ATOM     35  C   UNL A   1      43.958  30.960  27.503  1.00  0.00     0.029 A 
ATOM     36  C   UNL A   1      43.818  30.427  28.779  1.00  0.00     0.049 A 
ATOM     37  H   UNL A   1      43.443  31.432  30.588  1.00  0.00     0.167 HD
ATOM     38  C   UNL A   1      43.710  28.542  30.426  1.00  0.00     0.074 A 
ATOM     39  C   UNL A   1      43.750  27.126  30.750  1.00  0.00     0.031 C 
ATOM     40  C   UNL A   1      43.891  29.042  29.179  1.00  0.00     0.034 A 
BRANCH  27  41
ATOM     41  C   UNL A   1      43.412  35.218  28.624  1.00  0.00     0.023 A 
ATOM     42  C   UNL A   1      42.215  35.708  28.063  1.00  0.00     0.012 A 
ATOM     43  C   UNL A   1      44.628  35.863  28.326  1.00  0.00     0.148 A 
ATOM     44  C   UNL A   1      42.236  36.787  27.178  1.00  0.00     0.002 A 
ATOM     45  C   UNL A   1      44.635  36.969  27.486  1.00  0.00     0.091 A 
ATOM     46  F   UNL A   1      45.760  35.359  28.837  1.00  0.00    -0.205 F 
ATOM     47  C   UNL A   1      43.444  37.421  26.896  1.00  0.00     0.022 A 
BRANCH  45  48
ATOM     48  S   UNL A   1      46.129  37.892  27.114  1.00  0.00     0.127 S 
ATOM     49  O   UNL A   1      46.555  38.315  28.447  1.00  0.00    -0.237 OA
ATOM     50  O   UNL A   1      46.972  36.868  26.500  1.00  0.00    -0.237 OA
ATOM     51  O   UNL A   1      45.726  38.970  26.219  1.00  0.00    -0.744 OA
ENDBRANCH  45  48
ENDBRANCH  27  41
BRANCH  28  52
ATOM     52  C   UNL A   1      42.969  27.269  34.933  1.00  0.00     0.023 A 
ATOM     53  C   UNL A   1      41.697  26.756  35.249  1.00  0.00     0.012 A 
ATOM     54  C   UNL A   1      44.113  26.639  35.469  1.00  0.00     0.148 A 
ATOM     55  C   UNL A   1      41.565  25.657  36.101  1.00  0.00     0.002 A 
ATOM     56  C   UNL A   1      43.977  25.511  36.270  1.00  0.00     0.091 A 
ATOM     57  F   UNL A   1      45.317  27.142  35.164  1.00  0.00    -0.205 F 
ATOM     58  C   UNL A   1      42.702  25.029  36.602  1.00  0.00     0.022 A 
BRANCH  56  59
ATOM     59  S   UNL A   1      45.386  24.562  36.855  1.00  0.00     0.127 S 
ATOM     60  O   UNL A   1      45.414  23.452  35.905  1.00  0.00    -0.237 OA
ATOM     61  O   UNL A   1      46.479  25.525  36.707  1.00  0.00    -0.237 OA
ATOM     62  O   UNL A   1      45.081  24.207  38.233  1.00  0.00    -0.744 OA
ENDBRANCH  56  59
ENDBRANCH  28  52
BRANCH  40  63
ATOM     63  C   UNL A   1      44.218  28.057  28.097  1.00  0.00     0.023 A 
ATOM     64  C   UNL A   1      45.560  27.740  27.810  1.00  0.00     0.012 A 
ATOM     65  C   UNL A   1      43.178  27.372  27.443  1.00  0.00     0.148 A 
ATOM     66  C   UNL A   1      45.859  26.767  26.860  1.00  0.00     0.002 A 
ATOM     67  C   UNL A   1      43.484  26.363  26.544  1.00  0.00     0.091 A 
ATOM     68  F   UNL A   1      41.911  27.714  27.724  1.00  0.00    -0.205 F 
ATOM     69  C   UNL A   1      44.823  26.069  26.241  1.00  0.00     0.022 A 
BRANCH  67  70
ATOM     70  S   UNL A   1      42.217  25.335  25.799  1.00  0.00     0.127 S 
ATOM     71  O   UNL A   1      41.475  26.310  25.003  1.00  0.00    -0.237 OA
ATOM     72  O   UNL A   1      43.012  24.386  25.019  1.00  0.00    -0.237 OA
ATOM     73  O   UNL A   1      41.478  24.739  26.904  1.00  0.00    -0.744 OA
ENDBRANCH  67  70
ENDBRANCH  40  63
ENDBRANCH  14  15
ENDBRANCH   7   9
ENDBRANCH   6   7
ENDBRANCH   5   6
ENDBRANCH   4   5
ENDBRANCH   3   4
ENDBRANCH   2   3
ENDBRANCH   1   2
BRANCH   1  74
ATOM     74  O   UNL A   1      37.769  31.323  39.973  1.00  0.00    -0.377 OA
BRANCH  74  75
ATOM     75  C   UNL A   1      37.103  31.943  38.879  1.00  0.00     0.188 C 
BRANCH  75  76
ATOM     76  C   UNL A   1      37.898  32.314  37.596  1.00  0.00     0.188 C 
BRANCH  76  77
ATOM     77  O   UNL A   1      38.345  31.235  36.804  1.00  0.00    -0.376 OA
BRANCH  77  78
ATOM     78  C   UNL A   1      38.234  31.259  35.386  1.00  0.00     0.202 C 
BRANCH  78  79
ATOM     79  C   UNL A   1      38.798  30.172  34.442  1.00  0.00     0.261 C 
BRANCH  79  80
ATOM     80  O   UNL A   1      37.826  29.438  33.688  1.00  0.00    -0.463 OA
BRANCH  80  81
ATOM     81  C   UNL A   1      38.281  28.569  32.743  1.00  0.00     0.312 C 
ATOM     82  O   UNL A   1      38.250  27.343  32.843  1.00  0.00    -0.252 OA
BRANCH  81  83
ATOM     83  C   UNL A   1      38.557  29.293  31.447  1.00  0.00     0.147 C 
ATOM     84  C   UNL A   1      37.668  28.865  30.269  1.00  0.00     0.129 C 
ATOM     85  C   UNL A   1      39.972  29.035  30.917  1.00  0.00     0.157 C 
ATOM     86  C   UNL A   1      38.724  28.463  29.229  1.00  0.00     0.155 C 
ATOM     87  C   UNL A   1      40.293  30.003  29.808  1.00  0.00     0.004 C 
ATOM     88  O   UNL A   1      39.716  27.856  30.106  1.00  0.00    -0.365 OA
ATOM     89  C   UNL A   1      39.530  29.643  28.766  1.00  0.00     0.004 C 
BRANCH  84  90
ATOM     90  C   UNL A   1      36.646  29.856  29.700  1.00  0.00     0.231 C 
ATOM     91  O   UNL A   1      35.802  29.458  28.891  1.00  0.00    -0.274 OA
ATOM     92  N   UNL A   1      36.466  31.080  30.300  1.00  0.00    -0.326 N 
ATOM     93  H   UNL A   1      35.675  31.158  30.882  1.00  0.00     0.169 HD
BRANCH  92  94
ATOM     94  C   UNL A   1      37.264  32.245  30.194  1.00  0.00     0.044 A 
ATOM     95  C   UNL A   1      37.567  32.860  28.974  1.00  0.00     0.029 A 
ATOM     96  C   UNL A   1      37.753  32.816  31.375  1.00  0.00     0.068 A 
ATOM     97  C   UNL A   1      38.412  33.978  28.922  1.00  0.00     0.044 A 
ATOM     98  C   UNL A   1      38.593  33.930  31.319  1.00  0.00     0.160 A 
ATOM     99  C   UNL A   1      38.933  34.499  30.099  1.00  0.00     0.158 A 
ATOM    100  F   UNL A   1      39.101  34.429  32.454  1.00  0.00    -0.204 F 
ATOM    101  F   UNL A   1      39.776  35.539  30.043  1.00  0.00    -0.204 F 
ENDBRANCH  92  94
ENDBRANCH  84  90
ENDBRANCH  81  83
ENDBRANCH  80  81
ENDBRANCH  79  80
ENDBRANCH  78  79
ENDBRANCH  77  78
ENDBRANCH  76  77
ENDBRANCH  75  76
ENDBRANCH  74  75
ENDBRANCH   1  74
TORSDOF 25
ENDMDL
MODEL 3
REMARK VINA RESULT:      -9.6      1.515      2.324
REMARK SMILES O=C(OCCOCCOCCOCCOC(=O)[C@@H]1[C@@H](C(=O)Nc2ccc(F)c(F)c2)[C@H]2C=C[C@@H]1O2)c1ccc(-c2c3nc(c(-c4cccc(S(=O)(=O)[O-])c4F)c4ccc([nH]4)c(-c4cccc(S(=O)(=O)[O-])c4F)c4nc(c(-c5cccc(S(=O)(=O)[O-])c5F)c5ccc2[nH]5)C=C4)C=C3)cc1
REMARK SMILES IDX 8 1 7 2 6 3 5 4 4 5 3 6 2 7 1 8 36 9 37 10 98 11 38 12 97 13
REMARK SMILES IDX 39 14 40 15 41 16 91 17 42 18 96 19 90 20 92 21 43 22 95 23
REMARK SMILES IDX 89 24 88 25 44 27 76 28 56 29 75 30 57 31 60 32 74 33 93 34
REMARK SMILES IDX 58 35 59 36 73 38 94 39 61 40 45 41 46 42 54 43 47 44 49 45
REMARK SMILES IDX 55 46 48 47 50 48 51 49 52 50 53 51 77 52 78 53 86 54 79 55
REMARK SMILES IDX 81 56 87 57 80 58 82 59 83 60 84 61 85 62 62 63 63 64 71 65
REMARK SMILES IDX 64 66 66 67 72 68 65 69 67 70 68 71 69 72 70 73 9 74 10 75
REMARK SMILES IDX 11 76 12 77 13 78 14 79 15 80 16 81 17 82 18 83 19 84 34 85
REMARK SMILES IDX 31 86 33 87 35 88 32 89 20 90 21 91 22 92 23 94 24 95 30 96
REMARK SMILES IDX 25 97 28 98 26 99 29 100 27 101
REMARK H PARENT 92 26 60 37 22 93
REMARK Flexibility Score: inf
ROOT
ATOM      1  C   UNL A   1      36.121  21.416  26.119  1.00  0.00     0.188 C 
ENDROOT
BRANCH   1   2
ATOM      2  C   UNL A   1      36.771  21.113  24.769  1.00  0.00     0.188 C 
BRANCH   2   3
ATOM      3  O   UNL A   1      38.013  20.461  24.980  1.00  0.00    -0.376 OA
BRANCH   3   4
ATOM      4  C   UNL A   1      39.172  21.136  25.431  1.00  0.00     0.202 C 
BRANCH   4   5
ATOM      5  C   UNL A   1      39.949  20.538  26.587  1.00  0.00     0.261 C 
BRANCH   5   6
ATOM      6  O   UNL A   1      41.185  19.855  26.285  1.00  0.00    -0.460 OA
BRANCH   6   7
ATOM      7  C   UNL A   1      42.363  20.241  25.745  1.00  0.00     0.338 C 
ATOM      8  O   UNL A   1      42.973  19.456  25.024  1.00  0.00    -0.246 OA
BRANCH   7   9
ATOM      9  C   UNL A   1      42.926  21.592  25.941  1.00  0.00     0.060 A 
ATOM     10  C   UNL A   1      43.555  22.005  27.104  1.00  0.00     0.016 A 
ATOM     11  C   UNL A   1      42.945  22.462  24.850  1.00  0.00     0.016 A 
ATOM     12  C   UNL A   1      43.880  23.317  27.333  1.00  0.00     0.010 A 
ATOM     13  C   UNL A   1      43.460  23.750  25.002  1.00  0.00     0.010 A 
ATOM     14  C   UNL A   1      43.848  24.200  26.274  1.00  0.00    -0.014 A 
BRANCH  14  15
ATOM     15  C   UNL A   1      44.077  25.616  26.571  1.00  0.00     0.031 A 
ATOM     16  C   UNL A   1      45.406  26.174  26.186  1.00  0.00     0.074 A 
ATOM     17  C   UNL A   1      43.079  26.379  27.051  1.00  0.00     0.049 A 
ATOM     18  N   UNL A   1      45.950  27.306  26.519  1.00  0.00    -0.248 NA
ATOM     19  C   UNL A   1      46.248  25.330  25.317  1.00  0.00     0.031 C 
ATOM     20  C   UNL A   1      41.699  25.933  27.286  1.00  0.00     0.029 A 
ATOM     21  N   UNL A   1      43.067  27.694  27.419  1.00  0.00    -0.354 N 
ATOM     22  C   UNL A   1      47.234  27.262  25.996  1.00  0.00     0.074 A 
ATOM     23  C   UNL A   1      47.381  26.010  25.294  1.00  0.00     0.031 C 
ATOM     24  C   UNL A   1      40.976  26.960  27.755  1.00  0.00     0.029 A 
ATOM     25  C   UNL A   1      41.869  28.087  27.969  1.00  0.00     0.049 A 
ATOM     26  H   UNL A   1      43.835  28.298  27.304  1.00  0.00     0.167 HD
ATOM     27  C   UNL A   1      48.204  28.191  26.128  1.00  0.00     0.034 A 
ATOM     28  C   UNL A   1      41.567  29.208  28.647  1.00  0.00     0.034 A 
ATOM     29  C   UNL A   1      47.980  29.429  26.816  1.00  0.00     0.049 A 
ATOM     30  C   UNL A   1      42.676  30.204  28.835  1.00  0.00     0.074 A 
ATOM     31  C   UNL A   1      48.866  30.455  27.069  1.00  0.00     0.029 A 
ATOM     32  N   UNL A   1      46.758  29.798  27.369  1.00  0.00    -0.354 N 
ATOM     33  N   UNL A   1      43.913  30.147  28.395  1.00  0.00    -0.248 NA
ATOM     34  C   UNL A   1      42.359  31.411  29.600  1.00  0.00     0.031 C 
ATOM     35  C   UNL A   1      48.186  31.430  27.808  1.00  0.00     0.029 A 
ATOM     36  C   UNL A   1      46.863  31.035  27.969  1.00  0.00     0.049 A 
ATOM     37  H   UNL A   1      45.937  29.256  27.335  1.00  0.00     0.167 HD
ATOM     38  C   UNL A   1      44.517  31.326  28.801  1.00  0.00     0.074 A 
ATOM     39  C   UNL A   1      43.499  32.082  29.511  1.00  0.00     0.031 C 
ATOM     40  C   UNL A   1      45.792  31.751  28.620  1.00  0.00     0.034 A 
BRANCH  27  41
ATOM     41  C   UNL A   1      49.565  27.841  25.595  1.00  0.00     0.023 A 
ATOM     42  C   UNL A   1      49.911  28.119  24.257  1.00  0.00     0.012 A 
ATOM     43  C   UNL A   1      50.487  27.169  26.421  1.00  0.00     0.148 A 
ATOM     44  C   UNL A   1      51.132  27.686  23.736  1.00  0.00     0.002 A 
ATOM     45  C   UNL A   1      51.721  26.788  25.910  1.00  0.00     0.091 A 
ATOM     46  F   UNL A   1      50.125  26.879  27.678  1.00  0.00    -0.205 F 
ATOM     47  C   UNL A   1      52.038  27.028  24.564  1.00  0.00     0.022 A 
BRANCH  45  48
ATOM     48  S   UNL A   1      52.980  25.995  26.914  1.00  0.00     0.127 S 
ATOM     49  O   UNL A   1      54.144  26.839  26.651  1.00  0.00    -0.237 OA
ATOM     50  O   UNL A   1      52.421  26.126  28.259  1.00  0.00    -0.237 OA
ATOM     51  O   UNL A   1      53.083  24.625  26.426  1.00  0.00    -0.744 OA
ENDBRANCH  45  48
ENDBRANCH  27  41
BRANCH  28  52
ATOM     52  C   UNL A   1      40.204  29.402  29.219  1.00  0.00     0.023 A 
ATOM     53  C   UNL A   1      39.159  29.851  28.391  1.00  0.00     0.012 A 
ATOM     54  C   UNL A   1      39.926  29.101  30.570  1.00  0.00     0.148 A 
ATOM     55  C   UNL A   1      37.870  30.023  28.903  1.00  0.00     0.002 A 
ATOM     56  C   UNL A   1      38.630  29.219  31.057  1.00  0.00     0.091 A 
ATOM     57  F   UNL A   1      40.934  28.680  31.347  1.00  0.00    -0.205 F 
ATOM     58  C   UNL A   1      37.603  29.698  30.230  1.00  0.00     0.022 A 
BRANCH  56  59
ATOM     59  S   UNL A   1      38.168  28.703  32.715  1.00  0.00     0.127 S 
ATOM     60  O   UNL A   1      36.806  29.220  32.821  1.00  0.00    -0.237 OA
ATOM     61  O   UNL A   1      38.267  27.246  32.614  1.00  0.00    -0.237 OA
ATOM     62  O   UNL A   1      39.145  29.311  33.607  1.00  0.00    -0.744 OA
ENDBRANCH  56  59
ENDBRANCH  28  52
BRANCH  40  63
ATOM     63  C   UNL A   1      46.129  33.118  29.135  1.00  0.00     0.023 A 
ATOM     64  C   UNL A   1      46.673  33.275  30.424  1.00  0.00     0.012 A 
ATOM     65  C   UNL A   1      45.997  34.233  28.286  1.00  0.00     0.148 A 
ATOM     66  C   UNL A   1      47.059  34.537  30.870  1.00  0.00     0.002 A 
ATOM     67  C   UNL A   1      46.440  35.474  28.715  1.00  0.00     0.091 A 
ATOM     68  F   UNL A   1      45.455  34.052  27.073  1.00  0.00    -0.205 F 
ATOM     69  C   UNL A   1      46.958  35.630  30.011  1.00  0.00     0.022 A 
BRANCH  67  70
ATOM     70  S   UNL A   1      46.461  36.904  27.633  1.00  0.00     0.127 S 
ATOM     71  O   UNL A   1      45.034  37.133  27.417  1.00  0.00    -0.237 OA
ATOM     72  O   UNL A   1      47.123  37.909  28.466  1.00  0.00    -0.237 OA
ATOM     73  O   UNL A   1      47.215  36.507  26.452  1.00  0.00    -0.744 OA
ENDBRANCH  67  70
ENDBRANCH  40  63
ENDBRANCH  14  15
ENDBRANCH   7   9
ENDBRANCH   6   7
ENDBRANCH   5   6
ENDBRANCH   4   5
ENDBRANCH   3   4
ENDBRANCH   2   3
ENDBRANCH   1   2
BRANCH   1  74
ATOM     74  O   UNL A   1      34.863  22.088  26.040  1.00  0.00    -0.377 OA
BRANCH  74  75
ATOM     75  C   UNL A   1      33.734  21.308  26.414  1.00  0.00     0.188 C 
BRANCH  75  76
ATOM     76  C   UNL A   1      32.878  20.610  25.320  1.00  0.00     0.188 C 
BRANCH  76  77
ATOM     77  O   UNL A   1      33.222  20.893  23.982  1.00  0.00    -0.376 OA
BRANCH  77  78
ATOM     78  C   UNL A   1      33.210  22.224  23.479  1.00  0.00     0.202 C 
BRANCH  78  79
ATOM     79  C   UNL A   1      32.145  23.287  23.834  1.00  0.00     0.261 C 
BRANCH  79  80
ATOM     80  O   UNL A   1      32.649  24.588  24.161  1.00  0.00    -0.463 OA
BRANCH  80  81
ATOM     81  C   UNL A   1      32.130  25.212  25.253  1.00  0.00     0.312 C 
ATOM     82  O   UNL A   1      31.965  24.684  26.352  1.00  0.00    -0.252 OA
BRANCH  81  83
ATOM     83  C   UNL A   1      32.055  26.703  25.025  1.00  0.00     0.147 C 
ATOM     84  C   UNL A   1      33.229  27.292  24.227  1.00  0.00     0.129 C 
ATOM     85  C   UNL A   1      32.097  27.503  26.333  1.00  0.00     0.157 C 
ATOM     86  C   UNL A   1      33.737  28.370  25.196  1.00  0.00     0.155 C 
ATOM     87  C   UNL A   1      31.717  28.937  26.073  1.00  0.00     0.004 C 
ATOM     88  O   UNL A   1      33.534  27.680  26.463  1.00  0.00    -0.365 OA
ATOM     89  C   UNL A   1      32.734  29.472  25.381  1.00  0.00     0.004 C 
BRANCH  84  90
ATOM     90  C   UNL A   1      32.978  27.851  22.822  1.00  0.00     0.231 C 
ATOM     91  O   UNL A   1      33.937  28.208  22.132  1.00  0.00    -0.274 OA
ATOM     92  N   UNL A   1      31.754  27.674  22.219  1.00  0.00    -0.326 N 
ATOM     93  H   UNL A   1      31.710  26.955  21.548  1.00  0.00     0.169 HD
BRANCH  92  94
ATOM     94  C   UNL A   1      30.550  28.386  22.435  1.00  0.00     0.044 A 
ATOM     95  C   UNL A   1      29.450  27.848  23.111  1.00  0.00     0.029 A 
ATOM     96  C   UNL A   1      30.471  29.703  21.964  1.00  0.00     0.068 A 
ATOM     97  C   UNL A   1      28.259  28.578  23.245  1.00  0.00     0.044 A 
ATOM     98  C   UNL A   1      29.285  30.426  22.101  1.00  0.00     0.160 A 
ATOM     99  C   UNL A   1      28.180  29.862  22.723  1.00  0.00     0.158 A 
ATOM    100  F   UNL A   1      29.206  31.663  21.591  1.00  0.00    -0.204 F 
ATOM    101  F   UNL A   1      27.028  30.540  22.812  1.00  0.00    -0.204 F 
ENDBRANCH  92  94
ENDBRANCH  84  90
ENDBRANCH  81  83
ENDBRANCH  80  81
ENDBRANCH  79  80
ENDBRANCH  78  79
ENDBRANCH  77  78
ENDBRANCH  76  77
ENDBRANCH  75  76
ENDBRANCH  74  75
ENDBRANCH   1  74
TORSDOF 25
ENDMDL
