MODEL 1
REMARK VINA RESULT:     -10.2      0.000      0.000
REMARK SMILES O=C(OCCOCCOCCOCCOC(=O)c1ccc(-c2c3nc(c(-c4cccc(S(=O)(=O)[O-])c4F)c4ccc([nH]4)c(-c4cccc(S(=O)(=O)[O-])c4F)c4nc(c(-c5cccc(S(=O)(=O)[O-])c5F)c5ccc2[nH]5)C=C4)C=C3)cc1)C1=Cc2cc(S(F)(F)(F)(F)F)ccc2O[C@@H]1C(F)(F)F
REMARK SMILES IDX 10 1 9 2 8 3 7 4 6 5 5 6 4 7 3 8 2 9 1 10 81 11 82 12 96 13
REMARK SMILES IDX 83 14 95 15 84 16 94 17 85 18 93 19 92 20 97 21 98 22 99 23
REMARK SMILES IDX 100 24 86 25 87 26 88 27 89 28 90 29 91 30 11 31 12 32 13 33
REMARK SMILES IDX 14 34 15 35 16 36 17 37 18 38 19 39 80 40 20 41 79 42 21 43
REMARK SMILES IDX 22 44 23 45 73 46 24 47 78 48 72 49 74 50 25 51 77 52 71 53
REMARK SMILES IDX 70 54 26 56 58 57 38 58 57 59 39 60 42 61 56 62 75 63 40 64
REMARK SMILES IDX 41 65 55 67 76 68 43 69 27 70 28 71 36 72 29 73 31 74 37 75
REMARK SMILES IDX 30 76 32 77 33 78 34 79 35 80 59 81 60 82 68 83 61 84 63 85
REMARK SMILES IDX 69 86 62 87 64 88 65 89 66 90 67 91 44 92 45 93 53 94 46 95
REMARK SMILES IDX 48 96 54 97 47 98 49 99 50 100 51 101 52 102
REMARK H PARENT 74 55 42 66
REMARK Flexibility Score: inf
ROOT
ATOM      1  C   UNL A   1      35.334  19.949  24.970  1.00  0.00     0.188 C 
ENDROOT
BRANCH   1   2
ATOM      2  O   UNL A   1      33.977  20.022  24.557  1.00  0.00    -0.377 OA
BRANCH   2   3
ATOM      3  C   UNL A   1      33.137  20.063  25.701  1.00  0.00     0.188 C 
BRANCH   3   4
ATOM      4  C   UNL A   1      33.323  21.390  26.418  1.00  0.00     0.188 C 
BRANCH   4   5
ATOM      5  O   UNL A   1      32.407  22.342  25.897  1.00  0.00    -0.376 OA
BRANCH   5   6
ATOM      6  C   UNL A   1      31.946  23.180  26.948  1.00  0.00     0.202 C 
BRANCH   6   7
ATOM      7  C   UNL A   1      31.022  24.243  26.377  1.00  0.00     0.261 C 
BRANCH   7   8
ATOM      8  O   UNL A   1      31.332  24.454  25.008  1.00  0.00    -0.460 OA
BRANCH   8   9
ATOM      9  C   UNL A   1      31.308  25.767  24.469  1.00  0.00     0.338 C 
ATOM     10  O   UNL A   1      30.659  26.006  23.402  1.00  0.00    -0.246 OA
BRANCH   9  11
ATOM     11  C   UNL A   1      32.059  26.889  25.169  1.00  0.00     0.087 C 
ATOM     12  C   UNL A   1      33.402  26.794  25.357  1.00  0.00     0.027 C 
ATOM     13  C   UNL A   1      31.308  28.117  25.658  1.00  0.00     0.316 C 
ATOM     14  C   UNL A   1      34.153  25.566  24.868  1.00  0.00     0.019 A 
ATOM     15  O   UNL A   1      32.856  25.714  22.883  1.00  0.00    -0.475 OA
ATOM     16  C   UNL A   1      35.040  24.907  25.705  1.00  0.00     0.036 A 
ATOM     17  C   UNL A   1      33.884  25.108  23.651  1.00  0.00     0.128 A 
ATOM     18  C   UNL A   1      35.819  23.923  25.052  1.00  0.00     0.107 A 
ATOM     19  C   UNL A   1      34.594  24.054  23.128  1.00  0.00     0.048 A 
ATOM     20  C   UNL A   1      35.527  23.394  23.878  1.00  0.00     0.028 A 
BRANCH  13  21
ATOM     21  C   UNL A   1      31.863  29.356  24.974  1.00  0.00     0.430 C 
ATOM     22  F   UNL A   1      32.149  29.072  23.708  1.00  0.00    -0.167 F 
ATOM     23  F   UNL A   1      30.957  30.329  25.018  1.00  0.00    -0.167 F 
ATOM     24  F   UNL A   1      32.968  29.750  25.601  1.00  0.00    -0.167 F 
ENDBRANCH  13  21
BRANCH  18  25
ATOM     25  S   UNL A   1      37.320  23.348  25.886  1.00  0.00     0.310 S 
ATOM     26  F   UNL A   1      37.747  22.453  24.649  1.00  0.00    -0.094 F 
ATOM     27  F   UNL A   1      36.521  22.101  26.425  1.00  0.00    -0.094 F 
ATOM     28  F   UNL A   1      38.612  22.866  26.604  1.00  0.00    -0.094 F 
ATOM     29  F   UNL A   1      38.136  24.525  25.223  1.00  0.00    -0.094 F 
ATOM     30  F   UNL A   1      36.044  23.787  25.061  1.00  0.00    -0.094 F 
ENDBRANCH  18  25
ENDBRANCH   9  11
ENDBRANCH   8   9
ENDBRANCH   7   8
ENDBRANCH   6   7
ENDBRANCH   5   6
ENDBRANCH   4   5
ENDBRANCH   3   4
ENDBRANCH   2   3
ENDBRANCH   1   2
BRANCH   1  31
ATOM     31  C   UNL A   1      35.905  18.591  24.598  1.00  0.00     0.188 C 
BRANCH  31  32
ATOM     32  O   UNL A   1      37.161  18.415  25.237  1.00  0.00    -0.376 OA
BRANCH  32  33
ATOM     33  C   UNL A   1      38.046  19.451  24.837  1.00  0.00     0.202 C 
BRANCH  33  34
ATOM     34  C   UNL A   1      39.095  19.665  25.916  1.00  0.00     0.261 C 
BRANCH  34  35
ATOM     35  O   UNL A   1      40.228  18.854  25.644  1.00  0.00    -0.460 OA
BRANCH  35  36
ATOM     36  C   UNL A   1      41.502  19.219  26.154  1.00  0.00     0.338 C 
ATOM     37  O   UNL A   1      42.382  18.326  26.362  1.00  0.00    -0.246 OA
BRANCH  36  38
ATOM     38  C   UNL A   1      41.812  20.676  26.454  1.00  0.00     0.060 A 
ATOM     39  C   UNL A   1      42.103  21.090  27.742  1.00  0.00     0.016 A 
ATOM     40  C   UNL A   1      41.896  21.513  25.425  1.00  0.00     0.016 A 
ATOM     41  C   UNL A   1      42.195  22.494  27.887  1.00  0.00     0.010 A 
ATOM     42  C   UNL A   1      42.124  22.853  25.632  1.00  0.00     0.010 A 
ATOM     43  C   UNL A   1      42.360  23.341  26.886  1.00  0.00    -0.014 A 
BRANCH  43  44
ATOM     44  C   UNL A   1      42.791  24.780  27.117  1.00  0.00     0.031 A 
ATOM     45  C   UNL A   1      44.101  25.108  26.765  1.00  0.00     0.074 A 
ATOM     46  C   UNL A   1      41.919  25.650  27.749  1.00  0.00     0.049 A 
ATOM     47  N   UNL A   1      44.721  26.277  26.932  1.00  0.00    -0.248 NA
ATOM     48  C   UNL A   1      45.041  24.176  26.123  1.00  0.00     0.031 C 
ATOM     49  C   UNL A   1      40.593  25.329  28.101  1.00  0.00     0.029 A 
ATOM     50  N   UNL A   1      42.159  26.946  28.148  1.00  0.00    -0.354 N 
ATOM     51  C   UNL A   1      45.964  26.214  26.452  1.00  0.00     0.074 A 
ATOM     52  C   UNL A   1      46.190  24.859  25.931  1.00  0.00     0.031 C 
ATOM     53  C   UNL A   1      40.046  26.412  28.712  1.00  0.00     0.029 A 
ATOM     54  C   UNL A   1      41.019  27.427  28.753  1.00  0.00     0.049 A 
ATOM     55  H   UNL A   1      42.999  27.442  28.023  1.00  0.00     0.167 HD
ATOM     56  C   UNL A   1      46.918  27.233  26.428  1.00  0.00     0.034 A 
ATOM     57  C   UNL A   1      40.820  28.678  29.316  1.00  0.00     0.034 A 
ATOM     58  C   UNL A   1      46.705  28.498  26.952  1.00  0.00     0.049 A 
ATOM     59  C   UNL A   1      41.795  29.680  29.343  1.00  0.00     0.074 A 
ATOM     60  C   UNL A   1      47.653  29.539  26.928  1.00  0.00     0.029 A 
ATOM     61  N   UNL A   1      45.574  28.972  27.578  1.00  0.00    -0.354 N 
ATOM     62  N   UNL A   1      43.024  29.628  28.828  1.00  0.00    -0.248 NA
ATOM     63  C   UNL A   1      41.607  30.996  29.966  1.00  0.00     0.031 C 
ATOM     64  C   UNL A   1      47.105  30.623  27.540  1.00  0.00     0.029 A 
ATOM     65  C   UNL A   1      45.805  30.276  27.957  1.00  0.00     0.049 A 
ATOM     66  H   UNL A   1      44.743  28.466  27.730  1.00  0.00     0.167 HD
ATOM     67  C   UNL A   1      43.657  30.785  29.034  1.00  0.00     0.074 A 
ATOM     68  C   UNL A   1      42.757  31.680  29.775  1.00  0.00     0.031 C 
ATOM     69  C   UNL A   1      44.947  31.132  28.629  1.00  0.00     0.034 A 
BRANCH  56  70
ATOM     70  C   UNL A   1      48.265  26.939  25.790  1.00  0.00     0.023 A 
ATOM     71  C   UNL A   1      49.387  26.688  26.563  1.00  0.00     0.012 A 
ATOM     72  C   UNL A   1      48.348  27.038  24.468  1.00  0.00     0.148 A 
ATOM     73  C   UNL A   1      50.609  26.845  25.868  1.00  0.00     0.002 A 
ATOM     74  C   UNL A   1      49.572  27.048  23.843  1.00  0.00     0.091 A 
ATOM     75  F   UNL A   1      47.238  27.128  23.743  1.00  0.00    -0.205 F 
ATOM     76  C   UNL A   1      50.726  26.866  24.552  1.00  0.00     0.022 A 
BRANCH  74  77
ATOM     77  S   UNL A   1      49.658  27.307  22.053  1.00  0.00     0.127 S 
ATOM     78  O   UNL A   1      51.061  26.956  21.553  1.00  0.00    -0.237 OA
ATOM     79  O   UNL A   1      48.629  26.412  21.358  1.00  0.00    -0.237 OA
ATOM     80  O   UNL A   1      49.320  28.946  21.698  1.00  0.00    -0.744 OA
ENDBRANCH  74  77
ENDBRANCH  56  70
BRANCH  57  81
ATOM     81  C   UNL A   1      39.467  28.978  29.939  1.00  0.00     0.023 A 
ATOM     82  C   UNL A   1      39.132  28.631  31.237  1.00  0.00     0.012 A 
ATOM     83  C   UNL A   1      38.632  29.671  29.174  1.00  0.00     0.148 A 
ATOM     84  C   UNL A   1      37.763  28.813  31.544  1.00  0.00     0.002 A 
ATOM     85  C   UNL A   1      37.350  29.930  29.594  1.00  0.00     0.091 A 
ATOM     86  F   UNL A   1      39.042  30.117  27.990  1.00  0.00    -0.205 F 
ATOM     87  C   UNL A   1      36.931  29.562  30.842  1.00  0.00     0.022 A 
BRANCH  85  88
ATOM     88  S   UNL A   1      36.199  30.768  28.477  1.00  0.00     0.127 S 
ATOM     89  O   UNL A   1      34.868  31.002  29.196  1.00  0.00    -0.237 OA
ATOM     90  O   UNL A   1      36.791  32.113  28.050  1.00  0.00    -0.237 OA
ATOM     91  O   UNL A   1      35.936  29.797  27.095  1.00  0.00    -0.744 OA
ENDBRANCH  85  88
ENDBRANCH  57  81
BRANCH  69  92
ATOM     92  C   UNL A   1      45.442  32.535  28.945  1.00  0.00     0.023 A 
ATOM     93  C   UNL A   1      46.121  32.803  30.123  1.00  0.00     0.012 A 
ATOM     94  C   UNL A   1      45.299  33.462  28.006  1.00  0.00     0.148 A 
ATOM     95  C   UNL A   1      46.367  34.180  30.340  1.00  0.00     0.002 A 
ATOM     96  C   UNL A   1      45.686  34.758  28.238  1.00  0.00     0.091 A 
ATOM     97  F   UNL A   1      44.776  33.131  26.829  1.00  0.00    -0.205 F 
ATOM     98  C   UNL A   1      46.310  35.108  29.404  1.00  0.00     0.022 A 
BRANCH  96  99
ATOM     99  S   UNL A   1      45.366  36.024  26.984  1.00  0.00     0.127 S 
ATOM    100  O   UNL A   1      45.789  37.392  27.520  1.00  0.00    -0.237 OA
ATOM    101  O   UNL A   1      46.166  35.701  25.719  1.00  0.00    -0.237 OA
ATOM    102  O   UNL A   1      43.697  36.048  26.612  1.00  0.00    -0.744 OA
ENDBRANCH  96  99
ENDBRANCH  69  92
ENDBRANCH  43  44
ENDBRANCH  36  38
ENDBRANCH  35  36
ENDBRANCH  34  35
ENDBRANCH  33  34
ENDBRANCH  32  33
ENDBRANCH  31  32
ENDBRANCH   1  31
TORSDOF 25
ENDMDL
MODEL 2
REMARK VINA RESULT:     -10.2      2.493      4.429
REMARK SMILES O=C(OCCOCCOCCOCCOC(=O)c1ccc(-c2c3nc(c(-c4cccc(S(=O)(=O)[O-])c4F)c4ccc([nH]4)c(-c4cccc(S(=O)(=O)[O-])c4F)c4nc(c(-c5cccc(S(=O)(=O)[O-])c5F)c5ccc2[nH]5)C=C4)C=C3)cc1)C1=Cc2cc(S(F)(F)(F)(F)F)ccc2O[C@@H]1C(F)(F)F
REMARK SMILES IDX 10 1 9 2 8 3 7 4 6 5 5 6 4 7 3 8 2 9 1 10 81 11 82 12 96 13
REMARK SMILES IDX 83 14 95 15 84 16 94 17 85 18 93 19 92 20 97 21 98 22 99 23
REMARK SMILES IDX 100 24 86 25 87 26 88 27 89 28 90 29 91 30 11 31 12 32 13 33
REMARK SMILES IDX 14 34 15 35 16 36 17 37 18 38 19 39 80 40 20 41 79 42 21 43
REMARK SMILES IDX 22 44 23 45 73 46 24 47 78 48 72 49 74 50 25 51 77 52 71 53
REMARK SMILES IDX 70 54 26 56 58 57 38 58 57 59 39 60 42 61 56 62 75 63 40 64
REMARK SMILES IDX 41 65 55 67 76 68 43 69 27 70 28 71 36 72 29 73 31 74 37 75
REMARK SMILES IDX 30 76 32 77 33 78 34 79 35 80 59 81 60 82 68 83 61 84 63 85
REMARK SMILES IDX 69 86 62 87 64 88 65 89 66 90 67 91 44 92 45 93 53 94 46 95
REMARK SMILES IDX 48 96 54 97 47 98 49 99 50 100 51 101 52 102
REMARK H PARENT 74 55 42 66
REMARK Flexibility Score: inf
ROOT
ATOM      1  C   UNL A   1      35.319  21.672  24.809  1.00  0.00     0.188 C 
ENDROOT
BRANCH   1   2
ATOM      2  O   UNL A   1      34.227  21.230  25.603  1.00  0.00    -0.377 OA
BRANCH   2   3
ATOM      3  C   UNL A   1      34.514  21.466  26.974  1.00  0.00     0.188 C 
BRANCH   3   4
ATOM      4  C   UNL A   1      33.478  22.417  27.550  1.00  0.00     0.188 C 
BRANCH   4   5
ATOM      5  O   UNL A   1      32.355  22.476  26.683  1.00  0.00    -0.376 OA
BRANCH   5   6
ATOM      6  C   UNL A   1      31.846  23.801  26.658  1.00  0.00     0.202 C 
BRANCH   6   7
ATOM      7  C   UNL A   1      32.900  24.738  26.092  1.00  0.00     0.261 C 
BRANCH   7   8
ATOM      8  O   UNL A   1      32.303  25.984  25.768  1.00  0.00    -0.460 OA
BRANCH   8   9
ATOM      9  C   UNL A   1      31.139  26.024  24.956  1.00  0.00     0.338 C 
ATOM     10  O   UNL A   1      30.002  26.230  25.486  1.00  0.00    -0.246 OA
BRANCH   9  11
ATOM     11  C   UNL A   1      31.252  25.820  23.454  1.00  0.00     0.087 C 
ATOM     12  C   UNL A   1      30.984  26.849  22.606  1.00  0.00     0.027 C 
ATOM     13  C   UNL A   1      31.665  24.466  22.900  1.00  0.00     0.316 C 
ATOM     14  C   UNL A   1      30.570  28.203  23.160  1.00  0.00     0.019 A 
ATOM     15  O   UNL A   1      32.276  27.920  24.790  1.00  0.00    -0.475 OA
ATOM     16  C   UNL A   1      29.466  28.863  22.646  1.00  0.00     0.036 A 
ATOM     17  C   UNL A   1      31.252  28.696  24.188  1.00  0.00     0.128 A 
ATOM     18  C   UNL A   1      29.330  30.195  23.105  1.00  0.00     0.107 A 
ATOM     19  C   UNL A   1      30.975  29.951  24.673  1.00  0.00     0.048 A 
ATOM     20  C   UNL A   1      29.935  30.684  24.172  1.00  0.00     0.028 A 
BRANCH  13  21
ATOM     21  C   UNL A   1      32.944  24.618  22.091  1.00  0.00     0.430 C 
ATOM     22  F   UNL A   1      32.659  25.161  20.912  1.00  0.00    -0.167 F 
ATOM     23  F   UNL A   1      33.793  25.403  22.748  1.00  0.00    -0.167 F 
ATOM     24  F   UNL A   1      33.497  23.422  21.908  1.00  0.00    -0.167 F 
ENDBRANCH  13  21
BRANCH  18  25
ATOM     25  S   UNL A   1      28.252  31.303  22.164  1.00  0.00     0.310 S 
ATOM     26  F   UNL A   1      29.085  32.584  22.586  1.00  0.00    -0.094 F 
ATOM     27  F   UNL A   1      27.381  31.526  23.458  1.00  0.00    -0.094 F 
ATOM     28  F   UNL A   1      27.328  32.249  21.346  1.00  0.00    -0.094 F 
ATOM     29  F   UNL A   1      29.214  31.178  20.918  1.00  0.00    -0.094 F 
ATOM     30  F   UNL A   1      29.261  30.431  23.013  1.00  0.00    -0.094 F 
ENDBRANCH  18  25
ENDBRANCH   9  11
ENDBRANCH   8   9
ENDBRANCH   7   8
ENDBRANCH   6   7
ENDBRANCH   5   6
ENDBRANCH   4   5
ENDBRANCH   3   4
ENDBRANCH   2   3
ENDBRANCH   1   2
BRANCH   1  31
ATOM     31  C   UNL A   1      36.561  21.793  25.678  1.00  0.00     0.188 C 
BRANCH  31  32
ATOM     32  O   UNL A   1      37.683  21.282  24.972  1.00  0.00    -0.376 OA
BRANCH  32  33
ATOM     33  C   UNL A   1      37.541  19.878  24.810  1.00  0.00     0.202 C 
BRANCH  33  34
ATOM     34  C   UNL A   1      38.601  19.164  25.633  1.00  0.00     0.261 C 
BRANCH  34  35
ATOM     35  O   UNL A   1      39.812  19.904  25.591  1.00  0.00    -0.460 OA
BRANCH  35  36
ATOM     36  C   UNL A   1      40.507  20.196  26.794  1.00  0.00     0.338 C 
ATOM     37  O   UNL A   1      40.801  19.260  27.601  1.00  0.00    -0.246 OA
BRANCH  36  38
ATOM     38  C   UNL A   1      40.898  21.629  27.117  1.00  0.00     0.060 A 
ATOM     39  C   UNL A   1      41.786  21.908  28.142  1.00  0.00     0.016 A 
ATOM     40  C   UNL A   1      40.442  22.589  26.320  1.00  0.00     0.016 A 
ATOM     41  C   UNL A   1      41.913  23.287  28.432  1.00  0.00     0.010 A 
ATOM     42  C   UNL A   1      40.718  23.908  26.586  1.00  0.00     0.010 A 
ATOM     43  C   UNL A   1      41.540  24.260  27.619  1.00  0.00    -0.014 A 
BRANCH  43  44
ATOM     44  C   UNL A   1      42.002  25.694  27.823  1.00  0.00     0.031 A 
ATOM     45  C   UNL A   1      43.309  25.994  27.434  1.00  0.00     0.074 A 
ATOM     46  C   UNL A   1      41.162  26.586  28.465  1.00  0.00     0.049 A 
ATOM     47  N   UNL A   1      43.953  27.154  27.572  1.00  0.00    -0.248 NA
ATOM     48  C   UNL A   1      44.215  25.037  26.781  1.00  0.00     0.031 C 
ATOM     49  C   UNL A   1      39.839  26.294  28.853  1.00  0.00     0.029 A 
ATOM     50  N   UNL A   1      41.435  27.883  28.842  1.00  0.00    -0.354 N 
ATOM     51  C   UNL A   1      45.183  27.062  27.063  1.00  0.00     0.074 A 
ATOM     52  C   UNL A   1      45.372  25.698  26.553  1.00  0.00     0.031 C 
ATOM     53  C   UNL A   1      39.327  27.394  29.464  1.00  0.00     0.029 A 
ATOM     54  C   UNL A   1      40.318  28.392  29.469  1.00  0.00     0.049 A 
ATOM     55  H   UNL A   1      42.280  28.362  28.691  1.00  0.00     0.167 HD
ATOM     56  C   UNL A   1      46.154  28.063  27.003  1.00  0.00     0.034 A 
ATOM     57  C   UNL A   1      40.157  29.653  30.022  1.00  0.00     0.034 A 
ATOM     58  C   UNL A   1      45.977  29.338  27.517  1.00  0.00     0.049 A 
ATOM     59  C   UNL A   1      41.149  30.637  30.013  1.00  0.00     0.074 A 
ATOM     60  C   UNL A   1      46.942  30.361  27.457  1.00  0.00     0.029 A 
ATOM     61  N   UNL A   1      44.870  29.840  28.164  1.00  0.00    -0.354 N 
ATOM     62  N   UNL A   1      42.364  30.556  29.468  1.00  0.00    -0.248 NA
ATOM     63  C   UNL A   1      41.000  31.964  30.624  1.00  0.00     0.031 C 
ATOM     64  C   UNL A   1      46.429  31.462  28.068  1.00  0.00     0.029 A 
ATOM     65  C   UNL A   1      45.134  31.144  28.522  1.00  0.00     0.049 A 
ATOM     66  H   UNL A   1      44.034  29.351  28.342  1.00  0.00     0.167 HD
ATOM     67  C   UNL A   1      43.023  31.704  29.645  1.00  0.00     0.074 A 
ATOM     68  C   UNL A   1      42.158  32.623  30.396  1.00  0.00     0.031 C 
ATOM     69  C   UNL A   1      44.308  32.023  29.204  1.00  0.00     0.034 A 
BRANCH  56  70
ATOM     70  C   UNL A   1      47.480  27.737  26.335  1.00  0.00     0.023 A 
ATOM     71  C   UNL A   1      47.713  28.058  25.008  1.00  0.00     0.012 A 
ATOM     72  C   UNL A   1      48.362  27.037  27.040  1.00  0.00     0.148 A 
ATOM     73  C   UNL A   1      48.786  27.344  24.425  1.00  0.00     0.002 A 
ATOM     74  C   UNL A   1      49.460  26.481  26.430  1.00  0.00     0.091 A 
ATOM     75  F   UNL A   1      48.180  26.874  28.346  1.00  0.00    -0.205 F 
ATOM     76  C   UNL A   1      49.721  26.707  25.108  1.00  0.00     0.022 A 
BRANCH  74  77
ATOM     77  S   UNL A   1      50.578  25.431  27.392  1.00  0.00     0.127 S 
ATOM     78  O   UNL A   1      51.198  26.251  28.526  1.00  0.00    -0.237 OA
ATOM     79  O   UNL A   1      49.793  24.256  27.982  1.00  0.00    -0.237 OA
ATOM     80  O   UNL A   1      51.817  24.836  26.375  1.00  0.00    -0.744 OA
ENDBRANCH  74  77
ENDBRANCH  56  70
BRANCH  57  81
ATOM     81  C   UNL A   1      38.825  29.984  30.674  1.00  0.00     0.023 A 
ATOM     82  C   UNL A   1      38.523  29.675  31.990  1.00  0.00     0.012 A 
ATOM     83  C   UNL A   1      37.976  30.666  29.915  1.00  0.00     0.148 A 
ATOM     84  C   UNL A   1      37.165  29.881  32.330  1.00  0.00     0.002 A 
ATOM     85  C   UNL A   1      36.709  30.950  30.363  1.00  0.00     0.091 A 
ATOM     86  F   UNL A   1      38.356  31.076  28.708  1.00  0.00    -0.205 F 
ATOM     87  C   UNL A   1      36.321  30.621  31.632  1.00  0.00     0.022 A 
BRANCH  85  88
ATOM     88  S   UNL A   1      35.535  31.772  29.257  1.00  0.00     0.127 S 
ATOM     89  O   UNL A   1      36.276  32.799  28.398  1.00  0.00    -0.237 OA
ATOM     90  O   UNL A   1      34.875  30.730  28.350  1.00  0.00    -0.237 OA
ATOM     91  O   UNL A   1      34.335  32.562  30.183  1.00  0.00    -0.744 OA
ENDBRANCH  85  88
ENDBRANCH  57  81
BRANCH  69  92
ATOM     92  C   UNL A   1      44.836  33.420  29.491  1.00  0.00     0.023 A 
ATOM     93  C   UNL A   1      45.875  33.620  30.385  1.00  0.00     0.012 A 
ATOM     94  C   UNL A   1      44.342  34.421  28.773  1.00  0.00     0.148 A 
ATOM     95  C   UNL A   1      46.136  34.983  30.663  1.00  0.00     0.002 A 
ATOM     96  C   UNL A   1      44.743  35.714  29.007  1.00  0.00     0.091 A 
ATOM     97  F   UNL A   1      43.451  34.170  27.818  1.00  0.00    -0.205 F 
ATOM     98  C   UNL A   1      45.724  35.992  29.919  1.00  0.00     0.022 A 
BRANCH  96  99
ATOM     99  S   UNL A   1      43.962  37.069  28.096  1.00  0.00     0.127 S 
ATOM    100  O   UNL A   1      43.979  36.754  26.599  1.00  0.00    -0.237 OA
ATOM    101  O   UNL A   1      42.515  37.233  28.567  1.00  0.00    -0.237 OA
ATOM    102  O   UNL A   1      44.822  38.519  28.384  1.00  0.00    -0.744 OA
ENDBRANCH  96  99
ENDBRANCH  69  92
ENDBRANCH  43  44
ENDBRANCH  36  38
ENDBRANCH  35  36
ENDBRANCH  34  35
ENDBRANCH  33  34
ENDBRANCH  32  33
ENDBRANCH  31  32
ENDBRANCH   1  31
TORSDOF 25
ENDMDL
MODEL 3
REMARK VINA RESULT:      -9.9      6.340     10.446
REMARK SMILES O=C(OCCOCCOCCOCCOC(=O)c1ccc(-c2c3nc(c(-c4cccc(S(=O)(=O)[O-])c4F)c4ccc([nH]4)c(-c4cccc(S(=O)(=O)[O-])c4F)c4nc(c(-c5cccc(S(=O)(=O)[O-])c5F)c5ccc2[nH]5)C=C4)C=C3)cc1)C1=Cc2cc(S(F)(F)(F)(F)F)ccc2O[C@@H]1C(F)(F)F
REMARK SMILES IDX 10 1 9 2 8 3 7 4 6 5 5 6 4 7 3 8 2 9 1 10 81 11 82 12 96 13
REMARK SMILES IDX 83 14 95 15 84 16 94 17 85 18 93 19 92 20 97 21 98 22 99 23
REMARK SMILES IDX 100 24 86 25 87 26 88 27 89 28 90 29 91 30 11 31 12 32 13 33
REMARK SMILES IDX 14 34 15 35 16 36 17 37 18 38 19 39 80 40 20 41 79 42 21 43
REMARK SMILES IDX 22 44 23 45 73 46 24 47 78 48 72 49 74 50 25 51 77 52 71 53
REMARK SMILES IDX 70 54 26 56 58 57 38 58 57 59 39 60 42 61 56 62 75 63 40 64
REMARK SMILES IDX 41 65 55 67 76 68 43 69 27 70 28 71 36 72 29 73 31 74 37 75
REMARK SMILES IDX 30 76 32 77 33 78 34 79 35 80 59 81 60 82 68 83 61 84 63 85
REMARK SMILES IDX 69 86 62 87 64 88 65 89 66 90 67 91 44 92 45 93 53 94 46 95
REMARK SMILES IDX 48 96 54 97 47 98 49 99 50 100 51 101 52 102
REMARK H PARENT 74 55 42 66
REMARK Flexibility Score: inf
ROOT
ATOM      1  C   UNL A   1      34.771  33.567  28.820  1.00  0.00     0.188 C 
ENDROOT
BRANCH   1   2
ATOM      2  O   UNL A   1      35.397  33.248  27.586  1.00  0.00    -0.377 OA
BRANCH   2   3
ATOM      3  C   UNL A   1      35.910  31.926  27.643  1.00  0.00     0.188 C 
BRANCH   3   4
ATOM      4  C   UNL A   1      34.840  30.991  28.182  1.00  0.00     0.188 C 
BRANCH   4   5
ATOM      5  O   UNL A   1      35.255  29.645  28.002  1.00  0.00    -0.376 OA
BRANCH   5   6
ATOM      6  C   UNL A   1      34.525  29.063  26.932  1.00  0.00     0.202 C 
BRANCH   6   7
ATOM      7  C   UNL A   1      33.100  28.787  27.383  1.00  0.00     0.261 C 
BRANCH   7   8
ATOM      8  O   UNL A   1      32.720  27.480  26.980  1.00  0.00    -0.460 OA
BRANCH   8   9
ATOM      9  C   UNL A   1      31.505  27.280  26.273  1.00  0.00     0.338 C 
ATOM     10  O   UNL A   1      30.461  26.909  26.895  1.00  0.00    -0.246 OA
BRANCH   9  11
ATOM     11  C   UNL A   1      31.454  27.509  24.771  1.00  0.00     0.087 C 
ATOM     12  C   UNL A   1      32.080  26.644  23.929  1.00  0.00     0.027 C 
ATOM     13  C   UNL A   1      30.703  28.706  24.210  1.00  0.00     0.316 C 
ATOM     14  C   UNL A   1      32.832  25.448  24.490  1.00  0.00     0.019 A 
ATOM     15  O   UNL A   1      30.997  25.143  25.970  1.00  0.00    -0.475 OA
ATOM     16  C   UNL A   1      34.119  25.165  24.062  1.00  0.00     0.036 A 
ATOM     17  C   UNL A   1      32.250  24.730  25.444  1.00  0.00     0.128 A 
ATOM     18  C   UNL A   1      34.607  23.912  24.504  1.00  0.00     0.107 A 
ATOM     19  C   UNL A   1      32.847  23.591  25.926  1.00  0.00     0.048 A 
ATOM     20  C   UNL A   1      34.093  23.219  25.503  1.00  0.00     0.028 A 
BRANCH  13  21
ATOM     21  C   UNL A   1      29.594  28.222  23.289  1.00  0.00     0.430 C 
ATOM     22  F   UNL A   1      28.529  29.006  23.429  1.00  0.00    -0.167 F 
ATOM     23  F   UNL A   1      30.014  28.264  22.029  1.00  0.00    -0.167 F 
ATOM     24  F   UNL A   1      29.269  26.971  23.607  1.00  0.00    -0.167 F 
ENDBRANCH  13  21
BRANCH  18  25
ATOM     25  S   UNL A   1      36.035  23.213  23.639  1.00  0.00     0.310 S 
ATOM     26  F   UNL A   1      35.933  21.845  24.433  1.00  0.00    -0.094 F 
ATOM     27  F   UNL A   1      36.969  23.736  24.796  1.00  0.00    -0.094 F 
ATOM     28  F   UNL A   1      37.257  22.615  22.886  1.00  0.00    -0.094 F 
ATOM     29  F   UNL A   1      35.070  22.577  22.563  1.00  0.00    -0.094 F 
ATOM     30  F   UNL A   1      34.776  23.718  24.450  1.00  0.00    -0.094 F 
ENDBRANCH  18  25
ENDBRANCH   9  11
ENDBRANCH   8   9
ENDBRANCH   7   8
ENDBRANCH   6   7
ENDBRANCH   5   6
ENDBRANCH   4   5
ENDBRANCH   3   4
ENDBRANCH   2   3
ENDBRANCH   1   2
BRANCH   1  31
ATOM     31  C   UNL A   1      33.739  34.660  28.598  1.00  0.00     0.188 C 
BRANCH  31  32
ATOM     32  O   UNL A   1      34.400  35.900  28.394  1.00  0.00    -0.376 OA
BRANCH  32  33
ATOM     33  C   UNL A   1      33.631  36.948  28.967  1.00  0.00     0.202 C 
BRANCH  33  34
ATOM     34  C   UNL A   1      32.442  36.357  29.705  1.00  0.00     0.261 C 
BRANCH  34  35
ATOM     35  O   UNL A   1      32.535  36.676  31.086  1.00  0.00    -0.460 OA
BRANCH  35  36
ATOM     36  C   UNL A   1      32.655  35.638  32.048  1.00  0.00     0.338 C 
ATOM     37  O   UNL A   1      31.647  35.295  32.742  1.00  0.00    -0.246 OA
BRANCH  36  38
ATOM     38  C   UNL A   1      33.989  34.938  32.248  1.00  0.00     0.060 A 
ATOM     39  C   UNL A   1      35.181  35.630  32.117  1.00  0.00     0.016 A 
ATOM     40  C   UNL A   1      33.967  33.673  32.653  1.00  0.00     0.016 A 
ATOM     41  C   UNL A   1      36.330  34.806  32.159  1.00  0.00     0.010 A 
ATOM     42  C   UNL A   1      35.137  32.967  32.805  1.00  0.00     0.010 A 
ATOM     43  C   UNL A   1      36.350  33.572  32.633  1.00  0.00    -0.014 A 
BRANCH  43  44
ATOM     44  C   UNL A   1      37.653  32.865  32.969  1.00  0.00     0.031 A 
ATOM     45  C   UNL A   1      38.096  31.901  32.061  1.00  0.00     0.074 A 
ATOM     46  C   UNL A   1      38.268  33.127  34.181  1.00  0.00     0.049 A 
ATOM     47  N   UNL A   1      39.165  31.111  32.170  1.00  0.00    -0.248 NA
ATOM     48  C   UNL A   1      37.426  31.597  30.788  1.00  0.00     0.031 C 
ATOM     49  C   UNL A   1      37.831  34.103  35.097  1.00  0.00     0.029 A 
ATOM     50  N   UNL A   1      39.379  32.514  34.715  1.00  0.00    -0.354 N 
ATOM     51  C   UNL A   1      39.275  30.331  31.093  1.00  0.00     0.074 A 
ATOM     52  C   UNL A   1      38.154  30.628  30.191  1.00  0.00     0.031 C 
ATOM     53  C   UNL A   1      38.661  34.072  36.173  1.00  0.00     0.029 A 
ATOM     54  C   UNL A   1      39.629  33.076  35.947  1.00  0.00     0.049 A 
ATOM     55  H   UNL A   1      39.904  31.798  34.290  1.00  0.00     0.167 HD
ATOM     56  C   UNL A   1      40.266  29.385  30.827  1.00  0.00     0.034 A 
ATOM     57  C   UNL A   1      40.639  32.750  36.839  1.00  0.00     0.034 A 
ATOM     58  C   UNL A   1      41.301  29.090  31.700  1.00  0.00     0.049 A 
ATOM     59  C   UNL A   1      41.598  31.763  36.598  1.00  0.00     0.074 A 
ATOM     60  C   UNL A   1      42.314  28.146  31.443  1.00  0.00     0.029 A 
ATOM     61  N   UNL A   1      41.538  29.635  32.942  1.00  0.00    -0.354 N 
ATOM     62  N   UNL A   1      41.730  31.012  35.504  1.00  0.00    -0.248 NA
ATOM     63  C   UNL A   1      42.652  31.387  37.549  1.00  0.00     0.031 C 
ATOM     64  C   UNL A   1      43.144  28.114  32.519  1.00  0.00     0.029 A 
ATOM     65  C   UNL A   1      42.663  29.038  33.468  1.00  0.00     0.049 A 
ATOM     66  H   UNL A   1      40.996  30.331  33.380  1.00  0.00     0.167 HD
ATOM     67  C   UNL A   1      42.776  30.192  35.633  1.00  0.00     0.074 A 
ATOM     68  C   UNL A   1      43.380  30.417  36.953  1.00  0.00     0.031 C 
ATOM     69  C   UNL A   1      43.253  29.270  34.700  1.00  0.00     0.034 A 
BRANCH  56  70
ATOM     70  C   UNL A   1      40.208  28.638  29.505  1.00  0.00     0.023 A 
ATOM     71  C   UNL A   1      39.336  27.578  29.317  1.00  0.00     0.012 A 
ATOM     72  C   UNL A   1      41.099  28.970  28.577  1.00  0.00     0.148 A 
ATOM     73  C   UNL A   1      39.677  26.741  28.229  1.00  0.00     0.002 A 
ATOM     74  C   UNL A   1      41.285  28.176  27.471  1.00  0.00     0.091 A 
ATOM     75  F   UNL A   1      41.817  30.079  28.720  1.00  0.00    -0.205 F 
ATOM     76  C   UNL A   1      40.498  27.080  27.251  1.00  0.00     0.022 A 
BRANCH  74  77
ATOM     77  S   UNL A   1      42.590  28.588  26.286  1.00  0.00     0.127 S 
ATOM     78  O   UNL A   1      42.149  28.180  24.878  1.00  0.00    -0.237 OA
ATOM     79  O   UNL A   1      42.853  30.096  26.321  1.00  0.00    -0.237 OA
ATOM     80  O   UNL A   1      44.021  27.749  26.701  1.00  0.00    -0.744 OA
ENDBRANCH  74  77
ENDBRANCH  56  70
BRANCH  57  81
ATOM     81  C   UNL A   1      40.707  33.509  38.154  1.00  0.00     0.023 A 
ATOM     82  C   UNL A   1      41.503  34.626  38.350  1.00  0.00     0.012 A 
ATOM     83  C   UNL A   1      39.887  33.073  39.103  1.00  0.00     0.148 A 
ATOM     84  C   UNL A   1      41.577  35.048  39.698  1.00  0.00     0.002 A 
ATOM     85  C   UNL A   1      39.918  33.624  40.361  1.00  0.00     0.091 A 
ATOM     86  F   UNL A   1      39.029  32.094  38.832  1.00  0.00    -0.205 F 
ATOM     87  C   UNL A   1      40.725  34.691  40.643  1.00  0.00     0.022 A 
BRANCH  85  88
ATOM     88  S   UNL A   1      38.876  32.925  41.666  1.00  0.00     0.127 S 
ATOM     89  O   UNL A   1      39.235  33.568  43.007  1.00  0.00    -0.237 OA
ATOM     90  O   UNL A   1      37.405  33.201  41.346  1.00  0.00    -0.237 OA
ATOM     91  O   UNL A   1      39.132  31.237  41.757  1.00  0.00    -0.744 OA
ENDBRANCH  85  88
ENDBRANCH  57  81
BRANCH  69  92
ATOM     92  C   UNL A   1      44.495  28.469  35.058  1.00  0.00     0.023 A 
ATOM     93  C   UNL A   1      45.762  28.982  34.836  1.00  0.00     0.012 A 
ATOM     94  C   UNL A   1      44.320  27.315  35.690  1.00  0.00     0.148 A 
ATOM     95  C   UNL A   1      46.805  28.054  35.068  1.00  0.00     0.002 A 
ATOM     96  C   UNL A   1      45.395  26.521  36.007  1.00  0.00     0.091 A 
ATOM     97  F   UNL A   1      43.092  26.925  36.019  1.00  0.00    -0.205 F 
ATOM     98  C   UNL A   1      46.674  26.939  35.763  1.00  0.00     0.022 A 
BRANCH  96  99
ATOM     99  S   UNL A   1      45.115  24.898  36.759  1.00  0.00     0.127 S 
ATOM    100  O   UNL A   1      46.413  24.090  36.724  1.00  0.00    -0.237 OA
ATOM    101  O   UNL A   1      44.665  25.080  38.210  1.00  0.00    -0.237 OA
ATOM    102  O   UNL A   1      43.901  24.068  35.885  1.00  0.00    -0.744 OA
ENDBRANCH  96  99
ENDBRANCH  69  92
ENDBRANCH  43  44
ENDBRANCH  36  38
ENDBRANCH  35  36
ENDBRANCH  34  35
ENDBRANCH  33  34
ENDBRANCH  32  33
ENDBRANCH  31  32
ENDBRANCH   1  31
TORSDOF 25
ENDMDL
