MODEL 1
REMARK VINA RESULT:     -10.0      0.000      0.000
REMARK SMILES O=C(OCCOCCOCCOCCOC(=O)[C@H]1CC(=O)N(Cc2ccc(OCc3ccccc3)cc2)C1)c1ccc(-c2c3nc(c(-c4cccc(S(=O)(=O)[O-])c4F)c4ccc([nH]4)c(-c4cccc(S(=O)(=O)[O-])c4F)c4nc(c(-c5cccc(S(=O)(=O)[O-])c5F)c5ccc2[nH]5)C=C4)C=C3)cc1
REMARK SMILES IDX 10 1 9 2 8 3 7 4 6 5 5 6 4 7 3 8 2 9 1 10 39 11 40 12 101 13
REMARK SMILES IDX 41 14 100 15 42 16 43 17 44 18 94 19 45 20 99 21 93 22 95 23
REMARK SMILES IDX 46 24 98 25 92 26 91 27 47 29 79 30 59 31 78 32 60 33 63 34
REMARK SMILES IDX 77 35 96 36 61 37 62 38 76 40 97 41 64 42 48 43 49 44 57 45
REMARK SMILES IDX 50 46 52 47 58 48 51 49 53 50 54 51 55 52 56 53 80 54 81 55
REMARK SMILES IDX 89 56 82 57 84 58 90 59 83 60 85 61 86 62 87 63 88 64 65 65
REMARK SMILES IDX 66 66 74 67 67 68 69 69 75 70 68 71 70 72 71 73 72 74 73 75
REMARK SMILES IDX 11 76 12 77 13 78 14 79 15 80 16 81 17 82 18 83 19 84 38 85
REMARK SMILES IDX 20 86 22 87 21 88 23 89 24 90 25 91 37 92 26 93 36 94 27 95
REMARK SMILES IDX 28 96 29 97 30 98 31 99 35 100 32 101 34 102 33 103
REMARK H PARENT 95 28 63 39
REMARK Flexibility Score: inf
ROOT
ATOM      1  C   UNL A   1      32.759  31.470  27.232  1.00  0.00     0.188 C 
ENDROOT
BRANCH   1   2
ATOM      2  O   UNL A   1      34.134  31.116  27.344  1.00  0.00    -0.377 OA
BRANCH   2   3
ATOM      3  C   UNL A   1      35.004  32.185  27.717  1.00  0.00     0.188 C 
BRANCH   3   4
ATOM      4  C   UNL A   1      34.291  33.452  28.187  1.00  0.00     0.188 C 
BRANCH   4   5
ATOM      5  O   UNL A   1      34.606  33.765  29.540  1.00  0.00    -0.376 OA
BRANCH   5   6
ATOM      6  C   UNL A   1      34.553  32.719  30.506  1.00  0.00     0.202 C 
BRANCH   6   7
ATOM      7  C   UNL A   1      34.629  33.138  31.968  1.00  0.00     0.261 C 
BRANCH   7   8
ATOM      8  O   UNL A   1      35.244  32.212  32.879  1.00  0.00    -0.460 OA
BRANCH   8   9
ATOM      9  C   UNL A   1      36.516  31.994  33.273  1.00  0.00     0.338 C 
ATOM     10  O   UNL A   1      36.856  32.428  34.375  1.00  0.00    -0.246 OA
BRANCH   9  11
ATOM     11  C   UNL A   1      37.547  31.286  32.473  1.00  0.00     0.060 A 
ATOM     12  C   UNL A   1      38.243  30.160  32.893  1.00  0.00     0.016 A 
ATOM     13  C   UNL A   1      37.764  31.736  31.162  1.00  0.00     0.016 A 
ATOM     14  C   UNL A   1      39.157  29.514  32.099  1.00  0.00     0.010 A 
ATOM     15  C   UNL A   1      38.681  31.091  30.332  1.00  0.00     0.010 A 
ATOM     16  C   UNL A   1      39.393  29.995  30.826  1.00  0.00    -0.014 A 
BRANCH  16  17
ATOM     17  C   UNL A   1      40.568  29.447  30.162  1.00  0.00     0.031 A 
ATOM     18  C   UNL A   1      41.815  30.261  30.244  1.00  0.00     0.074 A 
ATOM     19  C   UNL A   1      40.521  28.195  29.683  1.00  0.00     0.049 A 
ATOM     20  N   UNL A   1      42.959  30.067  29.664  1.00  0.00    -0.248 NA
ATOM     21  C   UNL A   1      41.770  31.459  31.109  1.00  0.00     0.031 C 
ATOM     22  C   UNL A   1      39.359  27.301  29.766  1.00  0.00     0.029 A 
ATOM     23  N   UNL A   1      41.468  27.454  29.041  1.00  0.00    -0.354 N 
ATOM     24  C   UNL A   1      43.736  31.163  30.011  1.00  0.00     0.074 A 
ATOM     25  C   UNL A   1      42.960  31.995  30.896  1.00  0.00     0.031 C 
ATOM     26  C   UNL A   1      39.654  26.142  29.158  1.00  0.00     0.029 A 
ATOM     27  C   UNL A   1      40.982  26.256  28.575  1.00  0.00     0.049 A 
ATOM     28  H   UNL A   1      42.401  27.746  28.924  1.00  0.00     0.167 HD
ATOM     29  C   UNL A   1      44.981  31.445  29.579  1.00  0.00     0.034 A 
ATOM     30  C   UNL A   1      41.540  25.405  27.698  1.00  0.00     0.034 A 
ATOM     31  C   UNL A   1      45.692  30.564  28.700  1.00  0.00     0.049 A 
ATOM     32  C   UNL A   1      42.900  25.778  27.176  1.00  0.00     0.074 A 
ATOM     33  C   UNL A   1      46.947  30.716  28.150  1.00  0.00     0.029 A 
ATOM     34  N   UNL A   1      45.178  29.360  28.231  1.00  0.00    -0.354 N 
ATOM     35  N   UNL A   1      43.643  26.817  27.488  1.00  0.00    -0.248 NA
ATOM     36  C   UNL A   1      43.504  24.878  26.191  1.00  0.00     0.031 C 
ATOM     37  C   UNL A   1      47.171  29.622  27.307  1.00  0.00     0.029 A 
ATOM     38  C   UNL A   1      46.079  28.765  27.375  1.00  0.00     0.049 A 
ATOM     39  H   UNL A   1      44.301  28.987  28.475  1.00  0.00     0.167 HD
ATOM     40  C   UNL A   1      44.813  26.685  26.759  1.00  0.00     0.074 A 
ATOM     41  C   UNL A   1      44.686  25.449  26.006  1.00  0.00     0.031 C 
ATOM     42  C   UNL A   1      45.892  27.505  26.695  1.00  0.00     0.034 A 
BRANCH  29  43
ATOM     43  C   UNL A   1      45.565  32.772  29.968  1.00  0.00     0.023 A 
ATOM     44  C   UNL A   1      46.334  32.911  31.142  1.00  0.00     0.012 A 
ATOM     45  C   UNL A   1      45.314  33.904  29.168  1.00  0.00     0.148 A 
ATOM     46  C   UNL A   1      46.815  34.162  31.529  1.00  0.00     0.002 A 
ATOM     47  C   UNL A   1      45.838  35.136  29.532  1.00  0.00     0.091 A 
ATOM     48  F   UNL A   1      44.544  33.756  28.081  1.00  0.00    -0.205 F 
ATOM     49  C   UNL A   1      46.575  35.272  30.720  1.00  0.00     0.022 A 
BRANCH  47  50
ATOM     50  S   UNL A   1      45.637  36.608  28.526  1.00  0.00     0.127 S 
ATOM     51  O   UNL A   1      44.192  36.828  28.605  1.00  0.00    -0.237 OA
ATOM     52  O   UNL A   1      46.443  37.584  29.257  1.00  0.00    -0.237 OA
ATOM     53  O   UNL A   1      46.137  36.267  27.202  1.00  0.00    -0.744 OA
ENDBRANCH  47  50
ENDBRANCH  29  43
BRANCH  30  54
ATOM     54  C   UNL A   1      40.799  24.199  27.232  1.00  0.00     0.023 A 
ATOM     55  C   UNL A   1      39.542  24.342  26.617  1.00  0.00     0.012 A 
ATOM     56  C   UNL A   1      41.345  22.905  27.378  1.00  0.00     0.148 A 
ATOM     57  C   UNL A   1      38.828  23.220  26.187  1.00  0.00     0.002 A 
ATOM     58  C   UNL A   1      40.655  21.798  26.897  1.00  0.00     0.091 A 
ATOM     59  F   UNL A   1      42.537  22.781  27.978  1.00  0.00    -0.205 F 
ATOM     60  C   UNL A   1      39.387  21.951  26.319  1.00  0.00     0.022 A 
BRANCH  58  61
ATOM     61  S   UNL A   1      41.356  20.143  26.913  1.00  0.00     0.127 S 
ATOM     62  O   UNL A   1      40.789  19.589  28.139  1.00  0.00    -0.237 OA
ATOM     63  O   UNL A   1      40.821  19.575  25.674  1.00  0.00    -0.237 OA
ATOM     64  O   UNL A   1      42.802  20.327  26.909  1.00  0.00    -0.744 OA
ENDBRANCH  58  61
ENDBRANCH  30  54
BRANCH  42  65
ATOM     65  C   UNL A   1      47.023  27.061  25.817  1.00  0.00     0.023 A 
ATOM     66  C   UNL A   1      47.814  25.960  26.194  1.00  0.00     0.012 A 
ATOM     67  C   UNL A   1      47.212  27.671  24.563  1.00  0.00     0.148 A 
ATOM     68  C   UNL A   1      48.802  25.486  25.337  1.00  0.00     0.002 A 
ATOM     69  C   UNL A   1      48.154  27.152  23.690  1.00  0.00     0.091 A 
ATOM     70  F   UNL A   1      46.449  28.726  24.244  1.00  0.00    -0.205 F 
ATOM     71  C   UNL A   1      48.960  26.070  24.081  1.00  0.00     0.022 A 
BRANCH  69  72
ATOM     72  S   UNL A   1      48.338  27.760  22.014  1.00  0.00     0.127 S 
ATOM     73  O   UNL A   1      47.112  28.538  21.844  1.00  0.00    -0.237 OA
ATOM     74  O   UNL A   1      49.560  28.557  22.110  1.00  0.00    -0.237 OA
ATOM     75  O   UNL A   1      48.448  26.582  21.164  1.00  0.00    -0.744 OA
ENDBRANCH  69  72
ENDBRANCH  42  65
ENDBRANCH  16  17
ENDBRANCH   9  11
ENDBRANCH   8   9
ENDBRANCH   7   8
ENDBRANCH   6   7
ENDBRANCH   5   6
ENDBRANCH   4   5
ENDBRANCH   3   4
ENDBRANCH   2   3
ENDBRANCH   1   2
BRANCH   1  76
ATOM     76  C   UNL A   1      31.801  30.524  26.481  1.00  0.00     0.188 C 
BRANCH  76  77
ATOM     77  O   UNL A   1      31.473  30.988  25.193  1.00  0.00    -0.376 OA
BRANCH  77  78
ATOM     78  C   UNL A   1      30.108  31.271  24.929  1.00  0.00     0.202 C 
BRANCH  78  79
ATOM     79  C   UNL A   1      29.423  30.915  23.582  1.00  0.00     0.261 C 
BRANCH  79  80
ATOM     80  O   UNL A   1      30.059  29.973  22.686  1.00  0.00    -0.463 OA
BRANCH  80  81
ATOM     81  C   UNL A   1      30.099  28.664  23.019  1.00  0.00     0.311 C 
ATOM     82  O   UNL A   1      29.131  27.914  22.955  1.00  0.00    -0.252 OA
BRANCH  81  83
ATOM     83  C   UNL A   1      31.485  28.149  23.408  1.00  0.00     0.128 C 
ATOM     84  C   UNL A   1      31.440  27.454  24.775  1.00  0.00     0.117 C 
ATOM     85  C   UNL A   1      32.211  27.167  22.483  1.00  0.00     0.135 C 
ATOM     86  C   UNL A   1      32.457  26.351  24.686  1.00  0.00     0.223 C 
ATOM     87  N   UNL A   1      32.872  26.225  23.374  1.00  0.00    -0.337 N 
ATOM     88  O   UNL A   1      32.845  25.685  25.642  1.00  0.00    -0.275 OA
BRANCH  87  89
ATOM     89  C   UNL A   1      33.972  25.348  22.985  1.00  0.00     0.155 C 
BRANCH  89  90
ATOM     90  C   UNL A   1      33.870  23.885  23.353  1.00  0.00    -0.028 A 
ATOM     91  C   UNL A   1      32.654  23.194  23.201  1.00  0.00     0.009 A 
ATOM     92  C   UNL A   1      34.922  23.215  23.987  1.00  0.00     0.009 A 
ATOM     93  C   UNL A   1      32.505  21.883  23.670  1.00  0.00     0.047 A 
ATOM     94  C   UNL A   1      34.772  21.902  24.452  1.00  0.00     0.047 A 
ATOM     95  C   UNL A   1      33.564  21.225  24.297  1.00  0.00     0.119 A 
BRANCH  95  96
ATOM     96  O   UNL A   1      33.295  19.946  24.700  1.00  0.00    -0.489 OA
BRANCH  96  97
ATOM     97  C   UNL A   1      34.252  18.921  24.406  1.00  0.00     0.265 C 
BRANCH  97  98
ATOM     98  C   UNL A   1      33.810  17.536  24.819  1.00  0.00    -0.011 A 
ATOM     99  C   UNL A   1      32.497  17.311  25.246  1.00  0.00     0.007 A 
ATOM    100  C   UNL A   1      34.714  16.462  24.801  1.00  0.00     0.007 A 
ATOM    101  C   UNL A   1      32.099  16.038  25.640  1.00  0.00     0.000 A 
ATOM    102  C   UNL A   1      34.301  15.180  25.164  1.00  0.00     0.000 A 
ATOM    103  C   UNL A   1      32.992  14.969  25.587  1.00  0.00     0.000 A 
ENDBRANCH  97  98
ENDBRANCH  96  97
ENDBRANCH  95  96
ENDBRANCH  89  90
ENDBRANCH  87  89
ENDBRANCH  81  83
ENDBRANCH  80  81
ENDBRANCH  79  80
ENDBRANCH  78  79
ENDBRANCH  77  78
ENDBRANCH  76  77
ENDBRANCH   1  76
TORSDOF 28
ENDMDL
MODEL 2
REMARK VINA RESULT:      -9.7      4.566     10.488
REMARK SMILES O=C(OCCOCCOCCOCCOC(=O)[C@H]1CC(=O)N(Cc2ccc(OCc3ccccc3)cc2)C1)c1ccc(-c2c3nc(c(-c4cccc(S(=O)(=O)[O-])c4F)c4ccc([nH]4)c(-c4cccc(S(=O)(=O)[O-])c4F)c4nc(c(-c5cccc(S(=O)(=O)[O-])c5F)c5ccc2[nH]5)C=C4)C=C3)cc1
REMARK SMILES IDX 10 1 9 2 8 3 7 4 6 5 5 6 4 7 3 8 2 9 1 10 39 11 40 12 101 13
REMARK SMILES IDX 41 14 100 15 42 16 43 17 44 18 94 19 45 20 99 21 93 22 95 23
REMARK SMILES IDX 46 24 98 25 92 26 91 27 47 29 79 30 59 31 78 32 60 33 63 34
REMARK SMILES IDX 77 35 96 36 61 37 62 38 76 40 97 41 64 42 48 43 49 44 57 45
REMARK SMILES IDX 50 46 52 47 58 48 51 49 53 50 54 51 55 52 56 53 80 54 81 55
REMARK SMILES IDX 89 56 82 57 84 58 90 59 83 60 85 61 86 62 87 63 88 64 65 65
REMARK SMILES IDX 66 66 74 67 67 68 69 69 75 70 68 71 70 72 71 73 72 74 73 75
REMARK SMILES IDX 11 76 12 77 13 78 14 79 15 80 16 81 17 82 18 83 19 84 38 85
REMARK SMILES IDX 20 86 22 87 21 88 23 89 24 90 25 91 37 92 26 93 36 94 27 95
REMARK SMILES IDX 28 96 29 97 30 98 31 99 35 100 32 101 34 102 33 103
REMARK H PARENT 95 28 63 39
REMARK Flexibility Score: inf
ROOT
ATOM      1  C   UNL A   1      33.533  29.479  26.258  1.00  0.00     0.188 C 
ENDROOT
BRANCH   1   2
ATOM      2  O   UNL A   1      33.556  30.036  27.569  1.00  0.00    -0.377 OA
BRANCH   2   3
ATOM      3  C   UNL A   1      33.644  31.460  27.619  1.00  0.00     0.188 C 
BRANCH   3   4
ATOM      4  C   UNL A   1      35.051  32.003  27.869  1.00  0.00     0.188 C 
BRANCH   4   5
ATOM      5  O   UNL A   1      35.569  31.570  29.122  1.00  0.00    -0.376 OA
BRANCH   5   6
ATOM      6  C   UNL A   1      36.976  31.642  29.334  1.00  0.00     0.202 C 
BRANCH   6   7
ATOM      7  C   UNL A   1      37.475  31.270  30.724  1.00  0.00     0.261 C 
BRANCH   7   8
ATOM      8  O   UNL A   1      37.868  32.351  31.586  1.00  0.00    -0.460 OA
BRANCH   8   9
ATOM      9  C   UNL A   1      38.198  33.642  31.373  1.00  0.00     0.338 C 
ATOM     10  O   UNL A   1      37.395  34.505  31.730  1.00  0.00    -0.246 OA
BRANCH   9  11
ATOM     11  C   UNL A   1      39.451  34.106  30.724  1.00  0.00     0.060 A 
ATOM     12  C   UNL A   1      39.541  34.593  29.427  1.00  0.00     0.016 A 
ATOM     13  C   UNL A   1      40.610  34.138  31.514  1.00  0.00     0.016 A 
ATOM     14  C   UNL A   1      40.715  35.051  28.886  1.00  0.00     0.010 A 
ATOM     15  C   UNL A   1      41.814  34.607  30.990  1.00  0.00     0.010 A 
ATOM     16  C   UNL A   1      41.858  35.035  29.661  1.00  0.00    -0.014 A 
BRANCH  16  17
ATOM     17  C   UNL A   1      43.104  35.256  28.938  1.00  0.00     0.031 A 
ATOM     18  C   UNL A   1      43.854  34.035  28.527  1.00  0.00     0.074 A 
ATOM     19  C   UNL A   1      43.411  36.497  28.532  1.00  0.00     0.049 A 
ATOM     20  N   UNL A   1      45.025  33.941  27.974  1.00  0.00    -0.248 NA
ATOM     21  C   UNL A   1      43.190  32.736  28.762  1.00  0.00     0.031 C 
ATOM     22  C   UNL A   1      42.584  37.689  28.758  1.00  0.00     0.029 A 
ATOM     23  N   UNL A   1      44.489  36.963  27.840  1.00  0.00    -0.354 N 
ATOM     24  C   UNL A   1      45.280  32.580  27.886  1.00  0.00     0.074 A 
ATOM     25  C   UNL A   1      44.126  31.879  28.389  1.00  0.00     0.031 C 
ATOM     26  C   UNL A   1      43.211  38.760  28.246  1.00  0.00     0.029 A 
ATOM     27  C   UNL A   1      44.508  38.334  27.744  1.00  0.00     0.049 A 
ATOM     28  H   UNL A   1      45.180  36.380  27.451  1.00  0.00     0.167 HD
ATOM     29  C   UNL A   1      46.412  31.992  27.452  1.00  0.00     0.034 A 
ATOM     30  C   UNL A   1      45.516  39.138  27.369  1.00  0.00     0.034 A 
ATOM     31  C   UNL A   1      47.520  32.759  26.962  1.00  0.00     0.049 A 
ATOM     32  C   UNL A   1      46.794  38.460  26.957  1.00  0.00     0.074 A 
ATOM     33  C   UNL A   1      48.746  32.320  26.512  1.00  0.00     0.029 A 
ATOM     34  N   UNL A   1      47.523  34.148  26.882  1.00  0.00    -0.354 N 
ATOM     35  N   UNL A   1      47.053  37.173  26.878  1.00  0.00    -0.248 NA
ATOM     36  C   UNL A   1      47.915  39.325  26.581  1.00  0.00     0.031 C 
ATOM     37  C   UNL A   1      49.511  33.451  26.205  1.00  0.00     0.029 A 
ATOM     38  C   UNL A   1      48.741  34.590  26.413  1.00  0.00     0.049 A 
ATOM     39  H   UNL A   1      46.767  34.729  27.124  1.00  0.00     0.167 HD
ATOM     40  C   UNL A   1      48.356  37.071  26.420  1.00  0.00     0.074 A 
ATOM     41  C   UNL A   1      48.824  38.432  26.218  1.00  0.00     0.031 C 
ATOM     42  C   UNL A   1      49.114  35.968  26.198  1.00  0.00     0.034 A 
BRANCH  29  43
ATOM     43  C   UNL A   1      46.518  30.502  27.595  1.00  0.00     0.023 A 
ATOM     44  C   UNL A   1      47.027  29.920  28.774  1.00  0.00     0.012 A 
ATOM     45  C   UNL A   1      46.137  29.671  26.523  1.00  0.00     0.148 A 
ATOM     46  C   UNL A   1      47.184  28.537  28.870  1.00  0.00     0.002 A 
ATOM     47  C   UNL A   1      46.248  28.293  26.644  1.00  0.00     0.091 A 
ATOM     48  F   UNL A   1      45.698  30.249  25.396  1.00  0.00    -0.205 F 
ATOM     49  C   UNL A   1      46.786  27.724  27.810  1.00  0.00     0.022 A 
BRANCH  47  50
ATOM     50  S   UNL A   1      45.706  27.162  25.361  1.00  0.00     0.127 S 
ATOM     51  O   UNL A   1      46.473  27.631  24.207  1.00  0.00    -0.237 OA
ATOM     52  O   UNL A   1      46.137  25.872  25.897  1.00  0.00    -0.237 OA
ATOM     53  O   UNL A   1      44.264  27.331  25.253  1.00  0.00    -0.744 OA
ENDBRANCH  47  50
ENDBRANCH  29  43
BRANCH  30  54
ATOM     54  C   UNL A   1      45.373  40.619  27.435  1.00  0.00     0.023 A 
ATOM     55  C   UNL A   1      45.514  41.284  28.667  1.00  0.00     0.012 A 
ATOM     56  C   UNL A   1      45.117  41.380  26.274  1.00  0.00     0.148 A 
ATOM     57  C   UNL A   1      45.368  42.671  28.748  1.00  0.00     0.002 A 
ATOM     58  C   UNL A   1      45.030  42.766  26.352  1.00  0.00     0.091 A 
ATOM     59  F   UNL A   1      44.971  40.735  25.109  1.00  0.00    -0.205 F 
ATOM     60  C   UNL A   1      45.135  43.412  27.592  1.00  0.00     0.022 A 
BRANCH  58  61
ATOM     61  S   UNL A   1      44.857  43.805  24.896  1.00  0.00     0.127 S 
ATOM     62  O   UNL A   1      45.993  43.377  24.086  1.00  0.00    -0.237 OA
ATOM     63  O   UNL A   1      43.546  43.397  24.386  1.00  0.00    -0.237 OA
ATOM     64  O   UNL A   1      44.906  45.178  25.383  1.00  0.00    -0.744 OA
ENDBRANCH  58  61
ENDBRANCH  30  54
BRANCH  42  65
ATOM     65  C   UNL A   1      50.499  36.198  25.673  1.00  0.00     0.023 A 
ATOM     66  C   UNL A   1      50.722  36.259  24.285  1.00  0.00     0.012 A 
ATOM     67  C   UNL A   1      51.548  36.470  26.570  1.00  0.00     0.148 A 
ATOM     68  C   UNL A   1      51.987  36.567  23.795  1.00  0.00     0.002 A 
ATOM     69  C   UNL A   1      52.787  36.838  26.074  1.00  0.00     0.091 A 
ATOM     70  F   UNL A   1      51.301  36.388  27.886  1.00  0.00    -0.205 F 
ATOM     71  C   UNL A   1      53.013  36.873  24.689  1.00  0.00     0.022 A 
BRANCH  69  72
ATOM     72  S   UNL A   1      54.125  37.367  27.145  1.00  0.00     0.127 S 
ATOM     73  O   UNL A   1      54.030  36.398  28.237  1.00  0.00    -0.237 OA
ATOM     74  O   UNL A   1      55.292  37.201  26.280  1.00  0.00    -0.237 OA
ATOM     75  O   UNL A   1      53.831  38.745  27.511  1.00  0.00    -0.744 OA
ENDBRANCH  69  72
ENDBRANCH  42  65
ENDBRANCH  16  17
ENDBRANCH   9  11
ENDBRANCH   8   9
ENDBRANCH   7   8
ENDBRANCH   6   7
ENDBRANCH   5   6
ENDBRANCH   4   5
ENDBRANCH   3   4
ENDBRANCH   2   3
ENDBRANCH   1   2
BRANCH   1  76
ATOM     76  C   UNL A   1      33.795  27.970  26.080  1.00  0.00     0.188 C 
BRANCH  76  77
ATOM     77  O   UNL A   1      33.992  27.605  24.735  1.00  0.00    -0.376 OA
BRANCH  77  78
ATOM     78  C   UNL A   1      33.205  28.266  23.757  1.00  0.00     0.202 C 
BRANCH  78  79
ATOM     79  C   UNL A   1      32.871  27.633  22.380  1.00  0.00     0.261 C 
BRANCH  79  80
ATOM     80  O   UNL A   1      33.765  26.646  21.814  1.00  0.00    -0.463 OA
BRANCH  80  81
ATOM     81  C   UNL A   1      33.437  25.337  21.882  1.00  0.00     0.311 C 
ATOM     82  O   UNL A   1      32.899  24.720  20.969  1.00  0.00    -0.252 OA
BRANCH  81  83
ATOM     83  C   UNL A   1      33.871  24.639  23.171  1.00  0.00     0.128 C 
ATOM     84  C   UNL A   1      32.707  23.843  23.774  1.00  0.00     0.117 C 
ATOM     85  C   UNL A   1      35.051  23.661  23.138  1.00  0.00     0.135 C 
ATOM     86  C   UNL A   1      33.345  22.644  24.416  1.00  0.00     0.223 C 
ATOM     87  N   UNL A   1      34.672  22.580  24.036  1.00  0.00    -0.337 N 
ATOM     88  O   UNL A   1      32.761  21.861  25.161  1.00  0.00    -0.275 OA
BRANCH  87  89
ATOM     89  C   UNL A   1      35.605  21.620  24.617  1.00  0.00     0.155 C 
BRANCH  89  90
ATOM     90  C   UNL A   1      36.796  22.167  25.373  1.00  0.00    -0.028 A 
ATOM     91  C   UNL A   1      36.736  23.433  25.981  1.00  0.00     0.009 A 
ATOM     92  C   UNL A   1      38.030  21.506  25.370  1.00  0.00     0.009 A 
ATOM     93  C   UNL A   1      37.872  24.013  26.559  1.00  0.00     0.047 A 
ATOM     94  C   UNL A   1      39.165  22.086  25.953  1.00  0.00     0.047 A 
ATOM     95  C   UNL A   1      39.096  23.341  26.552  1.00  0.00     0.119 A 
BRANCH  95  96
ATOM     96  O   UNL A   1      40.126  24.008  27.157  1.00  0.00    -0.489 OA
BRANCH  96  97
ATOM     97  C   UNL A   1      40.706  25.129  26.479  1.00  0.00     0.265 C 
BRANCH  97  98
ATOM     98  C   UNL A   1      40.388  26.460  27.119  1.00  0.00    -0.011 A 
ATOM     99  C   UNL A   1      39.688  26.515  28.330  1.00  0.00     0.007 A 
ATOM    100  C   UNL A   1      40.771  27.660  26.500  1.00  0.00     0.007 A 
ATOM    101  C   UNL A   1      39.385  27.743  28.907  1.00  0.00     0.000 A 
ATOM    102  C   UNL A   1      40.494  28.889  27.100  1.00  0.00     0.000 A 
ATOM    103  C   UNL A   1      39.798  28.929  28.303  1.00  0.00     0.000 A 
ENDBRANCH  97  98
ENDBRANCH  96  97
ENDBRANCH  95  96
ENDBRANCH  89  90
ENDBRANCH  87  89
ENDBRANCH  81  83
ENDBRANCH  80  81
ENDBRANCH  79  80
ENDBRANCH  78  79
ENDBRANCH  77  78
ENDBRANCH  76  77
ENDBRANCH   1  76
TORSDOF 28
ENDMDL
MODEL 3
REMARK VINA RESULT:      -9.5      3.319      4.838
REMARK SMILES O=C(OCCOCCOCCOCCOC(=O)[C@H]1CC(=O)N(Cc2ccc(OCc3ccccc3)cc2)C1)c1ccc(-c2c3nc(c(-c4cccc(S(=O)(=O)[O-])c4F)c4ccc([nH]4)c(-c4cccc(S(=O)(=O)[O-])c4F)c4nc(c(-c5cccc(S(=O)(=O)[O-])c5F)c5ccc2[nH]5)C=C4)C=C3)cc1
REMARK SMILES IDX 10 1 9 2 8 3 7 4 6 5 5 6 4 7 3 8 2 9 1 10 39 11 40 12 101 13
REMARK SMILES IDX 41 14 100 15 42 16 43 17 44 18 94 19 45 20 99 21 93 22 95 23
REMARK SMILES IDX 46 24 98 25 92 26 91 27 47 29 79 30 59 31 78 32 60 33 63 34
REMARK SMILES IDX 77 35 96 36 61 37 62 38 76 40 97 41 64 42 48 43 49 44 57 45
REMARK SMILES IDX 50 46 52 47 58 48 51 49 53 50 54 51 55 52 56 53 80 54 81 55
REMARK SMILES IDX 89 56 82 57 84 58 90 59 83 60 85 61 86 62 87 63 88 64 65 65
REMARK SMILES IDX 66 66 74 67 67 68 69 69 75 70 68 71 70 72 71 73 72 74 73 75
REMARK SMILES IDX 11 76 12 77 13 78 14 79 15 80 16 81 17 82 18 83 19 84 38 85
REMARK SMILES IDX 20 86 22 87 21 88 23 89 24 90 25 91 37 92 26 93 36 94 27 95
REMARK SMILES IDX 28 96 29 97 30 98 31 99 35 100 32 101 34 102 33 103
REMARK H PARENT 95 28 63 39
REMARK Flexibility Score: inf
ROOT
ATOM      1  C   UNL A   1      32.737  30.499  27.237  1.00  0.00     0.188 C 
ENDROOT
BRANCH   1   2
ATOM      2  O   UNL A   1      34.152  30.342  27.268  1.00  0.00    -0.377 OA
BRANCH   2   3
ATOM      3  C   UNL A   1      34.882  31.510  27.645  1.00  0.00     0.188 C 
BRANCH   3   4
ATOM      4  C   UNL A   1      34.081  32.524  28.461  1.00  0.00     0.188 C 
BRANCH   4   5
ATOM      5  O   UNL A   1      34.863  33.100  29.502  1.00  0.00    -0.376 OA
BRANCH   5   6
ATOM      6  C   UNL A   1      34.975  32.394  30.734  1.00  0.00     0.202 C 
BRANCH   6   7
ATOM      7  C   UNL A   1      34.776  33.208  32.006  1.00  0.00     0.261 C 
BRANCH   7   8
ATOM      8  O   UNL A   1      35.196  32.601  33.239  1.00  0.00    -0.460 OA
BRANCH   8   9
ATOM      9  C   UNL A   1      36.348  32.613  33.942  1.00  0.00     0.338 C 
ATOM     10  O   UNL A   1      36.320  33.083  35.080  1.00  0.00    -0.246 OA
BRANCH   9  11
ATOM     11  C   UNL A   1      37.657  32.120  33.442  1.00  0.00     0.060 A 
ATOM     12  C   UNL A   1      38.893  32.483  33.960  1.00  0.00     0.016 A 
ATOM     13  C   UNL A   1      37.633  31.145  32.433  1.00  0.00     0.016 A 
ATOM     14  C   UNL A   1      40.074  31.965  33.491  1.00  0.00     0.010 A 
ATOM     15  C   UNL A   1      38.819  30.597  31.946  1.00  0.00     0.010 A 
ATOM     16  C   UNL A   1      40.037  31.039  32.467  1.00  0.00    -0.014 A 
BRANCH  16  17
ATOM     17  C   UNL A   1      41.320  30.761  31.834  1.00  0.00     0.031 A 
ATOM     18  C   UNL A   1      41.900  31.856  31.004  1.00  0.00     0.074 A 
ATOM     19  C   UNL A   1      41.981  29.641  32.164  1.00  0.00     0.049 A 
ATOM     20  N   UNL A   1      42.959  31.843  30.254  1.00  0.00    -0.248 NA
ATOM     21  C   UNL A   1      41.193  33.154  31.030  1.00  0.00     0.031 C 
ATOM     22  C   UNL A   1      41.515  28.639  33.132  1.00  0.00     0.029 A 
ATOM     23  N   UNL A   1      43.181  29.159  31.735  1.00  0.00    -0.354 N 
ATOM     24  C   UNL A   1      42.991  33.088  29.644  1.00  0.00     0.074 A 
ATOM     25  C   UNL A   1      41.881  33.858  30.147  1.00  0.00     0.031 C 
ATOM     26  C   UNL A   1      42.408  27.639  33.190  1.00  0.00     0.029 A 
ATOM     27  C   UNL A   1      43.448  27.896  32.205  1.00  0.00     0.049 A 
ATOM     28  H   UNL A   1      43.793  29.664  31.151  1.00  0.00     0.167 HD
ATOM     29  C   UNL A   1      43.868  33.514  28.713  1.00  0.00     0.034 A 
ATOM     30  C   UNL A   1      44.387  27.027  31.798  1.00  0.00     0.034 A 
ATOM     31  C   UNL A   1      44.951  32.689  28.264  1.00  0.00     0.049 A 
ATOM     32  C   UNL A   1      45.308  27.499  30.707  1.00  0.00     0.074 A 
ATOM     33  C   UNL A   1      45.908  32.959  27.310  1.00  0.00     0.029 A 
ATOM     34  N   UNL A   1      45.198  31.408  28.746  1.00  0.00    -0.354 N 
ATOM     35  N   UNL A   1      45.345  28.672  30.113  1.00  0.00    -0.248 NA
ATOM     36  C   UNL A   1      46.314  26.548  30.227  1.00  0.00     0.031 C 
ATOM     37  C   UNL A   1      46.706  31.817  27.180  1.00  0.00     0.029 A 
ATOM     38  C   UNL A   1      46.279  30.858  28.091  1.00  0.00     0.049 A 
ATOM     39  H   UNL A   1      44.677  30.959  29.450  1.00  0.00     0.167 HD
ATOM     40  C   UNL A   1      46.390  28.612  29.207  1.00  0.00     0.074 A 
ATOM     41  C   UNL A   1      46.976  27.290  29.350  1.00  0.00     0.031 C 
ATOM     42  C   UNL A   1      46.828  29.544  28.324  1.00  0.00     0.034 A 
BRANCH  29  43
ATOM     43  C   UNL A   1      43.611  34.850  28.079  1.00  0.00     0.023 A 
ATOM     44  C   UNL A   1      42.852  34.958  26.897  1.00  0.00     0.012 A 
ATOM     45  C   UNL A   1      44.165  36.010  28.654  1.00  0.00     0.148 A 
ATOM     46  C   UNL A   1      42.676  36.197  26.279  1.00  0.00     0.002 A 
ATOM     47  C   UNL A   1      43.944  37.246  28.063  1.00  0.00     0.091 A 
ATOM     48  F   UNL A   1      44.920  35.877  29.754  1.00  0.00    -0.205 F 
ATOM     49  C   UNL A   1      43.214  37.341  26.867  1.00  0.00     0.022 A 
BRANCH  47  50
ATOM     50  S   UNL A   1      44.541  38.781  28.777  1.00  0.00     0.127 S 
ATOM     51  O   UNL A   1      44.624  39.644  27.598  1.00  0.00    -0.237 OA
ATOM     52  O   UNL A   1      43.465  39.118  29.706  1.00  0.00    -0.237 OA
ATOM     53  O   UNL A   1      45.818  38.469  29.402  1.00  0.00    -0.744 OA
ENDBRANCH  47  50
ENDBRANCH  29  43
BRANCH  30  54
ATOM     54  C   UNL A   1      44.447  25.650  32.364  1.00  0.00     0.023 A 
ATOM     55  C   UNL A   1      43.946  24.564  31.623  1.00  0.00     0.012 A 
ATOM     56  C   UNL A   1      45.018  25.406  33.632  1.00  0.00     0.148 A 
ATOM     57  C   UNL A   1      43.981  23.269  32.146  1.00  0.00     0.002 A 
ATOM     58  C   UNL A   1      45.101  24.107  34.123  1.00  0.00     0.091 A 
ATOM     59  F   UNL A   1      45.478  26.450  34.335  1.00  0.00    -0.205 F 
ATOM     60  C   UNL A   1      44.565  23.039  33.390  1.00  0.00     0.022 A 
BRANCH  58  61
ATOM     61  S   UNL A   1      45.949  23.708  35.656  1.00  0.00     0.127 S 
ATOM     62  O   UNL A   1      45.084  24.340  36.649  1.00  0.00    -0.237 OA
ATOM     63  O   UNL A   1      45.913  22.244  35.649  1.00  0.00    -0.237 OA
ATOM     64  O   UNL A   1      47.285  24.273  35.527  1.00  0.00    -0.744 OA
ENDBRANCH  58  61
ENDBRANCH  30  54
BRANCH  42  65
ATOM     65  C   UNL A   1      48.016  29.173  27.488  1.00  0.00     0.023 A 
ATOM     66  C   UNL A   1      49.315  29.333  28.004  1.00  0.00     0.012 A 
ATOM     67  C   UNL A   1      47.823  28.554  26.239  1.00  0.00     0.148 A 
ATOM     68  C   UNL A   1      50.415  28.902  27.270  1.00  0.00     0.002 A 
ATOM     69  C   UNL A   1      48.918  28.070  25.544  1.00  0.00     0.091 A 
ATOM     70  F   UNL A   1      46.571  28.431  25.774  1.00  0.00    -0.205 F 
ATOM     71  C   UNL A   1      50.215  28.256  26.050  1.00  0.00     0.022 A 
BRANCH  69  72
ATOM     72  S   UNL A   1      48.746  27.120  24.034  1.00  0.00     0.127 S 
ATOM     73  O   UNL A   1      48.445  28.166  23.058  1.00  0.00    -0.237 OA
ATOM     74  O   UNL A   1      50.073  26.520  23.897  1.00  0.00    -0.237 OA
ATOM     75  O   UNL A   1      47.672  26.167  24.273  1.00  0.00    -0.744 OA
ENDBRANCH  69  72
ENDBRANCH  42  65
ENDBRANCH  16  17
ENDBRANCH   9  11
ENDBRANCH   8   9
ENDBRANCH   7   8
ENDBRANCH   6   7
ENDBRANCH   5   6
ENDBRANCH   4   5
ENDBRANCH   3   4
ENDBRANCH   2   3
ENDBRANCH   1   2
BRANCH   1  76
ATOM     76  C   UNL A   1      31.908  29.631  26.268  1.00  0.00     0.188 C 
BRANCH  76  77
ATOM     77  O   UNL A   1      31.875  30.152  24.961  1.00  0.00    -0.376 OA
BRANCH  77  78
ATOM     78  C   UNL A   1      30.636  30.104  24.271  1.00  0.00     0.202 C 
BRANCH  78  79
ATOM     79  C   UNL A   1      30.368  29.126  23.095  1.00  0.00     0.261 C 
BRANCH  79  80
ATOM     80  O   UNL A   1      30.988  27.819  23.101  1.00  0.00    -0.463 OA
BRANCH  80  81
ATOM     81  C   UNL A   1      30.403  26.809  23.783  1.00  0.00     0.311 C 
ATOM     82  O   UNL A   1      29.200  26.747  24.011  1.00  0.00    -0.252 OA
BRANCH  81  83
ATOM     83  C   UNL A   1      31.352  25.681  24.187  1.00  0.00     0.128 C 
ATOM     84  C   UNL A   1      30.635  24.667  25.088  1.00  0.00     0.117 C 
ATOM     85  C   UNL A   1      32.030  24.841  23.099  1.00  0.00     0.135 C 
ATOM     86  C   UNL A   1      31.247  23.338  24.744  1.00  0.00     0.223 C 
ATOM     87  N   UNL A   1      32.033  23.481  23.617  1.00  0.00    -0.337 N 
ATOM     88  O   UNL A   1      31.067  22.304  25.382  1.00  0.00    -0.275 OA
BRANCH  87  89
ATOM     89  C   UNL A   1      32.890  22.408  23.122  1.00  0.00     0.155 C 
BRANCH  89  90
ATOM     90  C   UNL A   1      34.207  22.176  23.830  1.00  0.00    -0.028 A 
ATOM     91  C   UNL A   1      34.277  21.319  24.943  1.00  0.00     0.009 A 
ATOM     92  C   UNL A   1      35.353  22.907  23.500  1.00  0.00     0.009 A 
ATOM     93  C   UNL A   1      35.454  21.206  25.694  1.00  0.00     0.047 A 
ATOM     94  C   UNL A   1      36.531  22.789  24.251  1.00  0.00     0.047 A 
ATOM     95  C   UNL A   1      36.591  21.938  25.351  1.00  0.00     0.119 A 
BRANCH  95  96
ATOM     96  O   UNL A   1      37.678  21.731  26.157  1.00  0.00    -0.489 OA
BRANCH  96  97
ATOM     97  C   UNL A   1      38.953  22.223  25.724  1.00  0.00     0.265 C 
BRANCH  97  98
ATOM     98  C   UNL A   1      39.549  23.264  26.643  1.00  0.00    -0.011 A 
ATOM     99  C   UNL A   1      38.930  24.509  26.798  1.00  0.00     0.007 A 
ATOM    100  C   UNL A   1      40.741  23.005  27.337  1.00  0.00     0.007 A 
ATOM    101  C   UNL A   1      39.491  25.469  27.634  1.00  0.00     0.000 A 
ATOM    102  C   UNL A   1      41.282  23.959  28.200  1.00  0.00     0.000 A 
ATOM    103  C   UNL A   1      40.657  25.193  28.346  1.00  0.00     0.000 A 
ENDBRANCH  97  98
ENDBRANCH  96  97
ENDBRANCH  95  96
ENDBRANCH  89  90
ENDBRANCH  87  89
ENDBRANCH  81  83
ENDBRANCH  80  81
ENDBRANCH  79  80
ENDBRANCH  78  79
ENDBRANCH  77  78
ENDBRANCH  76  77
ENDBRANCH   1  76
TORSDOF 28
ENDMDL
