MODEL 1
REMARK VINA RESULT:      -8.1      0.000      0.000
REMARK SMILES O=C(OCCOCCOCCOCCOC(=O)c1ccc(COc2cccc(Cl)c2Cl)o1)c1ccc(-c2c3nc(c(-c4cccc(S(=O)(=O)[O-])c4F)c4ccc([nH]4)c(-c4cccc(S(=O)(=O)[O-])c4F)c4nc(c(-c5cccc(S(=O)(=O)[O-])c5F)c5ccc2[nH]5)C=C4)C=C3)cc1
REMARK SMILES IDX 9 1 8 2 7 3 6 4 5 5 4 6 3 7 2 8 1 9 33 10 34 11 95 12 35 13
REMARK SMILES IDX 94 14 36 15 37 16 38 17 88 18 39 19 93 20 87 21 89 22 40 23
REMARK SMILES IDX 92 24 86 25 85 26 41 28 73 29 53 30 72 31 54 32 57 33 71 34
REMARK SMILES IDX 90 35 55 36 56 37 70 39 91 40 58 41 42 42 43 43 51 44 44 45
REMARK SMILES IDX 46 46 52 47 45 48 47 49 48 50 49 51 50 52 74 53 75 54 83 55
REMARK SMILES IDX 76 56 78 57 84 58 77 59 79 60 80 61 81 62 82 63 59 64 60 65
REMARK SMILES IDX 68 66 61 67 63 68 69 69 62 70 64 71 65 72 66 73 67 74 10 75
REMARK SMILES IDX 11 76 12 77 13 78 14 79 15 80 16 81 17 82 18 83 19 84 32 85
REMARK SMILES IDX 20 86 21 87 22 88 23 89 24 90 25 91 30 92 26 93 28 94 31 95
REMARK SMILES IDX 27 96 29 97
REMARK H PARENT 89 27 57 38
REMARK Flexibility Score: inf
ROOT
ATOM      1  O   UNL A   1      35.807  33.317  27.710  1.00  0.00    -0.377 OA
ENDROOT
BRANCH   1   2
ATOM      2  C   UNL A   1      36.749  33.403  28.789  1.00  0.00     0.188 C 
BRANCH   2   3
ATOM      3  C   UNL A   1      36.125  33.737  30.148  1.00  0.00     0.188 C 
BRANCH   3   4
ATOM      4  O   UNL A   1      36.243  32.619  31.034  1.00  0.00    -0.376 OA
BRANCH   4   5
ATOM      5  C   UNL A   1      37.419  32.599  31.841  1.00  0.00     0.202 C 
BRANCH   5   6
ATOM      6  C   UNL A   1      38.057  31.217  31.980  1.00  0.00     0.261 C 
BRANCH   6   7
ATOM      7  O   UNL A   1      37.752  30.377  30.856  1.00  0.00    -0.460 OA
BRANCH   7   8
ATOM      8  C   UNL A   1      38.576  30.074  29.820  1.00  0.00     0.338 C 
ATOM      9  O   UNL A   1      38.190  30.316  28.677  1.00  0.00    -0.246 OA
BRANCH   8  10
ATOM     10  C   UNL A   1      39.951  29.515  29.999  1.00  0.00     0.060 A 
ATOM     11  C   UNL A   1      40.248  28.162  30.194  1.00  0.00     0.016 A 
ATOM     12  C   UNL A   1      41.023  30.413  29.894  1.00  0.00     0.016 A 
ATOM     13  C   UNL A   1      41.551  27.722  30.386  1.00  0.00     0.010 A 
ATOM     14  C   UNL A   1      42.343  29.974  30.037  1.00  0.00     0.010 A 
ATOM     15  C   UNL A   1      42.605  28.627  30.318  1.00  0.00    -0.014 A 
BRANCH  15  16
ATOM     16  C   UNL A   1      43.960  28.160  30.660  1.00  0.00     0.031 A 
ATOM     17  C   UNL A   1      44.820  27.621  29.559  1.00  0.00     0.074 A 
ATOM     18  C   UNL A   1      44.418  28.287  31.919  1.00  0.00     0.049 A 
ATOM     19  N   UNL A   1      45.998  27.069  29.627  1.00  0.00    -0.248 NA
ATOM     20  C   UNL A   1      44.279  27.725  28.191  1.00  0.00     0.031 C 
ATOM     21  C   UNL A   1      43.675  28.883  33.031  1.00  0.00     0.029 A 
ATOM     22  N   UNL A   1      45.615  27.919  32.475  1.00  0.00    -0.354 N 
ATOM     23  C   UNL A   1      46.309  26.694  28.326  1.00  0.00     0.074 A 
ATOM     24  C   UNL A   1      45.213  27.111  27.482  1.00  0.00     0.031 C 
ATOM     25  C   UNL A   1      44.430  28.830  34.140  1.00  0.00     0.029 A 
ATOM     26  C   UNL A   1      45.678  28.141  33.831  1.00  0.00     0.049 A 
ATOM     27  H   UNL A   1      46.357  27.534  31.955  1.00  0.00     0.167 HD
ATOM     28  C   UNL A   1      47.412  26.050  27.886  1.00  0.00     0.034 A 
ATOM     29  C   UNL A   1      46.622  27.779  34.722  1.00  0.00     0.034 A 
ATOM     30  C   UNL A   1      48.500  25.679  28.744  1.00  0.00     0.049 A 
ATOM     31  C   UNL A   1      47.825  27.035  34.208  1.00  0.00     0.074 A 
ATOM     32  C   UNL A   1      49.671  25.023  28.419  1.00  0.00     0.029 A 
ATOM     33  N   UNL A   1      48.540  25.932  30.108  1.00  0.00    -0.354 N 
ATOM     34  N   UNL A   1      48.134  26.721  32.970  1.00  0.00    -0.248 NA
ATOM     35  C   UNL A   1      48.814  26.597  35.202  1.00  0.00     0.031 C 
ATOM     36  C   UNL A   1      50.411  24.860  29.595  1.00  0.00     0.029 A 
ATOM     37  C   UNL A   1      49.708  25.430  30.647  1.00  0.00     0.049 A 
ATOM     38  H   UNL A   1      47.838  26.400  30.617  1.00  0.00     0.167 HD
ATOM     39  C   UNL A   1      49.353  26.060  33.035  1.00  0.00     0.074 A 
ATOM     40  C   UNL A   1      49.744  26.048  34.432  1.00  0.00     0.031 C 
ATOM     41  C   UNL A   1      50.077  25.488  32.040  1.00  0.00     0.034 A 
BRANCH  28  42
ATOM     42  C   UNL A   1      47.464  25.690  26.428  1.00  0.00     0.023 A 
ATOM     43  C   UNL A   1      46.995  24.435  25.992  1.00  0.00     0.012 A 
ATOM     44  C   UNL A   1      47.996  26.597  25.490  1.00  0.00     0.148 A 
ATOM     45  C   UNL A   1      47.083  24.076  24.646  1.00  0.00     0.002 A 
ATOM     46  C   UNL A   1      48.048  26.246  24.148  1.00  0.00     0.091 A 
ATOM     47  F   UNL A   1      48.463  27.772  25.934  1.00  0.00    -0.205 F 
ATOM     48  C   UNL A   1      47.602  24.983  23.725  1.00  0.00     0.022 A 
BRANCH  46  49
ATOM     49  S   UNL A   1      48.659  27.360  22.878  1.00  0.00     0.127 S 
ATOM     50  O   UNL A   1      49.926  27.803  23.461  1.00  0.00    -0.237 OA
ATOM     51  O   UNL A   1      48.796  26.467  21.728  1.00  0.00    -0.237 OA
ATOM     52  O   UNL A   1      47.647  28.396  22.730  1.00  0.00    -0.744 OA
ENDBRANCH  46  49
ENDBRANCH  28  42
BRANCH  29  53
ATOM     53  C   UNL A   1      46.454  28.098  36.170  1.00  0.00     0.023 A 
ATOM     54  C   UNL A   1      46.899  29.337  36.670  1.00  0.00     0.012 A 
ATOM     55  C   UNL A   1      45.831  27.193  37.054  1.00  0.00     0.148 A 
ATOM     56  C   UNL A   1      46.746  29.659  38.021  1.00  0.00     0.002 A 
ATOM     57  C   UNL A   1      45.626  27.543  38.384  1.00  0.00     0.091 A 
ATOM     58  F   UNL A   1      45.439  26.002  36.577  1.00  0.00    -0.205 F 
ATOM     59  C   UNL A   1      46.097  28.770  38.875  1.00  0.00     0.022 A 
BRANCH  57  60
ATOM     60  S   UNL A   1      44.670  26.511  39.502  1.00  0.00     0.127 S 
ATOM     61  O   UNL A   1      44.622  27.334  40.706  1.00  0.00    -0.237 OA
ATOM     62  O   UNL A   1      43.396  26.382  38.793  1.00  0.00    -0.237 OA
ATOM     63  O   UNL A   1      45.418  25.264  39.606  1.00  0.00    -0.744 OA
ENDBRANCH  57  60
ENDBRANCH  29  53
BRANCH  41  64
ATOM     64  C   UNL A   1      51.363  24.813  32.424  1.00  0.00     0.023 A 
ATOM     65  C   UNL A   1      52.557  25.559  32.436  1.00  0.00     0.012 A 
ATOM     66  C   UNL A   1      51.363  23.483  32.883  1.00  0.00     0.148 A 
ATOM     67  C   UNL A   1      53.741  24.982  32.889  1.00  0.00     0.002 A 
ATOM     68  C   UNL A   1      52.537  22.931  33.377  1.00  0.00     0.091 A 
ATOM     69  F   UNL A   1      50.215  22.791  32.842  1.00  0.00    -0.205 F 
ATOM     70  C   UNL A   1      53.728  23.676  33.372  1.00  0.00     0.022 A 
BRANCH  68  71
ATOM     71  S   UNL A   1      52.588  21.296  34.117  1.00  0.00     0.127 S 
ATOM     72  O   UNL A   1      51.424  21.333  35.000  1.00  0.00    -0.237 OA
ATOM     73  O   UNL A   1      52.445  20.423  32.953  1.00  0.00    -0.237 OA
ATOM     74  O   UNL A   1      53.879  21.200  34.786  1.00  0.00    -0.744 OA
ENDBRANCH  68  71
ENDBRANCH  41  64
ENDBRANCH  15  16
ENDBRANCH   8  10
ENDBRANCH   7   8
ENDBRANCH   6   7
ENDBRANCH   5   6
ENDBRANCH   4   5
ENDBRANCH   3   4
ENDBRANCH   2   3
ENDBRANCH   1   2
BRANCH   1  75
ATOM     75  C   UNL A   1      34.650  32.514  27.951  1.00  0.00     0.188 C 
BRANCH  75  76
ATOM     76  C   UNL A   1      34.749  31.001  27.675  1.00  0.00     0.188 C 
BRANCH  76  77
ATOM     77  O   UNL A   1      33.479  30.381  27.571  1.00  0.00    -0.376 OA
BRANCH  77  78
ATOM     78  C   UNL A   1      32.709  30.701  26.421  1.00  0.00     0.202 C 
BRANCH  78  79
ATOM     79  C   UNL A   1      32.691  29.699  25.245  1.00  0.00     0.261 C 
BRANCH  79  80
ATOM     80  O   UNL A   1      31.474  28.960  25.060  1.00  0.00    -0.457 OA
BRANCH  80  81
ATOM     81  C   UNL A   1      31.520  27.617  25.252  1.00  0.00     0.374 C 
ATOM     82  O   UNL A   1      30.919  27.010  26.133  1.00  0.00    -0.242 OA
BRANCH  81  83
ATOM     83  C   UNL A   1      32.232  27.005  24.157  1.00  0.00     0.211 A 
ATOM     84  C   UNL A   1      32.173  27.105  22.779  1.00  0.00     0.058 A 
ATOM     85  O   UNL A   1      33.107  26.011  24.486  1.00  0.00    -0.450 OA
ATOM     86  C   UNL A   1      33.094  26.149  22.258  1.00  0.00     0.050 A 
ATOM     87  C   UNL A   1      33.638  25.494  23.345  1.00  0.00     0.142 A 
BRANCH  87  88
ATOM     88  C   UNL A   1      34.611  24.372  23.502  1.00  0.00     0.304 C 
BRANCH  88  89
ATOM     89  O   UNL A   1      33.915  23.117  23.651  1.00  0.00    -0.484 OA
BRANCH  89  90
ATOM     90  C   UNL A   1      33.465  22.916  24.932  1.00  0.00     0.140 A 
ATOM     91  C   UNL A   1      34.413  22.764  25.950  1.00  0.00     0.048 A 
ATOM     92  C   UNL A   1      32.101  22.965  25.246  1.00  0.00     0.101 A 
ATOM     93  C   UNL A   1      34.016  22.561  27.266  1.00  0.00     0.005 A 
ATOM     94  C   UNL A   1      31.707  22.792  26.581  1.00  0.00     0.063 A 
ATOM     95  Cl  UNL A   1      30.942  23.244  23.988  1.00  0.00    -0.079 Cl
ATOM     96  C   UNL A   1      32.662  22.571  27.582  1.00  0.00     0.022 A 
ATOM     97  Cl  UNL A   1      30.049  22.843  27.073  1.00  0.00    -0.083 Cl
ENDBRANCH  89  90
ENDBRANCH  88  89
ENDBRANCH  87  88
ENDBRANCH  81  83
ENDBRANCH  80  81
ENDBRANCH  79  80
ENDBRANCH  78  79
ENDBRANCH  77  78
ENDBRANCH  76  77
ENDBRANCH  75  76
ENDBRANCH   1  75
TORSDOF 26
ENDMDL
MODEL 2
REMARK VINA RESULT:      -8.0      4.327      9.213
REMARK SMILES O=C(OCCOCCOCCOCCOC(=O)c1ccc(COc2cccc(Cl)c2Cl)o1)c1ccc(-c2c3nc(c(-c4cccc(S(=O)(=O)[O-])c4F)c4ccc([nH]4)c(-c4cccc(S(=O)(=O)[O-])c4F)c4nc(c(-c5cccc(S(=O)(=O)[O-])c5F)c5ccc2[nH]5)C=C4)C=C3)cc1
REMARK SMILES IDX 9 1 8 2 7 3 6 4 5 5 4 6 3 7 2 8 1 9 33 10 34 11 95 12 35 13
REMARK SMILES IDX 94 14 36 15 37 16 38 17 88 18 39 19 93 20 87 21 89 22 40 23
REMARK SMILES IDX 92 24 86 25 85 26 41 28 73 29 53 30 72 31 54 32 57 33 71 34
REMARK SMILES IDX 90 35 55 36 56 37 70 39 91 40 58 41 42 42 43 43 51 44 44 45
REMARK SMILES IDX 46 46 52 47 45 48 47 49 48 50 49 51 50 52 74 53 75 54 83 55
REMARK SMILES IDX 76 56 78 57 84 58 77 59 79 60 80 61 81 62 82 63 59 64 60 65
REMARK SMILES IDX 68 66 61 67 63 68 69 69 62 70 64 71 65 72 66 73 67 74 10 75
REMARK SMILES IDX 11 76 12 77 13 78 14 79 15 80 16 81 17 82 18 83 19 84 32 85
REMARK SMILES IDX 20 86 21 87 22 88 23 89 24 90 25 91 30 92 26 93 28 94 31 95
REMARK SMILES IDX 27 96 29 97
REMARK H PARENT 89 27 57 38
REMARK Flexibility Score: inf
ROOT
ATOM      1  O   UNL A   1      40.566  22.149  27.184  1.00  0.00    -0.377 OA
ENDROOT
BRANCH   1   2
ATOM      2  C   UNL A   1      41.683  22.444  28.036  1.00  0.00     0.188 C 
BRANCH   2   3
ATOM      3  C   UNL A   1      42.381  23.772  27.729  1.00  0.00     0.188 C 
BRANCH   3   4
ATOM      4  O   UNL A   1      43.190  23.647  26.555  1.00  0.00    -0.376 OA
BRANCH   4   5
ATOM      5  C   UNL A   1      42.770  24.424  25.436  1.00  0.00     0.202 C 
BRANCH   5   6
ATOM      6  C   UNL A   1      41.527  25.275  25.698  1.00  0.00     0.261 C 
BRANCH   6   7
ATOM      7  O   UNL A   1      41.793  26.673  25.510  1.00  0.00    -0.460 OA
BRANCH   7   8
ATOM      8  C   UNL A   1      42.858  27.370  25.985  1.00  0.00     0.338 C 
ATOM      9  O   UNL A   1      43.606  27.917  25.177  1.00  0.00    -0.246 OA
BRANCH   8  10
ATOM     10  C   UNL A   1      43.135  27.555  27.443  1.00  0.00     0.060 A 
ATOM     11  C   UNL A   1      44.352  27.985  27.980  1.00  0.00     0.016 A 
ATOM     12  C   UNL A   1      42.066  27.344  28.327  1.00  0.00     0.016 A 
ATOM     13  C   UNL A   1      44.544  28.101  29.351  1.00  0.00     0.010 A 
ATOM     14  C   UNL A   1      42.234  27.506  29.705  1.00  0.00     0.010 A 
ATOM     15  C   UNL A   1      43.488  27.853  30.221  1.00  0.00    -0.014 A 
BRANCH  15  16
ATOM     16  C   UNL A   1      43.754  27.850  31.671  1.00  0.00     0.031 A 
ATOM     17  C   UNL A   1      43.455  29.096  32.446  1.00  0.00     0.074 A 
ATOM     18  C   UNL A   1      44.188  26.728  32.274  1.00  0.00     0.049 A 
ATOM     19  N   UNL A   1      43.692  29.365  33.699  1.00  0.00    -0.248 NA
ATOM     20  C   UNL A   1      42.792  30.187  31.708  1.00  0.00     0.031 C 
ATOM     21  C   UNL A   1      44.419  25.446  31.604  1.00  0.00     0.029 A 
ATOM     22  N   UNL A   1      44.515  26.486  33.582  1.00  0.00    -0.354 N 
ATOM     23  C   UNL A   1      43.274  30.678  33.883  1.00  0.00     0.074 A 
ATOM     24  C   UNL A   1      42.738  31.141  32.623  1.00  0.00     0.031 C 
ATOM     25  C   UNL A   1      44.862  24.555  32.506  1.00  0.00     0.029 A 
ATOM     26  C   UNL A   1      45.005  25.219  33.797  1.00  0.00     0.049 A 
ATOM     27  H   UNL A   1      44.408  27.154  34.298  1.00  0.00     0.167 HD
ATOM     28  C   UNL A   1      43.344  31.425  35.006  1.00  0.00     0.034 A 
ATOM     29  C   UNL A   1      45.553  24.682  34.904  1.00  0.00     0.034 A 
ATOM     30  C   UNL A   1      43.851  30.925  36.251  1.00  0.00     0.049 A 
ATOM     31  C   UNL A   1      45.647  25.548  36.133  1.00  0.00     0.074 A 
ATOM     32  C   UNL A   1      43.976  31.582  37.459  1.00  0.00     0.029 A 
ATOM     33  N   UNL A   1      44.325  29.634  36.440  1.00  0.00    -0.354 N 
ATOM     34  N   UNL A   1      45.212  26.774  36.313  1.00  0.00    -0.248 NA
ATOM     35  C   UNL A   1      46.301  24.965  37.312  1.00  0.00     0.031 C 
ATOM     36  C   UNL A   1      44.548  30.692  38.374  1.00  0.00     0.029 A 
ATOM     37  C   UNL A   1      44.761  29.476  37.740  1.00  0.00     0.049 A 
ATOM     38  H   UNL A   1      44.348  28.933  35.747  1.00  0.00     0.167 HD
ATOM     39  C   UNL A   1      45.528  27.105  37.624  1.00  0.00     0.074 A 
ATOM     40  C   UNL A   1      46.163  25.937  38.203  1.00  0.00     0.031 C 
ATOM     41  C   UNL A   1      45.340  28.273  38.286  1.00  0.00     0.034 A 
BRANCH  28  42
ATOM     42  C   UNL A   1      42.892  32.855  34.912  1.00  0.00     0.023 A 
ATOM     43  C   UNL A   1      43.800  33.860  34.525  1.00  0.00     0.012 A 
ATOM     44  C   UNL A   1      41.564  33.202  35.225  1.00  0.00     0.148 A 
ATOM     45  C   UNL A   1      43.398  35.196  34.481  1.00  0.00     0.002 A 
ATOM     46  C   UNL A   1      41.163  34.529  35.146  1.00  0.00     0.091 A 
ATOM     47  F   UNL A   1      40.727  32.231  35.620  1.00  0.00    -0.205 F 
ATOM     48  C   UNL A   1      42.080  35.528  34.784  1.00  0.00     0.022 A 
BRANCH  46  49
ATOM     49  S   UNL A   1      39.476  35.053  35.474  1.00  0.00     0.127 S 
ATOM     50  O   UNL A   1      39.667  36.465  35.807  1.00  0.00    -0.237 OA
ATOM     51  O   UNL A   1      38.825  34.812  34.187  1.00  0.00    -0.237 OA
ATOM     52  O   UNL A   1      38.999  34.215  36.565  1.00  0.00    -0.744 OA
ENDBRANCH  46  49
ENDBRANCH  28  42
BRANCH  29  53
ATOM     53  C   UNL A   1      46.060  23.279  34.891  1.00  0.00     0.023 A 
ATOM     54  C   UNL A   1      45.148  22.205  34.887  1.00  0.00     0.012 A 
ATOM     55  C   UNL A   1      47.441  22.998  34.854  1.00  0.00     0.148 A 
ATOM     56  C   UNL A   1      45.601  20.884  34.867  1.00  0.00     0.002 A 
ATOM     57  C   UNL A   1      47.885  21.682  34.773  1.00  0.00     0.091 A 
ATOM     58  F   UNL A   1      48.302  24.025  34.891  1.00  0.00    -0.205 F 
ATOM     59  C   UNL A   1      46.968  20.621  34.796  1.00  0.00     0.022 A 
BRANCH  57  60
ATOM     60  S   UNL A   1      49.620  21.278  34.531  1.00  0.00     0.127 S 
ATOM     61  O   UNL A   1      49.902  21.919  33.250  1.00  0.00    -0.237 OA
ATOM     62  O   UNL A   1      50.251  21.913  35.690  1.00  0.00    -0.237 OA
ATOM     63  O   UNL A   1      49.680  19.822  34.548  1.00  0.00    -0.744 OA
ENDBRANCH  57  60
ENDBRANCH  29  53
BRANCH  41  64
ATOM     64  C   UNL A   1      45.815  28.343  39.709  1.00  0.00     0.023 A 
ATOM     65  C   UNL A   1      44.980  27.873  40.740  1.00  0.00     0.012 A 
ATOM     66  C   UNL A   1      47.126  28.758  40.006  1.00  0.00     0.148 A 
ATOM     67  C   UNL A   1      45.439  27.830  42.054  1.00  0.00     0.002 A 
ATOM     68  C   UNL A   1      47.593  28.668  41.311  1.00  0.00     0.091 A 
ATOM     69  F   UNL A   1      47.894  29.219  39.007  1.00  0.00    -0.205 F 
ATOM     70  C   UNL A   1      46.749  28.212  42.336  1.00  0.00     0.022 A 
BRANCH  68  71
ATOM     71  S   UNL A   1      49.296  29.037  41.745  1.00  0.00     0.127 S 
ATOM     72  O   UNL A   1      49.344  28.612  43.143  1.00  0.00    -0.237 OA
ATOM     73  O   UNL A   1      50.044  28.185  40.822  1.00  0.00    -0.237 OA
ATOM     74  O   UNL A   1      49.466  30.466  41.519  1.00  0.00    -0.744 OA
ENDBRANCH  68  71
ENDBRANCH  41  64
ENDBRANCH  15  16
ENDBRANCH   8  10
ENDBRANCH   7   8
ENDBRANCH   6   7
ENDBRANCH   5   6
ENDBRANCH   4   5
ENDBRANCH   3   4
ENDBRANCH   2   3
ENDBRANCH   1   2
BRANCH   1  75
ATOM     75  C   UNL A   1      40.603  20.887  26.516  1.00  0.00     0.188 C 
BRANCH  75  76
ATOM     76  C   UNL A   1      39.318  20.400  25.817  1.00  0.00     0.188 C 
BRANCH  76  77
ATOM     77  O   UNL A   1      38.447  21.465  25.475  1.00  0.00    -0.376 OA
BRANCH  77  78
ATOM     78  C   UNL A   1      37.327  21.132  24.666  1.00  0.00     0.202 C 
BRANCH  78  79
ATOM     79  C   UNL A   1      35.971  20.872  25.360  1.00  0.00     0.261 C 
BRANCH  79  80
ATOM     80  O   UNL A   1      34.813  20.876  24.510  1.00  0.00    -0.457 OA
BRANCH  80  81
ATOM     81  C   UNL A   1      33.622  20.546  25.070  1.00  0.00     0.374 C 
ATOM     82  O   UNL A   1      33.407  19.530  25.724  1.00  0.00    -0.242 OA
BRANCH  81  83
ATOM     83  C   UNL A   1      32.710  21.655  24.933  1.00  0.00     0.211 A 
ATOM     84  C   UNL A   1      31.822  22.073  23.959  1.00  0.00     0.058 A 
ATOM     85  O   UNL A   1      32.764  22.606  25.911  1.00  0.00    -0.450 OA
ATOM     86  C   UNL A   1      31.286  23.319  24.399  1.00  0.00     0.050 A 
ATOM     87  C   UNL A   1      31.901  23.610  25.600  1.00  0.00     0.142 A 
BRANCH  87  88
ATOM     88  C   UNL A   1      31.834  24.761  26.550  1.00  0.00     0.304 C 
BRANCH  88  89
ATOM     89  O   UNL A   1      30.644  25.542  26.315  1.00  0.00    -0.484 OA
BRANCH  89  90
ATOM     90  C   UNL A   1      30.930  26.837  25.959  1.00  0.00     0.140 A 
ATOM     91  C   UNL A   1      31.595  27.647  26.886  1.00  0.00     0.048 A 
ATOM     92  C   UNL A   1      30.664  27.319  24.671  1.00  0.00     0.101 A 
ATOM     93  C   UNL A   1      31.913  28.964  26.579  1.00  0.00     0.005 A 
ATOM     94  C   UNL A   1      31.016  28.640  24.356  1.00  0.00     0.063 A 
ATOM     95  Cl  UNL A   1      29.920  26.276  23.504  1.00  0.00    -0.079 Cl
ATOM     96  C   UNL A   1      31.620  29.463  25.315  1.00  0.00     0.022 A 
ATOM     97  Cl  UNL A   1      30.738  29.326  22.793  1.00  0.00    -0.083 Cl
ENDBRANCH  89  90
ENDBRANCH  88  89
ENDBRANCH  87  88
ENDBRANCH  81  83
ENDBRANCH  80  81
ENDBRANCH  79  80
ENDBRANCH  78  79
ENDBRANCH  77  78
ENDBRANCH  76  77
ENDBRANCH  75  76
ENDBRANCH   1  75
TORSDOF 26
ENDMDL
MODEL 3
REMARK VINA RESULT:      -7.9      6.945     11.329
REMARK SMILES O=C(OCCOCCOCCOCCOC(=O)c1ccc(COc2cccc(Cl)c2Cl)o1)c1ccc(-c2c3nc(c(-c4cccc(S(=O)(=O)[O-])c4F)c4ccc([nH]4)c(-c4cccc(S(=O)(=O)[O-])c4F)c4nc(c(-c5cccc(S(=O)(=O)[O-])c5F)c5ccc2[nH]5)C=C4)C=C3)cc1
REMARK SMILES IDX 9 1 8 2 7 3 6 4 5 5 4 6 3 7 2 8 1 9 33 10 34 11 95 12 35 13
REMARK SMILES IDX 94 14 36 15 37 16 38 17 88 18 39 19 93 20 87 21 89 22 40 23
REMARK SMILES IDX 92 24 86 25 85 26 41 28 73 29 53 30 72 31 54 32 57 33 71 34
REMARK SMILES IDX 90 35 55 36 56 37 70 39 91 40 58 41 42 42 43 43 51 44 44 45
REMARK SMILES IDX 46 46 52 47 45 48 47 49 48 50 49 51 50 52 74 53 75 54 83 55
REMARK SMILES IDX 76 56 78 57 84 58 77 59 79 60 80 61 81 62 82 63 59 64 60 65
REMARK SMILES IDX 68 66 61 67 63 68 69 69 62 70 64 71 65 72 66 73 67 74 10 75
REMARK SMILES IDX 11 76 12 77 13 78 14 79 15 80 16 81 17 82 18 83 19 84 32 85
REMARK SMILES IDX 20 86 21 87 22 88 23 89 24 90 25 91 30 92 26 93 28 94 31 95
REMARK SMILES IDX 27 96 29 97
REMARK H PARENT 89 27 57 38
REMARK Flexibility Score: inf
ROOT
ATOM      1  O   UNL A   1      39.549  29.180  27.516  1.00  0.00    -0.377 OA
ENDROOT
BRANCH   1   2
ATOM      2  C   UNL A   1      40.956  28.939  27.660  1.00  0.00     0.188 C 
BRANCH   2   3
ATOM      3  C   UNL A   1      41.306  27.752  28.563  1.00  0.00     0.188 C 
BRANCH   3   4
ATOM      4  O   UNL A   1      40.437  26.649  28.289  1.00  0.00    -0.376 OA
BRANCH   4   5
ATOM      5  C   UNL A   1      41.088  25.421  27.969  1.00  0.00     0.202 C 
BRANCH   5   6
ATOM      6  C   UNL A   1      41.507  25.301  26.503  1.00  0.00     0.261 C 
BRANCH   6   7
ATOM      7  O   UNL A   1      42.322  24.141  26.279  1.00  0.00    -0.460 OA
BRANCH   7   8
ATOM      8  C   UNL A   1      43.615  23.971  26.656  1.00  0.00     0.338 C 
ATOM      9  O   UNL A   1      43.984  22.843  26.984  1.00  0.00    -0.246 OA
BRANCH   8  10
ATOM     10  C   UNL A   1      44.629  25.070  26.640  1.00  0.00     0.060 A 
ATOM     11  C   UNL A   1      45.212  25.641  27.775  1.00  0.00     0.016 A 
ATOM     12  C   UNL A   1      45.072  25.508  25.383  1.00  0.00     0.016 A 
ATOM     13  C   UNL A   1      46.123  26.684  27.680  1.00  0.00     0.010 A 
ATOM     14  C   UNL A   1      46.027  26.524  25.276  1.00  0.00     0.010 A 
ATOM     15  C   UNL A   1      46.529  27.138  26.430  1.00  0.00    -0.014 A 
BRANCH  15  16
ATOM     16  C   UNL A   1      47.389  28.332  26.357  1.00  0.00     0.031 A 
ATOM     17  C   UNL A   1      46.738  29.678  26.441  1.00  0.00     0.074 A 
ATOM     18  C   UNL A   1      48.726  28.196  26.287  1.00  0.00     0.049 A 
ATOM     19  N   UNL A   1      47.267  30.861  26.306  1.00  0.00    -0.248 NA
ATOM     20  C   UNL A   1      45.290  29.692  26.723  1.00  0.00     0.031 C 
ATOM     21  C   UNL A   1      49.445  26.921  26.290  1.00  0.00     0.029 A 
ATOM     22  N   UNL A   1      49.716  29.138  26.194  1.00  0.00    -0.354 N 
ATOM     23  C   UNL A   1      46.209  31.756  26.413  1.00  0.00     0.074 A 
ATOM     24  C   UNL A   1      45.013  30.984  26.659  1.00  0.00     0.031 C 
ATOM     25  C   UNL A   1      50.763  27.161  26.192  1.00  0.00     0.029 A 
ATOM     26  C   UNL A   1      50.973  28.598  26.056  1.00  0.00     0.049 A 
ATOM     27  H   UNL A   1      49.545  30.108  26.226  1.00  0.00     0.167 HD
ATOM     28  C   UNL A   1      46.243  33.102  26.306  1.00  0.00     0.034 A 
ATOM     29  C   UNL A   1      52.149  29.203  25.798  1.00  0.00     0.034 A 
ATOM     30  C   UNL A   1      47.453  33.843  26.096  1.00  0.00     0.049 A 
ATOM     31  C   UNL A   1      52.152  30.701  25.652  1.00  0.00     0.074 A 
ATOM     32  C   UNL A   1      47.619  35.208  25.968  1.00  0.00     0.029 A 
ATOM     33  N   UNL A   1      48.710  33.268  25.975  1.00  0.00    -0.354 N 
ATOM     34  N   UNL A   1      51.156  31.545  25.798  1.00  0.00    -0.248 NA
ATOM     35  C   UNL A   1      53.432  31.337  25.313  1.00  0.00     0.031 C 
ATOM     36  C   UNL A   1      48.978  35.456  25.748  1.00  0.00     0.029 A 
ATOM     37  C   UNL A   1      49.659  34.247  25.757  1.00  0.00     0.049 A 
ATOM     38  H   UNL A   1      48.898  32.302  26.036  1.00  0.00     0.167 HD
ATOM     39  C   UNL A   1      51.689  32.809  25.578  1.00  0.00     0.074 A 
ATOM     40  C   UNL A   1      53.105  32.621  25.322  1.00  0.00     0.031 C 
ATOM     41  C   UNL A   1      51.068  34.014  25.559  1.00  0.00     0.034 A 
BRANCH  28  42
ATOM     42  C   UNL A   1      44.932  33.833  26.384  1.00  0.00     0.023 A 
ATOM     43  C   UNL A   1      44.150  34.010  25.225  1.00  0.00     0.012 A 
ATOM     44  C   UNL A   1      44.484  34.359  27.611  1.00  0.00     0.148 A 
ATOM     45  C   UNL A   1      42.955  34.727  25.282  1.00  0.00     0.002 A 
ATOM     46  C   UNL A   1      43.276  35.042  27.665  1.00  0.00     0.091 A 
ATOM     47  F   UNL A   1      45.260  34.204  28.693  1.00  0.00    -0.205 F 
ATOM     48  C   UNL A   1      42.515  35.236  26.501  1.00  0.00     0.022 A 
BRANCH  46  49
ATOM     49  S   UNL A   1      42.603  35.699  29.196  1.00  0.00     0.127 S 
ATOM     50  O   UNL A   1      41.693  36.731  28.698  1.00  0.00    -0.237 OA
ATOM     51  O   UNL A   1      41.941  34.526  29.767  1.00  0.00    -0.237 OA
ATOM     52  O   UNL A   1      43.741  36.189  29.960  1.00  0.00    -0.744 OA
ENDBRANCH  46  49
ENDBRANCH  28  42
BRANCH  29  53
ATOM     53  C   UNL A   1      53.396  28.396  25.648  1.00  0.00     0.023 A 
ATOM     54  C   UNL A   1      53.831  28.013  24.364  1.00  0.00     0.012 A 
ATOM     55  C   UNL A   1      54.171  28.027  26.766  1.00  0.00     0.148 A 
ATOM     56  C   UNL A   1      54.998  27.263  24.199  1.00  0.00     0.002 A 
ATOM     57  C   UNL A   1      55.364  27.333  26.591  1.00  0.00     0.091 A 
ATOM     58  F   UNL A   1      53.733  28.368  27.987  1.00  0.00    -0.205 F 
ATOM     59  C   UNL A   1      55.772  26.936  25.310  1.00  0.00     0.022 A 
BRANCH  57  60
ATOM     60  S   UNL A   1      56.483  27.008  27.960  1.00  0.00     0.127 S 
ATOM     61  O   UNL A   1      56.732  28.353  28.471  1.00  0.00    -0.237 OA
ATOM     62  O   UNL A   1      55.668  26.159  28.831  1.00  0.00    -0.237 OA
ATOM     63  O   UNL A   1      57.625  26.325  27.367  1.00  0.00    -0.744 OA
ENDBRANCH  57  60
ENDBRANCH  29  53
BRANCH  41  64
ATOM     64  C   UNL A   1      51.913  35.221  25.264  1.00  0.00     0.023 A 
ATOM     65  C   UNL A   1      52.273  35.502  23.933  1.00  0.00     0.012 A 
ATOM     66  C   UNL A   1      52.244  36.130  26.286  1.00  0.00     0.148 A 
ATOM     67  C   UNL A   1      52.967  36.670  23.624  1.00  0.00     0.002 A 
ATOM     68  C   UNL A   1      52.893  37.314  25.963  1.00  0.00     0.091 A 
ATOM     69  F   UNL A   1      51.905  35.826  27.547  1.00  0.00    -0.205 F 
ATOM     70  C   UNL A   1      53.262  37.581  24.635  1.00  0.00     0.022 A 
BRANCH  68  71
ATOM     71  S   UNL A   1      53.217  38.591  27.184  1.00  0.00     0.127 S 
ATOM     72  O   UNL A   1      53.745  39.670  26.351  1.00  0.00    -0.237 OA
ATOM     73  O   UNL A   1      51.885  38.839  27.734  1.00  0.00    -0.237 OA
ATOM     74  O   UNL A   1      54.161  38.010  28.128  1.00  0.00    -0.744 OA
ENDBRANCH  68  71
ENDBRANCH  41  64
ENDBRANCH  15  16
ENDBRANCH   8  10
ENDBRANCH   7   8
ENDBRANCH   6   7
ENDBRANCH   5   6
ENDBRANCH   4   5
ENDBRANCH   3   4
ENDBRANCH   2   3
ENDBRANCH   1   2
BRANCH   1  75
ATOM     75  C   UNL A   1      38.822  29.388  28.728  1.00  0.00     0.188 C 
BRANCH  75  76
ATOM     76  C   UNL A   1      37.300  29.617  28.630  1.00  0.00     0.188 C 
BRANCH  76  77
ATOM     77  O   UNL A   1      36.967  30.971  28.378  1.00  0.00    -0.376 OA
BRANCH  77  78
ATOM     78  C   UNL A   1      35.706  31.211  27.770  1.00  0.00     0.202 C 
BRANCH  78  79
ATOM     79  C   UNL A   1      35.070  32.611  27.924  1.00  0.00     0.261 C 
BRANCH  79  80
ATOM     80  O   UNL A   1      33.727  32.645  28.432  1.00  0.00    -0.457 OA
BRANCH  80  81
ATOM     81  C   UNL A   1      32.956  33.710  28.097  1.00  0.00     0.374 C 
ATOM     82  O   UNL A   1      32.114  33.719  27.205  1.00  0.00    -0.242 OA
BRANCH  81  83
ATOM     83  C   UNL A   1      33.151  34.761  29.067  1.00  0.00     0.211 A 
ATOM     84  C   UNL A   1      33.330  36.130  28.999  1.00  0.00     0.058 A 
ATOM     85  O   UNL A   1      33.312  34.364  30.363  1.00  0.00    -0.450 OA
ATOM     86  C   UNL A   1      33.567  36.581  30.330  1.00  0.00     0.050 A 
ATOM     87  C   UNL A   1      33.555  35.458  31.134  1.00  0.00     0.142 A 
BRANCH  87  88
ATOM     88  C   UNL A   1      33.778  35.220  32.591  1.00  0.00     0.304 C 
BRANCH  88  89
ATOM     89  O   UNL A   1      33.519  33.840  32.924  1.00  0.00    -0.484 OA
BRANCH  89  90
ATOM     90  C   UNL A   1      34.658  33.073  32.897  1.00  0.00     0.140 A 
ATOM     91  C   UNL A   1      34.865  32.233  31.799  1.00  0.00     0.048 A 
ATOM     92  C   UNL A   1      35.645  33.193  33.883  1.00  0.00     0.101 A 
ATOM     93  C   UNL A   1      36.000  31.436  31.717  1.00  0.00     0.005 A 
ATOM     94  C   UNL A   1      36.805  32.410  33.780  1.00  0.00     0.063 A 
ATOM     95  Cl  UNL A   1      35.417  34.305  35.193  1.00  0.00    -0.079 Cl
ATOM     96  C   UNL A   1      36.969  31.522  32.710  1.00  0.00     0.022 A 
ATOM     97  Cl  UNL A   1      38.086  32.491  34.940  1.00  0.00    -0.083 Cl
ENDBRANCH  89  90
ENDBRANCH  88  89
ENDBRANCH  87  88
ENDBRANCH  81  83
ENDBRANCH  80  81
ENDBRANCH  79  80
ENDBRANCH  78  79
ENDBRANCH  77  78
ENDBRANCH  76  77
ENDBRANCH  75  76
ENDBRANCH   1  75
TORSDOF 26
ENDMDL
