MODEL 1
REMARK VINA RESULT:     -10.8      0.000      0.000
REMARK SMILES O=C(CCC(=O)OCCOCCOCCOCCOC(=O)c1ccc(-c2c3nc(c(-c4cccc(S(=O)(=O)[O-])c4F)c4ccc([nH]4)c(-c4cccc(S(=O)(=O)[O-])c4F)c4nc(c(-c5cccc(S(=O)(=O)[O-])c5F)c5ccc2[nH]5)C=C4)C=C3)cc1)Nc1ccc2nc(-c3ccccc3)oc2c1
REMARK SMILES IDX 12 1 11 2 10 3 9 4 8 5 7 6 5 7 6 8 4 9 3 10 2 11 1 12 85 13
REMARK SMILES IDX 86 15 87 16 100 17 88 18 99 19 89 20 98 21 90 22 91 23 92 24
REMARK SMILES IDX 93 25 97 26 94 27 96 28 95 29 13 30 14 31 15 32 16 33 17 34
REMARK SMILES IDX 18 35 19 36 20 37 21 38 22 39 23 40 84 41 24 42 83 43 25 44
REMARK SMILES IDX 26 45 27 46 77 47 28 48 82 49 76 50 78 51 29 52 81 53 75 54
REMARK SMILES IDX 74 55 30 57 62 58 42 59 61 60 43 61 46 62 60 63 79 64 44 65
REMARK SMILES IDX 45 66 59 68 80 69 47 70 31 71 32 72 40 73 33 74 35 75 41 76
REMARK SMILES IDX 34 77 36 78 37 79 38 80 39 81 63 82 64 83 72 84 65 85 67 86
REMARK SMILES IDX 73 87 66 88 68 89 69 90 70 91 71 92 48 93 49 94 57 95 50 96
REMARK SMILES IDX 52 97 58 98 51 99 53 100 54 101 55 102 56 103
REMARK H PARENT 85 14 78 56 46 67
REMARK Flexibility Score: inf
ROOT
ATOM      1  C   UNL A   1      34.332  25.327  24.831  1.00  0.00     0.188 C 
ENDROOT
BRANCH   1   2
ATOM      2  C   UNL A   1      34.064  25.504  23.334  1.00  0.00     0.188 C 
BRANCH   2   3
ATOM      3  O   UNL A   1      33.162  26.507  22.918  1.00  0.00    -0.376 OA
BRANCH   3   4
ATOM      4  C   UNL A   1      33.566  27.865  22.828  1.00  0.00     0.202 C 
BRANCH   4   5
ATOM      5  C   UNL A   1      32.622  29.060  22.575  1.00  0.00     0.261 C 
BRANCH   5   6
ATOM      6  O   UNL A   1      31.367  29.102  23.287  1.00  0.00    -0.463 OA
BRANCH   6   7
ATOM      7  C   UNL A   1      30.256  29.098  22.518  1.00  0.00     0.306 C 
ATOM      8  O   UNL A   1      30.179  29.672  21.434  1.00  0.00    -0.252 OA
BRANCH   7   9
ATOM      9  C   UNL A   1      29.072  28.309  23.048  1.00  0.00     0.132 C 
BRANCH   9  10
ATOM     10  C   UNL A   1      29.087  27.187  24.084  1.00  0.00     0.112 C 
BRANCH  10  11
ATOM     11  C   UNL A   1      29.903  25.921  23.887  1.00  0.00     0.224 C 
ATOM     12  O   UNL A   1      30.248  25.589  22.756  1.00  0.00    -0.275 OA
ATOM     13  N   UNL A   1      30.234  25.276  25.043  1.00  0.00    -0.326 N 
ATOM     14  H   UNL A   1      29.970  25.723  25.880  1.00  0.00     0.169 HD
BRANCH  13  15
ATOM     15  C   UNL A   1      30.909  24.050  25.180  1.00  0.00     0.045 A 
ATOM     16  C   UNL A   1      31.438  23.840  26.463  1.00  0.00     0.028 A 
ATOM     17  C   UNL A   1      31.036  23.082  24.160  1.00  0.00     0.075 A 
ATOM     18  C   UNL A   1      32.074  22.655  26.792  1.00  0.00     0.034 A 
ATOM     19  C   UNL A   1      31.710  21.913  24.517  1.00  0.00     0.157 A 
ATOM     20  C   UNL A   1      32.220  21.704  25.786  1.00  0.00     0.110 A 
ATOM     21  O   UNL A   1      31.979  20.772  23.774  1.00  0.00    -0.436 OA
ATOM     22  N   UNL A   1      32.834  20.512  25.848  1.00  0.00    -0.209 NA
ATOM     23  C   UNL A   1      32.623  19.955  24.681  1.00  0.00     0.227 A 
BRANCH  23  24
ATOM     24  C   UNL A   1      32.923  18.558  24.390  1.00  0.00     0.037 A 
ATOM     25  C   UNL A   1      33.164  18.125  23.080  1.00  0.00     0.014 A 
ATOM     26  C   UNL A   1      33.372  17.756  25.453  1.00  0.00     0.014 A 
ATOM     27  C   UNL A   1      33.884  16.944  22.848  1.00  0.00     0.001 A 
ATOM     28  C   UNL A   1      34.118  16.597  25.223  1.00  0.00     0.001 A 
ATOM     29  C   UNL A   1      34.382  16.196  23.917  1.00  0.00     0.000 A 
ENDBRANCH  23  24
ENDBRANCH  13  15
ENDBRANCH  10  11
ENDBRANCH   9  10
ENDBRANCH   7   9
ENDBRANCH   6   7
ENDBRANCH   5   6
ENDBRANCH   4   5
ENDBRANCH   3   4
ENDBRANCH   2   3
ENDBRANCH   1   2
BRANCH   1  30
ATOM     30  O   UNL A   1      34.985  24.129  25.192  1.00  0.00    -0.377 OA
BRANCH  30  31
ATOM     31  C   UNL A   1      35.186  23.118  24.208  1.00  0.00     0.188 C 
BRANCH  31  32
ATOM     32  C   UNL A   1      36.445  22.223  24.213  1.00  0.00     0.188 C 
BRANCH  32  33
ATOM     33  O   UNL A   1      36.534  21.291  25.280  1.00  0.00    -0.376 OA
BRANCH  33  34
ATOM     34  C   UNL A   1      36.895  19.952  24.962  1.00  0.00     0.202 C 
BRANCH  34  35
ATOM     35  C   UNL A   1      38.345  19.539  25.265  1.00  0.00     0.261 C 
BRANCH  35  36
ATOM     36  O   UNL A   1      39.278  20.620  25.419  1.00  0.00    -0.460 OA
BRANCH  36  37
ATOM     37  C   UNL A   1      40.159  20.538  26.436  1.00  0.00     0.338 C 
ATOM     38  O   UNL A   1      40.780  19.545  26.788  1.00  0.00    -0.246 OA
BRANCH  37  39
ATOM     39  C   UNL A   1      40.418  21.900  26.943  1.00  0.00     0.060 A 
ATOM     40  C   UNL A   1      39.723  22.971  26.368  1.00  0.00     0.016 A 
ATOM     41  C   UNL A   1      41.353  22.127  27.955  1.00  0.00     0.016 A 
ATOM     42  C   UNL A   1      39.998  24.280  26.765  1.00  0.00     0.010 A 
ATOM     43  C   UNL A   1      41.633  23.442  28.345  1.00  0.00     0.010 A 
ATOM     44  C   UNL A   1      40.988  24.530  27.723  1.00  0.00    -0.014 A 
BRANCH  44  45
ATOM     45  C   UNL A   1      41.507  25.915  27.909  1.00  0.00     0.031 A 
ATOM     46  C   UNL A   1      42.917  26.196  27.460  1.00  0.00     0.074 A 
ATOM     47  C   UNL A   1      40.741  26.914  28.395  1.00  0.00     0.049 A 
ATOM     48  N   UNL A   1      43.624  27.287  27.576  1.00  0.00    -0.248 NA
ATOM     49  C   UNL A   1      43.611  25.111  26.739  1.00  0.00     0.031 C 
ATOM     50  C   UNL A   1      39.315  26.812  28.691  1.00  0.00     0.029 A 
ATOM     51  N   UNL A   1      41.055  28.203  28.762  1.00  0.00    -0.354 N 
ATOM     52  C   UNL A   1      44.828  27.030  26.931  1.00  0.00     0.074 A 
ATOM     53  C   UNL A   1      44.786  25.661  26.472  1.00  0.00     0.031 C 
ATOM     54  C   UNL A   1      38.897  27.951  29.275  1.00  0.00     0.029 A 
ATOM     55  C   UNL A   1      40.031  28.849  29.433  1.00  0.00     0.049 A 
ATOM     56  H   UNL A   1      41.923  28.623  28.566  1.00  0.00     0.167 HD
ATOM     57  C   UNL A   1      45.858  27.878  26.703  1.00  0.00     0.034 A 
ATOM     58  C   UNL A   1      40.034  30.003  30.134  1.00  0.00     0.034 A 
ATOM     59  C   UNL A   1      45.874  29.238  27.165  1.00  0.00     0.049 A 
ATOM     60  C   UNL A   1      41.319  30.808  30.109  1.00  0.00     0.074 A 
ATOM     61  C   UNL A   1      46.847  30.202  26.979  1.00  0.00     0.029 A 
ATOM     62  N   UNL A   1      44.871  29.820  27.929  1.00  0.00    -0.354 N 
ATOM     63  N   UNL A   1      42.420  30.592  29.423  1.00  0.00    -0.248 NA
ATOM     64  C   UNL A   1      41.351  32.047  30.900  1.00  0.00     0.031 C 
ATOM     65  C   UNL A   1      46.456  31.349  27.677  1.00  0.00     0.029 A 
ATOM     66  C   UNL A   1      45.217  31.117  28.256  1.00  0.00     0.049 A 
ATOM     67  H   UNL A   1      44.035  29.373  28.198  1.00  0.00     0.167 HD
ATOM     68  C   UNL A   1      43.216  31.718  29.606  1.00  0.00     0.074 A 
ATOM     69  C   UNL A   1      42.488  32.598  30.496  1.00  0.00     0.031 C 
ATOM     70  C   UNL A   1      44.428  32.010  29.069  1.00  0.00     0.034 A 
BRANCH  57  71
ATOM     71  C   UNL A   1      47.035  27.360  25.914  1.00  0.00     0.023 A 
ATOM     72  C   UNL A   1      47.964  26.491  26.525  1.00  0.00     0.012 A 
ATOM     73  C   UNL A   1      47.208  27.709  24.562  1.00  0.00     0.148 A 
ATOM     74  C   UNL A   1      49.069  26.015  25.817  1.00  0.00     0.002 A 
ATOM     75  C   UNL A   1      48.285  27.194  23.848  1.00  0.00     0.091 A 
ATOM     76  F   UNL A   1      46.329  28.552  24.001  1.00  0.00    -0.205 F 
ATOM     77  C   UNL A   1      49.223  26.359  24.477  1.00  0.00     0.022 A 
BRANCH  75  78
ATOM     78  S   UNL A   1      48.533  27.521  22.099  1.00  0.00     0.127 S 
ATOM     79  O   UNL A   1      49.702  28.399  22.126  1.00  0.00    -0.237 OA
ATOM     80  O   UNL A   1      48.790  26.181  21.570  1.00  0.00    -0.237 OA
ATOM     81  O   UNL A   1      47.301  28.136  21.627  1.00  0.00    -0.744 OA
ENDBRANCH  75  78
ENDBRANCH  57  71
BRANCH  58  82
ATOM     82  C   UNL A   1      38.836  30.509  30.904  1.00  0.00     0.023 A 
ATOM     83  C   UNL A   1      38.622  30.097  32.232  1.00  0.00     0.012 A 
ATOM     84  C   UNL A   1      37.834  31.303  30.307  1.00  0.00     0.148 A 
ATOM     85  C   UNL A   1      37.424  30.390  32.900  1.00  0.00     0.002 A 
ATOM     86  C   UNL A   1      36.647  31.606  30.969  1.00  0.00     0.091 A 
ATOM     87  F   UNL A   1      38.043  31.756  29.079  1.00  0.00    -0.205 F 
ATOM     88  C   UNL A   1      36.432  31.133  32.265  1.00  0.00     0.022 A 
BRANCH  86  89
ATOM     89  S   UNL A   1      35.322  32.566  30.216  1.00  0.00     0.127 S 
ATOM     90  O   UNL A   1      36.030  33.779  29.807  1.00  0.00    -0.237 OA
ATOM     91  O   UNL A   1      34.906  31.696  29.117  1.00  0.00    -0.237 OA
ATOM     92  O   UNL A   1      34.313  32.765  31.248  1.00  0.00    -0.744 OA
ENDBRANCH  86  89
ENDBRANCH  58  82
BRANCH  70  93
ATOM     93  C   UNL A   1      44.990  33.388  29.315  1.00  0.00     0.023 A 
ATOM     94  C   UNL A   1      45.813  33.639  30.428  1.00  0.00     0.012 A 
ATOM     95  C   UNL A   1      44.756  34.418  28.379  1.00  0.00     0.148 A 
ATOM     96  C   UNL A   1      46.366  34.904  30.626  1.00  0.00     0.002 A 
ATOM     97  C   UNL A   1      45.358  35.657  28.552  1.00  0.00     0.091 A 
ATOM     98  F   UNL A   1      43.957  34.163  27.333  1.00  0.00    -0.205 F 
ATOM     99  C   UNL A   1      46.150  35.907  29.683  1.00  0.00     0.022 A 
BRANCH  97 100
ATOM    100  S   UNL A   1      45.227  36.970  27.332  1.00  0.00     0.127 S 
ATOM    101  O   UNL A   1      43.783  37.023  27.107  1.00  0.00    -0.237 OA
ATOM    102  O   UNL A   1      45.774  38.118  28.055  1.00  0.00    -0.237 OA
ATOM    103  O   UNL A   1      46.021  36.540  26.189  1.00  0.00    -0.744 OA
ENDBRANCH  97 100
ENDBRANCH  70  93
ENDBRANCH  44  45
ENDBRANCH  37  39
ENDBRANCH  36  37
ENDBRANCH  35  36
ENDBRANCH  34  35
ENDBRANCH  33  34
ENDBRANCH  32  33
ENDBRANCH  31  32
ENDBRANCH  30  31
ENDBRANCH   1  30
TORSDOF 27
ENDMDL
MODEL 2
REMARK VINA RESULT:     -10.5      1.486      7.338
REMARK SMILES O=C(CCC(=O)OCCOCCOCCOCCOC(=O)c1ccc(-c2c3nc(c(-c4cccc(S(=O)(=O)[O-])c4F)c4ccc([nH]4)c(-c4cccc(S(=O)(=O)[O-])c4F)c4nc(c(-c5cccc(S(=O)(=O)[O-])c5F)c5ccc2[nH]5)C=C4)C=C3)cc1)Nc1ccc2nc(-c3ccccc3)oc2c1
REMARK SMILES IDX 12 1 11 2 10 3 9 4 8 5 7 6 5 7 6 8 4 9 3 10 2 11 1 12 85 13
REMARK SMILES IDX 86 15 87 16 100 17 88 18 99 19 89 20 98 21 90 22 91 23 92 24
REMARK SMILES IDX 93 25 97 26 94 27 96 28 95 29 13 30 14 31 15 32 16 33 17 34
REMARK SMILES IDX 18 35 19 36 20 37 21 38 22 39 23 40 84 41 24 42 83 43 25 44
REMARK SMILES IDX 26 45 27 46 77 47 28 48 82 49 76 50 78 51 29 52 81 53 75 54
REMARK SMILES IDX 74 55 30 57 62 58 42 59 61 60 43 61 46 62 60 63 79 64 44 65
REMARK SMILES IDX 45 66 59 68 80 69 47 70 31 71 32 72 40 73 33 74 35 75 41 76
REMARK SMILES IDX 34 77 36 78 37 79 38 80 39 81 63 82 64 83 72 84 65 85 67 86
REMARK SMILES IDX 73 87 66 88 68 89 69 90 70 91 71 92 48 93 49 94 57 95 50 96
REMARK SMILES IDX 52 97 58 98 51 99 53 100 54 101 55 102 56 103
REMARK H PARENT 85 14 78 56 46 67
REMARK Flexibility Score: inf
ROOT
ATOM      1  C   UNL A   1      34.090  26.075  24.074  1.00  0.00     0.188 C 
ENDROOT
BRANCH   1   2
ATOM      2  C   UNL A   1      33.758  25.893  22.591  1.00  0.00     0.188 C 
BRANCH   2   3
ATOM      3  O   UNL A   1      33.929  26.987  21.715  1.00  0.00    -0.376 OA
BRANCH   3   4
ATOM      4  C   UNL A   1      34.125  28.302  22.215  1.00  0.00     0.202 C 
BRANCH   4   5
ATOM      5  C   UNL A   1      33.004  29.247  22.696  1.00  0.00     0.261 C 
BRANCH   5   6
ATOM      6  O   UNL A   1      31.866  28.670  23.373  1.00  0.00    -0.463 OA
BRANCH   6   7
ATOM      7  C   UNL A   1      30.656  28.995  22.868  1.00  0.00     0.306 C 
ATOM      8  O   UNL A   1      30.499  29.763  21.922  1.00  0.00    -0.252 OA
BRANCH   7   9
ATOM      9  C   UNL A   1      29.454  28.333  23.519  1.00  0.00     0.132 C 
BRANCH   9  10
ATOM     10  C   UNL A   1      29.447  27.118  24.445  1.00  0.00     0.112 C 
BRANCH  10  11
ATOM     11  C   UNL A   1      29.661  25.707  23.924  1.00  0.00     0.224 C 
ATOM     12  O   UNL A   1      28.891  25.243  23.087  1.00  0.00    -0.275 OA
ATOM     13  N   UNL A   1      30.771  25.086  24.417  1.00  0.00    -0.326 N 
ATOM     14  H   UNL A   1      31.348  25.627  25.004  1.00  0.00     0.169 HD
BRANCH  13  15
ATOM     15  C   UNL A   1      31.189  23.763  24.186  1.00  0.00     0.045 A 
ATOM     16  C   UNL A   1      31.517  23.503  22.846  1.00  0.00     0.028 A 
ATOM     17  C   UNL A   1      31.310  22.770  25.182  1.00  0.00     0.075 A 
ATOM     18  C   UNL A   1      32.012  22.271  22.454  1.00  0.00     0.034 A 
ATOM     19  C   UNL A   1      31.783  21.531  24.746  1.00  0.00     0.157 A 
ATOM     20  C   UNL A   1      32.117  21.282  23.427  1.00  0.00     0.110 A 
ATOM     21  O   UNL A   1      32.040  20.369  25.461  1.00  0.00    -0.436 OA
ATOM     22  N   UNL A   1      32.519  20.010  23.283  1.00  0.00    -0.209 NA
ATOM     23  C   UNL A   1      32.531  19.514  24.495  1.00  0.00     0.227 A 
BRANCH  23  24
ATOM     24  C   UNL A   1      33.121  18.223  24.831  1.00  0.00     0.037 A 
ATOM     25  C   UNL A   1      32.582  17.419  25.843  1.00  0.00     0.014 A 
ATOM     26  C   UNL A   1      33.955  17.622  23.873  1.00  0.00     0.014 A 
ATOM     27  C   UNL A   1      32.832  16.039  25.858  1.00  0.00     0.001 A 
ATOM     28  C   UNL A   1      34.178  16.243  23.867  1.00  0.00     0.001 A 
ATOM     29  C   UNL A   1      33.607  15.449  24.858  1.00  0.00     0.000 A 
ENDBRANCH  23  24
ENDBRANCH  13  15
ENDBRANCH  10  11
ENDBRANCH   9  10
ENDBRANCH   7   9
ENDBRANCH   6   7
ENDBRANCH   5   6
ENDBRANCH   4   5
ENDBRANCH   3   4
ENDBRANCH   2   3
ENDBRANCH   1   2
BRANCH   1  30
ATOM     30  O   UNL A   1      34.629  24.941  24.718  1.00  0.00    -0.377 OA
BRANCH  30  31
ATOM     31  C   UNL A   1      34.888  23.763  23.959  1.00  0.00     0.188 C 
BRANCH  31  32
ATOM     32  C   UNL A   1      36.058  22.816  24.309  1.00  0.00     0.188 C 
BRANCH  32  33
ATOM     33  O   UNL A   1      35.738  21.733  25.169  1.00  0.00    -0.376 OA
BRANCH  33  34
ATOM     34  C   UNL A   1      36.166  20.432  24.785  1.00  0.00     0.202 C 
BRANCH  34  35
ATOM     35  C   UNL A   1      37.571  20.006  25.244  1.00  0.00     0.261 C 
BRANCH  35  36
ATOM     36  O   UNL A   1      38.519  21.072  25.408  1.00  0.00    -0.460 OA
BRANCH  36  37
ATOM     37  C   UNL A   1      39.591  20.834  26.191  1.00  0.00     0.338 C 
ATOM     38  O   UNL A   1      40.213  19.785  26.280  1.00  0.00    -0.246 OA
BRANCH  37  39
ATOM     39  C   UNL A   1      40.031  22.112  26.785  1.00  0.00     0.060 A 
ATOM     40  C   UNL A   1      39.483  23.302  26.292  1.00  0.00     0.016 A 
ATOM     41  C   UNL A   1      40.991  22.143  27.798  1.00  0.00     0.016 A 
ATOM     42  C   UNL A   1      39.933  24.533  26.772  1.00  0.00     0.010 A 
ATOM     43  C   UNL A   1      41.446  23.379  28.272  1.00  0.00     0.010 A 
ATOM     44  C   UNL A   1      40.950  24.583  27.732  1.00  0.00    -0.014 A 
BRANCH  44  45
ATOM     45  C   UNL A   1      41.650  25.870  28.005  1.00  0.00     0.031 A 
ATOM     46  C   UNL A   1      40.851  26.976  28.645  1.00  0.00     0.074 A 
ATOM     47  C   UNL A   1      42.966  26.042  27.763  1.00  0.00     0.049 A 
ATOM     48  N   UNL A   1      41.201  28.204  28.916  1.00  0.00    -0.248 NA
ATOM     49  C   UNL A   1      39.481  26.637  29.079  1.00  0.00     0.031 C 
ATOM     50  C   UNL A   1      43.883  24.995  27.320  1.00  0.00     0.029 A 
ATOM     51  N   UNL A   1      43.761  27.164  27.818  1.00  0.00    -0.354 N 
ATOM     52  C   UNL A   1      40.112  28.773  29.567  1.00  0.00     0.074 A 
ATOM     53  C   UNL A   1      39.065  27.780  29.602  1.00  0.00     0.031 C 
ATOM     54  C   UNL A   1      45.087  25.537  27.057  1.00  0.00     0.029 A 
ATOM     55  C   UNL A   1      45.019  26.974  27.272  1.00  0.00     0.049 A 
ATOM     56  H   UNL A   1      43.463  28.018  28.206  1.00  0.00     0.167 HD
ATOM     57  C   UNL A   1      40.015  30.002  30.126  1.00  0.00     0.034 A 
ATOM     58  C   UNL A   1      45.975  27.869  26.941  1.00  0.00     0.034 A 
ATOM     59  C   UNL A   1      41.075  30.972  30.082  1.00  0.00     0.049 A 
ATOM     60  C   UNL A   1      45.710  29.314  27.317  1.00  0.00     0.074 A 
ATOM     61  C   UNL A   1      41.107  32.240  30.630  1.00  0.00     0.029 A 
ATOM     62  N   UNL A   1      42.287  30.782  29.432  1.00  0.00    -0.354 N 
ATOM     63  N   UNL A   1      44.713  29.823  28.009  1.00  0.00    -0.248 NA
ATOM     64  C   UNL A   1      46.723  30.306  26.928  1.00  0.00     0.031 C 
ATOM     65  C   UNL A   1      42.318  32.837  30.263  1.00  0.00     0.029 A 
ATOM     66  C   UNL A   1      43.060  31.923  29.531  1.00  0.00     0.049 A 
ATOM     67  H   UNL A   1      42.556  29.955  28.969  1.00  0.00     0.167 HD
ATOM     68  C   UNL A   1      45.041  31.155  28.236  1.00  0.00     0.074 A 
ATOM     69  C   UNL A   1      46.310  31.386  27.578  1.00  0.00     0.031 C 
ATOM     70  C   UNL A   1      44.367  32.096  28.943  1.00  0.00     0.034 A 
BRANCH  57  71
ATOM     71  C   UNL A   1      38.731  30.354  30.834  1.00  0.00     0.023 A 
ATOM     72  C   UNL A   1      38.521  29.930  32.163  1.00  0.00     0.012 A 
ATOM     73  C   UNL A   1      37.741  31.126  30.195  1.00  0.00     0.148 A 
ATOM     74  C   UNL A   1      37.331  30.231  32.829  1.00  0.00     0.002 A 
ATOM     75  C   UNL A   1      36.579  31.462  30.880  1.00  0.00     0.091 A 
ATOM     76  F   UNL A   1      37.946  31.503  28.925  1.00  0.00    -0.205 F 
ATOM     77  C   UNL A   1      36.366  31.004  32.191  1.00  0.00     0.022 A 
BRANCH  75  78
ATOM     78  S   UNL A   1      35.306  32.512  30.170  1.00  0.00     0.127 S 
ATOM     79  O   UNL A   1      34.854  31.703  29.039  1.00  0.00    -0.237 OA
ATOM     80  O   UNL A   1      34.345  32.615  31.267  1.00  0.00    -0.237 OA
ATOM     81  O   UNL A   1      35.966  33.761  29.819  1.00  0.00    -0.744 OA
ENDBRANCH  75  78
ENDBRANCH  57  71
BRANCH  58  82
ATOM     82  C   UNL A   1      47.262  27.489  26.245  1.00  0.00     0.023 A 
ATOM     83  C   UNL A   1      47.390  27.657  24.854  1.00  0.00     0.012 A 
ATOM     84  C   UNL A   1      48.326  26.854  26.918  1.00  0.00     0.148 A 
ATOM     85  C   UNL A   1      48.490  27.133  24.158  1.00  0.00     0.002 A 
ATOM     86  C   UNL A   1      49.425  26.341  26.233  1.00  0.00     0.091 A 
ATOM     87  F   UNL A   1      48.256  26.743  28.237  1.00  0.00    -0.205 F 
ATOM     88  C   UNL A   1      49.500  26.465  24.845  1.00  0.00     0.022 A 
BRANCH  86  89
ATOM     89  S   UNL A   1      50.773  25.471  27.053  1.00  0.00     0.127 S 
ATOM     90  O   UNL A   1      51.645  25.144  25.925  1.00  0.00    -0.237 OA
ATOM     91  O   UNL A   1      51.291  26.499  27.955  1.00  0.00    -0.237 OA
ATOM     92  O   UNL A   1      50.180  24.321  27.722  1.00  0.00    -0.744 OA
ENDBRANCH  86  89
ENDBRANCH  58  82
BRANCH  70  93
ATOM     93  C   UNL A   1      45.043  33.427  29.161  1.00  0.00     0.023 A 
ATOM     94  C   UNL A   1      45.841  33.647  30.299  1.00  0.00     0.012 A 
ATOM     95  C   UNL A   1      44.943  34.435  28.179  1.00  0.00     0.148 A 
ATOM     96  C   UNL A   1      46.501  34.864  30.473  1.00  0.00     0.002 A 
ATOM     97  C   UNL A   1      45.649  35.621  28.331  1.00  0.00     0.091 A 
ATOM     98  F   UNL A   1      44.166  34.211  27.109  1.00  0.00    -0.205 F 
ATOM     99  C   UNL A   1      46.416  35.843  29.485  1.00  0.00     0.022 A 
BRANCH  97 100
ATOM    100  S   UNL A   1      45.688  36.889  27.059  1.00  0.00     0.127 S 
ATOM    101  O   UNL A   1      46.140  36.128  25.894  1.00  0.00    -0.237 OA
ATOM    102  O   UNL A   1      44.289  37.314  27.005  1.00  0.00    -0.237 OA
ATOM    103  O   UNL A   1      46.612  37.909  27.534  1.00  0.00    -0.744 OA
ENDBRANCH  97 100
ENDBRANCH  70  93
ENDBRANCH  44  45
ENDBRANCH  37  39
ENDBRANCH  36  37
ENDBRANCH  35  36
ENDBRANCH  34  35
ENDBRANCH  33  34
ENDBRANCH  32  33
ENDBRANCH  31  32
ENDBRANCH  30  31
ENDBRANCH   1  30
TORSDOF 27
ENDMDL
MODEL 3
REMARK VINA RESULT:      -9.7      2.063      7.317
REMARK SMILES O=C(CCC(=O)OCCOCCOCCOCCOC(=O)c1ccc(-c2c3nc(c(-c4cccc(S(=O)(=O)[O-])c4F)c4ccc([nH]4)c(-c4cccc(S(=O)(=O)[O-])c4F)c4nc(c(-c5cccc(S(=O)(=O)[O-])c5F)c5ccc2[nH]5)C=C4)C=C3)cc1)Nc1ccc2nc(-c3ccccc3)oc2c1
REMARK SMILES IDX 12 1 11 2 10 3 9 4 8 5 7 6 5 7 6 8 4 9 3 10 2 11 1 12 85 13
REMARK SMILES IDX 86 15 87 16 100 17 88 18 99 19 89 20 98 21 90 22 91 23 92 24
REMARK SMILES IDX 93 25 97 26 94 27 96 28 95 29 13 30 14 31 15 32 16 33 17 34
REMARK SMILES IDX 18 35 19 36 20 37 21 38 22 39 23 40 84 41 24 42 83 43 25 44
REMARK SMILES IDX 26 45 27 46 77 47 28 48 82 49 76 50 78 51 29 52 81 53 75 54
REMARK SMILES IDX 74 55 30 57 62 58 42 59 61 60 43 61 46 62 60 63 79 64 44 65
REMARK SMILES IDX 45 66 59 68 80 69 47 70 31 71 32 72 40 73 33 74 35 75 41 76
REMARK SMILES IDX 34 77 36 78 37 79 38 80 39 81 63 82 64 83 72 84 65 85 67 86
REMARK SMILES IDX 73 87 66 88 68 89 69 90 70 91 71 92 48 93 49 94 57 95 50 96
REMARK SMILES IDX 52 97 58 98 51 99 53 100 54 101 55 102 56 103
REMARK H PARENT 85 14 78 56 46 67
REMARK Flexibility Score: inf
ROOT
ATOM      1  C   UNL A   1      33.831  25.919  23.839  1.00  0.00     0.188 C 
ENDROOT
BRANCH   1   2
ATOM      2  C   UNL A   1      33.466  25.885  22.352  1.00  0.00     0.188 C 
BRANCH   2   3
ATOM      3  O   UNL A   1      33.649  27.052  21.579  1.00  0.00    -0.376 OA
BRANCH   3   4
ATOM      4  C   UNL A   1      33.687  28.335  22.187  1.00  0.00     0.202 C 
BRANCH   4   5
ATOM      5  C   UNL A   1      32.460  29.097  22.731  1.00  0.00     0.261 C 
BRANCH   5   6
ATOM      6  O   UNL A   1      31.286  28.337  23.088  1.00  0.00    -0.463 OA
BRANCH   6   7
ATOM      7  C   UNL A   1      30.121  28.775  22.561  1.00  0.00     0.306 C 
ATOM      8  O   UNL A   1      30.051  29.658  21.709  1.00  0.00    -0.252 OA
BRANCH   7   9
ATOM      9  C   UNL A   1      28.858  28.093  23.058  1.00  0.00     0.132 C 
BRANCH   9  10
ATOM     10  C   UNL A   1      28.754  26.880  23.981  1.00  0.00     0.112 C 
BRANCH  10  11
ATOM     11  C   UNL A   1      29.734  25.722  23.900  1.00  0.00     0.224 C 
ATOM     12  O   UNL A   1      30.150  25.351  22.806  1.00  0.00    -0.275 OA
ATOM     13  N   UNL A   1      30.116  25.220  25.111  1.00  0.00    -0.326 N 
ATOM     14  H   UNL A   1      29.773  25.692  25.904  1.00  0.00     0.169 HD
BRANCH  13  15
ATOM     15  C   UNL A   1      30.941  24.109  25.357  1.00  0.00     0.045 A 
ATOM     16  C   UNL A   1      31.700  24.222  26.533  1.00  0.00     0.028 A 
ATOM     17  C   UNL A   1      31.006  22.957  24.544  1.00  0.00     0.075 A 
ATOM     18  C   UNL A   1      32.515  23.190  26.965  1.00  0.00     0.034 A 
ATOM     19  C   UNL A   1      31.862  21.948  24.993  1.00  0.00     0.157 A 
ATOM     20  C   UNL A   1      32.599  22.059  26.158  1.00  0.00     0.110 A 
ATOM     21  O   UNL A   1      32.133  20.699  24.453  1.00  0.00    -0.436 OA
ATOM     22  N   UNL A   1      33.349  20.961  26.338  1.00  0.00    -0.209 NA
ATOM     23  C   UNL A   1      33.011  20.150  25.366  1.00  0.00     0.227 A 
BRANCH  23  24
ATOM     24  C   UNL A   1      33.418  18.751  25.305  1.00  0.00     0.037 A 
ATOM     25  C   UNL A   1      32.595  17.733  25.802  1.00  0.00     0.014 A 
ATOM     26  C   UNL A   1      34.428  18.409  24.389  1.00  0.00     0.014 A 
ATOM     27  C   UNL A   1      32.749  16.415  25.346  1.00  0.00     0.001 A 
ATOM     28  C   UNL A   1      34.560  17.103  23.910  1.00  0.00     0.001 A 
ATOM     29  C   UNL A   1      33.712  16.106  24.384  1.00  0.00     0.000 A 
ENDBRANCH  23  24
ENDBRANCH  13  15
ENDBRANCH  10  11
ENDBRANCH   9  10
ENDBRANCH   7   9
ENDBRANCH   6   7
ENDBRANCH   5   6
ENDBRANCH   4   5
ENDBRANCH   3   4
ENDBRANCH   2   3
ENDBRANCH   1   2
BRANCH   1  30
ATOM     30  O   UNL A   1      34.407  24.736  24.349  1.00  0.00    -0.377 OA
BRANCH  30  31
ATOM     31  C   UNL A   1      34.776  23.694  23.450  1.00  0.00     0.188 C 
BRANCH  31  32
ATOM     32  C   UNL A   1      36.102  22.918  23.612  1.00  0.00     0.188 C 
BRANCH  32  33
ATOM     33  O   UNL A   1      36.012  21.682  24.304  1.00  0.00    -0.376 OA
BRANCH  33  34
ATOM     34  C   UNL A   1      37.144  20.822  24.277  1.00  0.00     0.202 C 
BRANCH  34  35
ATOM     35  C   UNL A   1      37.929  20.675  25.592  1.00  0.00     0.261 C 
BRANCH  35  36
ATOM     36  O   UNL A   1      38.628  21.850  26.030  1.00  0.00    -0.460 OA
BRANCH  36  37
ATOM     37  C   UNL A   1      39.885  21.688  26.492  1.00  0.00     0.338 C 
ATOM     38  O   UNL A   1      40.650  20.771  26.225  1.00  0.00    -0.246 OA
BRANCH  37  39
ATOM     39  C   UNL A   1      40.278  22.910  27.221  1.00  0.00     0.060 A 
ATOM     40  C   UNL A   1      39.538  24.080  27.013  1.00  0.00     0.016 A 
ATOM     41  C   UNL A   1      41.377  22.913  28.082  1.00  0.00     0.016 A 
ATOM     42  C   UNL A   1      39.927  25.274  27.622  1.00  0.00     0.010 A 
ATOM     43  C   UNL A   1      41.770  24.114  28.686  1.00  0.00     0.010 A 
ATOM     44  C   UNL A   1      41.072  25.311  28.427  1.00  0.00    -0.014 A 
BRANCH  44  45
ATOM     45  C   UNL A   1      41.668  26.623  28.808  1.00  0.00     0.031 A 
ATOM     46  C   UNL A   1      40.722  27.749  29.134  1.00  0.00     0.074 A 
ATOM     47  C   UNL A   1      42.999  26.801  28.934  1.00  0.00     0.049 A 
ATOM     48  N   UNL A   1      40.983  28.996  29.420  1.00  0.00    -0.248 NA
ATOM     49  C   UNL A   1      39.286  27.413  29.188  1.00  0.00     0.031 C 
ATOM     50  C   UNL A   1      44.003  25.746  28.826  1.00  0.00     0.029 A 
ATOM     51  N   UNL A   1      43.748  27.938  29.142  1.00  0.00    -0.354 N 
ATOM     52  C   UNL A   1      39.756  29.584  29.707  1.00  0.00     0.074 A 
ATOM     53  C   UNL A   1      38.740  28.577  29.506  1.00  0.00     0.031 C 
ATOM     54  C   UNL A   1      45.233  26.292  28.878  1.00  0.00     0.029 A 
ATOM     55  C   UNL A   1      45.108  27.738  28.981  1.00  0.00     0.049 A 
ATOM     56  H   UNL A   1      43.353  28.807  29.381  1.00  0.00     0.167 HD
ATOM     57  C   UNL A   1      39.506  30.841  30.143  1.00  0.00     0.034 A 
ATOM     58  C   UNL A   1      46.119  28.628  28.878  1.00  0.00     0.034 A 
ATOM     59  C   UNL A   1      40.537  31.823  30.341  1.00  0.00     0.049 A 
ATOM     60  C   UNL A   1      45.759  30.087  29.081  1.00  0.00     0.074 A 
ATOM     61  C   UNL A   1      40.415  33.120  30.801  1.00  0.00     0.029 A 
ATOM     62  N   UNL A   1      41.882  31.616  30.067  1.00  0.00    -0.354 N 
ATOM     63  N   UNL A   1      44.609  30.618  29.436  1.00  0.00    -0.248 NA
ATOM     64  C   UNL A   1      46.841  31.072  28.932  1.00  0.00     0.031 C 
ATOM     65  C   UNL A   1      41.680  33.715  30.752  1.00  0.00     0.029 A 
ATOM     66  C   UNL A   1      42.597  32.773  30.311  1.00  0.00     0.049 A 
ATOM     67  H   UNL A   1      42.269  30.769  29.747  1.00  0.00     0.167 HD
ATOM     68  C   UNL A   1      44.860  31.966  29.667  1.00  0.00     0.074 A 
ATOM     69  C   UNL A   1      46.263  32.180  29.376  1.00  0.00     0.031 C 
ATOM     70  C   UNL A   1      44.016  32.935  30.101  1.00  0.00     0.034 A 
BRANCH  57  71
ATOM     71  C   UNL A   1      38.076  31.210  30.443  1.00  0.00     0.023 A 
ATOM     72  C   UNL A   1      37.596  31.151  31.769  1.00  0.00     0.012 A 
ATOM     73  C   UNL A   1      37.212  31.643  29.419  1.00  0.00     0.148 A 
ATOM     74  C   UNL A   1      36.270  31.473  32.063  1.00  0.00     0.002 A 
ATOM     75  C   UNL A   1      35.905  32.007  29.726  1.00  0.00     0.091 A 
ATOM     76  F   UNL A   1      37.676  31.673  28.162  1.00  0.00    -0.205 F 
ATOM     77  C   UNL A   1      35.429  31.909  31.044  1.00  0.00     0.022 A 
BRANCH  75  78
ATOM     78  S   UNL A   1      34.764  32.648  28.496  1.00  0.00     0.127 S 
ATOM     79  O   UNL A   1      34.383  31.429  27.784  1.00  0.00    -0.237 OA
ATOM     80  O   UNL A   1      33.707  33.223  29.327  1.00  0.00    -0.237 OA
ATOM     81  O   UNL A   1      35.519  33.617  27.715  1.00  0.00    -0.744 OA
ENDBRANCH  75  78
ENDBRANCH  57  71
BRANCH  58  82
ATOM     82  C   UNL A   1      47.548  28.230  28.592  1.00  0.00     0.023 A 
ATOM     83  C   UNL A   1      48.421  27.915  29.650  1.00  0.00     0.012 A 
ATOM     84  C   UNL A   1      48.099  28.270  27.294  1.00  0.00     0.148 A 
ATOM     85  C   UNL A   1      49.795  27.736  29.430  1.00  0.00     0.002 A 
ATOM     86  C   UNL A   1      49.460  28.084  27.068  1.00  0.00     0.091 A 
ATOM     87  F   UNL A   1      47.284  28.502  26.275  1.00  0.00    -0.205 F 
ATOM     88  C   UNL A   1      50.316  27.833  28.143  1.00  0.00     0.022 A 
BRANCH  86  89
ATOM     89  S   UNL A   1      50.206  28.188  25.432  1.00  0.00     0.127 S 
ATOM     90  O   UNL A   1      51.278  27.197  25.531  1.00  0.00    -0.237 OA
ATOM     91  O   UNL A   1      49.091  27.804  24.567  1.00  0.00    -0.237 OA
ATOM     92  O   UNL A   1      50.656  29.563  25.266  1.00  0.00    -0.744 OA
ENDBRANCH  86  89
ENDBRANCH  58  82
BRANCH  70  93
ATOM     93  C   UNL A   1      44.605  34.286  30.422  1.00  0.00     0.023 A 
ATOM     94  C   UNL A   1      44.629  35.306  29.453  1.00  0.00     0.012 A 
ATOM     95  C   UNL A   1      45.063  34.559  31.729  1.00  0.00     0.148 A 
ATOM     96  C   UNL A   1      45.134  36.567  29.769  1.00  0.00     0.002 A 
ATOM     97  C   UNL A   1      45.510  35.834  32.051  1.00  0.00     0.091 A 
ATOM     98  F   UNL A   1      45.045  33.570  32.633  1.00  0.00    -0.205 F 
ATOM     99  C   UNL A   1      45.561  36.834  31.069  1.00  0.00     0.022 A 
BRANCH  97 100
ATOM    100  S   UNL A   1      45.971  36.298  33.724  1.00  0.00     0.127 S 
ATOM    101  O   UNL A   1      47.202  35.531  33.917  1.00  0.00    -0.237 OA
ATOM    102  O   UNL A   1      46.165  37.742  33.601  1.00  0.00    -0.237 OA
ATOM    103  O   UNL A   1      44.854  35.908  34.574  1.00  0.00    -0.744 OA
ENDBRANCH  97 100
ENDBRANCH  70  93
ENDBRANCH  44  45
ENDBRANCH  37  39
ENDBRANCH  36  37
ENDBRANCH  35  36
ENDBRANCH  34  35
ENDBRANCH  33  34
ENDBRANCH  32  33
ENDBRANCH  31  32
ENDBRANCH  30  31
ENDBRANCH   1  30
TORSDOF 27
ENDMDL
