MODEL 1
REMARK VINA RESULT:      -9.2      0.000      0.000
REMARK SMILES CN(C)C(=O)c1cccc(NCc2cc(C(=O)OCCOCCOCCOCCOC(=O)c3ccc(-c4c5nc(c(-c6cccc(S(=O)(=O)[O-])c6F)c6ccc([nH]6)c(-c6cccc(S(=O)(=O)[O-])c6F)c6nc(c(-c7cccc(S(=O)(=O)[O-])c7F)c7ccc4[nH]7)C=C6)C=C5)cc3)cs2)c1
REMARK SMILES IDX 23 1 22 2 21 3 20 4 19 5 18 6 16 7 17 8 15 9 13 10 14 11
REMARK SMILES IDX 97 12 96 13 12 14 11 15 10 17 6 18 7 19 98 20 8 21 9 22 4 23
REMARK SMILES IDX 1 24 2 25 3 26 5 27 24 28 25 29 26 30 27 31 28 32 29 33
REMARK SMILES IDX 30 34 31 35 32 36 33 37 34 38 95 39 35 40 94 41 36 42 37 43
REMARK SMILES IDX 38 44 88 45 39 46 93 47 87 48 89 49 40 50 92 51 86 52 85 53
REMARK SMILES IDX 41 55 73 56 53 57 72 58 54 59 57 60 71 61 90 62 55 63 56 64
REMARK SMILES IDX 70 66 91 67 58 68 42 69 43 70 51 71 44 72 46 73 52 74 45 75
REMARK SMILES IDX 47 76 48 77 49 78 50 79 74 80 75 81 83 82 76 83 78 84 84 85
REMARK SMILES IDX 77 86 79 87 80 88 81 89 82 90 59 91 60 92 68 93 61 94 63 95
REMARK SMILES IDX 69 96 62 97 64 98 65 99 66 100 67 101
REMARK H PARENT 11 16 89 54 57 65
REMARK Flexibility Score: inf
ROOT
ATOM      1  C   UNL A   1      37.788  21.749  25.546  1.00  0.00     0.188 C 
ENDROOT
BRANCH   1   2
ATOM      2  C   UNL A   1      36.705  22.788  25.882  1.00  0.00     0.188 C 
BRANCH   2   3
ATOM      3  O   UNL A   1      35.398  22.224  25.990  1.00  0.00    -0.376 OA
BRANCH   3   4
ATOM      4  C   UNL A   1      35.151  21.017  25.277  1.00  0.00     0.202 C 
BRANCH   4   5
ATOM      5  C   UNL A   1      33.688  20.678  24.952  1.00  0.00     0.261 C 
BRANCH   5   6
ATOM      6  O   UNL A   1      32.837  21.788  24.626  1.00  0.00    -0.460 OA
BRANCH   6   7
ATOM      7  C   UNL A   1      32.612  22.075  23.316  1.00  0.00     0.339 C 
ATOM      8  O   UNL A   1      32.261  21.275  22.472  1.00  0.00    -0.246 OA
BRANCH   7   9
ATOM      9  C   UNL A   1      32.704  23.513  23.084  1.00  0.00     0.071 A 
ATOM     10  C   UNL A   1      32.031  25.691  22.518  1.00  0.00     0.025 A 
ATOM     11  C   UNL A   1      31.633  24.381  22.693  1.00  0.00     0.033 A 
ATOM     12  S   UNL A   1      33.713  25.868  22.763  1.00  0.00    -0.146 S 
ATOM     13  C   UNL A   1      33.894  24.214  23.158  1.00  0.00     0.080 A 
BRANCH  10  14
ATOM     14  C   UNL A   1      31.165  26.868  22.160  1.00  0.00     0.159 C 
BRANCH  14  15
ATOM     15  N   UNL A   1      30.296  27.296  23.245  1.00  0.00    -0.380 N 
ATOM     16  H   UNL A   1      29.348  27.454  23.034  1.00  0.00     0.160 HD
BRANCH  15  17
ATOM     17  C   UNL A   1      30.705  27.499  24.550  1.00  0.00     0.035 A 
ATOM     18  C   UNL A   1      31.680  28.999  26.212  1.00  0.00     0.042 A 
ATOM     19  C   UNL A   1      31.624  27.992  27.177  1.00  0.00     0.014 A 
ATOM     20  C   UNL A   1      31.255  28.740  24.902  1.00  0.00     0.039 A 
ATOM     21  C   UNL A   1      31.094  26.751  26.843  1.00  0.00     0.003 A 
ATOM     22  C   UNL A   1      30.629  26.516  25.544  1.00  0.00     0.026 A 
BRANCH  18  23
ATOM     23  C   UNL A   1      32.283  30.301  26.586  1.00  0.00     0.253 C 
ATOM     24  C   UNL A   1      34.005  31.601  27.706  1.00  0.00     0.146 C 
ATOM     25  N   UNL A   1      33.561  30.340  27.138  1.00  0.00    -0.345 N 
ATOM     26  C   UNL A   1      34.518  29.243  27.140  1.00  0.00     0.146 C 
ATOM     27  O   UNL A   1      31.616  31.315  26.377  1.00  0.00    -0.269 OA
ENDBRANCH  18  23
ENDBRANCH  15  17
ENDBRANCH  14  15
ENDBRANCH  10  14
ENDBRANCH   7   9
ENDBRANCH   6   7
ENDBRANCH   5   6
ENDBRANCH   4   5
ENDBRANCH   3   4
ENDBRANCH   2   3
ENDBRANCH   1   2
BRANCH   1  28
ATOM     28  O   UNL A   1      39.044  22.352  25.285  1.00  0.00    -0.377 OA
BRANCH  28  29
ATOM     29  C   UNL A   1      39.958  22.456  26.375  1.00  0.00     0.188 C 
BRANCH  29  30
ATOM     30  C   UNL A   1      40.502  21.190  27.071  1.00  0.00     0.188 C 
BRANCH  30  31
ATOM     31  O   UNL A   1      40.978  20.192  26.164  1.00  0.00    -0.376 OA
BRANCH  31  32
ATOM     32  C   UNL A   1      41.731  19.128  26.736  1.00  0.00     0.202 C 
BRANCH  32  33
ATOM     33  C   UNL A   1      42.875  18.643  25.837  1.00  0.00     0.261 C 
BRANCH  33  34
ATOM     34  O   UNL A   1      43.255  19.562  24.802  1.00  0.00    -0.460 OA
BRANCH  34  35
ATOM     35  C   UNL A   1      44.460  20.159  24.925  1.00  0.00     0.338 C 
ATOM     36  O   UNL A   1      45.544  19.705  24.605  1.00  0.00    -0.246 OA
BRANCH  35  37
ATOM     37  C   UNL A   1      44.233  21.552  25.352  1.00  0.00     0.060 A 
ATOM     38  C   UNL A   1      44.026  22.535  24.375  1.00  0.00     0.016 A 
ATOM     39  C   UNL A   1      44.240  21.881  26.710  1.00  0.00     0.016 A 
ATOM     40  C   UNL A   1      43.879  23.868  24.756  1.00  0.00     0.010 A 
ATOM     41  C   UNL A   1      44.107  23.216  27.087  1.00  0.00     0.010 A 
ATOM     42  C   UNL A   1      43.969  24.216  26.110  1.00  0.00    -0.014 A 
BRANCH  42  43
ATOM     43  C   UNL A   1      44.152  25.630  26.507  1.00  0.00     0.031 A 
ATOM     44  C   UNL A   1      45.531  26.219  26.396  1.00  0.00     0.074 A 
ATOM     45  C   UNL A   1      43.136  26.354  27.007  1.00  0.00     0.049 A 
ATOM     46  N   UNL A   1      45.961  27.397  26.759  1.00  0.00    -0.248 NA
ATOM     47  C   UNL A   1      46.566  25.355  25.801  1.00  0.00     0.031 C 
ATOM     48  C   UNL A   1      41.761  25.886  27.168  1.00  0.00     0.029 A 
ATOM     49  N   UNL A   1      43.121  27.631  27.509  1.00  0.00    -0.354 N 
ATOM     50  C   UNL A   1      47.319  27.407  26.465  1.00  0.00     0.074 A 
ATOM     51  C   UNL A   1      47.645  26.116  25.902  1.00  0.00     0.031 C 
ATOM     52  C   UNL A   1      41.040  26.853  27.763  1.00  0.00     0.029 A 
ATOM     53  C   UNL A   1      41.908  27.995  28.044  1.00  0.00     0.049 A 
ATOM     54  H   UNL A   1      43.902  28.229  27.486  1.00  0.00     0.167 HD
ATOM     55  C   UNL A   1      48.213  28.408  26.635  1.00  0.00     0.034 A 
ATOM     56  C   UNL A   1      41.553  29.116  28.704  1.00  0.00     0.034 A 
ATOM     57  C   UNL A   1      47.886  29.692  27.184  1.00  0.00     0.049 A 
ATOM     58  C   UNL A   1      42.574  30.211  28.898  1.00  0.00     0.074 A 
ATOM     59  C   UNL A   1      48.711  30.788  27.362  1.00  0.00     0.029 A 
ATOM     60  N   UNL A   1      46.632  30.051  27.654  1.00  0.00    -0.354 N 
ATOM     61  N   UNL A   1      43.822  30.257  28.499  1.00  0.00    -0.248 NA
ATOM     62  C   UNL A   1      42.129  31.420  29.605  1.00  0.00     0.031 C 
ATOM     63  C   UNL A   1      47.957  31.806  27.956  1.00  0.00     0.029 A 
ATOM     64  C   UNL A   1      46.660  31.349  28.129  1.00  0.00     0.049 A 
ATOM     65  H   UNL A   1      45.840  29.467  27.651  1.00  0.00     0.167 HD
ATOM     66  C   UNL A   1      44.298  31.511  28.869  1.00  0.00     0.074 A 
ATOM     67  C   UNL A   1      43.198  32.199  29.513  1.00  0.00     0.031 C 
ATOM     68  C   UNL A   1      45.535  32.041  28.704  1.00  0.00     0.034 A 
BRANCH  55  69
ATOM     69  C   UNL A   1      49.628  28.154  26.189  1.00  0.00     0.023 A 
ATOM     70  C   UNL A   1      49.972  28.351  24.837  1.00  0.00     0.012 A 
ATOM     71  C   UNL A   1      50.617  27.755  27.107  1.00  0.00     0.148 A 
ATOM     72  C   UNL A   1      51.276  28.126  24.398  1.00  0.00     0.002 A 
ATOM     73  C   UNL A   1      51.924  27.571  26.669  1.00  0.00     0.091 A 
ATOM     74  F   UNL A   1      50.261  27.542  28.382  1.00  0.00    -0.205 F 
ATOM     75  C   UNL A   1      52.253  27.747  25.315  1.00  0.00     0.022 A 
BRANCH  73  76
ATOM     76  S   UNL A   1      53.263  27.146  27.787  1.00  0.00     0.127 S 
ATOM     77  O   UNL A   1      52.902  25.783  28.177  1.00  0.00    -0.237 OA
ATOM     78  O   UNL A   1      54.435  27.241  26.917  1.00  0.00    -0.237 OA
ATOM     79  O   UNL A   1      53.220  28.136  28.855  1.00  0.00    -0.744 OA
ENDBRANCH  73  76
ENDBRANCH  55  69
BRANCH  56  80
ATOM     80  C   UNL A   1      40.154  29.283  29.192  1.00  0.00     0.023 A 
ATOM     81  C   UNL A   1      39.132  29.582  28.270  1.00  0.00     0.012 A 
ATOM     82  C   UNL A   1      39.826  29.135  30.553  1.00  0.00     0.148 A 
ATOM     83  C   UNL A   1      37.816  29.759  28.696  1.00  0.00     0.002 A 
ATOM     84  C   UNL A   1      38.503  29.258  30.965  1.00  0.00     0.091 A 
ATOM     85  F   UNL A   1      40.814  28.872  31.420  1.00  0.00    -0.205 F 
ATOM     86  C   UNL A   1      37.499  29.587  30.041  1.00  0.00     0.022 A 
BRANCH  84  87
ATOM     87  S   UNL A   1      37.986  28.926  32.653  1.00  0.00     0.127 S 
ATOM     88  O   UNL A   1      36.592  29.359  32.630  1.00  0.00    -0.237 OA
ATOM     89  O   UNL A   1      38.180  27.478  32.753  1.00  0.00    -0.237 OA
ATOM     90  O   UNL A   1      38.881  29.706  33.497  1.00  0.00    -0.744 OA
ENDBRANCH  84  87
ENDBRANCH  56  80
BRANCH  68  91
ATOM     91  C   UNL A   1      45.768  33.450  29.182  1.00  0.00     0.023 A 
ATOM     92  C   UNL A   1      46.328  33.673  30.455  1.00  0.00     0.012 A 
ATOM     93  C   UNL A   1      45.528  34.546  28.329  1.00  0.00     0.148 A 
ATOM     94  C   UNL A   1      46.623  34.968  30.882  1.00  0.00     0.002 A 
ATOM     95  C   UNL A   1      45.866  35.829  28.743  1.00  0.00     0.091 A 
ATOM     96  F   UNL A   1      44.978  34.314  27.128  1.00  0.00    -0.205 F 
ATOM     97  C   UNL A   1      46.405  36.042  30.022  1.00  0.00     0.022 A 
BRANCH  95  98
ATOM     98  S   UNL A   1      45.712  37.256  27.663  1.00  0.00     0.127 S 
ATOM     99  O   UNL A   1      46.257  38.324  28.500  1.00  0.00    -0.237 OA
ATOM    100  O   UNL A   1      46.555  36.883  26.526  1.00  0.00    -0.237 OA
ATOM    101  O   UNL A   1      44.293  37.366  27.348  1.00  0.00    -0.744 OA
ENDBRANCH  95  98
ENDBRANCH  68  91
ENDBRANCH  42  43
ENDBRANCH  35  37
ENDBRANCH  34  35
ENDBRANCH  33  34
ENDBRANCH  32  33
ENDBRANCH  31  32
ENDBRANCH  30  31
ENDBRANCH  29  30
ENDBRANCH  28  29
ENDBRANCH   1  28
TORSDOF 27
ENDMDL
MODEL 2
REMARK VINA RESULT:      -8.5      2.503      4.048
REMARK SMILES CN(C)C(=O)c1cccc(NCc2cc(C(=O)OCCOCCOCCOCCOC(=O)c3ccc(-c4c5nc(c(-c6cccc(S(=O)(=O)[O-])c6F)c6ccc([nH]6)c(-c6cccc(S(=O)(=O)[O-])c6F)c6nc(c(-c7cccc(S(=O)(=O)[O-])c7F)c7ccc4[nH]7)C=C6)C=C5)cc3)cs2)c1
REMARK SMILES IDX 23 1 22 2 21 3 20 4 19 5 18 6 16 7 17 8 15 9 13 10 14 11
REMARK SMILES IDX 97 12 96 13 12 14 11 15 10 17 6 18 7 19 98 20 8 21 9 22 4 23
REMARK SMILES IDX 1 24 2 25 3 26 5 27 24 28 25 29 26 30 27 31 28 32 29 33
REMARK SMILES IDX 30 34 31 35 32 36 33 37 34 38 95 39 35 40 94 41 36 42 37 43
REMARK SMILES IDX 38 44 88 45 39 46 93 47 87 48 89 49 40 50 92 51 86 52 85 53
REMARK SMILES IDX 41 55 73 56 53 57 72 58 54 59 57 60 71 61 90 62 55 63 56 64
REMARK SMILES IDX 70 66 91 67 58 68 42 69 43 70 51 71 44 72 46 73 52 74 45 75
REMARK SMILES IDX 47 76 48 77 49 78 50 79 74 80 75 81 83 82 76 83 78 84 84 85
REMARK SMILES IDX 77 86 79 87 80 88 81 89 82 90 59 91 60 92 68 93 61 94 63 95
REMARK SMILES IDX 69 96 62 97 64 98 65 99 66 100 67 101
REMARK H PARENT 11 16 89 54 57 65
REMARK Flexibility Score: inf
ROOT
ATOM      1  C   UNL A   1      35.363  22.930  23.517  1.00  0.00     0.188 C 
ENDROOT
BRANCH   1   2
ATOM      2  C   UNL A   1      34.551  24.219  23.305  1.00  0.00     0.188 C 
BRANCH   2   3
ATOM      3  O   UNL A   1      33.494  24.070  22.358  1.00  0.00    -0.376 OA
BRANCH   3   4
ATOM      4  C   UNL A   1      32.382  24.950  22.484  1.00  0.00     0.202 C 
BRANCH   4   5
ATOM      5  C   UNL A   1      31.673  24.997  23.847  1.00  0.00     0.261 C 
BRANCH   5   6
ATOM      6  O   UNL A   1      31.411  26.305  24.379  1.00  0.00    -0.460 OA
BRANCH   6   7
ATOM      7  C   UNL A   1      31.491  26.491  25.723  1.00  0.00     0.339 C 
ATOM      8  O   UNL A   1      31.229  25.655  26.565  1.00  0.00    -0.246 OA
BRANCH   7   9
ATOM      9  C   UNL A   1      32.079  27.793  26.026  1.00  0.00     0.071 A 
ATOM     10  C   UNL A   1      33.529  29.376  26.980  1.00  0.00     0.025 A 
ATOM     11  C   UNL A   1      33.225  28.036  26.852  1.00  0.00     0.033 A 
ATOM     12  S   UNL A   1      32.393  30.352  26.155  1.00  0.00    -0.146 S 
ATOM     13  C   UNL A   1      31.538  28.985  25.583  1.00  0.00     0.080 A 
BRANCH  10  14
ATOM     14  C   UNL A   1      34.686  29.982  27.725  1.00  0.00     0.159 C 
BRANCH  14  15
ATOM     15  N   UNL A   1      34.867  31.400  27.456  1.00  0.00    -0.380 N 
ATOM     16  H   UNL A   1      35.247  31.654  26.584  1.00  0.00     0.160 HD
BRANCH  15  17
ATOM     17  C   UNL A   1      34.546  32.417  28.336  1.00  0.00     0.035 A 
ATOM     18  C   UNL A   1      34.598  33.281  30.620  1.00  0.00     0.042 A 
ATOM     19  C   UNL A   1      33.884  34.413  30.225  1.00  0.00     0.014 A 
ATOM     20  C   UNL A   1      34.896  32.277  29.687  1.00  0.00     0.039 A 
ATOM     21  C   UNL A   1      33.518  34.561  28.892  1.00  0.00     0.003 A 
ATOM     22  C   UNL A   1      33.859  33.577  27.958  1.00  0.00     0.026 A 
BRANCH  18  23
ATOM     23  C   UNL A   1      34.945  33.130  32.054  1.00  0.00     0.253 C 
ATOM     24  C   UNL A   1      36.565  32.691  33.812  1.00  0.00     0.146 C 
ATOM     25  N   UNL A   1      36.281  33.078  32.441  1.00  0.00    -0.345 N 
ATOM     26  C   UNL A   1      37.420  33.441  31.610  1.00  0.00     0.146 C 
ATOM     27  O   UNL A   1      34.015  33.068  32.858  1.00  0.00    -0.269 OA
ENDBRANCH  18  23
ENDBRANCH  15  17
ENDBRANCH  14  15
ENDBRANCH  10  14
ENDBRANCH   7   9
ENDBRANCH   6   7
ENDBRANCH   5   6
ENDBRANCH   4   5
ENDBRANCH   3   4
ENDBRANCH   2   3
ENDBRANCH   1   2
BRANCH   1  28
ATOM     28  O   UNL A   1      35.355  22.509  24.871  1.00  0.00    -0.377 OA
BRANCH  28  29
ATOM     29  C   UNL A   1      35.782  21.177  25.144  1.00  0.00     0.188 C 
BRANCH  29  30
ATOM     30  C   UNL A   1      37.167  20.681  24.673  1.00  0.00     0.188 C 
BRANCH  30  31
ATOM     31  O   UNL A   1      38.074  20.402  25.741  1.00  0.00    -0.376 OA
BRANCH  31  32
ATOM     32  C   UNL A   1      39.447  20.687  25.493  1.00  0.00     0.202 C 
BRANCH  32  33
ATOM     33  C   UNL A   1      40.287  20.786  26.772  1.00  0.00     0.261 C 
BRANCH  33  34
ATOM     34  O   UNL A   1      41.369  19.847  26.854  1.00  0.00    -0.460 OA
BRANCH  34  35
ATOM     35  C   UNL A   1      42.340  19.948  25.921  1.00  0.00     0.338 C 
ATOM     36  O   UNL A   1      42.556  19.187  24.995  1.00  0.00    -0.246 OA
BRANCH  35  37
ATOM     37  C   UNL A   1      43.003  21.253  26.100  1.00  0.00     0.060 A 
ATOM     38  C   UNL A   1      43.513  21.586  27.362  1.00  0.00     0.016 A 
ATOM     39  C   UNL A   1      43.104  22.143  25.028  1.00  0.00     0.016 A 
ATOM     40  C   UNL A   1      44.080  22.843  27.569  1.00  0.00     0.010 A 
ATOM     41  C   UNL A   1      43.658  23.404  25.241  1.00  0.00     0.010 A 
ATOM     42  C   UNL A   1      44.108  23.772  26.520  1.00  0.00    -0.014 A 
BRANCH  42  43
ATOM     43  C   UNL A   1      44.389  25.199  26.794  1.00  0.00     0.031 A 
ATOM     44  C   UNL A   1      45.786  25.699  26.548  1.00  0.00     0.074 A 
ATOM     45  C   UNL A   1      43.449  26.013  27.301  1.00  0.00     0.049 A 
ATOM     46  N   UNL A   1      46.300  26.874  26.792  1.00  0.00    -0.248 NA
ATOM     47  C   UNL A   1      46.733  24.737  25.957  1.00  0.00     0.031 C 
ATOM     48  C   UNL A   1      42.065  25.637  27.585  1.00  0.00     0.029 A 
ATOM     49  N   UNL A   1      43.533  27.323  27.702  1.00  0.00    -0.354 N 
ATOM     50  C   UNL A   1      47.634  26.786  26.411  1.00  0.00     0.074 A 
ATOM     51  C   UNL A   1      47.854  25.441  25.929  1.00  0.00     0.031 C 
ATOM     52  C   UNL A   1      41.438  26.685  28.148  1.00  0.00     0.029 A 
ATOM     53  C   UNL A   1      42.381  27.794  28.284  1.00  0.00     0.049 A 
ATOM     54  H   UNL A   1      44.341  27.872  27.583  1.00  0.00     0.167 HD
ATOM     55  C   UNL A   1      48.587  27.745  26.445  1.00  0.00     0.034 A 
ATOM     56  C   UNL A   1      42.129  28.978  28.877  1.00  0.00     0.034 A 
ATOM     57  C   UNL A   1      48.365  29.083  26.912  1.00  0.00     0.049 A 
ATOM     58  C   UNL A   1      43.216  30.025  28.920  1.00  0.00     0.074 A 
ATOM     59  C   UNL A   1      49.255  30.141  26.953  1.00  0.00     0.029 A 
ATOM     60  N   UNL A   1      47.166  29.545  27.434  1.00  0.00    -0.354 N 
ATOM     61  N   UNL A   1      44.435  29.971  28.439  1.00  0.00    -0.248 NA
ATOM     62  C   UNL A   1      42.883  31.306  29.558  1.00  0.00     0.031 C 
ATOM     63  C   UNL A   1      48.597  31.241  27.513  1.00  0.00     0.029 A 
ATOM     64  C   UNL A   1      47.293  30.871  27.804  1.00  0.00     0.049 A 
ATOM     65  H   UNL A   1      46.346  29.008  27.527  1.00  0.00     0.167 HD
ATOM     66  C   UNL A   1      44.998  31.220  28.679  1.00  0.00     0.074 A 
ATOM     67  C   UNL A   1      43.982  32.015  29.337  1.00  0.00     0.031 C 
ATOM     68  C   UNL A   1      46.247  31.666  28.395  1.00  0.00     0.034 A 
BRANCH  55  69
ATOM     69  C   UNL A   1      49.953  27.379  25.930  1.00  0.00     0.023 A 
ATOM     70  C   UNL A   1      50.934  26.926  26.834  1.00  0.00     0.012 A 
ATOM     71  C   UNL A   1      50.255  27.453  24.558  1.00  0.00     0.148 A 
ATOM     72  C   UNL A   1      52.206  26.577  26.384  1.00  0.00     0.002 A 
ATOM     73  C   UNL A   1      51.514  27.066  24.111  1.00  0.00     0.091 A 
ATOM     74  F   UNL A   1      49.318  27.917  23.719  1.00  0.00    -0.205 F 
ATOM     75  C   UNL A   1      52.493  26.638  25.023  1.00  0.00     0.022 A 
BRANCH  73  76
ATOM     76  S   UNL A   1      51.954  27.047  22.370  1.00  0.00     0.127 S 
ATOM     77  O   UNL A   1      52.189  28.467  22.109  1.00  0.00    -0.237 OA
ATOM     78  O   UNL A   1      53.159  26.218  22.365  1.00  0.00    -0.237 OA
ATOM     79  O   UNL A   1      50.814  26.462  21.677  1.00  0.00    -0.744 OA
ENDBRANCH  73  76
ENDBRANCH  55  69
BRANCH  56  80
ATOM     80  C   UNL A   1      40.778  29.260  29.439  1.00  0.00     0.023 A 
ATOM     81  C   UNL A   1      39.751  29.700  28.581  1.00  0.00     0.012 A 
ATOM     82  C   UNL A   1      40.497  29.081  30.808  1.00  0.00     0.148 A 
ATOM     83  C   UNL A   1      38.479  29.986  29.079  1.00  0.00     0.002 A 
ATOM     84  C   UNL A   1      39.214  29.315  31.288  1.00  0.00     0.091 A 
ATOM     85  F   UNL A   1      41.491  28.682  31.614  1.00  0.00    -0.205 F 
ATOM     86  C   UNL A   1      38.207  29.784  30.430  1.00  0.00     0.022 A 
BRANCH  84  87
ATOM     87  S   UNL A   1      38.741  28.957  32.985  1.00  0.00     0.127 S 
ATOM     88  O   UNL A   1      39.726  27.948  33.364  1.00  0.00    -0.237 OA
ATOM     89  O   UNL A   1      38.913  30.260  33.630  1.00  0.00    -0.237 OA
ATOM     90  O   UNL A   1      37.358  28.504  32.919  1.00  0.00    -0.744 OA
ENDBRANCH  84  87
ENDBRANCH  56  80
BRANCH  68  91
ATOM     91  C   UNL A   1      46.585  33.091  28.746  1.00  0.00     0.023 A 
ATOM     92  C   UNL A   1      46.338  34.118  27.813  1.00  0.00     0.012 A 
ATOM     93  C   UNL A   1      47.049  33.422  30.034  1.00  0.00     0.148 A 
ATOM     94  C   UNL A   1      46.572  35.451  28.150  1.00  0.00     0.002 A 
ATOM     95  C   UNL A   1      47.236  34.756  30.378  1.00  0.00     0.091 A 
ATOM     96  F   UNL A   1      47.295  32.429  30.901  1.00  0.00    -0.205 F 
ATOM     97  C   UNL A   1      47.007  35.770  29.435  1.00  0.00     0.022 A 
BRANCH  95  98
ATOM     98  S   UNL A   1      47.700  35.261  32.039  1.00  0.00     0.127 S 
ATOM     99  O   UNL A   1      46.597  34.722  32.833  1.00  0.00    -0.237 OA
ATOM    100  O   UNL A   1      48.979  34.578  32.230  1.00  0.00    -0.237 OA
ATOM    101  O   UNL A   1      47.794  36.715  32.000  1.00  0.00    -0.744 OA
ENDBRANCH  95  98
ENDBRANCH  68  91
ENDBRANCH  42  43
ENDBRANCH  35  37
ENDBRANCH  34  35
ENDBRANCH  33  34
ENDBRANCH  32  33
ENDBRANCH  31  32
ENDBRANCH  30  31
ENDBRANCH  29  30
ENDBRANCH  28  29
ENDBRANCH   1  28
TORSDOF 27
ENDMDL
MODEL 3
REMARK VINA RESULT:      -8.5      4.504      7.503
REMARK SMILES CN(C)C(=O)c1cccc(NCc2cc(C(=O)OCCOCCOCCOCCOC(=O)c3ccc(-c4c5nc(c(-c6cccc(S(=O)(=O)[O-])c6F)c6ccc([nH]6)c(-c6cccc(S(=O)(=O)[O-])c6F)c6nc(c(-c7cccc(S(=O)(=O)[O-])c7F)c7ccc4[nH]7)C=C6)C=C5)cc3)cs2)c1
REMARK SMILES IDX 23 1 22 2 21 3 20 4 19 5 18 6 16 7 17 8 15 9 13 10 14 11
REMARK SMILES IDX 97 12 96 13 12 14 11 15 10 17 6 18 7 19 98 20 8 21 9 22 4 23
REMARK SMILES IDX 1 24 2 25 3 26 5 27 24 28 25 29 26 30 27 31 28 32 29 33
REMARK SMILES IDX 30 34 31 35 32 36 33 37 34 38 95 39 35 40 94 41 36 42 37 43
REMARK SMILES IDX 38 44 88 45 39 46 93 47 87 48 89 49 40 50 92 51 86 52 85 53
REMARK SMILES IDX 41 55 73 56 53 57 72 58 54 59 57 60 71 61 90 62 55 63 56 64
REMARK SMILES IDX 70 66 91 67 58 68 42 69 43 70 51 71 44 72 46 73 52 74 45 75
REMARK SMILES IDX 47 76 48 77 49 78 50 79 74 80 75 81 83 82 76 83 78 84 84 85
REMARK SMILES IDX 77 86 79 87 80 88 81 89 82 90 59 91 60 92 68 93 61 94 63 95
REMARK SMILES IDX 69 96 62 97 64 98 65 99 66 100 67 101
REMARK H PARENT 11 16 89 54 57 65
REMARK Flexibility Score: inf
ROOT
ATOM      1  C   UNL A   1      36.787  21.463  25.447  1.00  0.00     0.188 C 
ENDROOT
BRANCH   1   2
ATOM      2  C   UNL A   1      36.616  22.928  25.008  1.00  0.00     0.188 C 
BRANCH   2   3
ATOM      3  O   UNL A   1      35.305  23.439  25.250  1.00  0.00    -0.376 OA
BRANCH   3   4
ATOM      4  C   UNL A   1      34.776  24.346  24.290  1.00  0.00     0.202 C 
BRANCH   4   5
ATOM      5  C   UNL A   1      33.267  24.269  24.006  1.00  0.00     0.261 C 
BRANCH   5   6
ATOM      6  O   UNL A   1      32.539  25.503  24.110  1.00  0.00    -0.460 OA
BRANCH   6   7
ATOM      7  C   UNL A   1      33.054  26.616  23.523  1.00  0.00     0.339 C 
ATOM      8  O   UNL A   1      33.295  26.738  22.338  1.00  0.00    -0.246 OA
BRANCH   7   9
ATOM      9  C   UNL A   1      33.143  27.708  24.488  1.00  0.00     0.071 A 
ATOM     10  C   UNL A   1      33.844  28.915  26.377  1.00  0.00     0.025 A 
ATOM     11  C   UNL A   1      34.008  27.766  25.629  1.00  0.00     0.033 A 
ATOM     12  S   UNL A   1      32.601  29.899  25.740  1.00  0.00    -0.146 S 
ATOM     13  C   UNL A   1      32.326  28.823  24.440  1.00  0.00     0.080 A 
BRANCH  10  14
ATOM     14  C   UNL A   1      34.617  29.324  27.601  1.00  0.00     0.159 C 
BRANCH  14  15
ATOM     15  N   UNL A   1      35.804  30.108  27.300  1.00  0.00    -0.380 N 
ATOM     16  H   UNL A   1      36.370  29.809  26.553  1.00  0.00     0.160 HD
BRANCH  15  17
ATOM     17  C   UNL A   1      36.195  31.241  27.988  1.00  0.00     0.035 A 
ATOM     18  C   UNL A   1      35.622  33.460  28.833  1.00  0.00     0.042 A 
ATOM     19  C   UNL A   1      36.916  33.623  29.328  1.00  0.00     0.014 A 
ATOM     20  C   UNL A   1      35.278  32.291  28.139  1.00  0.00     0.039 A 
ATOM     21  C   UNL A   1      37.843  32.598  29.177  1.00  0.00     0.003 A 
ATOM     22  C   UNL A   1      37.478  31.415  28.524  1.00  0.00     0.026 A 
BRANCH  18  23
ATOM     23  C   UNL A   1      34.665  34.583  28.977  1.00  0.00     0.253 C 
ATOM     24  C   UNL A   1      32.902  35.728  30.198  1.00  0.00     0.146 C 
ATOM     25  N   UNL A   1      33.997  34.773  30.184  1.00  0.00    -0.345 N 
ATOM     26  C   UNL A   1      34.341  34.146  31.452  1.00  0.00     0.146 C 
ATOM     27  O   UNL A   1      34.507  35.322  28.004  1.00  0.00    -0.269 OA
ENDBRANCH  18  23
ENDBRANCH  15  17
ENDBRANCH  14  15
ENDBRANCH  10  14
ENDBRANCH   7   9
ENDBRANCH   6   7
ENDBRANCH   5   6
ENDBRANCH   4   5
ENDBRANCH   3   4
ENDBRANCH   2   3
ENDBRANCH   1   2
BRANCH   1  28
ATOM     28  O   UNL A   1      38.138  21.039  25.379  1.00  0.00    -0.377 OA
BRANCH  28  29
ATOM     29  C   UNL A   1      39.098  21.789  26.120  1.00  0.00     0.188 C 
BRANCH  29  30
ATOM     30  C   UNL A   1      40.529  21.247  26.331  1.00  0.00     0.188 C 
BRANCH  30  31
ATOM     31  O   UNL A   1      41.532  22.264  26.362  1.00  0.00    -0.376 OA
BRANCH  31  32
ATOM     32  C   UNL A   1      42.882  21.821  26.257  1.00  0.00     0.202 C 
BRANCH  32  33
ATOM     33  C   UNL A   1      43.601  22.361  25.015  1.00  0.00     0.261 C 
BRANCH  33  34
ATOM     34  O   UNL A   1      43.616  23.791  24.904  1.00  0.00    -0.460 OA
BRANCH  34  35
ATOM     35  C   UNL A   1      44.821  24.398  24.958  1.00  0.00     0.338 C 
ATOM     36  O   UNL A   1      45.821  24.110  24.324  1.00  0.00    -0.246 OA
BRANCH  35  37
ATOM     37  C   UNL A   1      44.682  25.605  25.793  1.00  0.00     0.060 A 
ATOM     38  C   UNL A   1      45.837  26.217  26.296  1.00  0.00     0.016 A 
ATOM     39  C   UNL A   1      43.415  26.115  26.085  1.00  0.00     0.016 A 
ATOM     40  C   UNL A   1      45.722  27.318  27.145  1.00  0.00     0.010 A 
ATOM     41  C   UNL A   1      43.302  27.206  26.945  1.00  0.00     0.010 A 
ATOM     42  C   UNL A   1      44.452  27.783  27.510  1.00  0.00    -0.014 A 
BRANCH  42  43
ATOM     43  C   UNL A   1      44.296  28.714  28.650  1.00  0.00     0.031 A 
ATOM     44  C   UNL A   1      44.165  28.123  30.027  1.00  0.00     0.074 A 
ATOM     45  C   UNL A   1      44.214  30.042  28.463  1.00  0.00     0.049 A 
ATOM     46  N   UNL A   1      43.934  28.719  31.165  1.00  0.00    -0.248 NA
ATOM     47  C   UNL A   1      44.305  26.659  30.128  1.00  0.00     0.031 C 
ATOM     48  C   UNL A   1      44.321  30.724  27.175  1.00  0.00     0.029 A 
ATOM     49  N   UNL A   1      43.984  31.050  29.364  1.00  0.00    -0.354 N 
ATOM     50  C   UNL A   1      43.872  27.704  32.113  1.00  0.00     0.074 A 
ATOM     51  C   UNL A   1      44.081  26.455  31.417  1.00  0.00     0.031 C 
ATOM     52  C   UNL A   1      44.120  32.041  27.365  1.00  0.00     0.029 A 
ATOM     53  C   UNL A   1      43.850  32.288  28.780  1.00  0.00     0.049 A 
ATOM     54  H   UNL A   1      43.921  30.903  30.335  1.00  0.00     0.167 HD
ATOM     55  C   UNL A   1      43.675  27.805  33.447  1.00  0.00     0.034 A 
ATOM     56  C   UNL A   1      43.525  33.476  29.328  1.00  0.00     0.034 A 
ATOM     57  C   UNL A   1      43.480  29.047  34.138  1.00  0.00     0.049 A 
ATOM     58  C   UNL A   1      43.290  33.559  30.817  1.00  0.00     0.074 A 
ATOM     59  C   UNL A   1      43.309  29.261  35.494  1.00  0.00     0.029 A 
ATOM     60  N   UNL A   1      43.417  30.288  33.524  1.00  0.00    -0.354 N 
ATOM     61  N   UNL A   1      43.363  32.610  31.720  1.00  0.00    -0.248 NA
ATOM     62  C   UNL A   1      42.960  34.882  31.367  1.00  0.00     0.031 C 
ATOM     63  C   UNL A   1      43.128  30.633  35.697  1.00  0.00     0.029 A 
ATOM     64  C   UNL A   1      43.204  31.273  34.471  1.00  0.00     0.049 A 
ATOM     65  H   UNL A   1      43.509  30.445  32.556  1.00  0.00     0.167 HD
ATOM     66  C   UNL A   1      43.129  33.227  32.944  1.00  0.00     0.074 A 
ATOM     67  C   UNL A   1      42.925  34.635  32.669  1.00  0.00     0.031 C 
ATOM     68  C   UNL A   1      43.073  32.679  34.183  1.00  0.00     0.034 A 
BRANCH  55  69
ATOM     69  C   UNL A   1      43.693  26.531  34.247  1.00  0.00     0.023 A 
ATOM     70  C   UNL A   1      42.475  25.903  34.574  1.00  0.00     0.012 A 
ATOM     71  C   UNL A   1      44.907  25.941  34.644  1.00  0.00     0.148 A 
ATOM     72  C   UNL A   1      42.463  24.720  35.311  1.00  0.00     0.002 A 
ATOM     73  C   UNL A   1      44.889  24.740  35.345  1.00  0.00     0.091 A 
ATOM     74  F   UNL A   1      46.054  26.571  34.350  1.00  0.00    -0.205 F 
ATOM     75  C   UNL A   1      43.669  24.133  35.687  1.00  0.00     0.022 A 
BRANCH  73  76
ATOM     76  S   UNL A   1      46.391  23.876  35.815  1.00  0.00     0.127 S 
ATOM     77  O   UNL A   1      46.825  23.319  34.533  1.00  0.00    -0.237 OA
ATOM     78  O   UNL A   1      47.229  24.963  36.321  1.00  0.00    -0.237 OA
ATOM     79  O   UNL A   1      45.992  22.900  36.819  1.00  0.00    -0.744 OA
ENDBRANCH  73  76
ENDBRANCH  55  69
BRANCH  56  80
ATOM     80  C   UNL A   1      43.447  34.696  28.475  1.00  0.00     0.023 A 
ATOM     81  C   UNL A   1      42.194  35.119  27.989  1.00  0.00     0.012 A 
ATOM     82  C   UNL A   1      44.595  35.446  28.154  1.00  0.00     0.148 A 
ATOM     83  C   UNL A   1      42.088  36.247  27.176  1.00  0.00     0.002 A 
ATOM     84  C   UNL A   1      44.476  36.601  27.389  1.00  0.00     0.091 A 
ATOM     85  F   UNL A   1      45.781  35.017  28.607  1.00  0.00    -0.205 F 
ATOM     86  C   UNL A   1      43.227  36.994  26.884  1.00  0.00     0.022 A 
BRANCH  84  87
ATOM     87  S   UNL A   1      45.868  37.693  27.074  1.00  0.00     0.127 S 
ATOM     88  O   UNL A   1      46.402  37.894  28.417  1.00  0.00    -0.237 OA
ATOM     89  O   UNL A   1      46.704  36.875  26.193  1.00  0.00    -0.237 OA
ATOM     90  O   UNL A   1      45.302  38.872  26.431  1.00  0.00    -0.744 OA
ENDBRANCH  84  87
ENDBRANCH  56  80
BRANCH  68  91
ATOM     91  C   UNL A   1      42.827  33.597  35.352  1.00  0.00     0.023 A 
ATOM     92  C   UNL A   1      43.918  34.087  36.097  1.00  0.00     0.012 A 
ATOM     93  C   UNL A   1      41.527  34.052  35.645  1.00  0.00     0.148 A 
ATOM     94  C   UNL A   1      43.714  34.999  37.132  1.00  0.00     0.002 A 
ATOM     95  C   UNL A   1      41.336  34.996  36.648  1.00  0.00     0.091 A 
ATOM     96  F   UNL A   1      40.501  33.559  34.936  1.00  0.00    -0.205 F 
ATOM     97  C   UNL A   1      42.427  35.463  37.398  1.00  0.00     0.022 A 
BRANCH  95  98
ATOM     98  S   UNL A   1      39.728  35.720  36.990  1.00  0.00     0.127 S 
ATOM     99  O   UNL A   1      40.082  36.825  37.880  1.00  0.00    -0.237 OA
ATOM    100  O   UNL A   1      39.278  36.129  35.659  1.00  0.00    -0.237 OA
ATOM    101  O   UNL A   1      38.933  34.657  37.593  1.00  0.00    -0.744 OA
ENDBRANCH  95  98
ENDBRANCH  68  91
ENDBRANCH  42  43
ENDBRANCH  35  37
ENDBRANCH  34  35
ENDBRANCH  33  34
ENDBRANCH  32  33
ENDBRANCH  31  32
ENDBRANCH  30  31
ENDBRANCH  29  30
ENDBRANCH  28  29
ENDBRANCH   1  28
TORSDOF 27
ENDMDL
