MODEL 1
REMARK VINA RESULT:      -8.7      0.000      0.000
REMARK SMILES O=C(OCCOCCOCCOCCOC(=O)[C@@H]1CN(c2nc(-c3ccccc3)no2)CC[NH2+]1)c1ccc(-c2c3nc(c(-c4cccc(S(=O)(=O)[O-])c4F)c4ccc([nH]4)c(-c4cccc(S(=O)(=O)[O-])c4F)c4nc(c(-c5cccc(S(=O)(=O)[O-])c5F)c5ccc2[nH]5)C=C4)C=C3)cc1
REMARK SMILES IDX 8 1 7 2 6 3 5 4 4 5 3 6 2 7 1 8 35 9 36 10 97 11 37 12 96 13
REMARK SMILES IDX 38 14 39 15 40 16 90 17 41 18 95 19 89 20 91 21 42 22 94 23
REMARK SMILES IDX 88 24 87 25 43 27 75 28 55 29 74 30 56 31 59 32 73 33 92 34
REMARK SMILES IDX 57 35 58 36 72 38 93 39 60 40 44 41 45 42 53 43 46 44 48 45
REMARK SMILES IDX 54 46 47 47 49 48 50 49 51 50 52 51 76 52 77 53 85 54 78 55
REMARK SMILES IDX 80 56 86 57 79 58 81 59 82 60 83 61 84 62 61 63 62 64 70 65
REMARK SMILES IDX 63 66 65 67 71 68 64 69 66 70 67 71 68 72 69 73 9 74 10 75
REMARK SMILES IDX 11 76 12 77 13 78 14 79 15 80 16 81 17 82 18 83 19 84 34 85
REMARK SMILES IDX 20 86 33 87 32 90 21 91 22 92 31 93 23 94 30 95 24 96 25 97
REMARK SMILES IDX 29 98 26 99 28 100 27 101
REMARK H PARENT 91 26 59 37 34 88 34 89
REMARK Flexibility Score: inf
ROOT
ATOM      1  C   UNL A   1      44.792  22.288  24.404  1.00  0.00     0.188 C 
ENDROOT
BRANCH   1   2
ATOM      2  C   UNL A   1      46.285  22.552  24.319  1.00  0.00     0.188 C 
BRANCH   2   3
ATOM      3  O   UNL A   1      46.699  23.205  25.504  1.00  0.00    -0.376 OA
BRANCH   3   4
ATOM      4  C   UNL A   1      46.700  24.611  25.612  1.00  0.00     0.202 C 
BRANCH   4   5
ATOM      5  C   UNL A   1      47.705  25.395  24.779  1.00  0.00     0.261 C 
BRANCH   5   6
ATOM      6  O   UNL A   1      47.221  26.543  24.041  1.00  0.00    -0.460 OA
BRANCH   6   7
ATOM      7  C   UNL A   1      46.809  27.773  24.436  1.00  0.00     0.338 C 
ATOM      8  O   UNL A   1      46.820  28.705  23.637  1.00  0.00    -0.246 OA
BRANCH   7   9
ATOM      9  C   UNL A   1      46.322  28.016  25.808  1.00  0.00     0.060 A 
ATOM     10  C   UNL A   1      45.030  27.711  26.184  1.00  0.00     0.016 A 
ATOM     11  C   UNL A   1      47.196  28.453  26.802  1.00  0.00     0.016 A 
ATOM     12  C   UNL A   1      44.482  28.184  27.345  1.00  0.00     0.010 A 
ATOM     13  C   UNL A   1      46.705  28.715  28.088  1.00  0.00     0.010 A 
ATOM     14  C   UNL A   1      45.323  28.661  28.332  1.00  0.00    -0.014 A 
BRANCH  14  15
ATOM     15  C   UNL A   1      44.677  29.182  29.547  1.00  0.00     0.031 A 
ATOM     16  C   UNL A   1      44.080  30.552  29.483  1.00  0.00     0.074 A 
ATOM     17  C   UNL A   1      44.472  28.362  30.599  1.00  0.00     0.049 A 
ATOM     18  N   UNL A   1      43.519  31.248  30.429  1.00  0.00    -0.248 NA
ATOM     19  C   UNL A   1      44.106  31.229  28.172  1.00  0.00     0.031 C 
ATOM     20  C   UNL A   1      44.896  26.956  30.679  1.00  0.00     0.029 A 
ATOM     21  N   UNL A   1      43.822  28.571  31.784  1.00  0.00    -0.354 N 
ATOM     22  C   UNL A   1      43.194  32.464  29.850  1.00  0.00     0.074 A 
ATOM     23  C   UNL A   1      43.603  32.416  28.468  1.00  0.00     0.031 C 
ATOM     24  C   UNL A   1      44.465  26.425  31.833  1.00  0.00     0.029 A 
ATOM     25  C   UNL A   1      43.850  27.479  32.622  1.00  0.00     0.049 A 
ATOM     26  H   UNL A   1      43.378  29.418  32.015  1.00  0.00     0.167 HD
ATOM     27  C   UNL A   1      42.603  33.530  30.435  1.00  0.00     0.034 A 
ATOM     28  C   UNL A   1      43.481  27.371  33.911  1.00  0.00     0.034 A 
ATOM     29  C   UNL A   1      42.190  33.528  31.807  1.00  0.00     0.049 A 
ATOM     30  C   UNL A   1      42.910  28.600  34.560  1.00  0.00     0.074 A 
ATOM     31  C   UNL A   1      41.652  34.558  32.551  1.00  0.00     0.029 A 
ATOM     32  N   UNL A   1      42.272  32.422  32.644  1.00  0.00    -0.354 N 
ATOM     33  N   UNL A   1      42.649  29.769  34.022  1.00  0.00    -0.248 NA
ATOM     34  C   UNL A   1      42.573  28.499  35.982  1.00  0.00     0.031 C 
ATOM     35  C   UNL A   1      41.435  34.082  33.847  1.00  0.00     0.029 A 
ATOM     36  C   UNL A   1      41.796  32.743  33.899  1.00  0.00     0.049 A 
ATOM     37  H   UNL A   1      42.618  31.538  32.380  1.00  0.00     0.167 HD
ATOM     38  C   UNL A   1      42.099  30.539  35.035  1.00  0.00     0.074 A 
ATOM     39  C   UNL A   1      42.029  29.687  36.207  1.00  0.00     0.031 C 
ATOM     40  C   UNL A   1      41.709  31.838  35.018  1.00  0.00     0.034 A 
BRANCH  27  41
ATOM     41  C   UNL A   1      42.435  34.766  29.599  1.00  0.00     0.023 A 
ATOM     42  C   UNL A   1      41.279  34.944  28.812  1.00  0.00     0.012 A 
ATOM     43  C   UNL A   1      43.446  35.745  29.579  1.00  0.00     0.148 A 
ATOM     44  C   UNL A   1      41.148  36.065  27.992  1.00  0.00     0.002 A 
ATOM     45  C   UNL A   1      43.288  36.881  28.796  1.00  0.00     0.091 A 
ATOM     46  F   UNL A   1      44.551  35.535  30.307  1.00  0.00    -0.205 F 
ATOM     47  C   UNL A   1      42.147  37.036  27.991  1.00  0.00     0.022 A 
BRANCH  45  48
ATOM     48  S   UNL A   1      44.486  38.216  28.767  1.00  0.00     0.127 S 
ATOM     49  O   UNL A   1      45.725  37.497  28.475  1.00  0.00    -0.237 OA
ATOM     50  O   UNL A   1      43.987  39.046  27.675  1.00  0.00    -0.237 OA
ATOM     51  O   UNL A   1      44.431  38.837  30.088  1.00  0.00    -0.744 OA
ENDBRANCH  45  48
ENDBRANCH  27  41
BRANCH  28  52
ATOM     52  C   UNL A   1      43.708  26.109  34.673  1.00  0.00     0.023 A 
ATOM     53  C   UNL A   1      42.667  25.173  34.821  1.00  0.00     0.012 A 
ATOM     54  C   UNL A   1      44.957  25.837  35.273  1.00  0.00     0.148 A 
ATOM     55  C   UNL A   1      42.849  24.020  35.589  1.00  0.00     0.002 A 
ATOM     56  C   UNL A   1      45.151  24.658  35.981  1.00  0.00     0.091 A 
ATOM     57  F   UNL A   1      45.936  26.744  35.144  1.00  0.00    -0.205 F 
ATOM     58  C   UNL A   1      44.092  23.758  36.161  1.00  0.00     0.022 A 
BRANCH  56  59
ATOM     59  S   UNL A   1      46.757  24.189  36.637  1.00  0.00     0.127 S 
ATOM     60  O   UNL A   1      46.948  25.176  37.696  1.00  0.00    -0.237 OA
ATOM     61  O   UNL A   1      46.508  22.824  37.102  1.00  0.00    -0.237 OA
ATOM     62  O   UNL A   1      47.678  24.275  35.512  1.00  0.00    -0.744 OA
ENDBRANCH  56  59
ENDBRANCH  28  52
BRANCH  40  63
ATOM     63  C   UNL A   1      41.136  32.385  36.293  1.00  0.00     0.023 A 
ATOM     64  C   UNL A   1      41.929  33.192  37.132  1.00  0.00     0.012 A 
ATOM     65  C   UNL A   1      39.790  32.142  36.622  1.00  0.00     0.148 A 
ATOM     66  C   UNL A   1      41.398  33.714  38.308  1.00  0.00     0.002 A 
ATOM     67  C   UNL A   1      39.252  32.717  37.764  1.00  0.00     0.091 A 
ATOM     68  F   UNL A   1      39.064  31.354  35.816  1.00  0.00    -0.205 F 
ATOM     69  C   UNL A   1      40.059  33.489  38.616  1.00  0.00     0.022 A 
BRANCH  67  70
ATOM     70  S   UNL A   1      37.512  32.572  38.174  1.00  0.00     0.127 S 
ATOM     71  O   UNL A   1      36.893  33.394  37.136  1.00  0.00    -0.237 OA
ATOM     72  O   UNL A   1      37.281  31.133  38.034  1.00  0.00    -0.237 OA
ATOM     73  O   UNL A   1      37.377  33.073  39.535  1.00  0.00    -0.744 OA
ENDBRANCH  67  70
ENDBRANCH  40  63
ENDBRANCH  14  15
ENDBRANCH   7   9
ENDBRANCH   6   7
ENDBRANCH   5   6
ENDBRANCH   4   5
ENDBRANCH   3   4
ENDBRANCH   2   3
ENDBRANCH   1   2
BRANCH   1  74
ATOM     74  O   UNL A   1      44.420  20.990  23.967  1.00  0.00    -0.377 OA
BRANCH  74  75
ATOM     75  C   UNL A   1      45.349  19.912  24.134  1.00  0.00     0.188 C 
BRANCH  75  76
ATOM     76  C   UNL A   1      45.200  18.944  25.329  1.00  0.00     0.188 C 
BRANCH  76  77
ATOM     77  O   UNL A   1      44.089  18.078  25.236  1.00  0.00    -0.376 OA
BRANCH  77  78
ATOM     78  C   UNL A   1      42.971  18.272  26.092  1.00  0.00     0.202 C 
BRANCH  78  79
ATOM     79  C   UNL A   1      42.080  19.537  26.068  1.00  0.00     0.261 C 
BRANCH  79  80
ATOM     80  O   UNL A   1      41.486  19.933  27.313  1.00  0.00    -0.459 OA
BRANCH  80  81
ATOM     81  C   UNL A   1      40.828  21.124  27.334  1.00  0.00     0.366 C 
ATOM     82  O   UNL A   1      39.691  21.288  26.900  1.00  0.00    -0.245 OA
BRANCH  81  83
ATOM     83  C   UNL A   1      41.601  22.256  28.026  1.00  0.00     0.313 C 
ATOM     84  C   UNL A   1      41.891  23.346  26.998  1.00  0.00     0.199 C 
ATOM     85  N   UNL A   1      42.859  21.834  28.679  1.00  0.00    -0.332 N 
ATOM     86  N   UNL A   1      42.664  24.444  27.590  1.00  0.00    -0.312 N 
ATOM     87  C   UNL A   1      43.517  22.946  29.357  1.00  0.00     0.283 C 
ATOM     88  H   UNL A   1      43.491  21.460  27.969  1.00  0.00     0.347 HD
ATOM     89  H   UNL A   1      42.634  21.126  29.377  1.00  0.00     0.347 HD
ATOM     90  C   UNL A   1      43.842  24.098  28.390  1.00  0.00     0.183 C 
BRANCH  86  91
ATOM     91  C   UNL A   1      42.038  25.609  27.814  1.00  0.00     0.324 A 
ATOM     92  N   UNL A   1      42.010  26.343  28.897  1.00  0.00    -0.171 NA
ATOM     93  O   UNL A   1      41.216  26.072  26.826  1.00  0.00    -0.315 OA
ATOM     94  C   UNL A   1      41.103  27.313  28.566  1.00  0.00     0.204 A 
ATOM     95  N   UNL A   1      40.569  27.192  27.341  1.00  0.00    -0.055 NA
BRANCH  94  96
ATOM     96  C   UNL A   1      40.756  28.396  29.455  1.00  0.00     0.023 A 
ATOM     97  C   UNL A   1      40.639  28.164  30.830  1.00  0.00     0.012 A 
ATOM     98  C   UNL A   1      40.463  29.661  28.932  1.00  0.00     0.012 A 
ATOM     99  C   UNL A   1      40.194  29.182  31.672  1.00  0.00     0.001 A 
ATOM    100  C   UNL A   1      40.010  30.675  29.776  1.00  0.00     0.001 A 
ATOM    101  C   UNL A   1      39.866  30.431  31.143  1.00  0.00     0.000 A 
ENDBRANCH  94  96
ENDBRANCH  86  91
ENDBRANCH  81  83
ENDBRANCH  80  81
ENDBRANCH  79  80
ENDBRANCH  78  79
ENDBRANCH  77  78
ENDBRANCH  76  77
ENDBRANCH  75  76
ENDBRANCH  74  75
ENDBRANCH   1  74
TORSDOF 25
ENDMDL
MODEL 2
REMARK VINA RESULT:      -7.9      5.851     10.789
REMARK SMILES O=C(OCCOCCOCCOCCOC(=O)[C@@H]1CN(c2nc(-c3ccccc3)no2)CC[NH2+]1)c1ccc(-c2c3nc(c(-c4cccc(S(=O)(=O)[O-])c4F)c4ccc([nH]4)c(-c4cccc(S(=O)(=O)[O-])c4F)c4nc(c(-c5cccc(S(=O)(=O)[O-])c5F)c5ccc2[nH]5)C=C4)C=C3)cc1
REMARK SMILES IDX 8 1 7 2 6 3 5 4 4 5 3 6 2 7 1 8 35 9 36 10 97 11 37 12 96 13
REMARK SMILES IDX 38 14 39 15 40 16 90 17 41 18 95 19 89 20 91 21 42 22 94 23
REMARK SMILES IDX 88 24 87 25 43 27 75 28 55 29 74 30 56 31 59 32 73 33 92 34
REMARK SMILES IDX 57 35 58 36 72 38 93 39 60 40 44 41 45 42 53 43 46 44 48 45
REMARK SMILES IDX 54 46 47 47 49 48 50 49 51 50 52 51 76 52 77 53 85 54 78 55
REMARK SMILES IDX 80 56 86 57 79 58 81 59 82 60 83 61 84 62 61 63 62 64 70 65
REMARK SMILES IDX 63 66 65 67 71 68 64 69 66 70 67 71 68 72 69 73 9 74 10 75
REMARK SMILES IDX 11 76 12 77 13 78 14 79 15 80 16 81 17 82 18 83 19 84 34 85
REMARK SMILES IDX 20 86 33 87 32 90 21 91 22 92 31 93 23 94 30 95 24 96 25 97
REMARK SMILES IDX 29 98 26 99 28 100 27 101
REMARK H PARENT 91 26 59 37 34 88 34 89
REMARK Flexibility Score: inf
ROOT
ATOM      1  C   UNL A   1      35.225  30.494  28.132  1.00  0.00     0.188 C 
ENDROOT
BRANCH   1   2
ATOM      2  C   UNL A   1      34.683  31.802  28.681  1.00  0.00     0.188 C 
BRANCH   2   3
ATOM      3  O   UNL A   1      34.932  32.828  27.739  1.00  0.00    -0.376 OA
BRANCH   3   4
ATOM      4  C   UNL A   1      34.678  34.183  28.037  1.00  0.00     0.202 C 
BRANCH   4   5
ATOM      5  C   UNL A   1      33.291  34.560  28.537  1.00  0.00     0.261 C 
BRANCH   5   6
ATOM      6  O   UNL A   1      33.201  35.521  29.617  1.00  0.00    -0.460 OA
BRANCH   6   7
ATOM      7  C   UNL A   1      33.192  35.380  30.966  1.00  0.00     0.338 C 
ATOM      8  O   UNL A   1      32.275  35.862  31.623  1.00  0.00    -0.246 OA
BRANCH   7   9
ATOM      9  C   UNL A   1      34.256  34.635  31.667  1.00  0.00     0.060 A 
ATOM     10  C   UNL A   1      35.459  35.226  31.995  1.00  0.00     0.016 A 
ATOM     11  C   UNL A   1      34.030  33.339  32.125  1.00  0.00     0.016 A 
ATOM     12  C   UNL A   1      36.547  34.490  32.378  1.00  0.00     0.010 A 
ATOM     13  C   UNL A   1      35.066  32.635  32.754  1.00  0.00     0.010 A 
ATOM     14  C   UNL A   1      36.356  33.188  32.800  1.00  0.00    -0.014 A 
BRANCH  14  15
ATOM     15  C   UNL A   1      37.565  32.437  33.173  1.00  0.00     0.031 A 
ATOM     16  C   UNL A   1      38.165  32.710  34.515  1.00  0.00     0.074 A 
ATOM     17  C   UNL A   1      37.980  31.412  32.401  1.00  0.00     0.049 A 
ATOM     18  N   UNL A   1      39.255  32.229  35.041  1.00  0.00    -0.248 NA
ATOM     19  C   UNL A   1      37.434  33.644  35.394  1.00  0.00     0.031 C 
ATOM     20  C   UNL A   1      37.352  30.984  31.141  1.00  0.00     0.029 A 
ATOM     21  N   UNL A   1      38.998  30.514  32.574  1.00  0.00    -0.354 N 
ATOM     22  C   UNL A   1      39.377  32.853  36.273  1.00  0.00     0.074 A 
ATOM     23  C   UNL A   1      38.250  33.738  36.432  1.00  0.00     0.031 C 
ATOM     24  C   UNL A   1      37.976  29.891  30.679  1.00  0.00     0.029 A 
ATOM     25  C   UNL A   1      39.119  29.619  31.536  1.00  0.00     0.049 A 
ATOM     26  H   UNL A   1      39.586  30.509  33.363  1.00  0.00     0.167 HD
ATOM     27  C   UNL A   1      40.357  32.694  37.189  1.00  0.00     0.034 A 
ATOM     28  C   UNL A   1      40.091  28.726  31.275  1.00  0.00     0.034 A 
ATOM     29  C   UNL A   1      41.450  31.785  37.002  1.00  0.00     0.049 A 
ATOM     30  C   UNL A   1      41.214  28.636  32.269  1.00  0.00     0.074 A 
ATOM     31  C   UNL A   1      42.551  31.578  37.807  1.00  0.00     0.029 A 
ATOM     32  N   UNL A   1      41.570  30.923  35.919  1.00  0.00    -0.354 N 
ATOM     33  N   UNL A   1      41.355  29.265  33.412  1.00  0.00    -0.248 NA
ATOM     34  C   UNL A   1      42.306  27.711  31.948  1.00  0.00     0.031 C 
ATOM     35  C   UNL A   1      43.353  30.609  37.195  1.00  0.00     0.029 A 
ATOM     36  C   UNL A   1      42.729  30.181  36.032  1.00  0.00     0.049 A 
ATOM     37  H   UNL A   1      40.923  30.851  35.180  1.00  0.00     0.167 HD
ATOM     38  C   UNL A   1      42.541  28.801  33.959  1.00  0.00     0.074 A 
ATOM     39  C   UNL A   1      43.057  27.806  33.036  1.00  0.00     0.031 C 
ATOM     40  C   UNL A   1      43.170  29.172  35.102  1.00  0.00     0.034 A 
BRANCH  27  41
ATOM     41  C   UNL A   1      40.297  33.556  38.417  1.00  0.00     0.023 A 
ATOM     42  C   UNL A   1      39.658  33.093  39.584  1.00  0.00     0.012 A 
ATOM     43  C   UNL A   1      40.859  34.847  38.398  1.00  0.00     0.148 A 
ATOM     44  C   UNL A   1      39.552  33.915  40.706  1.00  0.00     0.002 A 
ATOM     45  C   UNL A   1      40.790  35.642  39.535  1.00  0.00     0.091 A 
ATOM     46  F   UNL A   1      41.429  35.278  37.265  1.00  0.00    -0.205 F 
ATOM     47  C   UNL A   1      40.124  35.185  40.684  1.00  0.00     0.022 A 
BRANCH  45  48
ATOM     48  S   UNL A   1      41.545  37.267  39.630  1.00  0.00     0.127 S 
ATOM     49  O   UNL A   1      42.228  37.203  40.920  1.00  0.00    -0.237 OA
ATOM     50  O   UNL A   1      42.428  37.259  38.467  1.00  0.00    -0.237 OA
ATOM     51  O   UNL A   1      40.447  38.228  39.561  1.00  0.00    -0.744 OA
ENDBRANCH  45  48
ENDBRANCH  27  41
BRANCH  28  52
ATOM     52  C   UNL A   1      40.084  27.926  30.016  1.00  0.00     0.023 A 
ATOM     53  C   UNL A   1      39.247  26.800  29.895  1.00  0.00     0.012 A 
ATOM     54  C   UNL A   1      40.924  28.268  28.934  1.00  0.00     0.148 A 
ATOM     55  C   UNL A   1      39.282  26.006  28.747  1.00  0.00     0.002 A 
ATOM     56  C   UNL A   1      40.907  27.511  27.769  1.00  0.00     0.091 A 
ATOM     57  F   UNL A   1      41.732  29.329  29.066  1.00  0.00    -0.205 F 
ATOM     58  C   UNL A   1      40.104  26.365  27.681  1.00  0.00     0.022 A 
BRANCH  56  59
ATOM     59  S   UNL A   1      41.839  27.984  26.308  1.00  0.00     0.127 S 
ATOM     60  O   UNL A   1      41.541  26.884  25.395  1.00  0.00    -0.237 OA
ATOM     61  O   UNL A   1      41.223  29.264  25.955  1.00  0.00    -0.237 OA
ATOM     62  O   UNL A   1      43.224  28.091  26.746  1.00  0.00    -0.744 OA
ENDBRANCH  56  59
ENDBRANCH  28  52
BRANCH  40  63
ATOM     63  C   UNL A   1      44.453  28.462  35.425  1.00  0.00     0.023 A 
ATOM     64  C   UNL A   1      45.683  29.016  35.023  1.00  0.00     0.012 A 
ATOM     65  C   UNL A   1      44.431  27.276  36.180  1.00  0.00     0.148 A 
ATOM     66  C   UNL A   1      46.877  28.371  35.332  1.00  0.00     0.002 A 
ATOM     67  C   UNL A   1      45.628  26.673  36.537  1.00  0.00     0.091 A 
ATOM     68  F   UNL A   1      43.245  26.760  36.533  1.00  0.00    -0.205 F 
ATOM     69  C   UNL A   1      46.850  27.209  36.100  1.00  0.00     0.022 A 
BRANCH  67  70
ATOM     70  S   UNL A   1      45.688  25.241  37.617  1.00  0.00     0.127 S 
ATOM     71  O   UNL A   1      44.944  25.716  38.781  1.00  0.00    -0.237 OA
ATOM     72  O   UNL A   1      44.996  24.226  36.821  1.00  0.00    -0.237 OA
ATOM     73  O   UNL A   1      47.101  24.969  37.843  1.00  0.00    -0.744 OA
ENDBRANCH  67  70
ENDBRANCH  40  63
ENDBRANCH  14  15
ENDBRANCH   7   9
ENDBRANCH   6   7
ENDBRANCH   5   6
ENDBRANCH   4   5
ENDBRANCH   3   4
ENDBRANCH   2   3
ENDBRANCH   1   2
BRANCH   1  74
ATOM     74  O   UNL A   1      34.724  30.168  26.845  1.00  0.00    -0.377 OA
BRANCH  74  75
ATOM     75  C   UNL A   1      33.643  29.234  26.741  1.00  0.00     0.188 C 
BRANCH  75  76
ATOM     76  C   UNL A   1      32.295  29.679  26.131  1.00  0.00     0.188 C 
BRANCH  76  77
ATOM     77  O   UNL A   1      31.829  28.847  25.090  1.00  0.00    -0.376 OA
BRANCH  77  78
ATOM     78  C   UNL A   1      30.837  29.329  24.192  1.00  0.00     0.202 C 
BRANCH  78  79
ATOM     79  C   UNL A   1      30.501  28.655  22.840  1.00  0.00     0.261 C 
BRANCH  79  80
ATOM     80  O   UNL A   1      30.000  27.311  22.896  1.00  0.00    -0.459 OA
BRANCH  80  81
ATOM     81  C   UNL A   1      30.912  26.305  22.807  1.00  0.00     0.366 C 
ATOM     82  O   UNL A   1      31.627  26.111  21.828  1.00  0.00    -0.245 OA
BRANCH  81  83
ATOM     83  C   UNL A   1      31.037  25.458  24.081  1.00  0.00     0.313 C 
ATOM     84  C   UNL A   1      31.220  23.996  23.678  1.00  0.00     0.199 C 
ATOM     85  N   UNL A   1      29.899  25.580  25.017  1.00  0.00    -0.332 N 
ATOM     86  N   UNL A   1      31.308  23.126  24.856  1.00  0.00    -0.312 N 
ATOM     87  C   UNL A   1      30.104  24.789  26.226  1.00  0.00     0.283 C 
ATOM     88  H   UNL A   1      29.051  25.257  24.552  1.00  0.00     0.347 HD
ATOM     89  H   UNL A   1      29.815  26.560  25.290  1.00  0.00     0.347 HD
ATOM     90  C   UNL A   1      30.304  23.297  25.910  1.00  0.00     0.183 C 
BRANCH  86  91
ATOM     91  C   UNL A   1      32.504  22.603  25.167  1.00  0.00     0.324 A 
ATOM     92  N   UNL A   1      33.673  23.188  25.243  1.00  0.00    -0.171 NA
ATOM     93  O   UNL A   1      32.565  21.249  25.330  1.00  0.00    -0.315 OA
ATOM     94  C   UNL A   1      34.513  22.128  25.452  1.00  0.00     0.204 A 
ATOM     95  N   UNL A   1      33.911  20.929  25.490  1.00  0.00    -0.055 NA
BRANCH  94  96
ATOM     96  C   UNL A   1      35.936  22.282  25.636  1.00  0.00     0.023 A 
ATOM     97  C   UNL A   1      36.460  23.515  26.042  1.00  0.00     0.012 A 
ATOM     98  C   UNL A   1      36.798  21.221  25.336  1.00  0.00     0.012 A 
ATOM     99  C   UNL A   1      37.842  23.696  26.110  1.00  0.00     0.001 A 
ATOM    100  C   UNL A   1      38.179  21.408  25.398  1.00  0.00     0.001 A 
ATOM    101  C   UNL A   1      38.698  22.648  25.773  1.00  0.00     0.000 A 
ENDBRANCH  94  96
ENDBRANCH  86  91
ENDBRANCH  81  83
ENDBRANCH  80  81
ENDBRANCH  79  80
ENDBRANCH  78  79
ENDBRANCH  77  78
ENDBRANCH  76  77
ENDBRANCH  75  76
ENDBRANCH  74  75
ENDBRANCH   1  74
TORSDOF 25
ENDMDL
MODEL 3
REMARK VINA RESULT:      -7.8      5.132     10.122
REMARK SMILES O=C(OCCOCCOCCOCCOC(=O)[C@@H]1CN(c2nc(-c3ccccc3)no2)CC[NH2+]1)c1ccc(-c2c3nc(c(-c4cccc(S(=O)(=O)[O-])c4F)c4ccc([nH]4)c(-c4cccc(S(=O)(=O)[O-])c4F)c4nc(c(-c5cccc(S(=O)(=O)[O-])c5F)c5ccc2[nH]5)C=C4)C=C3)cc1
REMARK SMILES IDX 8 1 7 2 6 3 5 4 4 5 3 6 2 7 1 8 35 9 36 10 97 11 37 12 96 13
REMARK SMILES IDX 38 14 39 15 40 16 90 17 41 18 95 19 89 20 91 21 42 22 94 23
REMARK SMILES IDX 88 24 87 25 43 27 75 28 55 29 74 30 56 31 59 32 73 33 92 34
REMARK SMILES IDX 57 35 58 36 72 38 93 39 60 40 44 41 45 42 53 43 46 44 48 45
REMARK SMILES IDX 54 46 47 47 49 48 50 49 51 50 52 51 76 52 77 53 85 54 78 55
REMARK SMILES IDX 80 56 86 57 79 58 81 59 82 60 83 61 84 62 61 63 62 64 70 65
REMARK SMILES IDX 63 66 65 67 71 68 64 69 66 70 67 71 68 72 69 73 9 74 10 75
REMARK SMILES IDX 11 76 12 77 13 78 14 79 15 80 16 81 17 82 18 83 19 84 34 85
REMARK SMILES IDX 20 86 33 87 32 90 21 91 22 92 31 93 23 94 30 95 24 96 25 97
REMARK SMILES IDX 29 98 26 99 28 100 27 101
REMARK H PARENT 91 26 59 37 34 88 34 89
REMARK Flexibility Score: inf
ROOT
ATOM      1  C   UNL A   1      33.635  29.061  25.709  1.00  0.00     0.188 C 
ENDROOT
BRANCH   1   2
ATOM      2  C   UNL A   1      33.102  29.498  27.062  1.00  0.00     0.188 C 
BRANCH   2   3
ATOM      3  O   UNL A   1      32.721  30.858  26.982  1.00  0.00    -0.376 OA
BRANCH   3   4
ATOM      4  C   UNL A   1      33.501  31.880  27.562  1.00  0.00     0.202 C 
BRANCH   4   5
ATOM      5  C   UNL A   1      32.872  33.256  27.727  1.00  0.00     0.261 C 
BRANCH   5   6
ATOM      6  O   UNL A   1      33.599  34.242  28.500  1.00  0.00    -0.460 OA
BRANCH   6   7
ATOM      7  C   UNL A   1      33.683  34.474  29.834  1.00  0.00     0.338 C 
ATOM      8  O   UNL A   1      32.853  35.194  30.381  1.00  0.00    -0.246 OA
BRANCH   7   9
ATOM      9  C   UNL A   1      34.746  33.860  30.654  1.00  0.00     0.060 A 
ATOM     10  C   UNL A   1      35.897  34.547  30.982  1.00  0.00     0.016 A 
ATOM     11  C   UNL A   1      34.563  32.602  31.224  1.00  0.00     0.016 A 
ATOM     12  C   UNL A   1      37.000  33.914  31.486  1.00  0.00     0.010 A 
ATOM     13  C   UNL A   1      35.599  32.021  31.967  1.00  0.00     0.010 A 
ATOM     14  C   UNL A   1      36.854  32.648  32.022  1.00  0.00    -0.014 A 
BRANCH  14  15
ATOM     15  C   UNL A   1      38.079  32.006  32.524  1.00  0.00     0.031 A 
ATOM     16  C   UNL A   1      38.768  31.027  31.627  1.00  0.00     0.074 A 
ATOM     17  C   UNL A   1      38.642  32.444  33.668  1.00  0.00     0.049 A 
ATOM     18  N   UNL A   1      39.815  30.291  31.866  1.00  0.00    -0.248 NA
ATOM     19  C   UNL A   1      38.211  30.860  30.270  1.00  0.00     0.031 C 
ATOM     20  C   UNL A   1      38.105  33.509  34.530  1.00  0.00     0.029 A 
ATOM     21  N   UNL A   1      39.809  32.087  34.287  1.00  0.00    -0.354 N 
ATOM     22  C   UNL A   1      39.997  29.526  30.724  1.00  0.00     0.074 A 
ATOM     23  C   UNL A   1      38.966  29.890  29.782  1.00  0.00     0.031 C 
ATOM     24  C   UNL A   1      38.956  33.738  35.541  1.00  0.00     0.029 A 
ATOM     25  C   UNL A   1      40.027  32.758  35.470  1.00  0.00     0.049 A 
ATOM     26  H   UNL A   1      40.431  31.417  33.923  1.00  0.00     0.167 HD
ATOM     27  C   UNL A   1      40.949  28.597  30.491  1.00  0.00     0.034 A 
ATOM     28  C   UNL A   1      40.954  32.548  36.422  1.00  0.00     0.034 A 
ATOM     29  C   UNL A   1      41.971  28.281  31.446  1.00  0.00     0.049 A 
ATOM     30  C   UNL A   1      41.946  31.447  36.174  1.00  0.00     0.074 A 
ATOM     31  C   UNL A   1      42.950  27.311  31.378  1.00  0.00     0.029 A 
ATOM     32  N   UNL A   1      42.140  28.946  32.654  1.00  0.00    -0.354 N 
ATOM     33  N   UNL A   1      42.085  30.688  35.112  1.00  0.00    -0.248 NA
ATOM     34  C   UNL A   1      42.911  31.176  37.243  1.00  0.00     0.031 C 
ATOM     35  C   UNL A   1      43.695  27.371  32.560  1.00  0.00     0.029 A 
ATOM     36  C   UNL A   1      43.208  28.407  33.344  1.00  0.00     0.049 A 
ATOM     37  H   UNL A   1      41.581  29.692  32.972  1.00  0.00     0.167 HD
ATOM     38  C   UNL A   1      43.166  29.861  35.375  1.00  0.00     0.074 A 
ATOM     39  C   UNL A   1      43.667  30.243  36.682  1.00  0.00     0.031 C 
ATOM     40  C   UNL A   1      43.689  28.858  34.626  1.00  0.00     0.034 A 
BRANCH  27  41
ATOM     41  C   UNL A   1      40.875  27.847  29.193  1.00  0.00     0.023 A 
ATOM     42  C   UNL A   1      39.997  26.754  29.049  1.00  0.00     0.012 A 
ATOM     43  C   UNL A   1      41.704  28.217  28.117  1.00  0.00     0.148 A 
ATOM     44  C   UNL A   1      39.968  26.021  27.862  1.00  0.00     0.002 A 
ATOM     45  C   UNL A   1      41.636  27.512  26.923  1.00  0.00     0.091 A 
ATOM     46  F   UNL A   1      42.556  29.237  28.291  1.00  0.00    -0.205 F 
ATOM     47  C   UNL A   1      40.781  26.405  26.798  1.00  0.00     0.022 A 
BRANCH  45  48
ATOM     48  S   UNL A   1      42.596  27.960  25.474  1.00  0.00     0.127 S 
ATOM     49  O   UNL A   1      43.895  28.277  26.065  1.00  0.00    -0.237 OA
ATOM     50  O   UNL A   1      42.561  26.726  24.695  1.00  0.00    -0.237 OA
ATOM     51  O   UNL A   1      41.904  29.093  24.865  1.00  0.00    -0.744 OA
ENDBRANCH  45  48
ENDBRANCH  27  41
BRANCH  28  52
ATOM     52  C   UNL A   1      40.939  33.326  37.695  1.00  0.00     0.023 A 
ATOM     53  C   UNL A   1      40.017  33.008  38.710  1.00  0.00     0.012 A 
ATOM     54  C   UNL A   1      41.831  34.401  37.899  1.00  0.00     0.148 A 
ATOM     55  C   UNL A   1      39.951  33.771  39.878  1.00  0.00     0.002 A 
ATOM     56  C   UNL A   1      41.804  35.116  39.090  1.00  0.00     0.091 A 
ATOM     57  F   UNL A   1      42.693  34.709  36.919  1.00  0.00    -0.205 F 
ATOM     58  C   UNL A   1      40.848  34.819  40.072  1.00  0.00     0.022 A 
BRANCH  56  59
ATOM     59  S   UNL A   1      43.011  36.393  39.468  1.00  0.00     0.127 S 
ATOM     60  O   UNL A   1      42.575  36.834  40.790  1.00  0.00    -0.237 OA
ATOM     61  O   UNL A   1      44.266  35.639  39.451  1.00  0.00    -0.237 OA
ATOM     62  O   UNL A   1      42.890  37.372  38.397  1.00  0.00    -0.744 OA
ENDBRANCH  56  59
ENDBRANCH  28  52
BRANCH  40  63
ATOM     63  C   UNL A   1      44.884  28.148  35.193  1.00  0.00     0.023 A 
ATOM     64  C   UNL A   1      46.180  28.636  34.935  1.00  0.00     0.012 A 
ATOM     65  C   UNL A   1      44.709  27.031  36.029  1.00  0.00     0.148 A 
ATOM     66  C   UNL A   1      47.291  27.990  35.470  1.00  0.00     0.002 A 
ATOM     67  C   UNL A   1      45.817  26.432  36.609  1.00  0.00     0.091 A 
ATOM     68  F   UNL A   1      43.465  26.577  36.242  1.00  0.00    -0.205 F 
ATOM     69  C   UNL A   1      47.109  26.899  36.317  1.00  0.00     0.022 A 
BRANCH  67  70
ATOM     70  S   UNL A   1      45.666  25.097  37.798  1.00  0.00     0.127 S 
ATOM     71  O   UNL A   1      47.065  24.733  38.014  1.00  0.00    -0.237 OA
ATOM     72  O   UNL A   1      45.026  25.765  38.931  1.00  0.00    -0.237 OA
ATOM     73  O   UNL A   1      44.846  24.080  37.156  1.00  0.00    -0.744 OA
ENDBRANCH  67  70
ENDBRANCH  40  63
ENDBRANCH  14  15
ENDBRANCH   7   9
ENDBRANCH   6   7
ENDBRANCH   5   6
ENDBRANCH   4   5
ENDBRANCH   3   4
ENDBRANCH   2   3
ENDBRANCH   1   2
BRANCH   1  74
ATOM     74  O   UNL A   1      32.661  29.099  24.676  1.00  0.00    -0.377 OA
BRANCH  74  75
ATOM     75  C   UNL A   1      31.418  28.414  24.874  1.00  0.00     0.188 C 
BRANCH  75  76
ATOM     76  C   UNL A   1      30.692  27.772  23.671  1.00  0.00     0.188 C 
BRANCH  76  77
ATOM     77  O   UNL A   1      31.090  26.446  23.396  1.00  0.00    -0.376 OA
BRANCH  77  78
ATOM     78  C   UNL A   1      32.125  26.203  22.451  1.00  0.00     0.202 C 
BRANCH  78  79
ATOM     79  C   UNL A   1      33.624  26.108  22.826  1.00  0.00     0.261 C 
BRANCH  79  80
ATOM     80  O   UNL A   1      34.083  24.849  23.340  1.00  0.00    -0.459 OA
BRANCH  80  81
ATOM     81  C   UNL A   1      34.088  24.698  24.693  1.00  0.00     0.366 C 
ATOM     82  O   UNL A   1      33.843  25.602  25.486  1.00  0.00    -0.245 OA
BRANCH  81  83
ATOM     83  C   UNL A   1      34.355  23.260  25.162  1.00  0.00     0.313 C 
ATOM     84  C   UNL A   1      35.294  22.589  24.162  1.00  0.00     0.199 C 
ATOM     85  N   UNL A   1      33.141  22.435  25.341  1.00  0.00    -0.332 N 
ATOM     86  N   UNL A   1      35.559  21.195  24.535  1.00  0.00    -0.312 N 
ATOM     87  C   UNL A   1      33.462  21.099  25.833  1.00  0.00     0.283 C 
ATOM     88  H   UNL A   1      32.663  22.349  24.444  1.00  0.00     0.347 HD
ATOM     89  H   UNL A   1      32.545  22.892  26.031  1.00  0.00     0.347 HD
ATOM     90  C   UNL A   1      34.414  20.350  24.885  1.00  0.00     0.183 C 
BRANCH  86  91
ATOM     91  C   UNL A   1      36.772  20.890  25.021  1.00  0.00     0.324 A 
ATOM     92  N   UNL A   1      37.653  21.665  25.601  1.00  0.00    -0.171 NA
ATOM     93  O   UNL A   1      37.228  19.622  24.800  1.00  0.00    -0.315 OA
ATOM     94  C   UNL A   1      38.728  20.829  25.735  1.00  0.00     0.204 A 
ATOM     95  N   UNL A   1      38.546  19.591  25.250  1.00  0.00    -0.055 NA
BRANCH  94  96
ATOM     96  C   UNL A   1      39.961  21.235  26.366  1.00  0.00     0.023 A 
ATOM     97  C   UNL A   1      41.068  20.378  26.360  1.00  0.00     0.012 A 
ATOM     98  C   UNL A   1      40.026  22.454  27.050  1.00  0.00     0.012 A 
ATOM     99  C   UNL A   1      42.220  20.722  27.066  1.00  0.00     0.001 A 
ATOM    100  C   UNL A   1      41.177  22.793  27.762  1.00  0.00     0.001 A 
ATOM    101  C   UNL A   1      42.267  21.921  27.778  1.00  0.00     0.000 A 
ENDBRANCH  94  96
ENDBRANCH  86  91
ENDBRANCH  81  83
ENDBRANCH  80  81
ENDBRANCH  79  80
ENDBRANCH  78  79
ENDBRANCH  77  78
ENDBRANCH  76  77
ENDBRANCH  75  76
ENDBRANCH  74  75
ENDBRANCH   1  74
TORSDOF 25
ENDMDL
