MODEL 1
REMARK VINA RESULT:      -9.9      0.000      0.000
REMARK SMILES O=C(OCCOCCOCCOCCOC(=O)c1nccnc1C(=O)Nc1ccc2c(c1)OCO2)c1ccc(-c2c3nc(c(-c4cccc(S(=O)(=O)[O-])c4F)c4ccc([nH]4)c(-c4cccc(S(=O)(=O)[O-])c4F)c4nc(c(-c5cccc(S(=O)(=O)[O-])c5F)c5ccc2[nH]5)C=C4)C=C3)cc1
REMARK SMILES IDX 8 1 7 2 6 3 5 4 4 5 3 6 2 7 1 8 36 9 37 10 98 11 38 12 97 13
REMARK SMILES IDX 39 14 40 15 41 16 91 17 42 18 96 19 90 20 92 21 43 22 95 23
REMARK SMILES IDX 89 24 88 25 44 27 76 28 56 29 75 30 57 31 60 32 74 33 93 34
REMARK SMILES IDX 58 35 59 36 73 38 94 39 61 40 45 41 46 42 54 43 47 44 49 45
REMARK SMILES IDX 55 46 48 47 50 48 51 49 52 50 53 51 77 52 78 53 86 54 79 55
REMARK SMILES IDX 81 56 87 57 80 58 82 59 83 60 84 61 85 62 62 63 63 64 71 65
REMARK SMILES IDX 64 66 66 67 72 68 65 69 67 70 68 71 69 72 70 73 9 74 10 75
REMARK SMILES IDX 11 76 12 77 13 78 14 79 15 80 16 81 17 82 18 83 19 84 23 85
REMARK SMILES IDX 20 86 22 87 21 88 24 89 25 90 26 91 27 93 28 94 32 95 29 96
REMARK SMILES IDX 31 97 30 98 33 99 35 100 34 101
REMARK H PARENT 92 26 60 37 26 92
REMARK Flexibility Score: inf
ROOT
ATOM      1  C   UNL A   1      39.306  22.982  26.496  1.00  0.00     0.188 C 
ENDROOT
BRANCH   1   2
ATOM      2  C   UNL A   1      40.105  21.768  26.962  1.00  0.00     0.188 C 
BRANCH   2   3
ATOM      3  O   UNL A   1      40.494  20.924  25.893  1.00  0.00    -0.376 OA
BRANCH   3   4
ATOM      4  C   UNL A   1      40.349  19.529  26.099  1.00  0.00     0.202 C 
BRANCH   4   5
ATOM      5  C   UNL A   1      41.694  18.934  26.515  1.00  0.00     0.261 C 
BRANCH   5   6
ATOM      6  O   UNL A   1      42.598  18.895  25.398  1.00  0.00    -0.460 OA
BRANCH   6   7
ATOM      7  C   UNL A   1      43.688  19.677  25.192  1.00  0.00     0.338 C 
ATOM      8  O   UNL A   1      44.681  19.161  24.681  1.00  0.00    -0.246 OA
BRANCH   7   9
ATOM      9  C   UNL A   1      43.729  21.152  25.460  1.00  0.00     0.060 A 
ATOM     10  C   UNL A   1      43.516  22.168  24.522  1.00  0.00     0.016 A 
ATOM     11  C   UNL A   1      43.917  21.532  26.800  1.00  0.00     0.016 A 
ATOM     12  C   UNL A   1      43.510  23.510  24.882  1.00  0.00     0.010 A 
ATOM     13  C   UNL A   1      43.928  22.878  27.172  1.00  0.00     0.010 A 
ATOM     14  C   UNL A   1      43.743  23.870  26.203  1.00  0.00    -0.014 A 
BRANCH  14  15
ATOM     15  C   UNL A   1      43.996  25.289  26.496  1.00  0.00     0.031 A 
ATOM     16  C   UNL A   1      45.370  25.813  26.211  1.00  0.00     0.074 A 
ATOM     17  C   UNL A   1      43.001  26.088  26.916  1.00  0.00     0.049 A 
ATOM     18  N   UNL A   1      45.878  26.983  26.471  1.00  0.00    -0.248 NA
ATOM     19  C   UNL A   1      46.295  24.890  25.523  1.00  0.00     0.031 C 
ATOM     20  C   UNL A   1      41.607  25.678  27.104  1.00  0.00     0.029 A 
ATOM     21  N   UNL A   1      43.012  27.411  27.271  1.00  0.00    -0.354 N 
ATOM     22  C   UNL A   1      47.200  26.915  26.047  1.00  0.00     0.074 A 
ATOM     23  C   UNL A   1      47.408  25.606  25.475  1.00  0.00     0.031 C 
ATOM     24  C   UNL A   1      40.904  26.723  27.571  1.00  0.00     0.029 A 
ATOM     25  C   UNL A   1      41.810  27.848  27.777  1.00  0.00     0.049 A 
ATOM     26  H   UNL A   1      43.802  27.991  27.173  1.00  0.00     0.167 HD
ATOM     27  C   UNL A   1      48.154  27.864  26.150  1.00  0.00     0.034 A 
ATOM     28  C   UNL A   1      41.511  29.009  28.392  1.00  0.00     0.034 A 
ATOM     29  C   UNL A   1      47.908  29.161  26.711  1.00  0.00     0.049 A 
ATOM     30  C   UNL A   1      42.614  30.026  28.547  1.00  0.00     0.074 A 
ATOM     31  C   UNL A   1      48.791  30.208  26.882  1.00  0.00     0.029 A 
ATOM     32  N   UNL A   1      46.682  29.576  27.210  1.00  0.00    -0.354 N 
ATOM     33  N   UNL A   1      43.853  29.974  28.113  1.00  0.00    -0.248 NA
ATOM     34  C   UNL A   1      42.282  31.263  29.266  1.00  0.00     0.031 C 
ATOM     35  C   UNL A   1      48.107  31.245  27.521  1.00  0.00     0.029 A 
ATOM     36  C   UNL A   1      46.786  30.858  27.709  1.00  0.00     0.049 A 
ATOM     37  H   UNL A   1      45.859  29.035  27.208  1.00  0.00     0.167 HD
ATOM     38  C   UNL A   1      44.439  31.178  28.483  1.00  0.00     0.074 A 
ATOM     39  C   UNL A   1      43.409  31.952  29.148  1.00  0.00     0.031 C 
ATOM     40  C   UNL A   1      45.715  31.606  28.315  1.00  0.00     0.034 A 
BRANCH  27  41
ATOM     41  C   UNL A   1      49.544  27.512  25.703  1.00  0.00     0.023 A 
ATOM     42  C   UNL A   1      50.510  27.086  26.635  1.00  0.00     0.012 A 
ATOM     43  C   UNL A   1      49.881  27.583  24.338  1.00  0.00     0.148 A 
ATOM     44  C   UNL A   1      51.800  26.756  26.216  1.00  0.00     0.002 A 
ATOM     45  C   UNL A   1      51.152  27.211  23.922  1.00  0.00     0.091 A 
ATOM     46  F   UNL A   1      48.953  28.020  23.475  1.00  0.00    -0.205 F 
ATOM     47  C   UNL A   1      52.117  26.809  24.860  1.00  0.00     0.022 A 
BRANCH  45  48
ATOM     48  S   UNL A   1      51.638  27.183  22.194  1.00  0.00     0.127 S 
ATOM     49  O   UNL A   1      50.437  26.642  21.557  1.00  0.00    -0.237 OA
ATOM     50  O   UNL A   1      51.886  28.600  21.927  1.00  0.00    -0.237 OA
ATOM     51  O   UNL A   1      52.814  26.327  22.116  1.00  0.00    -0.744 OA
ENDBRANCH  45  48
ENDBRANCH  27  41
BRANCH  28  52
ATOM     52  C   UNL A   1      40.147  29.257  28.944  1.00  0.00     0.023 A 
ATOM     53  C   UNL A   1      39.116  29.709  28.097  1.00  0.00     0.012 A 
ATOM     54  C   UNL A   1      39.868  29.074  30.315  1.00  0.00     0.148 A 
ATOM     55  C   UNL A   1      37.853  30.017  28.608  1.00  0.00     0.002 A 
ATOM     56  C   UNL A   1      38.591  29.319  30.806  1.00  0.00     0.091 A 
ATOM     57  F   UNL A   1      40.861  28.668  31.118  1.00  0.00    -0.205 F 
ATOM     58  C   UNL A   1      37.588  29.815  29.960  1.00  0.00     0.022 A 
BRANCH  56  59
ATOM     59  S   UNL A   1      38.121  28.943  32.497  1.00  0.00     0.127 S 
ATOM     60  O   UNL A   1      39.011  29.811  33.259  1.00  0.00    -0.237 OA
ATOM     61  O   UNL A   1      36.710  29.335  32.510  1.00  0.00    -0.237 OA
ATOM     62  O   UNL A   1      38.339  27.508  32.654  1.00  0.00    -0.744 OA
ENDBRANCH  56  59
ENDBRANCH  28  52
BRANCH  40  63
ATOM     63  C   UNL A   1      46.053  32.981  28.820  1.00  0.00     0.023 A 
ATOM     64  C   UNL A   1      46.597  33.141  30.108  1.00  0.00     0.012 A 
ATOM     65  C   UNL A   1      45.917  34.099  27.975  1.00  0.00     0.148 A 
ATOM     66  C   UNL A   1      46.974  34.404  30.561  1.00  0.00     0.002 A 
ATOM     67  C   UNL A   1      46.348  35.343  28.410  1.00  0.00     0.091 A 
ATOM     68  F   UNL A   1      45.381  33.920  26.759  1.00  0.00    -0.205 F 
ATOM     69  C   UNL A   1      46.864  35.501  29.709  1.00  0.00     0.022 A 
BRANCH  67  70
ATOM     70  S   UNL A   1      46.349  36.786  27.342  1.00  0.00     0.127 S 
ATOM     71  O   UNL A   1      45.030  36.693  26.717  1.00  0.00    -0.237 OA
ATOM     72  O   UNL A   1      46.495  37.880  28.303  1.00  0.00    -0.237 OA
ATOM     73  O   UNL A   1      47.480  36.618  26.439  1.00  0.00    -0.744 OA
ENDBRANCH  67  70
ENDBRANCH  40  63
ENDBRANCH  14  15
ENDBRANCH   7   9
ENDBRANCH   6   7
ENDBRANCH   5   6
ENDBRANCH   4   5
ENDBRANCH   3   4
ENDBRANCH   2   3
ENDBRANCH   1   2
BRANCH   1  74
ATOM     74  O   UNL A   1      37.905  22.831  26.315  1.00  0.00    -0.377 OA
BRANCH  74  75
ATOM     75  C   UNL A   1      37.422  22.192  25.136  1.00  0.00     0.188 C 
BRANCH  75  76
ATOM     76  C   UNL A   1      36.529  22.912  24.107  1.00  0.00     0.188 C 
BRANCH  76  77
ATOM     77  O   UNL A   1      35.145  22.967  24.420  1.00  0.00    -0.376 OA
BRANCH  77  78
ATOM     78  C   UNL A   1      34.794  24.005  25.336  1.00  0.00     0.202 C 
BRANCH  78  79
ATOM     79  C   UNL A   1      34.382  25.299  24.638  1.00  0.00     0.261 C 
BRANCH  79  80
ATOM     80  O   UNL A   1      34.014  25.055  23.263  1.00  0.00    -0.458 OA
BRANCH  80  81
ATOM     81  C   UNL A   1      33.540  26.153  22.636  1.00  0.00     0.359 C 
ATOM     82  O   UNL A   1      33.646  26.339  21.430  1.00  0.00    -0.244 OA
BRANCH  81  83
ATOM     83  C   UNL A   1      32.885  27.173  23.525  1.00  0.00     0.179 A 
ATOM     84  N   UNL A   1      33.850  28.035  24.016  1.00  0.00    -0.245 NA
ATOM     85  C   UNL A   1      31.546  27.351  23.881  1.00  0.00     0.161 A 
ATOM     86  C   UNL A   1      33.479  28.982  24.896  1.00  0.00     0.132 A 
ATOM     87  N   UNL A   1      31.199  28.370  24.752  1.00  0.00    -0.247 NA
ATOM     88  C   UNL A   1      32.172  29.143  25.266  1.00  0.00     0.132 A 
BRANCH  85  89
ATOM     89  C   UNL A   1      30.330  26.508  23.658  1.00  0.00     0.276 C 
ATOM     90  O   UNL A   1      29.317  27.104  23.251  1.00  0.00    -0.267 OA
ATOM     91  N   UNL A   1      30.142  25.164  23.830  1.00  0.00    -0.320 N 
ATOM     92  H   UNL A   1      29.260  24.875  23.505  1.00  0.00     0.170 HD
BRANCH  91  93
ATOM     93  C   UNL A   1      30.876  24.098  24.344  1.00  0.00     0.045 A 
ATOM     94  C   UNL A   1      31.021  23.823  25.706  1.00  0.00     0.030 A 
ATOM     95  C   UNL A   1      31.377  23.198  23.389  1.00  0.00     0.076 A 
ATOM     96  C   UNL A   1      31.449  22.557  26.123  1.00  0.00     0.053 A 
ATOM     97  C   UNL A   1      31.835  21.978  23.829  1.00  0.00     0.167 A 
ATOM     98  C   UNL A   1      31.827  21.648  25.159  1.00  0.00     0.165 A 
ATOM     99  O   UNL A   1      32.257  20.959  23.038  1.00  0.00    -0.454 OA
ATOM    100  O   UNL A   1      32.205  20.363  25.374  1.00  0.00    -0.454 OA
ATOM    101  C   UNL A   1      32.529  19.940  24.026  1.00  0.00     0.468 C 
ENDBRANCH  91  93
ENDBRANCH  85  89
ENDBRANCH  81  83
ENDBRANCH  80  81
ENDBRANCH  79  80
ENDBRANCH  78  79
ENDBRANCH  77  78
ENDBRANCH  76  77
ENDBRANCH  75  76
ENDBRANCH  74  75
ENDBRANCH   1  74
TORSDOF 25
ENDMDL
MODEL 2
REMARK VINA RESULT:      -9.9      3.751      4.983
REMARK SMILES O=C(OCCOCCOCCOCCOC(=O)c1nccnc1C(=O)Nc1ccc2c(c1)OCO2)c1ccc(-c2c3nc(c(-c4cccc(S(=O)(=O)[O-])c4F)c4ccc([nH]4)c(-c4cccc(S(=O)(=O)[O-])c4F)c4nc(c(-c5cccc(S(=O)(=O)[O-])c5F)c5ccc2[nH]5)C=C4)C=C3)cc1
REMARK SMILES IDX 8 1 7 2 6 3 5 4 4 5 3 6 2 7 1 8 36 9 37 10 98 11 38 12 97 13
REMARK SMILES IDX 39 14 40 15 41 16 91 17 42 18 96 19 90 20 92 21 43 22 95 23
REMARK SMILES IDX 89 24 88 25 44 27 76 28 56 29 75 30 57 31 60 32 74 33 93 34
REMARK SMILES IDX 58 35 59 36 73 38 94 39 61 40 45 41 46 42 54 43 47 44 49 45
REMARK SMILES IDX 55 46 48 47 50 48 51 49 52 50 53 51 77 52 78 53 86 54 79 55
REMARK SMILES IDX 81 56 87 57 80 58 82 59 83 60 84 61 85 62 62 63 63 64 71 65
REMARK SMILES IDX 64 66 66 67 72 68 65 69 67 70 68 71 69 72 70 73 9 74 10 75
REMARK SMILES IDX 11 76 12 77 13 78 14 79 15 80 16 81 17 82 18 83 19 84 23 85
REMARK SMILES IDX 20 86 22 87 21 88 24 89 25 90 26 91 27 93 28 94 32 95 29 96
REMARK SMILES IDX 31 97 30 98 33 99 35 100 34 101
REMARK H PARENT 92 26 60 37 26 92
REMARK Flexibility Score: inf
ROOT
ATOM      1  C   UNL A   1      35.146  23.984  25.017  1.00  0.00     0.188 C 
ENDROOT
BRANCH   1   2
ATOM      2  C   UNL A   1      35.158  22.703  24.188  1.00  0.00     0.188 C 
BRANCH   2   3
ATOM      3  O   UNL A   1      35.960  21.686  24.763  1.00  0.00    -0.376 OA
BRANCH   3   4
ATOM      4  C   UNL A   1      37.251  21.503  24.207  1.00  0.00     0.202 C 
BRANCH   4   5
ATOM      5  C   UNL A   1      38.241  21.162  25.319  1.00  0.00     0.261 C 
BRANCH   5   6
ATOM      6  O   UNL A   1      38.572  22.336  26.080  1.00  0.00    -0.460 OA
BRANCH   6   7
ATOM      7  C   UNL A   1      39.669  22.533  26.856  1.00  0.00     0.338 C 
ATOM      8  O   UNL A   1      40.328  21.547  27.186  1.00  0.00    -0.246 OA
BRANCH   7   9
ATOM      9  C   UNL A   1      40.182  23.882  27.261  1.00  0.00     0.060 A 
ATOM     10  C   UNL A   1      41.022  24.155  28.346  1.00  0.00     0.016 A 
ATOM     11  C   UNL A   1      39.847  24.951  26.412  1.00  0.00     0.016 A 
ATOM     12  C   UNL A   1      41.499  25.435  28.601  1.00  0.00     0.010 A 
ATOM     13  C   UNL A   1      40.308  26.245  26.667  1.00  0.00     0.010 A 
ATOM     14  C   UNL A   1      41.121  26.488  27.779  1.00  0.00    -0.014 A 
BRANCH  14  15
ATOM     15  C   UNL A   1      41.420  27.856  28.228  1.00  0.00     0.031 A 
ATOM     16  C   UNL A   1      42.852  28.294  28.181  1.00  0.00     0.074 A 
ATOM     17  C   UNL A   1      40.429  28.693  28.578  1.00  0.00     0.049 A 
ATOM     18  N   UNL A   1      43.392  29.398  28.610  1.00  0.00    -0.248 NA
ATOM     19  C   UNL A   1      43.804  27.362  27.546  1.00  0.00     0.031 C 
ATOM     20  C   UNL A   1      39.000  28.377  28.537  1.00  0.00     0.029 A 
ATOM     21  N   UNL A   1      40.475  29.979  29.047  1.00  0.00    -0.354 N 
ATOM     22  C   UNL A   1      44.754  29.263  28.366  1.00  0.00     0.074 A 
ATOM     23  C   UNL A   1      44.956  27.992  27.714  1.00  0.00     0.031 C 
ATOM     24  C   UNL A   1      38.305  29.432  28.995  1.00  0.00     0.029 A 
ATOM     25  C   UNL A   1      39.244  30.465  29.422  1.00  0.00     0.049 A 
ATOM     26  H   UNL A   1      41.306  30.503  29.110  1.00  0.00     0.167 HD
ATOM     27  C   UNL A   1      45.743  30.127  28.682  1.00  0.00     0.034 A 
ATOM     28  C   UNL A   1      38.936  31.593  30.090  1.00  0.00     0.034 A 
ATOM     29  C   UNL A   1      45.503  31.390  29.317  1.00  0.00     0.049 A 
ATOM     30  C   UNL A   1      40.069  32.508  30.484  1.00  0.00     0.074 A 
ATOM     31  C   UNL A   1      46.419  32.350  29.699  1.00  0.00     0.029 A 
ATOM     32  N   UNL A   1      44.248  31.857  29.679  1.00  0.00    -0.354 N 
ATOM     33  N   UNL A   1      41.350  32.396  30.219  1.00  0.00    -0.248 NA
ATOM     34  C   UNL A   1      39.718  33.706  31.258  1.00  0.00     0.031 C 
ATOM     35  C   UNL A   1      45.718  33.383  30.328  1.00  0.00     0.029 A 
ATOM     36  C   UNL A   1      44.362  33.084  30.300  1.00  0.00     0.049 A 
ATOM     37  H   UNL A   1      43.400  31.382  29.517  1.00  0.00     0.167 HD
ATOM     38  C   UNL A   1      41.954  33.520  30.772  1.00  0.00     0.074 A 
ATOM     39  C   UNL A   1      40.892  34.315  31.356  1.00  0.00     0.031 C 
ATOM     40  C   UNL A   1      43.266  33.861  30.818  1.00  0.00     0.034 A 
BRANCH  27  41
ATOM     41  C   UNL A   1      47.156  29.706  28.399  1.00  0.00     0.023 A 
ATOM     42  C   UNL A   1      47.793  30.088  27.203  1.00  0.00     0.012 A 
ATOM     43  C   UNL A   1      47.863  28.942  29.348  1.00  0.00     0.148 A 
ATOM     44  C   UNL A   1      49.108  29.698  26.946  1.00  0.00     0.002 A 
ATOM     45  C   UNL A   1      49.185  28.594  29.105  1.00  0.00     0.091 A 
ATOM     46  F   UNL A   1      47.226  28.564  30.465  1.00  0.00    -0.205 F 
ATOM     47  C   UNL A   1      49.805  28.961  27.900  1.00  0.00     0.022 A 
BRANCH  45  48
ATOM     48  S   UNL A   1      50.188  27.703  30.297  1.00  0.00     0.127 S 
ATOM     49  O   UNL A   1      51.506  27.739  29.662  1.00  0.00    -0.237 OA
ATOM     50  O   UNL A   1      50.060  28.543  31.488  1.00  0.00    -0.237 OA
ATOM     51  O   UNL A   1      49.598  26.376  30.414  1.00  0.00    -0.744 OA
ENDBRANCH  45  48
ENDBRANCH  27  41
BRANCH  28  52
ATOM     52  C   UNL A   1      37.526  31.900  30.471  1.00  0.00     0.023 A 
ATOM     53  C   UNL A   1      37.035  31.506  31.732  1.00  0.00     0.012 A 
ATOM     54  C   UNL A   1      36.655  32.561  29.580  1.00  0.00     0.148 A 
ATOM     55  C   UNL A   1      35.698  31.719  32.077  1.00  0.00     0.002 A 
ATOM     56  C   UNL A   1      35.344  32.829  29.956  1.00  0.00     0.091 A 
ATOM     57  F   UNL A   1      37.123  32.911  28.374  1.00  0.00    -0.205 F 
ATOM     58  C   UNL A   1      34.855  32.386  31.194  1.00  0.00     0.022 A 
BRANCH  56  59
ATOM     59  S   UNL A   1      34.234  33.815  28.945  1.00  0.00     0.127 S 
ATOM     60  O   UNL A   1      33.263  34.280  29.928  1.00  0.00    -0.237 OA
ATOM     61  O   UNL A   1      35.136  34.845  28.427  1.00  0.00    -0.237 OA
ATOM     62  O   UNL A   1      33.724  32.905  27.924  1.00  0.00    -0.744 OA
ENDBRANCH  56  59
ENDBRANCH  28  52
BRANCH  40  63
ATOM     63  C   UNL A   1      43.616  35.163  31.484  1.00  0.00     0.023 A 
ATOM     64  C   UNL A   1      43.762  36.329  30.709  1.00  0.00     0.012 A 
ATOM     65  C   UNL A   1      43.704  35.239  32.886  1.00  0.00     0.148 A 
ATOM     66  C   UNL A   1      44.022  37.553  31.322  1.00  0.00     0.002 A 
ATOM     67  C   UNL A   1      43.906  36.470  33.493  1.00  0.00     0.091 A 
ATOM     68  F   UNL A   1      43.577  34.111  33.598  1.00  0.00    -0.205 F 
ATOM     69  C   UNL A   1      44.080  37.626  32.712  1.00  0.00     0.022 A 
BRANCH  67  70
ATOM     70  S   UNL A   1      43.880  36.676  35.276  1.00  0.00     0.127 S 
ATOM     71  O   UNL A   1      44.249  38.084  35.418  1.00  0.00    -0.237 OA
ATOM     72  O   UNL A   1      42.486  36.374  35.601  1.00  0.00    -0.237 OA
ATOM     73  O   UNL A   1      44.845  35.722  35.806  1.00  0.00    -0.744 OA
ENDBRANCH  67  70
ENDBRANCH  40  63
ENDBRANCH  14  15
ENDBRANCH   7   9
ENDBRANCH   6   7
ENDBRANCH   5   6
ENDBRANCH   4   5
ENDBRANCH   3   4
ENDBRANCH   2   3
ENDBRANCH   1   2
BRANCH   1  74
ATOM     74  O   UNL A   1      34.460  25.113  24.494  1.00  0.00    -0.377 OA
BRANCH  74  75
ATOM     75  C   UNL A   1      34.343  26.286  25.296  1.00  0.00     0.188 C 
BRANCH  75  76
ATOM     76  C   UNL A   1      33.290  26.427  26.412  1.00  0.00     0.188 C 
BRANCH  76  77
ATOM     77  O   UNL A   1      33.192  27.711  27.011  1.00  0.00    -0.376 OA
BRANCH  77  78
ATOM     78  C   UNL A   1      31.852  28.162  27.209  1.00  0.00     0.202 C 
BRANCH  78  79
ATOM     79  C   UNL A   1      31.663  29.638  26.866  1.00  0.00     0.261 C 
BRANCH  79  80
ATOM     80  O   UNL A   1      32.255  29.954  25.587  1.00  0.00    -0.458 OA
BRANCH  80  81
ATOM     81  C   UNL A   1      31.465  29.628  24.540  1.00  0.00     0.359 C 
ATOM     82  O   UNL A   1      30.357  30.117  24.355  1.00  0.00    -0.244 OA
BRANCH  81  83
ATOM     83  C   UNL A   1      32.021  28.585  23.611  1.00  0.00     0.179 A 
ATOM     84  N   UNL A   1      33.220  29.036  23.087  1.00  0.00    -0.245 NA
ATOM     85  C   UNL A   1      31.531  27.329  23.247  1.00  0.00     0.161 A 
ATOM     86  C   UNL A   1      33.847  28.278  22.170  1.00  0.00     0.132 A 
ATOM     87  N   UNL A   1      32.233  26.558  22.336  1.00  0.00    -0.247 NA
ATOM     88  C   UNL A   1      33.356  27.058  21.793  1.00  0.00     0.132 A 
BRANCH  85  89
ATOM     89  C   UNL A   1      30.220  26.654  23.502  1.00  0.00     0.276 C 
ATOM     90  O   UNL A   1      29.202  27.329  23.271  1.00  0.00    -0.267 OA
ATOM     91  N   UNL A   1      29.949  25.392  23.957  1.00  0.00    -0.320 N 
ATOM     92  H   UNL A   1      28.985  25.194  23.930  1.00  0.00     0.170 HD
BRANCH  91  93
ATOM     93  C   UNL A   1      30.682  24.315  24.448  1.00  0.00     0.045 A 
ATOM     94  C   UNL A   1      30.789  23.983  25.801  1.00  0.00     0.030 A 
ATOM     95  C   UNL A   1      31.224  23.464  23.471  1.00  0.00     0.076 A 
ATOM     96  C   UNL A   1      31.223  22.706  26.177  1.00  0.00     0.053 A 
ATOM     97  C   UNL A   1      31.685  22.232  23.872  1.00  0.00     0.167 A 
ATOM     98  C   UNL A   1      31.642  21.845  25.186  1.00  0.00     0.165 A 
ATOM     99  O   UNL A   1      32.146  21.253  23.052  1.00  0.00    -0.454 OA
ATOM    100  O   UNL A   1      32.032  20.556  25.358  1.00  0.00    -0.454 OA
ATOM    101  C   UNL A   1      32.402  20.196  24.003  1.00  0.00     0.468 C 
ENDBRANCH  91  93
ENDBRANCH  85  89
ENDBRANCH  81  83
ENDBRANCH  80  81
ENDBRANCH  79  80
ENDBRANCH  78  79
ENDBRANCH  77  78
ENDBRANCH  76  77
ENDBRANCH  75  76
ENDBRANCH  74  75
ENDBRANCH   1  74
TORSDOF 25
ENDMDL
MODEL 3
REMARK VINA RESULT:      -9.6      3.352      4.617
REMARK SMILES O=C(OCCOCCOCCOCCOC(=O)c1nccnc1C(=O)Nc1ccc2c(c1)OCO2)c1ccc(-c2c3nc(c(-c4cccc(S(=O)(=O)[O-])c4F)c4ccc([nH]4)c(-c4cccc(S(=O)(=O)[O-])c4F)c4nc(c(-c5cccc(S(=O)(=O)[O-])c5F)c5ccc2[nH]5)C=C4)C=C3)cc1
REMARK SMILES IDX 8 1 7 2 6 3 5 4 4 5 3 6 2 7 1 8 36 9 37 10 98 11 38 12 97 13
REMARK SMILES IDX 39 14 40 15 41 16 91 17 42 18 96 19 90 20 92 21 43 22 95 23
REMARK SMILES IDX 89 24 88 25 44 27 76 28 56 29 75 30 57 31 60 32 74 33 93 34
REMARK SMILES IDX 58 35 59 36 73 38 94 39 61 40 45 41 46 42 54 43 47 44 49 45
REMARK SMILES IDX 55 46 48 47 50 48 51 49 52 50 53 51 77 52 78 53 86 54 79 55
REMARK SMILES IDX 81 56 87 57 80 58 82 59 83 60 84 61 85 62 62 63 63 64 71 65
REMARK SMILES IDX 64 66 66 67 72 68 65 69 67 70 68 71 69 72 70 73 9 74 10 75
REMARK SMILES IDX 11 76 12 77 13 78 14 79 15 80 16 81 17 82 18 83 19 84 23 85
REMARK SMILES IDX 20 86 22 87 21 88 24 89 25 90 26 91 27 93 28 94 32 95 29 96
REMARK SMILES IDX 31 97 30 98 33 99 35 100 34 101
REMARK H PARENT 92 26 60 37 26 92
REMARK Flexibility Score: inf
ROOT
ATOM      1  C   UNL A   1      35.118  23.780  24.932  1.00  0.00     0.188 C 
ENDROOT
BRANCH   1   2
ATOM      2  C   UNL A   1      35.160  22.480  24.135  1.00  0.00     0.188 C 
BRANCH   2   3
ATOM      3  O   UNL A   1      35.994  21.499  24.727  1.00  0.00    -0.376 OA
BRANCH   3   4
ATOM      4  C   UNL A   1      37.286  21.343  24.168  1.00  0.00     0.202 C 
BRANCH   4   5
ATOM      5  C   UNL A   1      38.264  20.908  25.259  1.00  0.00     0.261 C 
BRANCH   5   6
ATOM      6  O   UNL A   1      38.577  22.011  26.127  1.00  0.00    -0.460 OA
BRANCH   6   7
ATOM      7  C   UNL A   1      39.728  22.215  26.818  1.00  0.00     0.338 C 
ATOM      8  O   UNL A   1      40.427  21.236  27.079  1.00  0.00    -0.246 OA
BRANCH   7   9
ATOM      9  C   UNL A   1      40.251  23.567  27.202  1.00  0.00     0.060 A 
ATOM     10  C   UNL A   1      41.148  23.842  28.240  1.00  0.00     0.016 A 
ATOM     11  C   UNL A   1      39.857  24.638  26.380  1.00  0.00     0.016 A 
ATOM     12  C   UNL A   1      41.626  25.125  28.476  1.00  0.00     0.010 A 
ATOM     13  C   UNL A   1      40.319  25.934  26.617  1.00  0.00     0.010 A 
ATOM     14  C   UNL A   1      41.192  26.179  27.683  1.00  0.00    -0.014 A 
BRANCH  14  15
ATOM     15  C   UNL A   1      41.502  27.547  28.125  1.00  0.00     0.031 A 
ATOM     16  C   UNL A   1      42.941  27.965  28.099  1.00  0.00     0.074 A 
ATOM     17  C   UNL A   1      40.517  28.401  28.448  1.00  0.00     0.049 A 
ATOM     18  N   UNL A   1      43.489  29.065  28.527  1.00  0.00    -0.248 NA
ATOM     19  C   UNL A   1      43.891  27.012  27.491  1.00  0.00     0.031 C 
ATOM     20  C   UNL A   1      39.085  28.106  28.384  1.00  0.00     0.029 A 
ATOM     21  N   UNL A   1      40.573  29.692  28.905  1.00  0.00    -0.354 N 
ATOM     22  C   UNL A   1      44.853  28.908  28.309  1.00  0.00     0.074 A 
ATOM     23  C   UNL A   1      45.049  27.628  27.673  1.00  0.00     0.031 C 
ATOM     24  C   UNL A   1      38.397  29.175  28.819  1.00  0.00     0.029 A 
ATOM     25  C   UNL A   1      39.343  30.199  29.253  1.00  0.00     0.049 A 
ATOM     26  H   UNL A   1      41.411  30.204  28.978  1.00  0.00     0.167 HD
ATOM     27  C   UNL A   1      45.848  29.760  28.634  1.00  0.00     0.034 A 
ATOM     28  C   UNL A   1      39.039  31.338  29.904  1.00  0.00     0.034 A 
ATOM     29  C   UNL A   1      45.615  31.033  29.252  1.00  0.00     0.049 A 
ATOM     30  C   UNL A   1      40.178  32.241  30.309  1.00  0.00     0.074 A 
ATOM     31  C   UNL A   1      46.538  31.984  29.641  1.00  0.00     0.029 A 
ATOM     32  N   UNL A   1      44.361  31.522  29.587  1.00  0.00    -0.354 N 
ATOM     33  N   UNL A   1      41.462  32.108  30.069  1.00  0.00    -0.248 NA
ATOM     34  C   UNL A   1      39.831  33.451  31.064  1.00  0.00     0.031 C 
ATOM     35  C   UNL A   1      45.841  33.033  30.247  1.00  0.00     0.029 A 
ATOM     36  C   UNL A   1      44.482  32.753  30.197  1.00  0.00     0.049 A 
ATOM     37  H   UNL A   1      43.510  31.057  29.414  1.00  0.00     0.167 HD
ATOM     38  C   UNL A   1      42.072  33.228  30.621  1.00  0.00     0.074 A 
ATOM     39  C   UNL A   1      41.012  34.044  31.178  1.00  0.00     0.031 C 
ATOM     40  C   UNL A   1      43.388  33.551  30.688  1.00  0.00     0.034 A 
BRANCH  27  41
ATOM     41  C   UNL A   1      47.260  29.316  28.381  1.00  0.00     0.023 A 
ATOM     42  C   UNL A   1      47.908  29.639  27.173  1.00  0.00     0.012 A 
ATOM     43  C   UNL A   1      47.955  28.592  29.369  1.00  0.00     0.148 A 
ATOM     44  C   UNL A   1      49.222  29.227  26.943  1.00  0.00     0.002 A 
ATOM     45  C   UNL A   1      49.276  28.223  29.152  1.00  0.00     0.091 A 
ATOM     46  F   UNL A   1      47.307  28.271  30.498  1.00  0.00    -0.205 F 
ATOM     47  C   UNL A   1      49.907  28.530  27.935  1.00  0.00     0.022 A 
BRANCH  45  48
ATOM     48  S   UNL A   1      50.264  27.381  30.391  1.00  0.00     0.127 S 
ATOM     49  O   UNL A   1      49.916  28.124  31.603  1.00  0.00    -0.237 OA
ATOM     50  O   UNL A   1      49.727  26.022  30.332  1.00  0.00    -0.237 OA
ATOM     51  O   UNL A   1      51.650  27.513  29.964  1.00  0.00    -0.744 OA
ENDBRANCH  45  48
ENDBRANCH  27  41
BRANCH  28  52
ATOM     52  C   UNL A   1      37.627  31.669  30.257  1.00  0.00     0.023 A 
ATOM     53  C   UNL A   1      37.104  31.285  31.507  1.00  0.00     0.012 A 
ATOM     54  C   UNL A   1      36.785  32.343  29.347  1.00  0.00     0.148 A 
ATOM     55  C   UNL A   1      35.765  31.520  31.826  1.00  0.00     0.002 A 
ATOM     56  C   UNL A   1      35.472  32.634  29.696  1.00  0.00     0.091 A 
ATOM     57  F   UNL A   1      37.283  32.683  28.150  1.00  0.00    -0.205 F 
ATOM     58  C   UNL A   1      34.951  32.201  30.925  1.00  0.00     0.022 A 
BRANCH  56  59
ATOM     59  S   UNL A   1      34.399  33.636  28.662  1.00  0.00     0.127 S 
ATOM     60  O   UNL A   1      35.191  34.848  28.490  1.00  0.00    -0.237 OA
ATOM     61  O   UNL A   1      34.270  32.801  27.467  1.00  0.00    -0.237 OA
ATOM     62  O   UNL A   1      33.159  33.786  29.418  1.00  0.00    -0.744 OA
ENDBRANCH  56  59
ENDBRANCH  28  52
BRANCH  40  63
ATOM     63  C   UNL A   1      43.745  34.854  31.347  1.00  0.00     0.023 A 
ATOM     64  C   UNL A   1      44.070  34.881  32.716  1.00  0.00     0.012 A 
ATOM     65  C   UNL A   1      43.849  36.031  30.580  1.00  0.00     0.148 A 
ATOM     66  C   UNL A   1      44.465  36.072  33.322  1.00  0.00     0.002 A 
ATOM     67  C   UNL A   1      44.299  37.199  31.177  1.00  0.00     0.091 A 
ATOM     68  F   UNL A   1      43.518  35.979  29.282  1.00  0.00    -0.205 F 
ATOM     69  C   UNL A   1      44.594  37.226  32.551  1.00  0.00     0.022 A 
BRANCH  67  70
ATOM     70  S   UNL A   1      44.602  38.699  30.240  1.00  0.00     0.127 S 
ATOM     71  O   UNL A   1      43.258  39.267  30.146  1.00  0.00    -0.237 OA
ATOM     72  O   UNL A   1      45.515  39.432  31.117  1.00  0.00    -0.237 OA
ATOM     73  O   UNL A   1      45.189  38.273  28.976  1.00  0.00    -0.744 OA
ENDBRANCH  67  70
ENDBRANCH  40  63
ENDBRANCH  14  15
ENDBRANCH   7   9
ENDBRANCH   6   7
ENDBRANCH   5   6
ENDBRANCH   4   5
ENDBRANCH   3   4
ENDBRANCH   2   3
ENDBRANCH   1   2
BRANCH   1  74
ATOM     74  O   UNL A   1      34.337  24.852  24.424  1.00  0.00    -0.377 OA
BRANCH  74  75
ATOM     75  C   UNL A   1      34.300  26.084  25.141  1.00  0.00     0.188 C 
BRANCH  75  76
ATOM     76  C   UNL A   1      33.232  26.393  26.208  1.00  0.00     0.188 C 
BRANCH  76  77
ATOM     77  O   UNL A   1      33.328  27.666  26.829  1.00  0.00    -0.376 OA
BRANCH  77  78
ATOM     78  C   UNL A   1      32.077  28.200  27.264  1.00  0.00     0.202 C 
BRANCH  78  79
ATOM     79  C   UNL A   1      32.030  29.725  27.212  1.00  0.00     0.261 C 
BRANCH  79  80
ATOM     80  O   UNL A   1      32.481  30.215  25.930  1.00  0.00    -0.458 OA
BRANCH  80  81
ATOM     81  C   UNL A   1      31.639  29.911  24.918  1.00  0.00     0.359 C 
ATOM     82  O   UNL A   1      30.490  30.328  24.850  1.00  0.00    -0.244 OA
BRANCH  81  83
ATOM     83  C   UNL A   1      32.194  28.986  23.871  1.00  0.00     0.179 A 
ATOM     84  N   UNL A   1      33.521  29.305  23.640  1.00  0.00    -0.245 NA
ATOM     85  C   UNL A   1      31.599  27.934  23.171  1.00  0.00     0.161 A 
ATOM     86  C   UNL A   1      34.184  28.640  22.678  1.00  0.00     0.132 A 
ATOM     87  N   UNL A   1      32.332  27.241  22.223  1.00  0.00    -0.247 NA
ATOM     88  C   UNL A   1      33.595  27.625  21.973  1.00  0.00     0.132 A 
BRANCH  85  89
ATOM     89  C   UNL A   1      30.179  27.471  23.078  1.00  0.00     0.276 C 
ATOM     90  O   UNL A   1      29.357  28.305  22.660  1.00  0.00    -0.267 OA
ATOM     91  N   UNL A   1      29.622  26.258  23.382  1.00  0.00    -0.320 N 
ATOM     92  H   UNL A   1      28.674  26.218  23.123  1.00  0.00     0.170 HD
BRANCH  91  93
ATOM     93  C   UNL A   1      30.049  25.067  23.963  1.00  0.00     0.045 A 
ATOM     94  C   UNL A   1      30.511  23.960  23.248  1.00  0.00     0.030 A 
ATOM     95  C   UNL A   1      30.123  25.078  25.366  1.00  0.00     0.076 A 
ATOM     96  C   UNL A   1      31.253  22.966  23.897  1.00  0.00     0.053 A 
ATOM     97  C   UNL A   1      30.820  24.065  25.984  1.00  0.00     0.167 A 
ATOM     98  C   UNL A   1      31.410  23.060  25.263  1.00  0.00     0.165 A 
ATOM     99  O   UNL A   1      31.073  23.974  27.314  1.00  0.00    -0.454 OA
ATOM    100  O   UNL A   1      32.146  22.229  26.043  1.00  0.00    -0.454 OA
ATOM    101  C   UNL A   1      31.888  22.783  27.358  1.00  0.00     0.468 C 
ENDBRANCH  91  93
ENDBRANCH  85  89
ENDBRANCH  81  83
ENDBRANCH  80  81
ENDBRANCH  79  80
ENDBRANCH  78  79
ENDBRANCH  77  78
ENDBRANCH  76  77
ENDBRANCH  75  76
ENDBRANCH  74  75
ENDBRANCH   1  74
TORSDOF 25
ENDMDL
