MODEL 1
REMARK VINA RESULT:      -8.7      0.000      0.000
REMARK SMILES O=C(Cc1ccc(S(=O)(=O)CC[NH+]2CCCC2)cc1)OCCOCCOCCOCCOC(=O)c1ccc(-c2c3nc(c(-c4cccc(S(=O)(=O)[O-])c4F)c4ccc([nH]4)c(-c4cccc(S(=O)(=O)[O-])c4F)c4nc(c(-c5cccc(S(=O)(=O)[O-])c5F)c5ccc2[nH]5)C=C4)C=C3)cc1
REMARK SMILES IDX 25 1 24 2 23 3 22 4 21 5 20 6 2 7 1 8 3 9 4 10 5 11 19 12
REMARK SMILES IDX 6 13 18 14 7 15 8 16 9 17 10 18 11 19 12 20 13 21 14 22
REMARK SMILES IDX 17 23 15 25 16 26 26 27 27 28 28 29 29 30 30 31 31 32 32 33
REMARK SMILES IDX 33 34 34 35 35 36 36 37 97 38 37 39 96 40 38 41 39 42 40 43
REMARK SMILES IDX 90 44 41 45 95 46 89 47 91 48 42 49 94 50 88 51 87 52 43 54
REMARK SMILES IDX 75 55 55 56 74 57 56 58 59 59 73 60 92 61 57 62 58 63 72 65
REMARK SMILES IDX 93 66 60 67 44 68 45 69 53 70 46 71 48 72 54 73 47 74 49 75
REMARK SMILES IDX 50 76 51 77 52 78 76 79 77 80 85 81 78 82 80 83 86 84 79 85
REMARK SMILES IDX 81 86 82 87 83 88 84 89 61 90 62 91 70 92 63 93 65 94 71 95
REMARK SMILES IDX 64 96 66 97 67 98 68 99 69 100
REMARK H PARENT 13 24 91 53 59 64
REMARK Flexibility Score: inf
ROOT
ATOM      1  C   UNL A   1      40.463  25.830  26.389  1.00  0.00     0.188 C 
ENDROOT
BRANCH   1   2
ATOM      2  C   UNL A   1      39.517  24.790  26.984  1.00  0.00     0.188 C 
BRANCH   2   3
ATOM      3  O   UNL A   1      40.018  23.814  27.888  1.00  0.00    -0.376 OA
BRANCH   3   4
ATOM      4  C   UNL A   1      40.558  22.565  27.508  1.00  0.00     0.202 C 
BRANCH   4   5
ATOM      5  C   UNL A   1      40.055  21.872  26.259  1.00  0.00     0.261 C 
BRANCH   5   6
ATOM      6  O   UNL A   1      38.667  21.473  26.206  1.00  0.00    -0.463 OA
BRANCH   6   7
ATOM      7  C   UNL A   1      37.796  21.289  25.199  1.00  0.00     0.310 C 
ATOM      8  O   UNL A   1      37.462  20.131  24.934  1.00  0.00    -0.252 OA
BRANCH   7   9
ATOM      9  C   UNL A   1      37.263  22.426  24.356  1.00  0.00     0.158 C 
BRANCH   9  10
ATOM     10  C   UNL A   1      35.771  22.637  24.244  1.00  0.00    -0.037 A 
ATOM     11  C   UNL A   1      34.984  22.471  25.393  1.00  0.00     0.005 A 
ATOM     12  C   UNL A   1      35.132  23.044  23.071  1.00  0.00     0.005 A 
ATOM     13  C   UNL A   1      33.683  22.977  25.423  1.00  0.00     0.020 A 
ATOM     14  C   UNL A   1      33.805  23.434  23.057  1.00  0.00     0.020 A 
ATOM     15  C   UNL A   1      33.157  23.561  24.271  1.00  0.00     0.067 A 
BRANCH  15  16
ATOM     16  S   UNL A   1      31.855  24.764  24.380  1.00  0.00     0.183 S 
ATOM     17  O   UNL A   1      30.847  24.330  23.432  1.00  0.00    -0.223 OA
ATOM     18  O   UNL A   1      31.525  24.912  25.786  1.00  0.00    -0.223 OA
BRANCH  16  19
ATOM     19  C   UNL A   1      32.584  26.304  23.778  1.00  0.00     0.203 C 
BRANCH  19  20
ATOM     20  C   UNL A   1      32.657  27.454  24.795  1.00  0.00     0.279 C 
BRANCH  20  21
ATOM     21  N   UNL A   1      31.467  28.166  25.317  1.00  0.00    -0.334 N 
ATOM     22  C   UNL A   1      31.267  29.565  24.935  1.00  0.00     0.262 C 
ATOM     23  C   UNL A   1      31.371  28.169  26.782  1.00  0.00     0.262 C 
ATOM     24  H   UNL A   1      30.752  27.599  24.861  1.00  0.00     0.348 HD
ATOM     25  C   UNL A   1      31.896  30.394  26.045  1.00  0.00     0.067 C 
ATOM     26  C   UNL A   1      32.115  29.415  27.189  1.00  0.00     0.067 C 
ENDBRANCH  20  21
ENDBRANCH  19  20
ENDBRANCH  16  19
ENDBRANCH  15  16
ENDBRANCH   9  10
ENDBRANCH   7   9
ENDBRANCH   6   7
ENDBRANCH   5   6
ENDBRANCH   4   5
ENDBRANCH   3   4
ENDBRANCH   2   3
ENDBRANCH   1   2
BRANCH   1  27
ATOM     27  O   UNL A   1      41.340  25.380  25.371  1.00  0.00    -0.377 OA
BRANCH  27  28
ATOM     28  C   UNL A   1      42.699  25.774  25.504  1.00  0.00     0.188 C 
BRANCH  28  29
ATOM     29  C   UNL A   1      43.707  24.726  24.983  1.00  0.00     0.188 C 
BRANCH  29  30
ATOM     30  O   UNL A   1      43.225  23.387  25.046  1.00  0.00    -0.376 OA
BRANCH  30  31
ATOM     31  C   UNL A   1      44.120  22.428  25.597  1.00  0.00     0.202 C 
BRANCH  31  32
ATOM     32  C   UNL A   1      45.575  22.889  25.786  1.00  0.00     0.261 C 
BRANCH  32  33
ATOM     33  O   UNL A   1      46.013  23.029  27.150  1.00  0.00    -0.460 OA
BRANCH  33  34
ATOM     34  C   UNL A   1      46.527  24.219  27.532  1.00  0.00     0.338 C 
ATOM     35  O   UNL A   1      47.629  24.658  27.269  1.00  0.00    -0.246 OA
BRANCH  34  36
ATOM     36  C   UNL A   1      45.423  25.023  28.113  1.00  0.00     0.060 A 
ATOM     37  C   UNL A   1      45.529  26.421  28.057  1.00  0.00     0.016 A 
ATOM     38  C   UNL A   1      44.275  24.425  28.643  1.00  0.00     0.016 A 
ATOM     39  C   UNL A   1      44.530  27.221  28.606  1.00  0.00     0.010 A 
ATOM     40  C   UNL A   1      43.281  25.225  29.214  1.00  0.00     0.010 A 
ATOM     41  C   UNL A   1      43.443  26.622  29.256  1.00  0.00    -0.014 A 
BRANCH  41  42
ATOM     42  C   UNL A   1      42.728  27.419  30.281  1.00  0.00     0.031 A 
ATOM     43  C   UNL A   1      43.403  27.552  31.623  1.00  0.00     0.074 A 
ATOM     44  C   UNL A   1      41.566  28.048  30.037  1.00  0.00     0.049 A 
ATOM     45  N   UNL A   1      43.056  28.262  32.663  1.00  0.00    -0.248 NA
ATOM     46  C   UNL A   1      44.646  26.780  31.813  1.00  0.00     0.031 C 
ATOM     47  C   UNL A   1      40.817  28.000  28.784  1.00  0.00     0.029 A 
ATOM     48  N   UNL A   1      40.810  28.854  30.852  1.00  0.00    -0.354 N 
ATOM     49  C   UNL A   1      44.025  28.009  33.628  1.00  0.00     0.074 A 
ATOM     50  C   UNL A   1      44.962  27.067  33.064  1.00  0.00     0.031 C 
ATOM     51  C   UNL A   1      39.695  28.733  28.920  1.00  0.00     0.029 A 
ATOM     52  C   UNL A   1      39.647  29.299  30.269  1.00  0.00     0.049 A 
ATOM     53  H   UNL A   1      41.076  29.091  31.769  1.00  0.00     0.167 HD
ATOM     54  C   UNL A   1      44.143  28.530  34.870  1.00  0.00     0.034 A 
ATOM     55  C   UNL A   1      38.666  30.075  30.772  1.00  0.00     0.034 A 
ATOM     56  C   UNL A   1      43.220  29.471  35.432  1.00  0.00     0.049 A 
ATOM     57  C   UNL A   1      38.812  30.632  32.168  1.00  0.00     0.074 A 
ATOM     58  C   UNL A   1      43.263  30.083  36.669  1.00  0.00     0.029 A 
ATOM     59  N   UNL A   1      42.076  29.923  34.795  1.00  0.00    -0.354 N 
ATOM     60  N   UNL A   1      39.803  30.491  33.017  1.00  0.00    -0.248 NA
ATOM     61  C   UNL A   1      37.725  31.493  32.658  1.00  0.00     0.031 C 
ATOM     62  C   UNL A   1      42.129  30.892  36.790  1.00  0.00     0.029 A 
ATOM     63  C   UNL A   1      41.399  30.805  35.614  1.00  0.00     0.049 A 
ATOM     64  H   UNL A   1      41.789  29.656  33.891  1.00  0.00     0.167 HD
ATOM     65  C   UNL A   1      39.483  31.284  34.115  1.00  0.00     0.074 A 
ATOM     66  C   UNL A   1      38.212  31.911  33.819  1.00  0.00     0.031 C 
ATOM     67  C   UNL A   1      40.169  31.471  35.271  1.00  0.00     0.034 A 
BRANCH  54  68
ATOM     68  C   UNL A   1      45.326  28.093  35.690  1.00  0.00     0.023 A 
ATOM     69  C   UNL A   1      46.539  28.808  35.605  1.00  0.00     0.012 A 
ATOM     70  C   UNL A   1      45.233  26.986  36.553  1.00  0.00     0.148 A 
ATOM     71  C   UNL A   1      47.650  28.408  36.345  1.00  0.00     0.002 A 
ATOM     72  C   UNL A   1      46.331  26.621  37.321  1.00  0.00     0.091 A 
ATOM     73  F   UNL A   1      44.082  26.299  36.590  1.00  0.00    -0.205 F 
ATOM     74  C   UNL A   1      47.543  27.323  37.210  1.00  0.00     0.022 A 
BRANCH  72  75
ATOM     75  S   UNL A   1      46.268  25.285  38.518  1.00  0.00     0.127 S 
ATOM     76  O   UNL A   1      46.342  24.110  37.652  1.00  0.00    -0.237 OA
ATOM     77  O   UNL A   1      47.470  25.531  39.317  1.00  0.00    -0.237 OA
ATOM     78  O   UNL A   1      45.015  25.452  39.241  1.00  0.00    -0.744 OA
ENDBRANCH  72  75
ENDBRANCH  54  68
BRANCH  55  79
ATOM     79  C   UNL A   1      37.482  30.428  29.936  1.00  0.00     0.023 A 
ATOM     80  C   UNL A   1      36.683  29.402  29.392  1.00  0.00     0.012 A 
ATOM     81  C   UNL A   1      37.147  31.770  29.671  1.00  0.00     0.148 A 
ATOM     82  C   UNL A   1      35.596  29.705  28.569  1.00  0.00     0.002 A 
ATOM     83  C   UNL A   1      36.030  32.066  28.897  1.00  0.00     0.091 A 
ATOM     84  F   UNL A   1      37.928  32.732  30.182  1.00  0.00    -0.205 F 
ATOM     85  C   UNL A   1      35.264  31.035  28.329  1.00  0.00     0.022 A 
BRANCH  83  86
ATOM     86  S   UNL A   1      35.454  33.748  28.640  1.00  0.00     0.127 S 
ATOM     87  O   UNL A   1      35.106  33.733  27.222  1.00  0.00    -0.237 OA
ATOM     88  O   UNL A   1      34.313  33.817  29.555  1.00  0.00    -0.237 OA
ATOM     89  O   UNL A   1      36.571  34.605  29.012  1.00  0.00    -0.744 OA
ENDBRANCH  83  86
ENDBRANCH  55  79
BRANCH  67  90
ATOM     90  C   UNL A   1      39.603  32.435  36.280  1.00  0.00     0.023 A 
ATOM     91  C   UNL A   1      38.619  32.005  37.192  1.00  0.00     0.012 A 
ATOM     92  C   UNL A   1      40.113  33.745  36.378  1.00  0.00     0.148 A 
ATOM     93  C   UNL A   1      38.122  32.877  38.160  1.00  0.00     0.002 A 
ATOM     94  C   UNL A   1      39.650  34.592  37.379  1.00  0.00     0.091 A 
ATOM     95  F   UNL A   1      41.036  34.142  35.491  1.00  0.00    -0.205 F 
ATOM     96  C   UNL A   1      38.647  34.164  38.262  1.00  0.00     0.022 A 
BRANCH  94  97
ATOM     97  S   UNL A   1      40.349  36.226  37.640  1.00  0.00     0.127 S 
ATOM     98  O   UNL A   1      41.535  35.919  38.437  1.00  0.00    -0.237 OA
ATOM     99  O   UNL A   1      40.630  36.670  36.274  1.00  0.00    -0.237 OA
ATOM    100  O   UNL A   1      39.314  36.995  38.319  1.00  0.00    -0.744 OA
ENDBRANCH  94  97
ENDBRANCH  67  90
ENDBRANCH  41  42
ENDBRANCH  34  36
ENDBRANCH  33  34
ENDBRANCH  32  33
ENDBRANCH  31  32
ENDBRANCH  30  31
ENDBRANCH  29  30
ENDBRANCH  28  29
ENDBRANCH  27  28
ENDBRANCH   1  27
TORSDOF 28
ENDMDL
MODEL 2
REMARK VINA RESULT:      -8.3      4.841     10.685
REMARK SMILES O=C(Cc1ccc(S(=O)(=O)CC[NH+]2CCCC2)cc1)OCCOCCOCCOCCOC(=O)c1ccc(-c2c3nc(c(-c4cccc(S(=O)(=O)[O-])c4F)c4ccc([nH]4)c(-c4cccc(S(=O)(=O)[O-])c4F)c4nc(c(-c5cccc(S(=O)(=O)[O-])c5F)c5ccc2[nH]5)C=C4)C=C3)cc1
REMARK SMILES IDX 25 1 24 2 23 3 22 4 21 5 20 6 2 7 1 8 3 9 4 10 5 11 19 12
REMARK SMILES IDX 6 13 18 14 7 15 8 16 9 17 10 18 11 19 12 20 13 21 14 22
REMARK SMILES IDX 17 23 15 25 16 26 26 27 27 28 28 29 29 30 30 31 31 32 32 33
REMARK SMILES IDX 33 34 34 35 35 36 36 37 97 38 37 39 96 40 38 41 39 42 40 43
REMARK SMILES IDX 90 44 41 45 95 46 89 47 91 48 42 49 94 50 88 51 87 52 43 54
REMARK SMILES IDX 75 55 55 56 74 57 56 58 59 59 73 60 92 61 57 62 58 63 72 65
REMARK SMILES IDX 93 66 60 67 44 68 45 69 53 70 46 71 48 72 54 73 47 74 49 75
REMARK SMILES IDX 50 76 51 77 52 78 76 79 77 80 85 81 78 82 80 83 86 84 79 85
REMARK SMILES IDX 81 86 82 87 83 88 84 89 61 90 62 91 70 92 63 93 65 94 71 95
REMARK SMILES IDX 64 96 66 97 67 98 68 99 69 100
REMARK H PARENT 13 24 91 53 59 64
REMARK Flexibility Score: inf
ROOT
ATOM      1  C   UNL A   1      35.427  33.146  28.011  1.00  0.00     0.188 C 
ENDROOT
BRANCH   1   2
ATOM      2  C   UNL A   1      34.738  32.024  28.785  1.00  0.00     0.188 C 
BRANCH   2   3
ATOM      3  O   UNL A   1      35.141  30.676  28.586  1.00  0.00    -0.376 OA
BRANCH   3   4
ATOM      4  C   UNL A   1      35.167  30.020  27.335  1.00  0.00     0.202 C 
BRANCH   4   5
ATOM      5  C   UNL A   1      33.888  29.846  26.544  1.00  0.00     0.261 C 
BRANCH   5   6
ATOM      6  O   UNL A   1      32.754  29.232  27.196  1.00  0.00    -0.463 OA
BRANCH   6   7
ATOM      7  C   UNL A   1      31.847  28.319  26.809  1.00  0.00     0.310 C 
ATOM      8  O   UNL A   1      31.400  27.554  27.668  1.00  0.00    -0.252 OA
BRANCH   7   9
ATOM      9  C   UNL A   1      31.403  28.161  25.372  1.00  0.00     0.158 C 
BRANCH   9  10
ATOM     10  C   UNL A   1      32.196  27.277  24.438  1.00  0.00    -0.037 A 
ATOM     11  C   UNL A   1      33.434  26.783  24.874  1.00  0.00     0.005 A 
ATOM     12  C   UNL A   1      31.742  26.872  23.180  1.00  0.00     0.005 A 
ATOM     13  C   UNL A   1      34.031  25.712  24.207  1.00  0.00     0.020 A 
ATOM     14  C   UNL A   1      32.391  25.896  22.447  1.00  0.00     0.020 A 
ATOM     15  C   UNL A   1      33.424  25.210  23.056  1.00  0.00     0.067 A 
BRANCH  15  16
ATOM     16  S   UNL A   1      33.704  23.532  22.545  1.00  0.00     0.183 S 
ATOM     17  O   UNL A   1      33.396  23.503  21.128  1.00  0.00    -0.223 OA
ATOM     18  O   UNL A   1      35.024  23.155  23.017  1.00  0.00    -0.223 OA
BRANCH  16  19
ATOM     19  C   UNL A   1      32.460  22.557  23.422  1.00  0.00     0.203 C 
BRANCH  19  20
ATOM     20  C   UNL A   1      32.403  22.757  24.945  1.00  0.00     0.279 C 
BRANCH  20  21
ATOM     21  N   UNL A   1      32.701  21.687  25.926  1.00  0.00    -0.334 N 
ATOM     22  C   UNL A   1      32.893  22.060  27.328  1.00  0.00     0.262 C 
ATOM     23  C   UNL A   1      33.887  20.889  25.592  1.00  0.00     0.262 C 
ATOM     24  H   UNL A   1      31.825  21.171  25.843  1.00  0.00     0.348 HD
ATOM     25  C   UNL A   1      34.393  22.249  27.507  1.00  0.00     0.067 C 
ATOM     26  C   UNL A   1      35.017  21.623  26.268  1.00  0.00     0.067 C 
ENDBRANCH  20  21
ENDBRANCH  19  20
ENDBRANCH  16  19
ENDBRANCH  15  16
ENDBRANCH   9  10
ENDBRANCH   7   9
ENDBRANCH   6   7
ENDBRANCH   5   6
ENDBRANCH   4   5
ENDBRANCH   3   4
ENDBRANCH   2   3
ENDBRANCH   1   2
BRANCH   1  27
ATOM     27  O   UNL A   1      34.680  34.335  27.820  1.00  0.00    -0.377 OA
BRANCH  27  28
ATOM     28  C   UNL A   1      33.458  34.423  28.539  1.00  0.00     0.188 C 
BRANCH  28  29
ATOM     29  C   UNL A   1      33.274  35.755  29.298  1.00  0.00     0.188 C 
BRANCH  29  30
ATOM     30  O   UNL A   1      33.574  35.668  30.688  1.00  0.00    -0.376 OA
BRANCH  30  31
ATOM     31  C   UNL A   1      34.252  34.489  31.106  1.00  0.00     0.202 C 
BRANCH  31  32
ATOM     32  C   UNL A   1      34.222  34.188  32.614  1.00  0.00     0.261 C 
BRANCH  32  33
ATOM     33  O   UNL A   1      34.801  32.932  33.012  1.00  0.00    -0.460 OA
BRANCH  33  34
ATOM     34  C   UNL A   1      35.905  32.961  33.791  1.00  0.00     0.338 C 
ATOM     35  O   UNL A   1      35.962  33.258  34.967  1.00  0.00    -0.246 OA
BRANCH  34  36
ATOM     36  C   UNL A   1      37.009  32.317  33.037  1.00  0.00     0.060 A 
ATOM     37  C   UNL A   1      37.984  31.620  33.766  1.00  0.00     0.016 A 
ATOM     38  C   UNL A   1      37.056  32.335  31.638  1.00  0.00     0.016 A 
ATOM     39  C   UNL A   1      39.051  31.014  33.107  1.00  0.00     0.010 A 
ATOM     40  C   UNL A   1      38.137  31.747  30.976  1.00  0.00     0.010 A 
ATOM     41  C   UNL A   1      39.171  31.146  31.718  1.00  0.00    -0.014 A 
BRANCH  41  42
ATOM     42  C   UNL A   1      40.524  31.011  31.126  1.00  0.00     0.031 A 
ATOM     43  C   UNL A   1      41.324  32.280  30.978  1.00  0.00     0.074 A 
ATOM     44  C   UNL A   1      41.055  29.826  30.783  1.00  0.00     0.049 A 
ATOM     45  N   UNL A   1      42.559  32.445  30.585  1.00  0.00    -0.248 NA
ATOM     46  C   UNL A   1      40.635  33.536  31.329  1.00  0.00     0.031 C 
ATOM     47  C   UNL A   1      40.386  28.531  30.879  1.00  0.00     0.029 A 
ATOM     48  N   UNL A   1      42.295  29.528  30.274  1.00  0.00    -0.354 N 
ATOM     49  C   UNL A   1      42.784  33.817  30.628  1.00  0.00     0.074 A 
ATOM     50  C   UNL A   1      41.559  34.443  31.062  1.00  0.00     0.031 C 
ATOM     51  C   UNL A   1      41.221  27.575  30.426  1.00  0.00     0.029 A 
ATOM     52  C   UNL A   1      42.479  28.192  30.007  1.00  0.00     0.049 A 
ATOM     53  H   UNL A   1      42.988  30.208  30.116  1.00  0.00     0.167 HD
ATOM     54  C   UNL A   1      43.918  34.500  30.352  1.00  0.00     0.034 A 
ATOM     55  C   UNL A   1      43.545  27.551  29.486  1.00  0.00     0.034 A 
ATOM     56  C   UNL A   1      45.139  33.882  29.928  1.00  0.00     0.049 A 
ATOM     57  C   UNL A   1      44.795  28.338  29.171  1.00  0.00     0.074 A 
ATOM     58  C   UNL A   1      46.354  34.479  29.652  1.00  0.00     0.029 A 
ATOM     59  N   UNL A   1      45.294  32.524  29.704  1.00  0.00    -0.354 N 
ATOM     60  N   UNL A   1      45.036  29.616  29.345  1.00  0.00    -0.248 NA
ATOM     61  C   UNL A   1      45.936  27.585  28.629  1.00  0.00     0.031 C 
ATOM     62  C   UNL A   1      47.240  33.480  29.237  1.00  0.00     0.029 A 
ATOM     63  C   UNL A   1      46.584  32.260  29.287  1.00  0.00     0.049 A 
ATOM     64  H   UNL A   1      44.589  31.847  29.826  1.00  0.00     0.167 HD
ATOM     65  C   UNL A   1      46.366  29.809  28.985  1.00  0.00     0.074 A 
ATOM     66  C   UNL A   1      46.883  28.514  28.593  1.00  0.00     0.031 C 
ATOM     67  C   UNL A   1      47.096  30.953  28.968  1.00  0.00     0.034 A 
BRANCH  54  68
ATOM     68  C   UNL A   1      43.878  35.994  30.518  1.00  0.00     0.023 A 
ATOM     69  C   UNL A   1      44.225  36.570  31.759  1.00  0.00     0.012 A 
ATOM     70  C   UNL A   1      43.513  36.827  29.446  1.00  0.00     0.148 A 
ATOM     71  C   UNL A   1      44.179  37.951  31.936  1.00  0.00     0.002 A 
ATOM     72  C   UNL A   1      43.512  38.205  29.617  1.00  0.00     0.091 A 
ATOM     73  F   UNL A   1      43.151  36.257  28.287  1.00  0.00    -0.205 F 
ATOM     74  C   UNL A   1      43.833  38.769  30.863  1.00  0.00     0.022 A 
BRANCH  72  75
ATOM     75  S   UNL A   1      43.154  39.343  28.275  1.00  0.00     0.127 S 
ATOM     76  O   UNL A   1      44.487  39.582  27.727  1.00  0.00    -0.237 OA
ATOM     77  O   UNL A   1      42.277  38.542  27.419  1.00  0.00    -0.237 OA
ATOM     78  O   UNL A   1      42.512  40.497  28.888  1.00  0.00    -0.744 OA
ENDBRANCH  72  75
ENDBRANCH  54  68
BRANCH  55  79
ATOM     79  C   UNL A   1      43.510  26.073  29.283  1.00  0.00     0.023 A 
ATOM     80  C   UNL A   1      44.026  25.220  30.280  1.00  0.00     0.012 A 
ATOM     81  C   UNL A   1      42.977  25.508  28.109  1.00  0.00     0.148 A 
ATOM     82  C   UNL A   1      44.045  23.837  30.095  1.00  0.00     0.002 A 
ATOM     83  C   UNL A   1      42.949  24.127  27.955  1.00  0.00     0.091 A 
ATOM     84  F   UNL A   1      42.508  26.335  27.163  1.00  0.00    -0.205 F 
ATOM     85  C   UNL A   1      43.500  23.289  28.938  1.00  0.00     0.022 A 
BRANCH  83  86
ATOM     86  S   UNL A   1      42.152  23.329  26.556  1.00  0.00     0.127 S 
ATOM     87  O   UNL A   1      42.315  21.915  26.884  1.00  0.00    -0.237 OA
ATOM     88  O   UNL A   1      40.783  23.834  26.663  1.00  0.00    -0.237 OA
ATOM     89  O   UNL A   1      42.871  23.794  25.378  1.00  0.00    -0.744 OA
ENDBRANCH  83  86
ENDBRANCH  55  79
BRANCH  67  90
ATOM     90  C   UNL A   1      48.547  30.859  28.573  1.00  0.00     0.023 A 
ATOM     91  C   UNL A   1      48.948  31.209  27.270  1.00  0.00     0.012 A 
ATOM     92  C   UNL A   1      49.523  30.504  29.526  1.00  0.00     0.148 A 
ATOM     93  C   UNL A   1      50.294  31.170  26.909  1.00  0.00     0.002 A 
ATOM     94  C   UNL A   1      50.867  30.517  29.174  1.00  0.00     0.091 A 
ATOM     95  F   UNL A   1      49.121  30.156  30.757  1.00  0.00    -0.205 F 
ATOM     96  C   UNL A   1      51.254  30.837  27.863  1.00  0.00     0.022 A 
BRANCH  94  97
ATOM     97  S   UNL A   1      52.168  30.202  30.372  1.00  0.00     0.127 S 
ATOM     98  O   UNL A   1      51.793  28.884  30.879  1.00  0.00    -0.237 OA
ATOM     99  O   UNL A   1      53.371  30.217  29.540  1.00  0.00    -0.237 OA
ATOM    100  O   UNL A   1      52.092  31.294  31.335  1.00  0.00    -0.744 OA
ENDBRANCH  94  97
ENDBRANCH  67  90
ENDBRANCH  41  42
ENDBRANCH  34  36
ENDBRANCH  33  34
ENDBRANCH  32  33
ENDBRANCH  31  32
ENDBRANCH  30  31
ENDBRANCH  29  30
ENDBRANCH  28  29
ENDBRANCH  27  28
ENDBRANCH   1  27
TORSDOF 28
ENDMDL
MODEL 3
REMARK VINA RESULT:      -8.1      4.793     10.603
REMARK SMILES O=C(Cc1ccc(S(=O)(=O)CC[NH+]2CCCC2)cc1)OCCOCCOCCOCCOC(=O)c1ccc(-c2c3nc(c(-c4cccc(S(=O)(=O)[O-])c4F)c4ccc([nH]4)c(-c4cccc(S(=O)(=O)[O-])c4F)c4nc(c(-c5cccc(S(=O)(=O)[O-])c5F)c5ccc2[nH]5)C=C4)C=C3)cc1
REMARK SMILES IDX 25 1 24 2 23 3 22 4 21 5 20 6 2 7 1 8 3 9 4 10 5 11 19 12
REMARK SMILES IDX 6 13 18 14 7 15 8 16 9 17 10 18 11 19 12 20 13 21 14 22
REMARK SMILES IDX 17 23 15 25 16 26 26 27 27 28 28 29 29 30 30 31 31 32 32 33
REMARK SMILES IDX 33 34 34 35 35 36 36 37 97 38 37 39 96 40 38 41 39 42 40 43
REMARK SMILES IDX 90 44 41 45 95 46 89 47 91 48 42 49 94 50 88 51 87 52 43 54
REMARK SMILES IDX 75 55 55 56 74 57 56 58 59 59 73 60 92 61 57 62 58 63 72 65
REMARK SMILES IDX 93 66 60 67 44 68 45 69 53 70 46 71 48 72 54 73 47 74 49 75
REMARK SMILES IDX 50 76 51 77 52 78 76 79 77 80 85 81 78 82 80 83 86 84 79 85
REMARK SMILES IDX 81 86 82 87 83 88 84 89 61 90 62 91 70 92 63 93 65 94 71 95
REMARK SMILES IDX 64 96 66 97 67 98 68 99 69 100
REMARK H PARENT 13 24 91 53 59 64
REMARK Flexibility Score: inf
ROOT
ATOM      1  C   UNL A   1      35.707  32.914  28.004  1.00  0.00     0.188 C 
ENDROOT
BRANCH   1   2
ATOM      2  C   UNL A   1      35.050  31.835  28.860  1.00  0.00     0.188 C 
BRANCH   2   3
ATOM      3  O   UNL A   1      35.476  30.484  28.745  1.00  0.00    -0.376 OA
BRANCH   3   4
ATOM      4  C   UNL A   1      35.616  29.784  27.526  1.00  0.00     0.202 C 
BRANCH   4   5
ATOM      5  C   UNL A   1      34.395  29.480  26.684  1.00  0.00     0.261 C 
BRANCH   5   6
ATOM      6  O   UNL A   1      33.151  29.185  27.358  1.00  0.00    -0.463 OA
BRANCH   6   7
ATOM      7  C   UNL A   1      32.119  28.370  27.080  1.00  0.00     0.310 C 
ATOM      8  O   UNL A   1      31.664  27.686  28.001  1.00  0.00    -0.252 OA
BRANCH   7   9
ATOM      9  C   UNL A   1      31.542  28.220  25.690  1.00  0.00     0.158 C 
BRANCH   9  10
ATOM     10  C   UNL A   1      32.213  27.300  24.697  1.00  0.00    -0.037 A 
ATOM     11  C   UNL A   1      33.498  26.822  24.992  1.00  0.00     0.005 A 
ATOM     12  C   UNL A   1      31.605  26.850  23.523  1.00  0.00     0.005 A 
ATOM     13  C   UNL A   1      34.009  25.725  24.295  1.00  0.00     0.020 A 
ATOM     14  C   UNL A   1      32.159  25.846  22.750  1.00  0.00     0.020 A 
ATOM     15  C   UNL A   1      33.264  25.181  23.249  1.00  0.00     0.067 A 
BRANCH  15  16
ATOM     16  S   UNL A   1      33.482  23.486  22.769  1.00  0.00     0.183 S 
ATOM     17  O   UNL A   1      33.362  23.474  21.324  1.00  0.00    -0.223 OA
ATOM     18  O   UNL A   1      34.697  23.013  23.408  1.00  0.00    -0.223 OA
BRANCH  16  19
ATOM     19  C   UNL A   1      32.065  22.610  23.469  1.00  0.00     0.203 C 
BRANCH  19  20
ATOM     20  C   UNL A   1      32.051  22.473  25.000  1.00  0.00     0.279 C 
BRANCH  20  21
ATOM     21  N   UNL A   1      32.315  21.202  25.714  1.00  0.00    -0.334 N 
ATOM     22  C   UNL A   1      33.563  21.071  26.467  1.00  0.00     0.262 C 
ATOM     23  C   UNL A   1      32.282  20.017  24.849  1.00  0.00     0.262 C 
ATOM     24  H   UNL A   1      31.539  21.247  26.376  1.00  0.00     0.348 HD
ATOM     25  C   UNL A   1      34.554  20.414  25.518  1.00  0.00     0.067 C 
ATOM     26  C   UNL A   1      33.706  19.877  24.375  1.00  0.00     0.067 C 
ENDBRANCH  20  21
ENDBRANCH  19  20
ENDBRANCH  16  19
ENDBRANCH  15  16
ENDBRANCH   9  10
ENDBRANCH   7   9
ENDBRANCH   6   7
ENDBRANCH   5   6
ENDBRANCH   4   5
ENDBRANCH   3   4
ENDBRANCH   2   3
ENDBRANCH   1   2
BRANCH   1  27
ATOM     27  O   UNL A   1      34.910  34.042  27.686  1.00  0.00    -0.377 OA
BRANCH  27  28
ATOM     28  C   UNL A   1      33.638  34.101  28.314  1.00  0.00     0.188 C 
BRANCH  28  29
ATOM     29  C   UNL A   1      33.324  35.467  28.965  1.00  0.00     0.188 C 
BRANCH  29  30
ATOM     30  O   UNL A   1      33.674  35.537  30.344  1.00  0.00    -0.376 OA
BRANCH  30  31
ATOM     31  C   UNL A   1      34.253  34.362  30.901  1.00  0.00     0.202 C 
BRANCH  31  32
ATOM     32  C   UNL A   1      34.214  34.249  32.434  1.00  0.00     0.261 C 
BRANCH  32  33
ATOM     33  O   UNL A   1      34.809  33.061  32.987  1.00  0.00    -0.460 OA
BRANCH  33  34
ATOM     34  C   UNL A   1      35.837  33.211  33.852  1.00  0.00     0.338 C 
ATOM     35  O   UNL A   1      35.781  33.641  34.987  1.00  0.00    -0.246 OA
BRANCH  34  36
ATOM     36  C   UNL A   1      37.017  32.517  33.278  1.00  0.00     0.060 A 
ATOM     37  C   UNL A   1      38.026  32.098  34.159  1.00  0.00     0.016 A 
ATOM     38  C   UNL A   1      37.107  32.222  31.914  1.00  0.00     0.016 A 
ATOM     39  C   UNL A   1      39.162  31.460  33.669  1.00  0.00     0.010 A 
ATOM     40  C   UNL A   1      38.257  31.602  31.416  1.00  0.00     0.010 A 
ATOM     41  C   UNL A   1      39.314  31.284  32.287  1.00  0.00    -0.014 A 
BRANCH  41  42
ATOM     42  C   UNL A   1      40.692  31.143  31.758  1.00  0.00     0.031 A 
ATOM     43  C   UNL A   1      41.463  32.421  31.539  1.00  0.00     0.074 A 
ATOM     44  C   UNL A   1      41.269  29.952  31.529  1.00  0.00     0.049 A 
ATOM     45  N   UNL A   1      42.707  32.592  31.180  1.00  0.00    -0.248 NA
ATOM     46  C   UNL A   1      40.727  33.680  31.765  1.00  0.00     0.031 C 
ATOM     47  C   UNL A   1      40.632  28.649  31.703  1.00  0.00     0.029 A 
ATOM     48  N   UNL A   1      42.535  29.653  31.090  1.00  0.00    -0.354 N 
ATOM     49  C   UNL A   1      42.893  33.969  31.122  1.00  0.00     0.074 A 
ATOM     50  C   UNL A   1      41.635  34.590  31.461  1.00  0.00     0.031 C 
ATOM     51  C   UNL A   1      41.510  27.687  31.357  1.00  0.00     0.029 A 
ATOM     52  C   UNL A   1      42.766  28.307  30.936  1.00  0.00     0.049 A 
ATOM     53  H   UNL A   1      43.215  30.340  30.904  1.00  0.00     0.167 HD
ATOM     54  C   UNL A   1      44.017  34.663  30.835  1.00  0.00     0.034 A 
ATOM     55  C   UNL A   1      43.869  27.659  30.507  1.00  0.00     0.034 A 
ATOM     56  C   UNL A   1      45.270  34.051  30.506  1.00  0.00     0.049 A 
ATOM     57  C   UNL A   1      45.108  28.457  30.176  1.00  0.00     0.074 A 
ATOM     58  C   UNL A   1      46.478  34.661  30.228  1.00  0.00     0.029 A 
ATOM     59  N   UNL A   1      45.471  32.685  30.395  1.00  0.00    -0.354 N 
ATOM     60  N   UNL A   1      45.306  29.751  30.258  1.00  0.00    -0.248 NA
ATOM     61  C   UNL A   1      46.289  27.699  29.737  1.00  0.00     0.031 C 
ATOM     62  C   UNL A   1      47.407  33.661  29.926  1.00  0.00     0.029 A 
ATOM     63  C   UNL A   1      46.783  32.429  30.048  1.00  0.00     0.049 A 
ATOM     64  H   UNL A   1      44.780  31.999  30.544  1.00  0.00     0.167 HD
ATOM     65  C   UNL A   1      46.644  29.956  29.932  1.00  0.00     0.074 A 
ATOM     66  C   UNL A   1      47.211  28.651  29.662  1.00  0.00     0.031 C 
ATOM     67  C   UNL A   1      47.342  31.116  29.851  1.00  0.00     0.034 A 
BRANCH  54  68
ATOM     68  C   UNL A   1      43.931  36.164  30.881  1.00  0.00     0.023 A 
ATOM     69  C   UNL A   1      43.738  36.890  29.688  1.00  0.00     0.012 A 
ATOM     70  C   UNL A   1      44.025  36.852  32.104  1.00  0.00     0.148 A 
ATOM     71  C   UNL A   1      43.671  38.282  29.709  1.00  0.00     0.002 A 
ATOM     72  C   UNL A   1      43.913  38.236  32.122  1.00  0.00     0.091 A 
ATOM     73  F   UNL A   1      44.245  36.144  33.221  1.00  0.00    -0.205 F 
ATOM     74  C   UNL A   1      43.748  38.954  30.926  1.00  0.00     0.022 A 
BRANCH  72  75
ATOM     75  S   UNL A   1      43.925  39.184  33.647  1.00  0.00     0.127 S 
ATOM     76  O   UNL A   1      43.766  40.548  33.148  1.00  0.00    -0.237 OA
ATOM     77  O   UNL A   1      42.756  38.651  34.349  1.00  0.00    -0.237 OA
ATOM     78  O   UNL A   1      45.200  38.896  34.288  1.00  0.00    -0.744 OA
ENDBRANCH  72  75
ENDBRANCH  54  68
BRANCH  55  79
ATOM     79  C   UNL A   1      43.881  26.170  30.420  1.00  0.00     0.023 A 
ATOM     80  C   UNL A   1      44.337  25.412  31.518  1.00  0.00     0.012 A 
ATOM     81  C   UNL A   1      43.453  25.501  29.258  1.00  0.00     0.148 A 
ATOM     82  C   UNL A   1      44.402  24.019  31.445  1.00  0.00     0.002 A 
ATOM     83  C   UNL A   1      43.467  24.111  29.212  1.00  0.00     0.091 A 
ATOM     84  F   UNL A   1      43.040  26.238  28.217  1.00  0.00    -0.205 F 
ATOM     85  C   UNL A   1      43.959  23.369  30.297  1.00  0.00     0.022 A 
BRANCH  83  86
ATOM     86  S   UNL A   1      42.799  23.185  27.826  1.00  0.00     0.127 S 
ATOM     87  O   UNL A   1      41.500  23.825  27.635  1.00  0.00    -0.237 OA
ATOM     88  O   UNL A   1      43.783  23.462  26.778  1.00  0.00    -0.237 OA
ATOM     89  O   UNL A   1      42.765  21.796  28.262  1.00  0.00    -0.744 OA
ENDBRANCH  83  86
ENDBRANCH  55  79
BRANCH  67  90
ATOM     90  C   UNL A   1      48.809  31.036  29.518  1.00  0.00     0.023 A 
ATOM     91  C   UNL A   1      49.765  30.972  30.550  1.00  0.00     0.012 A 
ATOM     92  C   UNL A   1      49.231  30.937  28.177  1.00  0.00     0.148 A 
ATOM     93  C   UNL A   1      51.122  30.851  30.251  1.00  0.00     0.002 A 
ATOM     94  C   UNL A   1      50.579  30.764  27.889  1.00  0.00     0.091 A 
ATOM     95  F   UNL A   1      48.308  31.017  27.207  1.00  0.00    -0.205 F 
ATOM     96  C   UNL A   1      51.527  30.733  28.923  1.00  0.00     0.022 A 
BRANCH  94  97
ATOM     97  S   UNL A   1      51.167  30.501  26.212  1.00  0.00     0.127 S 
ATOM     98  O   UNL A   1      52.568  30.152  26.439  1.00  0.00    -0.237 OA
ATOM     99  O   UNL A   1      50.329  29.391  25.755  1.00  0.00    -0.237 OA
ATOM    100  O   UNL A   1      50.934  31.756  25.509  1.00  0.00    -0.744 OA
ENDBRANCH  94  97
ENDBRANCH  67  90
ENDBRANCH  41  42
ENDBRANCH  34  36
ENDBRANCH  33  34
ENDBRANCH  32  33
ENDBRANCH  31  32
ENDBRANCH  30  31
ENDBRANCH  29  30
ENDBRANCH  28  29
ENDBRANCH  27  28
ENDBRANCH   1  27
TORSDOF 28
ENDMDL
