MODEL 1
REMARK VINA RESULT:     -10.8      0.000      0.000
REMARK SMILES CC1(C)C(NC(=O)[C@@H]2CCC[C@@H](C(=O)OCCOCCOCCOCCOC(=O)c3ccc(-c4c5nc(c(-c6cccc(S(=O)(=O)[O-])c6F)c6ccc([nH]6)c(-c6cccc(S(=O)(=O)[O-])c6F)c6nc(c(-c7cccc(S(=O)(=O)[O-])c7F)c7ccc4[nH]7)C=C6)C=C5)cc3)C2)C1(C)C
REMARK SMILES IDX 22 1 21 2 20 3 19 4 18 5 17 6 16 7 15 8 13 9 14 10 12 11
REMARK SMILES IDX 8 12 9 13 93 14 10 15 11 16 6 17 5 18 7 20 4 21 1 22 2 23
REMARK SMILES IDX 3 24 94 25 95 26 96 27 23 28 24 29 25 30 26 31 27 32 28 33
REMARK SMILES IDX 29 34 30 35 31 36 92 37 32 38 91 39 33 40 34 41 35 42 85 43
REMARK SMILES IDX 36 44 90 45 84 46 86 47 37 48 89 49 83 50 82 51 38 53 70 54
REMARK SMILES IDX 50 55 69 56 51 57 54 58 68 59 87 60 52 61 53 62 67 64 88 65
REMARK SMILES IDX 55 66 39 67 40 68 48 69 41 70 43 71 49 72 42 73 44 74 45 75
REMARK SMILES IDX 46 76 47 77 71 78 72 79 80 80 73 81 75 82 81 83 74 84 76 85
REMARK SMILES IDX 77 86 78 87 79 88 56 89 57 90 65 91 58 92 60 93 66 94 59 95
REMARK SMILES IDX 61 96 62 97 63 98 64 99
REMARK H PARENT 5 19 86 52 54 63
REMARK Flexibility Score: inf
ROOT
ATOM      1  C   UNL A   1      35.184  23.262  26.065  1.00  0.00     0.188 C 
ENDROOT
BRANCH   1   2
ATOM      2  O   UNL A   1      34.822  24.449  25.399  1.00  0.00    -0.377 OA
BRANCH   2   3
ATOM      3  C   UNL A   1      34.849  24.389  23.988  1.00  0.00     0.188 C 
BRANCH   3   4
ATOM      4  C   UNL A   1      33.611  24.845  23.182  1.00  0.00     0.188 C 
BRANCH   4   5
ATOM      5  O   UNL A   1      33.911  25.454  21.934  1.00  0.00    -0.376 OA
BRANCH   5   6
ATOM      6  C   UNL A   1      32.874  26.164  21.270  1.00  0.00     0.202 C 
BRANCH   6   7
ATOM      7  C   UNL A   1      31.506  26.223  21.971  1.00  0.00     0.261 C 
BRANCH   7   8
ATOM      8  O   UNL A   1      31.221  27.458  22.668  1.00  0.00    -0.463 OA
BRANCH   8   9
ATOM      9  C   UNL A   1      31.241  27.414  24.020  1.00  0.00     0.309 C 
ATOM     10  O   UNL A   1      30.317  26.945  24.673  1.00  0.00    -0.252 OA
BRANCH   9  11
ATOM     11  C   UNL A   1      32.536  28.029  24.604  1.00  0.00     0.100 C 
ATOM     12  C   UNL A   1      31.417  29.942  25.742  1.00  0.00     0.079 C 
ATOM     13  C   UNL A   1      31.940  29.583  27.128  1.00  0.00     0.013 C 
ATOM     14  C   UNL A   1      32.403  29.559  24.637  1.00  0.00     0.028 C 
ATOM     15  C   UNL A   1      32.167  28.076  27.194  1.00  0.00     0.002 C 
ATOM     16  C   UNL A   1      32.999  27.572  26.006  1.00  0.00     0.015 C 
BRANCH  12  17
ATOM     17  C   UNL A   1      30.921  31.365  25.651  1.00  0.00     0.223 C 
ATOM     18  N   UNL A   1      30.021  31.654  24.651  1.00  0.00    -0.352 N 
ATOM     19  H   UNL A   1      29.682  32.579  24.633  1.00  0.00     0.163 HD
ATOM     20  O   UNL A   1      31.271  32.237  26.445  1.00  0.00    -0.275 OA
BRANCH  18  21
ATOM     21  C   UNL A   1      29.515  30.780  23.629  1.00  0.00     0.094 C 
ATOM     22  C   UNL A   1      27.630  29.124  23.269  1.00  0.00     0.014 C 
ATOM     23  C   UNL A   1      28.035  30.583  23.393  1.00  0.00    -0.007 C 
ATOM     24  C   UNL A   1      27.036  31.372  24.203  1.00  0.00     0.014 C 
ATOM     25  C   UNL A   1      28.922  31.287  22.334  1.00  0.00    -0.007 C 
ATOM     26  C   UNL A   1      29.329  30.559  21.066  1.00  0.00     0.014 C 
ATOM     27  C   UNL A   1      28.861  32.782  22.111  1.00  0.00     0.014 C 
ENDBRANCH  18  21
ENDBRANCH  12  17
ENDBRANCH   9  11
ENDBRANCH   8   9
ENDBRANCH   7   8
ENDBRANCH   6   7
ENDBRANCH   5   6
ENDBRANCH   4   5
ENDBRANCH   3   4
ENDBRANCH   2   3
ENDBRANCH   1   2
BRANCH   1  28
ATOM     28  C   UNL A   1      34.889  22.004  25.229  1.00  0.00     0.188 C 
BRANCH  28  29
ATOM     29  O   UNL A   1      35.323  20.717  25.648  1.00  0.00    -0.376 OA
BRANCH  29  30
ATOM     30  C   UNL A   1      36.256  19.940  24.913  1.00  0.00     0.202 C 
BRANCH  30  31
ATOM     31  C   UNL A   1      37.787  20.108  24.956  1.00  0.00     0.261 C 
BRANCH  31  32
ATOM     32  O   UNL A   1      38.317  21.288  25.555  1.00  0.00    -0.460 OA
BRANCH  32  33
ATOM     33  C   UNL A   1      39.487  21.142  26.209  1.00  0.00     0.338 C 
ATOM     34  O   UNL A   1      40.218  20.165  26.206  1.00  0.00    -0.246 OA
BRANCH  33  35
ATOM     35  C   UNL A   1      39.853  22.455  26.774  1.00  0.00     0.060 A 
ATOM     36  C   UNL A   1      39.178  23.592  26.306  1.00  0.00     0.016 A 
ATOM     37  C   UNL A   1      40.810  22.561  27.786  1.00  0.00     0.016 A 
ATOM     38  C   UNL A   1      39.463  24.842  26.841  1.00  0.00     0.010 A 
ATOM     39  C   UNL A   1      41.132  23.823  28.287  1.00  0.00     0.010 A 
ATOM     40  C   UNL A   1      40.481  24.967  27.790  1.00  0.00    -0.014 A 
BRANCH  40  41
ATOM     41  C   UNL A   1      41.037  26.308  28.060  1.00  0.00     0.031 A 
ATOM     42  C   UNL A   1      42.450  26.573  27.625  1.00  0.00     0.074 A 
ATOM     43  C   UNL A   1      40.307  27.266  28.652  1.00  0.00     0.049 A 
ATOM     44  N   UNL A   1      43.169  27.654  27.753  1.00  0.00    -0.248 NA
ATOM     45  C   UNL A   1      43.145  25.460  26.951  1.00  0.00     0.031 C 
ATOM     46  C   UNL A   1      38.920  27.128  29.088  1.00  0.00     0.029 A 
ATOM     47  N   UNL A   1      40.650  28.546  29.004  1.00  0.00    -0.354 N 
ATOM     48  C   UNL A   1      44.407  27.345  27.204  1.00  0.00     0.074 A 
ATOM     49  C   UNL A   1      44.348  25.973  26.756  1.00  0.00     0.031 C 
ATOM     50  C   UNL A   1      38.534  28.276  29.672  1.00  0.00     0.029 A 
ATOM     51  C   UNL A   1      39.656  29.214  29.676  1.00  0.00     0.049 A 
ATOM     52  H   UNL A   1      41.525  28.948  28.795  1.00  0.00     0.167 HD
ATOM     53  C   UNL A   1      45.496  28.138  27.073  1.00  0.00     0.034 A 
ATOM     54  C   UNL A   1      39.666  30.436  30.244  1.00  0.00     0.034 A 
ATOM     55  C   UNL A   1      45.549  29.500  27.529  1.00  0.00     0.049 A 
ATOM     56  C   UNL A   1      40.911  31.281  30.141  1.00  0.00     0.074 A 
ATOM     57  C   UNL A   1      46.591  30.402  27.423  1.00  0.00     0.029 A 
ATOM     58  N   UNL A   1      44.523  30.147  28.201  1.00  0.00    -0.354 N 
ATOM     59  N   UNL A   1      42.042  31.019  29.532  1.00  0.00    -0.248 NA
ATOM     60  C   UNL A   1      40.867  32.605  30.780  1.00  0.00     0.031 C 
ATOM     61  C   UNL A   1      46.208  31.584  28.069  1.00  0.00     0.029 A 
ATOM     62  C   UNL A   1      44.911  31.433  28.534  1.00  0.00     0.049 A 
ATOM     63  H   UNL A   1      43.646  29.750  28.410  1.00  0.00     0.167 HD
ATOM     64  C   UNL A   1      42.830  32.157  29.676  1.00  0.00     0.074 A 
ATOM     65  C   UNL A   1      42.038  33.116  30.422  1.00  0.00     0.031 C 
ATOM     66  C   UNL A   1      44.093  32.388  29.239  1.00  0.00     0.034 A 
BRANCH  53  67
ATOM     67  C   UNL A   1      46.709  27.537  26.415  1.00  0.00     0.023 A 
ATOM     68  C   UNL A   1      47.563  26.690  27.152  1.00  0.00     0.012 A 
ATOM     69  C   UNL A   1      47.007  27.813  25.067  1.00  0.00     0.148 A 
ATOM     70  C   UNL A   1      48.718  26.166  26.571  1.00  0.00     0.002 A 
ATOM     71  C   UNL A   1      48.131  27.246  24.481  1.00  0.00     0.091 A 
ATOM     72  F   UNL A   1      46.201  28.644  24.391  1.00  0.00    -0.205 F 
ATOM     73  C   UNL A   1      48.996  26.436  25.235  1.00  0.00     0.022 A 
BRANCH  71  74
ATOM     74  S   UNL A   1      48.530  27.470  22.745  1.00  0.00     0.127 S 
ATOM     75  O   UNL A   1      49.814  28.166  22.823  1.00  0.00    -0.237 OA
ATOM     76  O   UNL A   1      48.614  26.089  22.268  1.00  0.00    -0.237 OA
ATOM     77  O   UNL A   1      47.433  28.241  22.176  1.00  0.00    -0.744 OA
ENDBRANCH  71  74
ENDBRANCH  53  67
BRANCH  54  78
ATOM     78  C   UNL A   1      38.446  30.950  30.925  1.00  0.00     0.023 A 
ATOM     79  C   UNL A   1      38.326  30.818  32.322  1.00  0.00     0.012 A 
ATOM     80  C   UNL A   1      37.417  31.587  30.205  1.00  0.00     0.148 A 
ATOM     81  C   UNL A   1      37.192  31.289  32.986  1.00  0.00     0.002 A 
ATOM     82  C   UNL A   1      36.316  32.102  30.878  1.00  0.00     0.091 A 
ATOM     83  F   UNL A   1      37.547  31.693  28.874  1.00  0.00    -0.205 F 
ATOM     84  C   UNL A   1      36.193  31.939  32.266  1.00  0.00     0.022 A 
BRANCH  82  85
ATOM     85  S   UNL A   1      35.037  33.059  30.056  1.00  0.00     0.127 S 
ATOM     86  O   UNL A   1      34.424  32.056  29.187  1.00  0.00    -0.237 OA
ATOM     87  O   UNL A   1      34.212  33.482  31.188  1.00  0.00    -0.237 OA
ATOM     88  O   UNL A   1      35.729  34.142  29.372  1.00  0.00    -0.744 OA
ENDBRANCH  82  85
ENDBRANCH  54  78
BRANCH  66  89
ATOM     89  C   UNL A   1      44.692  33.745  29.508  1.00  0.00     0.023 A 
ATOM     90  C   UNL A   1      45.443  33.970  30.678  1.00  0.00     0.012 A 
ATOM     91  C   UNL A   1      44.574  34.778  28.556  1.00  0.00     0.148 A 
ATOM     92  C   UNL A   1      46.036  35.210  30.913  1.00  0.00     0.002 A 
ATOM     93  C   UNL A   1      45.213  35.993  28.770  1.00  0.00     0.091 A 
ATOM     94  F   UNL A   1      43.843  34.551  27.455  1.00  0.00    -0.205 F 
ATOM     95  C   UNL A   1      45.932  36.216  29.956  1.00  0.00     0.022 A 
BRANCH  93  96
ATOM     96  S   UNL A   1      45.219  37.310  27.548  1.00  0.00     0.127 S 
ATOM     97  O   UNL A   1      43.805  37.389  27.187  1.00  0.00    -0.237 OA
ATOM     98  O   UNL A   1      45.716  38.447  28.324  1.00  0.00    -0.237 OA
ATOM     99  O   UNL A   1      46.110  36.869  26.484  1.00  0.00    -0.744 OA
ENDBRANCH  93  96
ENDBRANCH  66  89
ENDBRANCH  40  41
ENDBRANCH  33  35
ENDBRANCH  32  33
ENDBRANCH  31  32
ENDBRANCH  30  31
ENDBRANCH  29  30
ENDBRANCH  28  29
ENDBRANCH   1  28
TORSDOF 25
ENDMDL
MODEL 2
REMARK VINA RESULT:     -10.5      5.052     10.963
REMARK SMILES CC1(C)C(NC(=O)[C@@H]2CCC[C@@H](C(=O)OCCOCCOCCOCCOC(=O)c3ccc(-c4c5nc(c(-c6cccc(S(=O)(=O)[O-])c6F)c6ccc([nH]6)c(-c6cccc(S(=O)(=O)[O-])c6F)c6nc(c(-c7cccc(S(=O)(=O)[O-])c7F)c7ccc4[nH]7)C=C6)C=C5)cc3)C2)C1(C)C
REMARK SMILES IDX 22 1 21 2 20 3 19 4 18 5 17 6 16 7 15 8 13 9 14 10 12 11
REMARK SMILES IDX 8 12 9 13 93 14 10 15 11 16 6 17 5 18 7 20 4 21 1 22 2 23
REMARK SMILES IDX 3 24 94 25 95 26 96 27 23 28 24 29 25 30 26 31 27 32 28 33
REMARK SMILES IDX 29 34 30 35 31 36 92 37 32 38 91 39 33 40 34 41 35 42 85 43
REMARK SMILES IDX 36 44 90 45 84 46 86 47 37 48 89 49 83 50 82 51 38 53 70 54
REMARK SMILES IDX 50 55 69 56 51 57 54 58 68 59 87 60 52 61 53 62 67 64 88 65
REMARK SMILES IDX 55 66 39 67 40 68 48 69 41 70 43 71 49 72 42 73 44 74 45 75
REMARK SMILES IDX 46 76 47 77 71 78 72 79 80 80 73 81 75 82 81 83 74 84 76 85
REMARK SMILES IDX 77 86 78 87 79 88 56 89 57 90 65 91 58 92 60 93 66 94 59 95
REMARK SMILES IDX 61 96 62 97 63 98 64 99
REMARK H PARENT 5 19 86 52 54 63
REMARK Flexibility Score: inf
ROOT
ATOM      1  C   UNL A   1      29.469  29.079  22.553  1.00  0.00     0.188 C 
ENDROOT
BRANCH   1   2
ATOM      2  O   UNL A   1      30.437  28.243  21.963  1.00  0.00    -0.377 OA
BRANCH   2   3
ATOM      3  C   UNL A   1      30.692  27.032  22.644  1.00  0.00     0.188 C 
BRANCH   3   4
ATOM      4  C   UNL A   1      31.721  26.034  22.064  1.00  0.00     0.188 C 
BRANCH   4   5
ATOM      5  O   UNL A   1      31.468  24.673  22.384  1.00  0.00    -0.376 OA
BRANCH   5   6
ATOM      6  C   UNL A   1      30.742  24.389  23.573  1.00  0.00     0.202 C 
BRANCH   6   7
ATOM      7  C   UNL A   1      31.536  23.805  24.755  1.00  0.00     0.261 C 
BRANCH   7   8
ATOM      8  O   UNL A   1      32.615  22.913  24.393  1.00  0.00    -0.463 OA
BRANCH   8   9
ATOM      9  C   UNL A   1      33.096  22.110  25.369  1.00  0.00     0.309 C 
ATOM     10  O   UNL A   1      32.511  21.098  25.733  1.00  0.00    -0.252 OA
BRANCH   9  11
ATOM     11  C   UNL A   1      34.430  22.637  25.954  1.00  0.00     0.100 C 
ATOM     12  C   UNL A   1      35.884  20.963  24.818  1.00  0.00     0.079 C 
ATOM     13  C   UNL A   1      36.734  22.004  24.102  1.00  0.00     0.013 C 
ATOM     14  C   UNL A   1      35.388  21.459  26.179  1.00  0.00     0.028 C 
ATOM     15  C   UNL A   1      35.893  23.257  23.874  1.00  0.00     0.002 C 
ATOM     16  C   UNL A   1      35.200  23.720  25.164  1.00  0.00     0.015 C 
BRANCH  12  17
ATOM     17  C   UNL A   1      36.536  19.602  24.865  1.00  0.00     0.223 C 
ATOM     18  N   UNL A   1      35.715  18.506  24.728  1.00  0.00    -0.352 N 
ATOM     19  H   UNL A   1      36.165  17.630  24.723  1.00  0.00     0.163 HD
ATOM     20  O   UNL A   1      37.751  19.457  24.992  1.00  0.00    -0.275 OA
BRANCH  18  21
ATOM     21  C   UNL A   1      34.285  18.477  24.590  1.00  0.00     0.094 C 
ATOM     22  C   UNL A   1      32.525  18.377  22.769  1.00  0.00     0.014 C 
ATOM     23  C   UNL A   1      33.589  17.627  23.552  1.00  0.00    -0.007 C 
ATOM     24  C   UNL A   1      34.400  16.720  22.661  1.00  0.00     0.014 C 
ATOM     25  C   UNL A   1      33.437  17.318  25.064  1.00  0.00    -0.007 C 
ATOM     26  C   UNL A   1      32.153  17.665  25.794  1.00  0.00     0.014 C 
ATOM     27  C   UNL A   1      34.132  16.140  25.709  1.00  0.00     0.014 C 
ENDBRANCH  18  21
ENDBRANCH  12  17
ENDBRANCH   9  11
ENDBRANCH   8   9
ENDBRANCH   7   8
ENDBRANCH   6   7
ENDBRANCH   5   6
ENDBRANCH   4   5
ENDBRANCH   3   4
ENDBRANCH   2   3
ENDBRANCH   1   2
BRANCH   1  28
ATOM     28  C   UNL A   1      29.990  29.782  23.818  1.00  0.00     0.188 C 
BRANCH  28  29
ATOM     29  O   UNL A   1      31.361  29.719  24.191  1.00  0.00    -0.376 OA
BRANCH  29  30
ATOM     30  C   UNL A   1      31.798  29.790  25.540  1.00  0.00     0.202 C 
BRANCH  30  31
ATOM     31  C   UNL A   1      31.987  31.087  26.349  1.00  0.00     0.261 C 
BRANCH  31  32
ATOM     32  O   UNL A   1      32.826  31.044  27.500  1.00  0.00    -0.460 OA
BRANCH  32  33
ATOM     33  C   UNL A   1      33.671  32.085  27.653  1.00  0.00     0.338 C 
ATOM     34  O   UNL A   1      33.392  33.272  27.628  1.00  0.00    -0.246 OA
BRANCH  33  35
ATOM     35  C   UNL A   1      34.979  31.544  28.072  1.00  0.00     0.060 A 
ATOM     36  C   UNL A   1      35.106  30.156  28.228  1.00  0.00     0.016 A 
ATOM     37  C   UNL A   1      36.078  32.385  28.258  1.00  0.00     0.016 A 
ATOM     38  C   UNL A   1      36.330  29.603  28.580  1.00  0.00     0.010 A 
ATOM     39  C   UNL A   1      37.295  31.834  28.662  1.00  0.00     0.010 A 
ATOM     40  C   UNL A   1      37.411  30.446  28.854  1.00  0.00    -0.014 A 
BRANCH  40  41
ATOM     41  C   UNL A   1      38.567  29.897  29.592  1.00  0.00     0.031 A 
ATOM     42  C   UNL A   1      38.713  30.279  31.037  1.00  0.00     0.074 A 
ATOM     43  C   UNL A   1      39.448  29.072  29.005  1.00  0.00     0.049 A 
ATOM     44  N   UNL A   1      39.637  29.945  31.895  1.00  0.00    -0.248 NA
ATOM     45  C   UNL A   1      37.668  31.162  31.587  1.00  0.00     0.031 C 
ATOM     46  C   UNL A   1      39.387  28.612  27.620  1.00  0.00     0.029 A 
ATOM     47  N   UNL A   1      40.582  28.488  29.508  1.00  0.00    -0.354 N 
ATOM     48  C   UNL A   1      39.303  30.595  33.075  1.00  0.00     0.074 A 
ATOM     49  C   UNL A   1      38.102  31.357  32.820  1.00  0.00     0.031 C 
ATOM     50  C   UNL A   1      40.455  27.832  27.375  1.00  0.00     0.029 A 
ATOM     51  C   UNL A   1      41.284  27.763  28.577  1.00  0.00     0.049 A 
ATOM     52  H   UNL A   1      40.865  28.579  30.447  1.00  0.00     0.167 HD
ATOM     53  C   UNL A   1      39.935  30.554  34.271  1.00  0.00     0.034 A 
ATOM     54  C   UNL A   1      42.472  27.136  28.686  1.00  0.00     0.034 A 
ATOM     55  C   UNL A   1      41.134  29.801  34.514  1.00  0.00     0.049 A 
ATOM     56  C   UNL A   1      43.191  27.154  30.012  1.00  0.00     0.074 A 
ATOM     57  C   UNL A   1      41.842  29.667  35.694  1.00  0.00     0.029 A 
ATOM     58  N   UNL A   1      41.817  29.074  33.550  1.00  0.00    -0.354 N 
ATOM     59  N   UNL A   1      42.817  27.688  31.150  1.00  0.00    -0.248 NA
ATOM     60  C   UNL A   1      44.484  26.455  30.074  1.00  0.00     0.031 C 
ATOM     61  C   UNL A   1      42.977  28.891  35.432  1.00  0.00     0.029 A 
ATOM     62  C   UNL A   1      42.950  28.503  34.102  1.00  0.00     0.049 A 
ATOM     63  H   UNL A   1      41.536  28.978  32.611  1.00  0.00     0.167 HD
ATOM     64  C   UNL A   1      43.804  27.356  32.073  1.00  0.00     0.074 A 
ATOM     65  C   UNL A   1      44.787  26.563  31.361  1.00  0.00     0.031 C 
ATOM     66  C   UNL A   1      43.895  27.681  33.387  1.00  0.00     0.034 A 
BRANCH  53  67
ATOM     67  C   UNL A   1      39.332  31.355  35.395  1.00  0.00     0.023 A 
ATOM     68  C   UNL A   1      38.364  30.770  36.237  1.00  0.00     0.012 A 
ATOM     69  C   UNL A   1      39.723  32.689  35.617  1.00  0.00     0.148 A 
ATOM     70  C   UNL A   1      37.760  31.515  37.249  1.00  0.00     0.002 A 
ATOM     71  C   UNL A   1      39.155  33.409  36.660  1.00  0.00     0.091 A 
ATOM     72  F   UNL A   1      40.623  33.239  34.788  1.00  0.00    -0.205 F 
ATOM     73  C   UNL A   1      38.161  32.829  37.467  1.00  0.00     0.022 A 
BRANCH  71  74
ATOM     74  S   UNL A   1      39.664  35.081  37.069  1.00  0.00     0.127 S 
ATOM     75  O   UNL A   1      38.922  35.322  38.305  1.00  0.00    -0.237 OA
ATOM     76  O   UNL A   1      41.108  34.927  37.246  1.00  0.00    -0.237 OA
ATOM     77  O   UNL A   1      39.277  35.908  35.934  1.00  0.00    -0.744 OA
ENDBRANCH  71  74
ENDBRANCH  53  67
BRANCH  54  78
ATOM     78  C   UNL A   1      43.037  26.405  27.519  1.00  0.00     0.023 A 
ATOM     79  C   UNL A   1      43.809  27.104  26.571  1.00  0.00     0.012 A 
ATOM     80  C   UNL A   1      42.836  25.020  27.353  1.00  0.00     0.148 A 
ATOM     81  C   UNL A   1      44.348  26.444  25.466  1.00  0.00     0.002 A 
ATOM     82  C   UNL A   1      43.421  24.358  26.280  1.00  0.00     0.091 A 
ATOM     83  F   UNL A   1      42.089  24.376  28.262  1.00  0.00    -0.205 F 
ATOM     84  C   UNL A   1      44.163  25.071  25.327  1.00  0.00     0.022 A 
BRANCH  82  85
ATOM     85  S   UNL A   1      43.339  22.575  26.080  1.00  0.00     0.127 S 
ATOM     86  O   UNL A   1      42.974  22.448  24.671  1.00  0.00    -0.237 OA
ATOM     87  O   UNL A   1      44.711  22.180  26.400  1.00  0.00    -0.237 OA
ATOM     88  O   UNL A   1      42.338  22.113  27.032  1.00  0.00    -0.744 OA
ENDBRANCH  82  85
ENDBRANCH  54  78
BRANCH  66  89
ATOM     89  C   UNL A   1      45.070  27.144  34.164  1.00  0.00     0.023 A 
ATOM     90  C   UNL A   1      46.286  27.853  34.190  1.00  0.00     0.012 A 
ATOM     91  C   UNL A   1      44.939  25.970  34.935  1.00  0.00     0.148 A 
ATOM     92  C   UNL A   1      47.364  27.384  34.941  1.00  0.00     0.002 A 
ATOM     93  C   UNL A   1      45.997  25.539  35.724  1.00  0.00     0.091 A 
ATOM     94  F   UNL A   1      43.778  25.300  34.886  1.00  0.00    -0.205 F 
ATOM     95  C   UNL A   1      47.216  26.237  35.716  1.00  0.00     0.022 A 
BRANCH  93  96
ATOM     96  S   UNL A   1      45.866  24.131  36.831  1.00  0.00     0.127 S 
ATOM     97  O   UNL A   1      44.893  24.611  37.811  1.00  0.00    -0.237 OA
ATOM     98  O   UNL A   1      45.369  23.083  35.940  1.00  0.00    -0.237 OA
ATOM     99  O   UNL A   1      47.208  23.898  37.348  1.00  0.00    -0.744 OA
ENDBRANCH  93  96
ENDBRANCH  66  89
ENDBRANCH  40  41
ENDBRANCH  33  35
ENDBRANCH  32  33
ENDBRANCH  31  32
ENDBRANCH  30  31
ENDBRANCH  29  30
ENDBRANCH  28  29
ENDBRANCH   1  28
TORSDOF 25
ENDMDL
MODEL 3
REMARK VINA RESULT:     -10.4      5.224      9.018
REMARK SMILES CC1(C)C(NC(=O)[C@@H]2CCC[C@@H](C(=O)OCCOCCOCCOCCOC(=O)c3ccc(-c4c5nc(c(-c6cccc(S(=O)(=O)[O-])c6F)c6ccc([nH]6)c(-c6cccc(S(=O)(=O)[O-])c6F)c6nc(c(-c7cccc(S(=O)(=O)[O-])c7F)c7ccc4[nH]7)C=C6)C=C5)cc3)C2)C1(C)C
REMARK SMILES IDX 22 1 21 2 20 3 19 4 18 5 17 6 16 7 15 8 13 9 14 10 12 11
REMARK SMILES IDX 8 12 9 13 93 14 10 15 11 16 6 17 5 18 7 20 4 21 1 22 2 23
REMARK SMILES IDX 3 24 94 25 95 26 96 27 23 28 24 29 25 30 26 31 27 32 28 33
REMARK SMILES IDX 29 34 30 35 31 36 92 37 32 38 91 39 33 40 34 41 35 42 85 43
REMARK SMILES IDX 36 44 90 45 84 46 86 47 37 48 89 49 83 50 82 51 38 53 70 54
REMARK SMILES IDX 50 55 69 56 51 57 54 58 68 59 87 60 52 61 53 62 67 64 88 65
REMARK SMILES IDX 55 66 39 67 40 68 48 69 41 70 43 71 49 72 42 73 44 74 45 75
REMARK SMILES IDX 46 76 47 77 71 78 72 79 80 80 73 81 75 82 81 83 74 84 76 85
REMARK SMILES IDX 77 86 78 87 79 88 56 89 57 90 65 91 58 92 60 93 66 94 59 95
REMARK SMILES IDX 61 96 62 97 63 98 64 99
REMARK H PARENT 5 19 86 52 54 63
REMARK Flexibility Score: inf
ROOT
ATOM      1  C   UNL A   1      30.004  29.503  22.007  1.00  0.00     0.188 C 
ENDROOT
BRANCH   1   2
ATOM      2  O   UNL A   1      31.204  28.779  22.143  1.00  0.00    -0.377 OA
BRANCH   2   3
ATOM      3  C   UNL A   1      31.072  27.472  22.661  1.00  0.00     0.188 C 
BRANCH   3   4
ATOM      4  C   UNL A   1      32.335  26.689  23.087  1.00  0.00     0.188 C 
BRANCH   4   5
ATOM      5  O   UNL A   1      32.277  25.292  22.834  1.00  0.00    -0.376 OA
BRANCH   5   6
ATOM      6  C   UNL A   1      31.075  24.604  23.155  1.00  0.00     0.202 C 
BRANCH   6   7
ATOM      7  C   UNL A   1      31.191  23.401  24.109  1.00  0.00     0.261 C 
BRANCH   7   8
ATOM      8  O   UNL A   1      32.392  22.609  23.961  1.00  0.00    -0.463 OA
BRANCH   8   9
ATOM      9  C   UNL A   1      32.831  21.956  25.061  1.00  0.00     0.309 C 
ATOM     10  O   UNL A   1      32.258  20.971  25.510  1.00  0.00    -0.252 OA
BRANCH   9  11
ATOM     11  C   UNL A   1      34.100  22.610  25.660  1.00  0.00     0.100 C 
ATOM     12  C   UNL A   1      35.714  20.999  24.657  1.00  0.00     0.079 C 
ATOM     13  C   UNL A   1      36.509  22.067  23.916  1.00  0.00     0.013 C 
ATOM     14  C   UNL A   1      35.135  21.520  25.974  1.00  0.00     0.028 C 
ATOM     15  C   UNL A   1      35.586  23.239  23.599  1.00  0.00     0.002 C 
ATOM     16  C   UNL A   1      34.815  23.709  24.841  1.00  0.00     0.015 C 
BRANCH  12  17
ATOM     17  C   UNL A   1      36.463  19.695  24.793  1.00  0.00     0.223 C 
ATOM     18  N   UNL A   1      35.722  18.536  24.746  1.00  0.00    -0.352 N 
ATOM     19  H   UNL A   1      36.235  17.697  24.798  1.00  0.00     0.163 HD
ATOM     20  O   UNL A   1      37.686  19.648  24.913  1.00  0.00    -0.275 OA
BRANCH  18  21
ATOM     21  C   UNL A   1      34.298  18.395  24.630  1.00  0.00     0.094 C 
ATOM     22  C   UNL A   1      32.516  18.225  22.835  1.00  0.00     0.014 C 
ATOM     23  C   UNL A   1      33.653  17.534  23.569  1.00  0.00    -0.007 C 
ATOM     24  C   UNL A   1      34.518  16.733  22.627  1.00  0.00     0.014 C 
ATOM     25  C   UNL A   1      33.557  17.152  25.068  1.00  0.00    -0.007 C 
ATOM     26  C   UNL A   1      32.263  17.361  25.833  1.00  0.00     0.014 C 
ATOM     27  C   UNL A   1      34.358  16.009  25.651  1.00  0.00     0.014 C 
ENDBRANCH  18  21
ENDBRANCH  12  17
ENDBRANCH   9  11
ENDBRANCH   8   9
ENDBRANCH   7   8
ENDBRANCH   6   7
ENDBRANCH   5   6
ENDBRANCH   4   5
ENDBRANCH   3   4
ENDBRANCH   2   3
ENDBRANCH   1   2
BRANCH   1  28
ATOM     28  C   UNL A   1      29.433  29.959  23.361  1.00  0.00     0.188 C 
BRANCH  28  29
ATOM     29  O   UNL A   1      30.210  30.725  24.273  1.00  0.00    -0.376 OA
BRANCH  29  30
ATOM     30  C   UNL A   1      31.053  30.138  25.252  1.00  0.00     0.202 C 
BRANCH  30  31
ATOM     31  C   UNL A   1      31.606  30.855  26.499  1.00  0.00     0.261 C 
BRANCH  31  32
ATOM     32  O   UNL A   1      33.010  30.796  26.739  1.00  0.00    -0.460 OA
BRANCH  32  33
ATOM     33  C   UNL A   1      33.555  31.886  27.318  1.00  0.00     0.338 C 
ATOM     34  O   UNL A   1      33.023  32.969  27.499  1.00  0.00    -0.246 OA
BRANCH  33  35
ATOM     35  C   UNL A   1      34.852  31.486  27.896  1.00  0.00     0.060 A 
ATOM     36  C   UNL A   1      35.017  30.154  28.305  1.00  0.00     0.016 A 
ATOM     37  C   UNL A   1      35.909  32.395  27.988  1.00  0.00     0.016 A 
ATOM     38  C   UNL A   1      36.235  29.727  28.817  1.00  0.00     0.010 A 
ATOM     39  C   UNL A   1      37.117  31.978  28.549  1.00  0.00     0.010 A 
ATOM     40  C   UNL A   1      37.268  30.652  28.993  1.00  0.00    -0.014 A 
BRANCH  40  41
ATOM     41  C   UNL A   1      38.396  30.295  29.878  1.00  0.00     0.031 A 
ATOM     42  C   UNL A   1      39.407  29.317  29.351  1.00  0.00     0.074 A 
ATOM     43  C   UNL A   1      38.529  30.834  31.100  1.00  0.00     0.049 A 
ATOM     44  N   UNL A   1      40.473  28.835  29.928  1.00  0.00    -0.248 NA
ATOM     45  C   UNL A   1      39.181  28.817  27.983  1.00  0.00     0.031 C 
ATOM     46  C   UNL A   1      37.626  31.813  31.698  1.00  0.00     0.029 A 
ATOM     47  N   UNL A   1      39.479  30.612  32.063  1.00  0.00    -0.354 N 
ATOM     48  C   UNL A   1      41.029  27.955  29.008  1.00  0.00     0.074 A 
ATOM     49  C   UNL A   1      40.175  27.957  27.843  1.00  0.00     0.031 C 
ATOM     50  C   UNL A   1      38.053  32.092  32.942  1.00  0.00     0.029 A 
ATOM     51  C   UNL A   1      39.241  31.291  33.233  1.00  0.00     0.049 A 
ATOM     52  H   UNL A   1      40.258  30.024  31.929  1.00  0.00     0.167 HD
ATOM     53  C   UNL A   1      42.158  27.217  29.119  1.00  0.00     0.034 A 
ATOM     54  C   UNL A   1      39.901  31.248  34.408  1.00  0.00     0.034 A 
ATOM     55  C   UNL A   1      42.997  27.214  30.284  1.00  0.00     0.049 A 
ATOM     56  C   UNL A   1      41.122  30.372  34.530  1.00  0.00     0.074 A 
ATOM     57  C   UNL A   1      44.178  26.526  30.494  1.00  0.00     0.029 A 
ATOM     58  N   UNL A   1      42.730  27.917  31.451  1.00  0.00    -0.354 N 
ATOM     59  N   UNL A   1      41.697  29.620  33.622  1.00  0.00    -0.248 NA
ATOM     60  C   UNL A   1      41.801  30.362  35.834  1.00  0.00     0.031 C 
ATOM     61  C   UNL A   1      44.602  26.781  31.803  1.00  0.00     0.029 A 
ATOM     62  C   UNL A   1      43.712  27.666  32.391  1.00  0.00     0.049 A 
ATOM     63  H   UNL A   1      41.954  28.508  31.588  1.00  0.00     0.167 HD
ATOM     64  C   UNL A   1      42.827  29.082  34.228  1.00  0.00     0.074 A 
ATOM     65  C   UNL A   1      42.861  29.605  35.580  1.00  0.00     0.031 C 
ATOM     66  C   UNL A   1      43.751  28.229  33.718  1.00  0.00     0.034 A 
BRANCH  53  67
ATOM     67  C   UNL A   1      42.533  26.354  27.943  1.00  0.00     0.023 A 
ATOM     68  C   UNL A   1      43.428  26.842  26.968  1.00  0.00     0.012 A 
ATOM     69  C   UNL A   1      41.999  25.059  27.803  1.00  0.00     0.148 A 
ATOM     70  C   UNL A   1      43.745  26.074  25.848  1.00  0.00     0.002 A 
ATOM     71  C   UNL A   1      42.360  24.281  26.711  1.00  0.00     0.091 A 
ATOM     72  F   UNL A   1      41.127  24.623  28.724  1.00  0.00    -0.205 F 
ATOM     73  C   UNL A   1      43.220  24.792  25.724  1.00  0.00     0.022 A 
BRANCH  71  74
ATOM     74  S   UNL A   1      41.799  22.588  26.505  1.00  0.00     0.127 S 
ATOM     75  O   UNL A   1      42.421  22.223  25.233  1.00  0.00    -0.237 OA
ATOM     76  O   UNL A   1      42.375  21.928  27.677  1.00  0.00    -0.237 OA
ATOM     77  O   UNL A   1      40.343  22.645  26.497  1.00  0.00    -0.744 OA
ENDBRANCH  71  74
ENDBRANCH  53  67
BRANCH  54  78
ATOM     78  C   UNL A   1      39.444  32.090  35.548  1.00  0.00     0.023 A 
ATOM     79  C   UNL A   1      38.596  31.533  36.524  1.00  0.00     0.012 A 
ATOM     80  C   UNL A   1      39.863  33.428  35.685  1.00  0.00     0.148 A 
ATOM     81  C   UNL A   1      38.152  32.299  37.602  1.00  0.00     0.002 A 
ATOM     82  C   UNL A   1      39.461  34.170  36.789  1.00  0.00     0.091 A 
ATOM     83  F   UNL A   1      40.662  33.942  34.739  1.00  0.00    -0.205 F 
ATOM     84  C   UNL A   1      38.592  33.613  37.740  1.00  0.00     0.022 A 
BRANCH  82  85
ATOM     85  S   UNL A   1      40.069  35.828  37.117  1.00  0.00     0.127 S 
ATOM     86  O   UNL A   1      39.307  36.196  38.309  1.00  0.00    -0.237 OA
ATOM     87  O   UNL A   1      41.492  35.579  37.347  1.00  0.00    -0.237 OA
ATOM     88  O   UNL A   1      39.775  36.604  35.920  1.00  0.00    -0.744 OA
ENDBRANCH  82  85
ENDBRANCH  54  78
BRANCH  66  89
ATOM     89  C   UNL A   1      44.909  27.837  34.602  1.00  0.00     0.023 A 
ATOM     90  C   UNL A   1      46.059  28.648  34.664  1.00  0.00     0.012 A 
ATOM     91  C   UNL A   1      44.819  26.702  35.433  1.00  0.00     0.148 A 
ATOM     92  C   UNL A   1      47.116  28.314  35.510  1.00  0.00     0.002 A 
ATOM     93  C   UNL A   1      45.851  26.406  36.314  1.00  0.00     0.091 A 
ATOM     94  F   UNL A   1      43.722  25.935  35.350  1.00  0.00    -0.205 F 
ATOM     95  C   UNL A   1      47.007  27.204  36.343  1.00  0.00     0.022 A 
BRANCH  93  96
ATOM     96  S   UNL A   1      45.757  25.057  37.495  1.00  0.00     0.127 S 
ATOM     97  O   UNL A   1      46.124  25.725  38.742  1.00  0.00    -0.237 OA
ATOM     98  O   UNL A   1      44.350  24.665  37.404  1.00  0.00    -0.237 OA
ATOM     99  O   UNL A   1      46.698  24.047  37.029  1.00  0.00    -0.744 OA
ENDBRANCH  93  96
ENDBRANCH  66  89
ENDBRANCH  40  41
ENDBRANCH  33  35
ENDBRANCH  32  33
ENDBRANCH  31  32
ENDBRANCH  30  31
ENDBRANCH  29  30
ENDBRANCH  28  29
ENDBRANCH   1  28
TORSDOF 25
ENDMDL
