MODEL 1
REMARK VINA RESULT:      -8.2      0.000      0.000
REMARK SMILES CCN1CC(=O)N(C[C@@H]([NH3+])C(=O)OCCOCCOCCOCCOC(=O)c2ccc(-c3c4nc(c(-c5cccc(S(=O)(=O)[O-])c5F)c5ccc([nH]5)c(-c5cccc(S(=O)(=O)[O-])c5F)c5nc(c(-c6cccc(S(=O)(=O)[O-])c6F)c6ccc3[nH]6)C=C5)C=C4)cc2)CC1=O
REMARK SMILES IDX 19 1 18 2 17 3 16 4 15 5 14 6 13 7 11 8 12 9 9 10 8 11 7 12
REMARK SMILES IDX 3 13 4 14 92 15 5 16 91 17 93 18 6 19 2 20 1 21 10 22 20 26
REMARK SMILES IDX 21 27 22 28 23 29 24 30 25 31 26 32 27 33 28 34 29 35 90 36
REMARK SMILES IDX 30 37 89 38 31 39 32 40 33 41 83 42 34 43 88 44 82 45 84 46
REMARK SMILES IDX 35 47 87 48 81 49 80 50 36 52 68 53 48 54 67 55 49 56 52 57
REMARK SMILES IDX 66 58 85 59 50 60 51 61 65 63 86 64 53 65 37 66 38 67 46 68
REMARK SMILES IDX 39 69 41 70 47 71 40 72 42 73 43 74 44 75 45 76 69 77 70 78
REMARK SMILES IDX 78 79 71 80 73 81 79 82 72 83 74 84 75 85 76 86 77 87 54 88
REMARK SMILES IDX 55 89 63 90 56 91 58 92 64 93 57 94 59 95 60 96 61 97 62 98
REMARK H PARENT 10 23 10 24 10 25 84 51 52 62
REMARK Flexibility Score: inf
ROOT
ATOM      1  O   UNL A   1      32.989  36.583  30.058  1.00  0.00    -0.377 OA
ENDROOT
BRANCH   1   2
ATOM      2  C   UNL A   1      33.006  35.686  28.967  1.00  0.00     0.188 C 
BRANCH   2   3
ATOM      3  C   UNL A   1      34.411  35.344  28.448  1.00  0.00     0.188 C 
BRANCH   3   4
ATOM      4  O   UNL A   1      34.612  34.326  27.481  1.00  0.00    -0.376 OA
BRANCH   4   5
ATOM      5  C   UNL A   1      34.898  32.983  27.851  1.00  0.00     0.202 C 
BRANCH   5   6
ATOM      6  C   UNL A   1      33.826  31.983  28.315  1.00  0.00     0.261 C 
BRANCH   6   7
ATOM      7  O   UNL A   1      33.637  30.831  27.480  1.00  0.00    -0.459 OA
BRANCH   7   8
ATOM      8  C   UNL A   1      32.408  30.694  26.943  1.00  0.00     0.366 C 
ATOM      9  O   UNL A   1      31.711  31.632  26.553  1.00  0.00    -0.245 OA
BRANCH   8  10
ATOM     10  C   UNL A   1      31.941  29.239  26.737  1.00  0.00     0.311 C 
BRANCH  10  11
ATOM     11  C   UNL A   1      31.943  28.679  25.298  1.00  0.00     0.197 C 
BRANCH  11  12
ATOM     12  N   UNL A   1      31.811  27.209  25.247  1.00  0.00    -0.325 N 
ATOM     13  N   UNL A   1      31.487  24.532  25.940  1.00  0.00    -0.332 N 
ATOM     14  C   UNL A   1      32.523  24.868  24.953  1.00  0.00     0.219 C 
ATOM     15  C   UNL A   1      30.409  25.399  26.123  1.00  0.00     0.242 C 
ATOM     16  C   UNL A   1      32.875  26.372  24.927  1.00  0.00     0.242 C 
ATOM     17  C   UNL A   1      30.468  26.645  25.255  1.00  0.00     0.220 C 
ATOM     18  O   UNL A   1      29.418  25.132  26.795  1.00  0.00    -0.273 OA
ATOM     19  O   UNL A   1      33.959  26.782  24.517  1.00  0.00    -0.273 OA
BRANCH  13  20
ATOM     20  C   UNL A   1      31.568  23.267  26.668  1.00  0.00     0.116 C 
ATOM     21  C   UNL A   1      32.505  22.232  26.054  1.00  0.00     0.027 C 
ENDBRANCH  13  20
ENDBRANCH  11  12
ENDBRANCH  10  11
BRANCH  10  22
ATOM     22  N   UNL A   1      32.753  28.394  27.666  1.00  0.00    -0.344 N 
ATOM     23  H   UNL A   1      33.455  28.974  28.126  1.00  0.00     0.345 HD
ATOM     24  H   UNL A   1      33.215  27.656  27.136  1.00  0.00     0.345 HD
ATOM     25  H   UNL A   1      32.142  27.978  28.368  1.00  0.00     0.345 HD
ENDBRANCH  10  22
ENDBRANCH   8  10
ENDBRANCH   7   8
ENDBRANCH   6   7
ENDBRANCH   5   6
ENDBRANCH   4   5
ENDBRANCH   3   4
ENDBRANCH   2   3
ENDBRANCH   1   2
BRANCH   1  26
ATOM     26  C   UNL A   1      32.437  36.138  31.291  1.00  0.00     0.188 C 
BRANCH  26  27
ATOM     27  C   UNL A   1      33.348  36.053  32.534  1.00  0.00     0.188 C 
BRANCH  27  28
ATOM     28  O   UNL A   1      34.674  35.624  32.265  1.00  0.00    -0.376 OA
BRANCH  28  29
ATOM     29  C   UNL A   1      34.930  34.229  32.183  1.00  0.00     0.202 C 
BRANCH  29  30
ATOM     30  C   UNL A   1      35.965  33.741  31.156  1.00  0.00     0.261 C 
BRANCH  30  31
ATOM     31  O   UNL A   1      37.267  33.396  31.663  1.00  0.00    -0.460 OA
BRANCH  31  32
ATOM     32  C   UNL A   1      38.055  34.383  32.141  1.00  0.00     0.338 C 
ATOM     33  O   UNL A   1      37.866  35.056  33.132  1.00  0.00    -0.246 OA
BRANCH  32  34
ATOM     34  C   UNL A   1      39.313  34.369  31.361  1.00  0.00     0.060 A 
ATOM     35  C   UNL A   1      40.526  34.199  32.043  1.00  0.00     0.016 A 
ATOM     36  C   UNL A   1      39.299  34.538  29.976  1.00  0.00     0.016 A 
ATOM     37  C   UNL A   1      41.733  34.245  31.345  1.00  0.00     0.010 A 
ATOM     38  C   UNL A   1      40.511  34.606  29.281  1.00  0.00     0.010 A 
ATOM     39  C   UNL A   1      41.733  34.501  29.968  1.00  0.00    -0.014 A 
BRANCH  39  40
ATOM     40  C   UNL A   1      43.004  34.856  29.289  1.00  0.00     0.031 A 
ATOM     41  C   UNL A   1      43.945  33.745  28.909  1.00  0.00     0.074 A 
ATOM     42  C   UNL A   1      43.320  36.133  29.010  1.00  0.00     0.049 A 
ATOM     43  N   UNL A   1      45.125  33.810  28.351  1.00  0.00    -0.248 NA
ATOM     44  C   UNL A   1      43.494  32.373  29.201  1.00  0.00     0.031 C 
ATOM     45  C   UNL A   1      42.489  37.296  29.315  1.00  0.00     0.029 A 
ATOM     46  N   UNL A   1      44.445  36.664  28.430  1.00  0.00    -0.354 N 
ATOM     47  C   UNL A   1      45.574  32.498  28.259  1.00  0.00     0.074 A 
ATOM     48  C   UNL A   1      44.542  31.656  28.824  1.00  0.00     0.031 C 
ATOM     49  C   UNL A   1      43.149  38.409  28.952  1.00  0.00     0.029 A 
ATOM     50  C   UNL A   1      44.460  38.039  28.418  1.00  0.00     0.049 A 
ATOM     51  H   UNL A   1      45.172  36.114  28.059  1.00  0.00     0.167 HD
ATOM     52  C   UNL A   1      46.737  32.034  27.746  1.00  0.00     0.034 A 
ATOM     53  C   UNL A   1      45.431  38.898  28.049  1.00  0.00     0.034 A 
ATOM     54  C   UNL A   1      47.756  32.871  27.173  1.00  0.00     0.049 A 
ATOM     55  C   UNL A   1      46.730  38.356  27.508  1.00  0.00     0.074 A 
ATOM     56  C   UNL A   1      48.945  32.489  26.578  1.00  0.00     0.029 A 
ATOM     57  N   UNL A   1      47.719  34.255  27.144  1.00  0.00    -0.354 N 
ATOM     58  N   UNL A   1      47.094  37.110  27.321  1.00  0.00    -0.248 NA
ATOM     59  C   UNL A   1      47.744  39.341  27.098  1.00  0.00     0.031 C 
ATOM     60  C   UNL A   1      49.648  33.646  26.229  1.00  0.00     0.029 A 
ATOM     61  C   UNL A   1      48.873  34.746  26.559  1.00  0.00     0.049 A 
ATOM     62  H   UNL A   1      46.979  34.808  27.488  1.00  0.00     0.167 HD
ATOM     63  C   UNL A   1      48.355  37.161  26.735  1.00  0.00     0.074 A 
ATOM     64  C   UNL A   1      48.687  38.563  26.583  1.00  0.00     0.031 C 
ATOM     65  C   UNL A   1      49.170  36.143  26.367  1.00  0.00     0.034 A 
BRANCH  52  66
ATOM     66  C   UNL A   1      46.975  30.547  27.781  1.00  0.00     0.023 A 
ATOM     67  C   UNL A   1      47.481  29.940  28.950  1.00  0.00     0.012 A 
ATOM     68  C   UNL A   1      46.641  29.743  26.674  1.00  0.00     0.148 A 
ATOM     69  C   UNL A   1      47.681  28.561  29.002  1.00  0.00     0.002 A 
ATOM     70  C   UNL A   1      46.796  28.365  26.751  1.00  0.00     0.091 A 
ATOM     71  F   UNL A   1      46.182  30.342  25.566  1.00  0.00    -0.205 F 
ATOM     72  C   UNL A   1      47.328  27.774  27.909  1.00  0.00     0.022 A 
BRANCH  70  73
ATOM     73  S   UNL A   1      46.294  27.258  25.431  1.00  0.00     0.127 S 
ATOM     74  O   UNL A   1      44.971  27.783  25.091  1.00  0.00    -0.237 OA
ATOM     75  O   UNL A   1      47.323  27.500  24.420  1.00  0.00    -0.237 OA
ATOM     76  O   UNL A   1      46.303  25.918  26.002  1.00  0.00    -0.744 OA
ENDBRANCH  70  73
ENDBRANCH  52  66
BRANCH  53  77
ATOM     77  C   UNL A   1      45.216  40.368  28.171  1.00  0.00     0.023 A 
ATOM     78  C   UNL A   1      44.919  41.132  27.026  1.00  0.00     0.012 A 
ATOM     79  C   UNL A   1      45.310  41.012  29.420  1.00  0.00     0.148 A 
ATOM     80  C   UNL A   1      44.754  42.515  27.116  1.00  0.00     0.002 A 
ATOM     81  C   UNL A   1      45.087  42.380  29.512  1.00  0.00     0.091 A 
ATOM     82  F   UNL A   1      45.612  40.271  30.495  1.00  0.00    -0.205 F 
ATOM     83  C   UNL A   1      44.828  43.137  28.360  1.00  0.00     0.022 A 
BRANCH  81  84
ATOM     84  S   UNL A   1      45.036  43.245  31.086  1.00  0.00     0.127 S 
ATOM     85  O   UNL A   1      44.825  44.626  30.661  1.00  0.00    -0.237 OA
ATOM     86  O   UNL A   1      43.886  42.615  31.734  1.00  0.00    -0.237 OA
ATOM     87  O   UNL A   1      46.315  42.971  31.727  1.00  0.00    -0.744 OA
ENDBRANCH  81  84
ENDBRANCH  53  77
BRANCH  65  88
ATOM     88  C   UNL A   1      50.482  36.490  25.710  1.00  0.00     0.023 A 
ATOM     89  C   UNL A   1      50.616  36.423  24.309  1.00  0.00     0.012 A 
ATOM     90  C   UNL A   1      51.565  36.957  26.483  1.00  0.00     0.148 A 
ATOM     91  C   UNL A   1      51.814  36.779  23.693  1.00  0.00     0.002 A 
ATOM     92  C   UNL A   1      52.737  37.363  25.858  1.00  0.00     0.091 A 
ATOM     93  F   UNL A   1      51.424  36.999  27.817  1.00  0.00    -0.205 F 
ATOM     94  C   UNL A   1      52.869  37.261  24.465  1.00  0.00     0.022 A 
BRANCH  92  95
ATOM     95  S   UNL A   1      54.110  38.088  26.761  1.00  0.00     0.127 S 
ATOM     96  O   UNL A   1      53.821  39.517  26.643  1.00  0.00    -0.237 OA
ATOM     97  O   UNL A   1      53.923  37.537  28.103  1.00  0.00    -0.237 OA
ATOM     98  O   UNL A   1      55.320  37.640  26.085  1.00  0.00    -0.744 OA
ENDBRANCH  92  95
ENDBRANCH  65  88
ENDBRANCH  39  40
ENDBRANCH  32  34
ENDBRANCH  31  32
ENDBRANCH  30  31
ENDBRANCH  29  30
ENDBRANCH  28  29
ENDBRANCH  27  28
ENDBRANCH  26  27
ENDBRANCH   1  26
TORSDOF 27
ENDMDL
MODEL 2
REMARK VINA RESULT:      -8.0      3.793      6.011
REMARK SMILES CCN1CC(=O)N(C[C@@H]([NH3+])C(=O)OCCOCCOCCOCCOC(=O)c2ccc(-c3c4nc(c(-c5cccc(S(=O)(=O)[O-])c5F)c5ccc([nH]5)c(-c5cccc(S(=O)(=O)[O-])c5F)c5nc(c(-c6cccc(S(=O)(=O)[O-])c6F)c6ccc3[nH]6)C=C5)C=C4)cc2)CC1=O
REMARK SMILES IDX 19 1 18 2 17 3 16 4 15 5 14 6 13 7 11 8 12 9 9 10 8 11 7 12
REMARK SMILES IDX 3 13 4 14 92 15 5 16 91 17 93 18 6 19 2 20 1 21 10 22 20 26
REMARK SMILES IDX 21 27 22 28 23 29 24 30 25 31 26 32 27 33 28 34 29 35 90 36
REMARK SMILES IDX 30 37 89 38 31 39 32 40 33 41 83 42 34 43 88 44 82 45 84 46
REMARK SMILES IDX 35 47 87 48 81 49 80 50 36 52 68 53 48 54 67 55 49 56 52 57
REMARK SMILES IDX 66 58 85 59 50 60 51 61 65 63 86 64 53 65 37 66 38 67 46 68
REMARK SMILES IDX 39 69 41 70 47 71 40 72 42 73 43 74 44 75 45 76 69 77 70 78
REMARK SMILES IDX 78 79 71 80 73 81 79 82 72 83 74 84 75 85 76 86 77 87 54 88
REMARK SMILES IDX 55 89 63 90 56 91 58 92 64 93 57 94 59 95 60 96 61 97 62 98
REMARK H PARENT 10 23 10 24 10 25 84 51 52 62
REMARK Flexibility Score: inf
ROOT
ATOM      1  O   UNL A   1      32.941  36.876  30.574  1.00  0.00    -0.377 OA
ENDROOT
BRANCH   1   2
ATOM      2  C   UNL A   1      32.899  36.076  29.411  1.00  0.00     0.188 C 
BRANCH   2   3
ATOM      3  C   UNL A   1      34.181  36.117  28.566  1.00  0.00     0.188 C 
BRANCH   3   4
ATOM      4  O   UNL A   1      34.547  35.031  27.729  1.00  0.00    -0.376 OA
BRANCH   4   5
ATOM      5  C   UNL A   1      34.910  33.763  28.259  1.00  0.00     0.202 C 
BRANCH   5   6
ATOM      6  C   UNL A   1      33.898  32.637  28.536  1.00  0.00     0.261 C 
BRANCH   6   7
ATOM      7  O   UNL A   1      34.127  31.401  27.845  1.00  0.00    -0.459 OA
BRANCH   7   8
ATOM      8  C   UNL A   1      33.080  30.920  27.146  1.00  0.00     0.366 C 
ATOM      9  O   UNL A   1      32.003  31.504  27.018  1.00  0.00    -0.245 OA
BRANCH   8  10
ATOM     10  C   UNL A   1      33.343  29.598  26.398  1.00  0.00     0.311 C 
BRANCH  10  11
ATOM     11  C   UNL A   1      32.762  29.447  24.975  1.00  0.00     0.197 C 
BRANCH  11  12
ATOM     12  N   UNL A   1      32.438  28.050  24.625  1.00  0.00    -0.325 N 
ATOM     13  N   UNL A   1      32.300  25.269  24.592  1.00  0.00    -0.332 N 
ATOM     14  C   UNL A   1      32.472  25.966  23.310  1.00  0.00     0.219 C 
ATOM     15  C   UNL A   1      31.727  25.948  25.667  1.00  0.00     0.242 C 
ATOM     16  C   UNL A   1      32.914  27.438  23.470  1.00  0.00     0.242 C 
ATOM     17  C   UNL A   1      31.367  27.393  25.363  1.00  0.00     0.220 C 
ATOM     18  O   UNL A   1      31.391  25.413  26.719  1.00  0.00    -0.273 OA
ATOM     19  O   UNL A   1      33.509  28.042  22.579  1.00  0.00    -0.273 OA
BRANCH  13  20
ATOM     20  C   UNL A   1      32.670  23.859  24.702  1.00  0.00     0.116 C 
ATOM     21  C   UNL A   1      32.169  22.974  23.565  1.00  0.00     0.027 C 
ENDBRANCH  13  20
ENDBRANCH  11  12
ENDBRANCH  10  11
BRANCH  10  22
ATOM     22  N   UNL A   1      34.821  29.379  26.423  1.00  0.00    -0.344 N 
ATOM     23  H   UNL A   1      35.055  28.573  25.842  1.00  0.00     0.345 HD
ATOM     24  H   UNL A   1      35.124  29.207  27.381  1.00  0.00     0.345 HD
ATOM     25  H   UNL A   1      35.294  30.207  26.060  1.00  0.00     0.345 HD
ENDBRANCH  10  22
ENDBRANCH   8  10
ENDBRANCH   7   8
ENDBRANCH   6   7
ENDBRANCH   5   6
ENDBRANCH   4   5
ENDBRANCH   3   4
ENDBRANCH   2   3
ENDBRANCH   1   2
BRANCH   1  26
ATOM     26  C   UNL A   1      32.816  36.238  31.839  1.00  0.00     0.188 C 
BRANCH  26  27
ATOM     27  C   UNL A   1      34.060  36.115  32.743  1.00  0.00     0.188 C 
BRANCH  27  28
ATOM     28  O   UNL A   1      35.130  35.374  32.176  1.00  0.00    -0.376 OA
BRANCH  28  29
ATOM     29  C   UNL A   1      35.345  34.043  32.625  1.00  0.00     0.202 C 
BRANCH  29  30
ATOM     30  C   UNL A   1      35.984  33.043  31.647  1.00  0.00     0.261 C 
BRANCH  30  31
ATOM     31  O   UNL A   1      37.115  32.297  32.130  1.00  0.00    -0.460 OA
BRANCH  31  32
ATOM     32  C   UNL A   1      38.258  32.963  32.401  1.00  0.00     0.338 C 
ATOM     33  O   UNL A   1      38.404  33.884  33.177  1.00  0.00    -0.246 OA
BRANCH  32  34
ATOM     34  C   UNL A   1      39.366  32.237  31.740  1.00  0.00     0.060 A 
ATOM     35  C   UNL A   1      40.483  31.873  32.504  1.00  0.00     0.016 A 
ATOM     36  C   UNL A   1      39.311  31.931  30.379  1.00  0.00     0.016 A 
ATOM     37  C   UNL A   1      41.571  31.245  31.897  1.00  0.00     0.010 A 
ATOM     38  C   UNL A   1      40.411  31.321  29.768  1.00  0.00     0.010 A 
ATOM     39  C   UNL A   1      41.561  31.013  30.516  1.00  0.00    -0.014 A 
BRANCH  39  40
ATOM     40  C   UNL A   1      42.821  30.637  29.827  1.00  0.00     0.031 A 
ATOM     41  C   UNL A   1      43.046  29.187  29.492  1.00  0.00     0.074 A 
ATOM     42  C   UNL A   1      43.746  31.557  29.501  1.00  0.00     0.049 A 
ATOM     43  N   UNL A   1      44.080  28.614  28.935  1.00  0.00    -0.248 NA
ATOM     44  C   UNL A   1      41.956  28.256  29.835  1.00  0.00     0.031 C 
ATOM     45  C   UNL A   1      43.641  32.991  29.759  1.00  0.00     0.029 A 
ATOM     46  N   UNL A   1      44.974  31.410  28.904  1.00  0.00    -0.354 N 
ATOM     47  C   UNL A   1      43.785  27.257  28.895  1.00  0.00     0.074 A 
ATOM     48  C   UNL A   1      42.477  27.089  29.488  1.00  0.00     0.031 C 
ATOM     49  C   UNL A   1      44.775  33.590  29.356  1.00  0.00     0.029 A 
ATOM     50  C   UNL A   1      45.696  32.578  28.839  1.00  0.00     0.049 A 
ATOM     51  H   UNL A   1      45.306  30.550  28.556  1.00  0.00     0.167 HD
ATOM     52  C   UNL A   1      44.532  26.241  28.403  1.00  0.00     0.034 A 
ATOM     53  C   UNL A   1      46.965  32.798  28.440  1.00  0.00     0.034 A 
ATOM     54  C   UNL A   1      45.826  26.411  27.802  1.00  0.00     0.049 A 
ATOM     55  C   UNL A   1      47.788  31.645  27.924  1.00  0.00     0.074 A 
ATOM     56  C   UNL A   1      46.637  25.450  27.224  1.00  0.00     0.029 A 
ATOM     57  N   UNL A   1      46.509  27.613  27.719  1.00  0.00    -0.354 N 
ATOM     58  N   UNL A   1      47.452  30.385  27.785  1.00  0.00    -0.248 NA
ATOM     59  C   UNL A   1      49.157  31.949  27.480  1.00  0.00     0.031 C 
ATOM     60  C   UNL A   1      47.830  26.064  26.833  1.00  0.00     0.029 A 
ATOM     61  C   UNL A   1      47.741  27.417  27.119  1.00  0.00     0.049 A 
ATOM     62  H   UNL A   1      46.168  28.480  28.040  1.00  0.00     0.167 HD
ATOM     63  C   UNL A   1      48.548  29.757  27.202  1.00  0.00     0.074 A 
ATOM     64  C   UNL A   1      49.553  30.779  26.997  1.00  0.00     0.031 C 
ATOM     65  C   UNL A   1      48.713  28.452  26.874  1.00  0.00     0.034 A 
BRANCH  52  66
ATOM     66  C   UNL A   1      43.968  24.847  28.495  1.00  0.00     0.023 A 
ATOM     67  C   UNL A   1      43.921  24.186  29.740  1.00  0.00     0.012 A 
ATOM     68  C   UNL A   1      43.430  24.216  27.356  1.00  0.00     0.148 A 
ATOM     69  C   UNL A   1      43.378  22.906  29.842  1.00  0.00     0.002 A 
ATOM     70  C   UNL A   1      42.847  22.963  27.475  1.00  0.00     0.091 A 
ATOM     71  F   UNL A   1      43.505  24.854  26.179  1.00  0.00    -0.205 F 
ATOM     72  C   UNL A   1      42.831  22.300  28.713  1.00  0.00     0.022 A 
BRANCH  70  73
ATOM     73  S   UNL A   1      42.042  22.134  26.100  1.00  0.00     0.127 S 
ATOM     74  O   UNL A   1      42.069  20.739  26.539  1.00  0.00    -0.237 OA
ATOM     75  O   UNL A   1      40.714  22.749  26.107  1.00  0.00    -0.237 OA
ATOM     76  O   UNL A   1      42.846  22.432  24.923  1.00  0.00    -0.744 OA
ENDBRANCH  70  73
ENDBRANCH  52  66
BRANCH  53  77
ATOM     77  C   UNL A   1      47.542  34.170  28.506  1.00  0.00     0.023 A 
ATOM     78  C   UNL A   1      48.021  34.673  29.732  1.00  0.00     0.012 A 
ATOM     79  C   UNL A   1      47.615  34.982  27.357  1.00  0.00     0.148 A 
ATOM     80  C   UNL A   1      48.528  35.970  29.820  1.00  0.00     0.002 A 
ATOM     81  C   UNL A   1      48.175  36.251  27.439  1.00  0.00     0.091 A 
ATOM     82  F   UNL A   1      47.138  34.492  26.204  1.00  0.00    -0.205 F 
ATOM     83  C   UNL A   1      48.614  36.755  28.672  1.00  0.00     0.022 A 
BRANCH  81  84
ATOM     84  S   UNL A   1      48.444  37.281  25.992  1.00  0.00     0.127 S 
ATOM     85  O   UNL A   1      49.091  36.345  25.076  1.00  0.00    -0.237 OA
ATOM     86  O   UNL A   1      47.075  37.650  25.633  1.00  0.00    -0.237 OA
ATOM     87  O   UNL A   1      49.268  38.392  26.447  1.00  0.00    -0.744 OA
ENDBRANCH  81  84
ENDBRANCH  53  77
BRANCH  65  88
ATOM     88  C   UNL A   1      50.004  28.048  26.208  1.00  0.00     0.023 A 
ATOM     89  C   UNL A   1      50.121  28.081  24.804  1.00  0.00     0.012 A 
ATOM     90  C   UNL A   1      51.131  27.706  26.985  1.00  0.00     0.148 A 
ATOM     91  C   UNL A   1      51.324  27.746  24.185  1.00  0.00     0.002 A 
ATOM     92  C   UNL A   1      52.341  27.428  26.363  1.00  0.00     0.091 A 
ATOM     93  F   UNL A   1      50.997  27.666  28.319  1.00  0.00    -0.205 F 
ATOM     94  C   UNL A   1      52.436  27.432  24.963  1.00  0.00     0.022 A 
BRANCH  92  95
ATOM     95  S   UNL A   1      53.849  27.112  27.286  1.00  0.00     0.127 S 
ATOM     96  O   UNL A   1      54.801  26.828  26.213  1.00  0.00    -0.237 OA
ATOM     97  O   UNL A   1      54.065  28.386  27.971  1.00  0.00    -0.237 OA
ATOM     98  O   UNL A   1      53.555  25.992  28.170  1.00  0.00    -0.744 OA
ENDBRANCH  92  95
ENDBRANCH  65  88
ENDBRANCH  39  40
ENDBRANCH  32  34
ENDBRANCH  31  32
ENDBRANCH  30  31
ENDBRANCH  29  30
ENDBRANCH  28  29
ENDBRANCH  27  28
ENDBRANCH  26  27
ENDBRANCH   1  26
TORSDOF 27
ENDMDL
MODEL 3
REMARK VINA RESULT:      -7.8      7.372     10.259
REMARK SMILES CCN1CC(=O)N(C[C@@H]([NH3+])C(=O)OCCOCCOCCOCCOC(=O)c2ccc(-c3c4nc(c(-c5cccc(S(=O)(=O)[O-])c5F)c5ccc([nH]5)c(-c5cccc(S(=O)(=O)[O-])c5F)c5nc(c(-c6cccc(S(=O)(=O)[O-])c6F)c6ccc3[nH]6)C=C5)C=C4)cc2)CC1=O
REMARK SMILES IDX 19 1 18 2 17 3 16 4 15 5 14 6 13 7 11 8 12 9 9 10 8 11 7 12
REMARK SMILES IDX 3 13 4 14 92 15 5 16 91 17 93 18 6 19 2 20 1 21 10 22 20 26
REMARK SMILES IDX 21 27 22 28 23 29 24 30 25 31 26 32 27 33 28 34 29 35 90 36
REMARK SMILES IDX 30 37 89 38 31 39 32 40 33 41 83 42 34 43 88 44 82 45 84 46
REMARK SMILES IDX 35 47 87 48 81 49 80 50 36 52 68 53 48 54 67 55 49 56 52 57
REMARK SMILES IDX 66 58 85 59 50 60 51 61 65 63 86 64 53 65 37 66 38 67 46 68
REMARK SMILES IDX 39 69 41 70 47 71 40 72 42 73 43 74 44 75 45 76 69 77 70 78
REMARK SMILES IDX 78 79 71 80 73 81 79 82 72 83 74 84 75 85 76 86 77 87 54 88
REMARK SMILES IDX 55 89 63 90 56 91 58 92 64 93 57 94 59 95 60 96 61 97 62 98
REMARK H PARENT 10 23 10 24 10 25 84 51 52 62
REMARK Flexibility Score: inf
ROOT
ATOM      1  O   UNL A   1      32.982  34.960  31.280  1.00  0.00    -0.377 OA
ENDROOT
BRANCH   1   2
ATOM      2  C   UNL A   1      33.201  35.352  29.941  1.00  0.00     0.188 C 
BRANCH   2   3
ATOM      3  C   UNL A   1      34.425  34.700  29.281  1.00  0.00     0.188 C 
BRANCH   3   4
ATOM      4  O   UNL A   1      34.523  33.291  29.140  1.00  0.00    -0.376 OA
BRANCH   4   5
ATOM      5  C   UNL A   1      33.722  32.572  28.211  1.00  0.00     0.202 C 
BRANCH   5   6
ATOM      6  C   UNL A   1      34.125  31.211  27.617  1.00  0.00     0.261 C 
BRANCH   6   7
ATOM      7  O   UNL A   1      33.095  30.212  27.579  1.00  0.00    -0.459 OA
BRANCH   7   8
ATOM      8  C   UNL A   1      32.384  30.149  26.436  1.00  0.00     0.366 C 
ATOM      9  O   UNL A   1      31.555  30.990  26.087  1.00  0.00    -0.245 OA
BRANCH   8  10
ATOM     10  C   UNL A   1      32.749  28.979  25.501  1.00  0.00     0.311 C 
BRANCH  10  11
ATOM     11  C   UNL A   1      31.679  27.893  25.255  1.00  0.00     0.197 C 
BRANCH  11  12
ATOM     12  N   UNL A   1      32.122  26.541  25.650  1.00  0.00    -0.325 N 
ATOM     13  N   UNL A   1      33.054  23.918  25.605  1.00  0.00    -0.332 N 
ATOM     14  C   UNL A   1      31.917  24.231  26.482  1.00  0.00     0.219 C 
ATOM     15  C   UNL A   1      33.928  24.938  25.228  1.00  0.00     0.242 C 
ATOM     16  C   UNL A   1      31.248  25.584  26.154  1.00  0.00     0.242 C 
ATOM     17  C   UNL A   1      33.554  26.304  25.779  1.00  0.00     0.220 C 
ATOM     18  O   UNL A   1      34.989  24.753  24.641  1.00  0.00    -0.273 OA
ATOM     19  O   UNL A   1      30.079  25.824  26.453  1.00  0.00    -0.273 OA
BRANCH  13  20
ATOM     20  C   UNL A   1      33.289  22.535  25.195  1.00  0.00     0.116 C 
ATOM     21  C   UNL A   1      32.859  22.206  23.769  1.00  0.00     0.027 C 
ENDBRANCH  13  20
ENDBRANCH  11  12
ENDBRANCH  10  11
BRANCH  10  22
ATOM     22  N   UNL A   1      33.230  29.588  24.223  1.00  0.00    -0.344 N 
ATOM     23  H   UNL A   1      34.191  29.295  24.048  1.00  0.00     0.345 HD
ATOM     24  H   UNL A   1      33.192  30.604  24.295  1.00  0.00     0.345 HD
ATOM     25  H   UNL A   1      32.635  29.279  23.454  1.00  0.00     0.345 HD
ENDBRANCH  10  22
ENDBRANCH   8  10
ENDBRANCH   7   8
ENDBRANCH   6   7
ENDBRANCH   5   6
ENDBRANCH   4   5
ENDBRANCH   3   4
ENDBRANCH   2   3
ENDBRANCH   1   2
BRANCH   1  26
ATOM     26  C   UNL A   1      33.815  35.512  32.292  1.00  0.00     0.188 C 
BRANCH  26  27
ATOM     27  C   UNL A   1      34.724  34.572  33.111  1.00  0.00     0.188 C 
BRANCH  27  28
ATOM     28  O   UNL A   1      36.097  34.933  33.111  1.00  0.00    -0.376 OA
BRANCH  28  29
ATOM     29  C   UNL A   1      37.065  33.913  33.317  1.00  0.00     0.202 C 
BRANCH  29  30
ATOM     30  C   UNL A   1      37.244  32.852  32.218  1.00  0.00     0.261 C 
BRANCH  30  31
ATOM     31  O   UNL A   1      38.420  32.028  32.300  1.00  0.00    -0.460 OA
BRANCH  31  32
ATOM     32  C   UNL A   1      38.265  30.687  32.347  1.00  0.00     0.338 C 
ATOM     33  O   UNL A   1      37.305  30.047  31.974  1.00  0.00    -0.246 OA
BRANCH  32  34
ATOM     34  C   UNL A   1      39.566  30.099  32.741  1.00  0.00     0.060 A 
ATOM     35  C   UNL A   1      40.670  30.948  32.893  1.00  0.00     0.016 A 
ATOM     36  C   UNL A   1      39.697  28.724  32.944  1.00  0.00     0.016 A 
ATOM     37  C   UNL A   1      41.923  30.416  33.202  1.00  0.00     0.010 A 
ATOM     38  C   UNL A   1      40.958  28.191  33.232  1.00  0.00     0.010 A 
ATOM     39  C   UNL A   1      42.082  29.031  33.321  1.00  0.00    -0.014 A 
BRANCH  39  40
ATOM     40  C   UNL A   1      43.447  28.449  33.339  1.00  0.00     0.031 A 
ATOM     41  C   UNL A   1      44.045  27.988  32.037  1.00  0.00     0.074 A 
ATOM     42  C   UNL A   1      44.147  28.332  34.481  1.00  0.00     0.049 A 
ATOM     43  N   UNL A   1      45.195  27.412  31.809  1.00  0.00    -0.248 NA
ATOM     44  C   UNL A   1      43.232  28.205  30.827  1.00  0.00     0.031 C 
ATOM     45  C   UNL A   1      43.686  28.752  35.803  1.00  0.00     0.029 A 
ATOM     46  N   UNL A   1      45.391  27.796  34.712  1.00  0.00    -0.354 N 
ATOM     47  C   UNL A   1      45.229  27.162  30.442  1.00  0.00     0.074 A 
ATOM     48  C   UNL A   1      43.982  27.646  29.891  1.00  0.00     0.031 C 
ATOM     49  C   UNL A   1      44.619  28.424  36.713  1.00  0.00     0.029 A 
ATOM     50  C   UNL A   1      45.729  27.746  36.043  1.00  0.00     0.049 A 
ATOM     51  H   UNL A   1      45.983  27.478  33.992  1.00  0.00     0.167 HD
ATOM     52  C   UNL A   1      46.212  26.589  29.709  1.00  0.00     0.034 A 
ATOM     53  C   UNL A   1      46.794  27.188  36.653  1.00  0.00     0.034 A 
ATOM     54  C   UNL A   1      47.456  26.121  30.256  1.00  0.00     0.049 A 
ATOM     55  C   UNL A   1      47.862  26.528  35.817  1.00  0.00     0.074 A 
ATOM     56  C   UNL A   1      48.537  25.576  29.586  1.00  0.00     0.029 A 
ATOM     57  N   UNL A   1      47.779  26.122  31.603  1.00  0.00    -0.354 N 
ATOM     58  N   UNL A   1      47.933  26.403  34.513  1.00  0.00    -0.248 NA
ATOM     59  C   UNL A   1      49.012  25.958  36.534  1.00  0.00     0.031 C 
ATOM     60  C   UNL A   1      49.495  25.205  30.533  1.00  0.00     0.029 A 
ATOM     61  C   UNL A   1      49.033  25.567  31.788  1.00  0.00     0.049 A 
ATOM     62  H   UNL A   1      47.201  26.466  32.322  1.00  0.00     0.167 HD
ATOM     63  C   UNL A   1      49.150  25.780  34.253  1.00  0.00     0.074 A 
ATOM     64  C   UNL A   1      49.791  25.569  35.534  1.00  0.00     0.031 C 
ATOM     65  C   UNL A   1      49.684  25.408  33.064  1.00  0.00     0.034 A 
BRANCH  52  66
ATOM     66  C   UNL A   1      45.982  26.432  28.229  1.00  0.00     0.023 A 
ATOM     67  C   UNL A   1      45.120  25.423  27.752  1.00  0.00     0.012 A 
ATOM     68  C   UNL A   1      46.576  27.323  27.314  1.00  0.00     0.148 A 
ATOM     69  C   UNL A   1      44.880  25.284  26.385  1.00  0.00     0.002 A 
ATOM     70  C   UNL A   1      46.293  27.210  25.959  1.00  0.00     0.091 A 
ATOM     71  F   UNL A   1      47.409  28.261  27.787  1.00  0.00    -0.205 F 
ATOM     72  C   UNL A   1      45.455  26.184  25.491  1.00  0.00     0.022 A 
BRANCH  70  73
ATOM     73  S   UNL A   1      46.918  28.368  24.739  1.00  0.00     0.127 S 
ATOM     74  O   UNL A   1      48.364  28.199  24.884  1.00  0.00    -0.237 OA
ATOM     75  O   UNL A   1      46.364  27.832  23.495  1.00  0.00    -0.237 OA
ATOM     76  O   UNL A   1      46.403  29.676  25.121  1.00  0.00    -0.744 OA
ENDBRANCH  70  73
ENDBRANCH  52  66
BRANCH  53  77
ATOM     77  C   UNL A   1      46.913  27.229  38.138  1.00  0.00     0.023 A 
ATOM     78  C   UNL A   1      46.364  26.192  38.916  1.00  0.00     0.012 A 
ATOM     79  C   UNL A   1      47.567  28.298  38.782  1.00  0.00     0.148 A 
ATOM     80  C   UNL A   1      46.431  26.235  40.309  1.00  0.00     0.002 A 
ATOM     81  C   UNL A   1      47.683  28.305  40.167  1.00  0.00     0.091 A 
ATOM     82  F   UNL A   1      48.068  29.284  38.025  1.00  0.00    -0.205 F 
ATOM     83  C   UNL A   1      47.099  27.286  40.934  1.00  0.00     0.022 A 
BRANCH  81  84
ATOM     84  S   UNL A   1      48.634  29.548  41.048  1.00  0.00     0.127 S 
ATOM     85  O   UNL A   1      48.179  29.352  42.422  1.00  0.00    -0.237 OA
ATOM     86  O   UNL A   1      50.005  29.116  40.784  1.00  0.00    -0.237 OA
ATOM     87  O   UNL A   1      48.275  30.822  40.441  1.00  0.00    -0.744 OA
ENDBRANCH  81  84
ENDBRANCH  53  77
BRANCH  65  88
ATOM     88  C   UNL A   1      51.055  24.780  33.071  1.00  0.00     0.023 A 
ATOM     89  C   UNL A   1      52.206  25.583  32.946  1.00  0.00     0.012 A 
ATOM     90  C   UNL A   1      51.202  23.392  33.278  1.00  0.00     0.148 A 
ATOM     91  C   UNL A   1      53.477  25.013  32.991  1.00  0.00     0.002 A 
ATOM     92  C   UNL A   1      52.473  22.839  33.376  1.00  0.00     0.091 A 
ATOM     93  F   UNL A   1      50.095  22.642  33.379  1.00  0.00    -0.205 F 
ATOM     94  C   UNL A   1      53.611  23.645  33.218  1.00  0.00     0.022 A 
BRANCH  92  95
ATOM     95  S   UNL A   1      52.742  21.107  33.767  1.00  0.00     0.127 S 
ATOM     96  O   UNL A   1      52.262  20.450  32.553  1.00  0.00    -0.237 OA
ATOM     97  O   UNL A   1      54.192  21.055  33.956  1.00  0.00    -0.237 OA
ATOM     98  O   UNL A   1      51.966  20.838  34.970  1.00  0.00    -0.744 OA
ENDBRANCH  92  95
ENDBRANCH  65  88
ENDBRANCH  39  40
ENDBRANCH  32  34
ENDBRANCH  31  32
ENDBRANCH  30  31
ENDBRANCH  29  30
ENDBRANCH  28  29
ENDBRANCH  27  28
ENDBRANCH  26  27
ENDBRANCH   1  26
TORSDOF 27
ENDMDL
