MODEL 1
REMARK VINA RESULT:      -9.2      0.000      0.000
REMARK SMILES Cn1c(=O)[nH]c(=O)c2c1nc(NC1CCCC1)n2CC(=O)OCCOCCOCCOCCOC(=O)c1ccc(-c2c3nc(c(-c4cccc(S(=O)(=O)[O-])c4F)c4ccc([nH]4)c(-c4cccc(S(=O)(=O)[O-])c4F)c4nc(c(-c5cccc(S(=O)(=O)[O-])c5F)c5ccc2[nH]5)C=C4)C=C3)cc1
REMARK SMILES IDX 28 1 27 2 26 3 25 4 24 5 23 6 22 7 20 8 21 9 19 10 18 11
REMARK SMILES IDX 1 12 2 13 3 14 9 15 4 16 5 17 8 18 10 19 6 20 11 22 7 23
REMARK SMILES IDX 12 24 13 26 14 27 17 28 15 29 16 30 29 31 30 32 31 33 32 34
REMARK SMILES IDX 33 35 34 36 35 37 36 38 37 39 38 40 99 41 39 42 98 43 40 44
REMARK SMILES IDX 41 45 42 46 92 47 43 48 97 49 91 50 93 51 44 52 96 53 90 54
REMARK SMILES IDX 89 55 45 57 77 58 57 59 76 60 58 61 61 62 75 63 94 64 59 65
REMARK SMILES IDX 60 66 74 68 95 69 62 70 46 71 47 72 55 73 48 74 50 75 56 76
REMARK SMILES IDX 49 77 51 78 52 79 53 80 54 81 78 82 79 83 87 84 80 85 82 86
REMARK SMILES IDX 88 87 81 88 83 89 84 90 85 91 86 92 63 93 64 94 72 95 65 96
REMARK SMILES IDX 67 97 73 98 66 99 68 100 69 101 70 102 71 103
REMARK H PARENT 5 21 12 25 93 56 61 67
REMARK Flexibility Score: inf
ROOT
ATOM      1  O   UNL A   1      39.082  21.661  26.679  1.00  0.00    -0.377 OA
ENDROOT
BRANCH   1   2
ATOM      2  C   UNL A   1      38.447  21.389  25.439  1.00  0.00     0.188 C 
BRANCH   2   3
ATOM      3  C   UNL A   1      36.904  21.569  25.407  1.00  0.00     0.188 C 
BRANCH   3   4
ATOM      4  O   UNL A   1      36.263  22.731  25.928  1.00  0.00    -0.376 OA
BRANCH   4   5
ATOM      5  C   UNL A   1      35.084  22.566  26.696  1.00  0.00     0.202 C 
BRANCH   5   6
ATOM      6  C   UNL A   1      33.946  23.581  26.453  1.00  0.00     0.261 C 
BRANCH   6   7
ATOM      7  O   UNL A   1      34.356  24.861  25.899  1.00  0.00    -0.462 OA
BRANCH   7   8
ATOM      8  C   UNL A   1      33.400  25.813  25.760  1.00  0.00     0.326 C 
ATOM      9  O   UNL A   1      32.280  25.715  26.263  1.00  0.00    -0.250 OA
BRANCH   8  10
ATOM     10  C   UNL A   1      33.826  27.118  25.095  1.00  0.00     0.248 C 
BRANCH  10  11
ATOM     11  N   UNL A   1      32.907  28.246  24.935  1.00  0.00    -0.293 N 
ATOM     12  C   UNL A   1      29.325  30.975  23.956  1.00  0.00     0.157 C 
ATOM     13  N   UNL A   1      30.105  29.824  23.524  1.00  0.00    -0.279 N 
ATOM     14  C   UNL A   1      29.767  29.091  22.399  1.00  0.00     0.329 A 
ATOM     15  C   UNL A   1      31.185  29.409  24.265  1.00  0.00     0.170 A 
ATOM     16  O   UNL A   1      28.781  29.310  21.697  1.00  0.00    -0.248 OA
ATOM     17  N   UNL A   1      30.597  28.027  22.074  1.00  0.00    -0.272 N 
ATOM     18  C   UNL A   1      31.973  28.355  23.923  1.00  0.00     0.154 A 
ATOM     19  N   UNL A   1      31.544  29.938  25.439  1.00  0.00    -0.194 NA
ATOM     20  C   UNL A   1      31.713  27.583  22.759  1.00  0.00     0.279 A 
ATOM     21  H   UNL A   1      30.362  27.528  21.258  1.00  0.00     0.175 HD
ATOM     22  C   UNL A   1      32.553  29.227  25.877  1.00  0.00     0.206 A 
ATOM     23  O   UNL A   1      32.367  26.615  22.407  1.00  0.00    -0.267 OA
BRANCH  22  24
ATOM     24  N   UNL A   1      33.153  29.448  27.067  1.00  0.00    -0.353 N 
ATOM     25  H   UNL A   1      32.735  29.090  27.883  1.00  0.00     0.163 HD
BRANCH  24  26
ATOM     26  C   UNL A   1      34.413  30.206  27.185  1.00  0.00     0.082 C 
ATOM     27  C   UNL A   1      34.429  31.480  28.035  1.00  0.00     0.025 C 
ATOM     28  C   UNL A   1      35.603  29.455  27.772  1.00  0.00     0.025 C 
ATOM     29  C   UNL A   1      35.894  31.892  28.000  1.00  0.00     0.002 C 
ATOM     30  C   UNL A   1      36.651  30.560  28.028  1.00  0.00     0.002 C 
ENDBRANCH  24  26
ENDBRANCH  22  24
ENDBRANCH  10  11
ENDBRANCH   8  10
ENDBRANCH   7   8
ENDBRANCH   6   7
ENDBRANCH   5   6
ENDBRANCH   4   5
ENDBRANCH   3   4
ENDBRANCH   2   3
ENDBRANCH   1   2
BRANCH   1  31
ATOM     31  C   UNL A   1      40.501  21.637  26.659  1.00  0.00     0.188 C 
BRANCH  31  32
ATOM     32  C   UNL A   1      41.181  22.369  27.830  1.00  0.00     0.188 C 
BRANCH  32  33
ATOM     33  O   UNL A   1      42.323  23.120  27.441  1.00  0.00    -0.376 OA
BRANCH  33  34
ATOM     34  C   UNL A   1      42.375  23.687  26.146  1.00  0.00     0.202 C 
BRANCH  34  35
ATOM     35  C   UNL A   1      42.500  25.202  26.023  1.00  0.00     0.261 C 
BRANCH  35  36
ATOM     36  O   UNL A   1      41.373  25.910  25.539  1.00  0.00    -0.460 OA
BRANCH  36  37
ATOM     37  C   UNL A   1      40.229  25.605  26.174  1.00  0.00     0.338 C 
ATOM     38  O   UNL A   1      39.432  24.745  25.843  1.00  0.00    -0.246 OA
BRANCH  37  39
ATOM     39  C   UNL A   1      39.995  26.566  27.258  1.00  0.00     0.060 A 
ATOM     40  C   UNL A   1      40.108  27.907  26.904  1.00  0.00     0.016 A 
ATOM     41  C   UNL A   1      39.984  26.152  28.601  1.00  0.00     0.016 A 
ATOM     42  C   UNL A   1      40.443  28.808  27.886  1.00  0.00     0.010 A 
ATOM     43  C   UNL A   1      40.320  27.059  29.587  1.00  0.00     0.010 A 
ATOM     44  C   UNL A   1      40.630  28.359  29.203  1.00  0.00    -0.014 A 
BRANCH  44  45
ATOM     45  C   UNL A   1      40.991  29.366  30.181  1.00  0.00     0.031 A 
ATOM     46  C   UNL A   1      39.788  30.037  30.719  1.00  0.00     0.074 A 
ATOM     47  C   UNL A   1      42.257  29.668  30.525  1.00  0.00     0.049 A 
ATOM     48  N   UNL A   1      39.369  31.219  30.412  1.00  0.00    -0.248 NA
ATOM     49  C   UNL A   1      38.817  29.225  31.465  1.00  0.00     0.031 C 
ATOM     50  C   UNL A   1      43.477  28.915  30.226  1.00  0.00     0.029 A 
ATOM     51  N   UNL A   1      42.711  30.679  31.320  1.00  0.00    -0.354 N 
ATOM     52  C   UNL A   1      38.200  31.389  31.144  1.00  0.00     0.074 A 
ATOM     53  C   UNL A   1      37.798  30.079  31.574  1.00  0.00     0.031 C 
ATOM     54  C   UNL A   1      44.475  29.348  31.034  1.00  0.00     0.029 A 
ATOM     55  C   UNL A   1      44.005  30.490  31.800  1.00  0.00     0.049 A 
ATOM     56  H   UNL A   1      42.171  31.474  31.535  1.00  0.00     0.167 HD
ATOM     57  C   UNL A   1      37.836  32.624  31.575  1.00  0.00     0.034 A 
ATOM     58  C   UNL A   1      44.599  31.180  32.808  1.00  0.00     0.034 A 
ATOM     59  C   UNL A   1      38.546  33.650  30.854  1.00  0.00     0.049 A 
ATOM     60  C   UNL A   1      43.870  32.460  32.941  1.00  0.00     0.074 A 
ATOM     61  C   UNL A   1      38.602  34.075  29.544  1.00  0.00     0.029 A 
ATOM     62  N   UNL A   1      39.661  34.145  31.481  1.00  0.00    -0.354 N 
ATOM     63  N   UNL A   1      43.899  33.401  32.041  1.00  0.00    -0.248 NA
ATOM     64  C   UNL A   1      42.780  32.536  33.899  1.00  0.00     0.031 C 
ATOM     65  C   UNL A   1      39.948  34.498  29.345  1.00  0.00     0.029 A 
ATOM     66  C   UNL A   1      40.636  34.375  30.554  1.00  0.00     0.049 A 
ATOM     67  H   UNL A   1      39.744  34.308  32.449  1.00  0.00     0.167 HD
ATOM     68  C   UNL A   1      42.600  33.885  32.021  1.00  0.00     0.074 A 
ATOM     69  C   UNL A   1      42.002  33.420  33.271  1.00  0.00     0.031 C 
ATOM     70  C   UNL A   1      42.052  34.349  30.860  1.00  0.00     0.034 A 
BRANCH  57  71
ATOM     71  C   UNL A   1      37.199  32.907  32.919  1.00  0.00     0.023 A 
ATOM     72  C   UNL A   1      36.099  33.793  32.929  1.00  0.00     0.012 A 
ATOM     73  C   UNL A   1      37.771  32.589  34.173  1.00  0.00     0.148 A 
ATOM     74  C   UNL A   1      35.629  34.370  34.113  1.00  0.00     0.002 A 
ATOM     75  C   UNL A   1      37.249  33.099  35.356  1.00  0.00     0.091 A 
ATOM     76  F   UNL A   1      38.908  31.895  34.241  1.00  0.00    -0.205 F 
ATOM     77  C   UNL A   1      36.198  34.018  35.329  1.00  0.00     0.022 A 
BRANCH  75  78
ATOM     78  S   UNL A   1      37.913  32.637  36.962  1.00  0.00     0.127 S 
ATOM     79  O   UNL A   1      36.800  32.970  37.847  1.00  0.00    -0.237 OA
ATOM     80  O   UNL A   1      38.153  31.206  36.778  1.00  0.00    -0.237 OA
ATOM     81  O   UNL A   1      39.122  33.430  37.139  1.00  0.00    -0.744 OA
ENDBRANCH  75  78
ENDBRANCH  57  71
BRANCH  58  82
ATOM     82  C   UNL A   1      45.532  30.727  33.873  1.00  0.00     0.023 A 
ATOM     83  C   UNL A   1      46.697  31.482  34.140  1.00  0.00     0.012 A 
ATOM     84  C   UNL A   1      45.128  29.778  34.835  1.00  0.00     0.148 A 
ATOM     85  C   UNL A   1      47.397  31.338  35.345  1.00  0.00     0.002 A 
ATOM     86  C   UNL A   1      45.823  29.643  36.035  1.00  0.00     0.091 A 
ATOM     87  F   UNL A   1      44.008  29.078  34.620  1.00  0.00    -0.205 F 
ATOM     88  C   UNL A   1      46.951  30.431  36.300  1.00  0.00     0.022 A 
BRANCH  86  89
ATOM     89  S   UNL A   1      45.269  28.538  37.341  1.00  0.00     0.127 S 
ATOM     90  O   UNL A   1      44.266  29.357  38.022  1.00  0.00    -0.237 OA
ATOM     91  O   UNL A   1      44.730  27.417  36.576  1.00  0.00    -0.237 OA
ATOM     92  O   UNL A   1      46.450  28.243  38.143  1.00  0.00    -0.744 OA
ENDBRANCH  86  89
ENDBRANCH  58  82
BRANCH  70  93
ATOM     93  C   UNL A   1      42.979  34.661  29.712  1.00  0.00     0.023 A 
ATOM     94  C   UNL A   1      43.636  35.900  29.567  1.00  0.00     0.012 A 
ATOM     95  C   UNL A   1      43.342  33.593  28.874  1.00  0.00     0.148 A 
ATOM     96  C   UNL A   1      44.637  36.065  28.603  1.00  0.00     0.002 A 
ATOM     97  C   UNL A   1      44.379  33.743  27.964  1.00  0.00     0.091 A 
ATOM     98  F   UNL A   1      42.693  32.428  29.018  1.00  0.00    -0.205 F 
ATOM     99  C   UNL A   1      45.023  34.980  27.817  1.00  0.00     0.022 A 
BRANCH  97 100
ATOM    100  S   UNL A   1      45.023  32.342  27.047  1.00  0.00     0.127 S 
ATOM    101  O   UNL A   1      46.161  32.932  26.347  1.00  0.00    -0.237 OA
ATOM    102  O   UNL A   1      45.379  31.407  28.117  1.00  0.00    -0.237 OA
ATOM    103  O   UNL A   1      43.933  31.882  26.195  1.00  0.00    -0.744 OA
ENDBRANCH  97 100
ENDBRANCH  70  93
ENDBRANCH  44  45
ENDBRANCH  37  39
ENDBRANCH  36  37
ENDBRANCH  35  36
ENDBRANCH  34  35
ENDBRANCH  33  34
ENDBRANCH  32  33
ENDBRANCH  31  32
ENDBRANCH   1  31
TORSDOF 26
ENDMDL
MODEL 2
REMARK VINA RESULT:      -8.9      1.575      2.524
REMARK SMILES Cn1c(=O)[nH]c(=O)c2c1nc(NC1CCCC1)n2CC(=O)OCCOCCOCCOCCOC(=O)c1ccc(-c2c3nc(c(-c4cccc(S(=O)(=O)[O-])c4F)c4ccc([nH]4)c(-c4cccc(S(=O)(=O)[O-])c4F)c4nc(c(-c5cccc(S(=O)(=O)[O-])c5F)c5ccc2[nH]5)C=C4)C=C3)cc1
REMARK SMILES IDX 28 1 27 2 26 3 25 4 24 5 23 6 22 7 20 8 21 9 19 10 18 11
REMARK SMILES IDX 1 12 2 13 3 14 9 15 4 16 5 17 8 18 10 19 6 20 11 22 7 23
REMARK SMILES IDX 12 24 13 26 14 27 17 28 15 29 16 30 29 31 30 32 31 33 32 34
REMARK SMILES IDX 33 35 34 36 35 37 36 38 37 39 38 40 99 41 39 42 98 43 40 44
REMARK SMILES IDX 41 45 42 46 92 47 43 48 97 49 91 50 93 51 44 52 96 53 90 54
REMARK SMILES IDX 89 55 45 57 77 58 57 59 76 60 58 61 61 62 75 63 94 64 59 65
REMARK SMILES IDX 60 66 74 68 95 69 62 70 46 71 47 72 55 73 48 74 50 75 56 76
REMARK SMILES IDX 49 77 51 78 52 79 53 80 54 81 78 82 79 83 87 84 80 85 82 86
REMARK SMILES IDX 88 87 81 88 83 89 84 90 85 91 86 92 63 93 64 94 72 95 65 96
REMARK SMILES IDX 67 97 73 98 66 99 68 100 69 101 70 102 71 103
REMARK H PARENT 5 21 12 25 93 56 61 67
REMARK Flexibility Score: inf
ROOT
ATOM      1  O   UNL A   1      39.533  21.348  26.310  1.00  0.00    -0.377 OA
ENDROOT
BRANCH   1   2
ATOM      2  C   UNL A   1      38.947  20.417  25.412  1.00  0.00     0.188 C 
BRANCH   2   3
ATOM      3  C   UNL A   1      37.484  20.711  24.981  1.00  0.00     0.188 C 
BRANCH   3   4
ATOM      4  O   UNL A   1      37.100  21.951  24.389  1.00  0.00    -0.376 OA
BRANCH   4   5
ATOM      5  C   UNL A   1      35.744  22.351  24.478  1.00  0.00     0.202 C 
BRANCH   5   6
ATOM      6  C   UNL A   1      35.422  23.811  24.090  1.00  0.00     0.261 C 
BRANCH   6   7
ATOM      7  O   UNL A   1      34.884  24.000  22.753  1.00  0.00    -0.462 OA
BRANCH   7   8
ATOM      8  C   UNL A   1      33.631  24.511  22.653  1.00  0.00     0.326 C 
ATOM      9  O   UNL A   1      32.765  24.019  21.930  1.00  0.00    -0.250 OA
BRANCH   8  10
ATOM     10  C   UNL A   1      33.271  25.634  23.620  1.00  0.00     0.248 C 
BRANCH  10  11
ATOM     11  N   UNL A   1      31.915  26.178  23.710  1.00  0.00    -0.293 N 
ATOM     12  C   UNL A   1      27.952  28.416  22.990  1.00  0.00     0.157 C 
ATOM     13  N   UNL A   1      29.399  28.470  22.847  1.00  0.00    -0.279 N 
ATOM     14  C   UNL A   1      30.033  29.536  22.231  1.00  0.00     0.329 A 
ATOM     15  C   UNL A   1      30.173  27.424  23.287  1.00  0.00     0.170 A 
ATOM     16  O   UNL A   1      29.451  30.494  21.726  1.00  0.00    -0.248 OA
ATOM     17  N   UNL A   1      31.420  29.487  22.170  1.00  0.00    -0.272 N 
ATOM     18  C   UNL A   1      31.531  27.404  23.204  1.00  0.00     0.154 A 
ATOM     19  N   UNL A   1      29.688  26.279  23.777  1.00  0.00    -0.194 NA
ATOM     20  C   UNL A   1      32.253  28.481  22.624  1.00  0.00     0.279 A 
ATOM     21  H   UNL A   1      31.862  30.262  21.752  1.00  0.00     0.175 HD
ATOM     22  C   UNL A   1      30.718  25.502  24.000  1.00  0.00     0.206 A 
ATOM     23  O   UNL A   1      33.466  28.518  22.500  1.00  0.00    -0.267 OA
BRANCH  22  24
ATOM     24  N   UNL A   1      30.605  24.237  24.461  1.00  0.00    -0.353 N 
ATOM     25  H   UNL A   1      29.779  23.735  24.274  1.00  0.00     0.163 HD
BRANCH  24  26
ATOM     26  C   UNL A   1      31.676  23.582  25.235  1.00  0.00     0.082 C 
ATOM     27  C   UNL A   1      31.832  23.931  26.719  1.00  0.00     0.025 C 
ATOM     28  C   UNL A   1      31.630  22.060  25.303  1.00  0.00     0.025 C 
ATOM     29  C   UNL A   1      32.937  22.989  27.175  1.00  0.00     0.002 C 
ATOM     30  C   UNL A   1      32.672  21.703  26.386  1.00  0.00     0.002 C 
ENDBRANCH  24  26
ENDBRANCH  22  24
ENDBRANCH  10  11
ENDBRANCH   8  10
ENDBRANCH   7   8
ENDBRANCH   6   7
ENDBRANCH   5   6
ENDBRANCH   4   5
ENDBRANCH   3   4
ENDBRANCH   2   3
ENDBRANCH   1   2
BRANCH   1  31
ATOM     31  C   UNL A   1      40.942  21.491  26.211  1.00  0.00     0.188 C 
BRANCH  31  32
ATOM     32  C   UNL A   1      41.676  21.648  27.554  1.00  0.00     0.188 C 
BRANCH  32  33
ATOM     33  O   UNL A   1      42.424  22.853  27.652  1.00  0.00    -0.376 OA
BRANCH  33  34
ATOM     34  C   UNL A   1      42.709  23.591  26.480  1.00  0.00     0.202 C 
BRANCH  34  35
ATOM     35  C   UNL A   1      42.600  25.111  26.537  1.00  0.00     0.261 C 
BRANCH  35  36
ATOM     36  O   UNL A   1      41.523  25.712  25.840  1.00  0.00    -0.460 OA
BRANCH  36  37
ATOM     37  C   UNL A   1      40.323  25.489  26.402  1.00  0.00     0.338 C 
ATOM     38  O   UNL A   1      39.537  24.611  26.091  1.00  0.00    -0.246 OA
BRANCH  37  39
ATOM     39  C   UNL A   1      40.022  26.557  27.362  1.00  0.00     0.060 A 
ATOM     40  C   UNL A   1      40.335  27.846  26.941  1.00  0.00     0.016 A 
ATOM     41  C   UNL A   1      39.748  26.262  28.708  1.00  0.00     0.016 A 
ATOM     42  C   UNL A   1      40.601  28.792  27.902  1.00  0.00     0.010 A 
ATOM     43  C   UNL A   1      40.015  27.215  29.672  1.00  0.00     0.010 A 
ATOM     44  C   UNL A   1      40.521  28.441  29.259  1.00  0.00    -0.014 A 
BRANCH  44  45
ATOM     45  C   UNL A   1      40.826  29.490  30.213  1.00  0.00     0.031 A 
ATOM     46  C   UNL A   1      39.590  30.153  30.683  1.00  0.00     0.074 A 
ATOM     47  C   UNL A   1      42.072  29.831  30.591  1.00  0.00     0.049 A 
ATOM     48  N   UNL A   1      39.159  31.314  30.319  1.00  0.00    -0.248 NA
ATOM     49  C   UNL A   1      38.609  29.346  31.422  1.00  0.00     0.031 C 
ATOM     50  C   UNL A   1      43.318  29.095  30.363  1.00  0.00     0.029 A 
ATOM     51  N   UNL A   1      42.475  30.878  31.366  1.00  0.00    -0.354 N 
ATOM     52  C   UNL A   1      37.961  31.483  31.002  1.00  0.00     0.074 A 
ATOM     53  C   UNL A   1      37.569  30.181  31.464  1.00  0.00     0.031 C 
ATOM     54  C   UNL A   1      44.275  29.577  31.191  1.00  0.00     0.029 A 
ATOM     55  C   UNL A   1      43.755  30.735  31.899  1.00  0.00     0.049 A 
ATOM     56  H   UNL A   1      41.912  31.668  31.533  1.00  0.00     0.167 HD
ATOM     57  C   UNL A   1      37.555  32.725  31.376  1.00  0.00     0.034 A 
ATOM     58  C   UNL A   1      44.296  31.472  32.903  1.00  0.00     0.034 A 
ATOM     59  C   UNL A   1      38.270  33.741  30.644  1.00  0.00     0.049 A 
ATOM     60  C   UNL A   1      43.537  32.740  32.963  1.00  0.00     0.074 A 
ATOM     61  C   UNL A   1      38.366  34.121  29.322  1.00  0.00     0.029 A 
ATOM     62  N   UNL A   1      39.351  34.281  31.293  1.00  0.00    -0.354 N 
ATOM     63  N   UNL A   1      43.580  33.650  32.032  1.00  0.00    -0.248 NA
ATOM     64  C   UNL A   1      42.412  32.826  33.877  1.00  0.00     0.031 C 
ATOM     65  C   UNL A   1      39.709  34.566  29.158  1.00  0.00     0.029 A 
ATOM     66  C   UNL A   1      40.355  34.500  30.394  1.00  0.00     0.049 A 
ATOM     67  H   UNL A   1      39.395  34.480  32.257  1.00  0.00     0.167 HD
ATOM     68  C   UNL A   1      42.272  34.104  31.948  1.00  0.00     0.074 A 
ATOM     69  C   UNL A   1      41.639  33.670  33.191  1.00  0.00     0.031 C 
ATOM     70  C   UNL A   1      41.759  34.515  30.752  1.00  0.00     0.034 A 
BRANCH  57  71
ATOM     71  C   UNL A   1      36.863  33.040  32.685  1.00  0.00     0.023 A 
ATOM     72  C   UNL A   1      35.746  33.902  32.623  1.00  0.00     0.012 A 
ATOM     73  C   UNL A   1      37.395  32.779  33.969  1.00  0.00     0.148 A 
ATOM     74  C   UNL A   1      35.221  34.510  33.768  1.00  0.00     0.002 A 
ATOM     75  C   UNL A   1      36.820  33.319  35.113  1.00  0.00     0.091 A 
ATOM     76  F   UNL A   1      38.544  32.113  34.102  1.00  0.00    -0.205 F 
ATOM     77  C   UNL A   1      35.752  34.212  35.016  1.00  0.00     0.022 A 
BRANCH  75  78
ATOM     78  S   UNL A   1      37.433  32.927  36.758  1.00  0.00     0.127 S 
ATOM     79  O   UNL A   1      38.664  33.710  36.807  1.00  0.00    -0.237 OA
ATOM     80  O   UNL A   1      36.346  33.424  37.601  1.00  0.00    -0.237 OA
ATOM     81  O   UNL A   1      37.602  31.479  36.787  1.00  0.00    -0.744 OA
ENDBRANCH  75  78
ENDBRANCH  57  71
BRANCH  58  82
ATOM     82  C   UNL A   1      45.199  31.077  34.016  1.00  0.00     0.023 A 
ATOM     83  C   UNL A   1      46.501  31.624  34.079  1.00  0.00     0.012 A 
ATOM     84  C   UNL A   1      44.691  30.452  35.173  1.00  0.00     0.148 A 
ATOM     85  C   UNL A   1      47.243  31.601  35.268  1.00  0.00     0.002 A 
ATOM     86  C   UNL A   1      45.429  30.436  36.354  1.00  0.00     0.091 A 
ATOM     87  F   UNL A   1      43.447  29.959  35.147  1.00  0.00    -0.205 F 
ATOM     88  C   UNL A   1      46.700  31.022  36.410  1.00  0.00     0.022 A 
BRANCH  86  89
ATOM     89  S   UNL A   1      44.768  29.763  37.886  1.00  0.00     0.127 S 
ATOM     90  O   UNL A   1      44.375  28.414  37.476  1.00  0.00    -0.237 OA
ATOM     91  O   UNL A   1      45.931  29.824  38.766  1.00  0.00    -0.237 OA
ATOM     92  O   UNL A   1      43.654  30.628  38.253  1.00  0.00    -0.744 OA
ENDBRANCH  86  89
ENDBRANCH  58  82
BRANCH  70  93
ATOM     93  C   UNL A   1      42.721  34.807  29.627  1.00  0.00     0.023 A 
ATOM     94  C   UNL A   1      43.329  36.066  29.441  1.00  0.00     0.012 A 
ATOM     95  C   UNL A   1      43.166  33.714  28.866  1.00  0.00     0.148 A 
ATOM     96  C   UNL A   1      44.364  36.224  28.512  1.00  0.00     0.002 A 
ATOM     97  C   UNL A   1      44.234  33.861  27.993  1.00  0.00     0.091 A 
ATOM     98  F   UNL A   1      42.563  32.529  29.047  1.00  0.00    -0.205 F 
ATOM     99  C   UNL A   1      44.830  35.117  27.804  1.00  0.00     0.022 A 
BRANCH  97 100
ATOM    100  S   UNL A   1      44.979  32.444  27.183  1.00  0.00     0.127 S 
ATOM    101  O   UNL A   1      46.092  33.054  26.461  1.00  0.00    -0.237 OA
ATOM    102  O   UNL A   1      45.369  31.607  28.319  1.00  0.00    -0.237 OA
ATOM    103  O   UNL A   1      43.934  31.862  26.349  1.00  0.00    -0.744 OA
ENDBRANCH  97 100
ENDBRANCH  70  93
ENDBRANCH  44  45
ENDBRANCH  37  39
ENDBRANCH  36  37
ENDBRANCH  35  36
ENDBRANCH  34  35
ENDBRANCH  33  34
ENDBRANCH  32  33
ENDBRANCH  31  32
ENDBRANCH   1  31
TORSDOF 26
ENDMDL
MODEL 3
REMARK VINA RESULT:      -8.5      3.874      7.856
REMARK SMILES Cn1c(=O)[nH]c(=O)c2c1nc(NC1CCCC1)n2CC(=O)OCCOCCOCCOCCOC(=O)c1ccc(-c2c3nc(c(-c4cccc(S(=O)(=O)[O-])c4F)c4ccc([nH]4)c(-c4cccc(S(=O)(=O)[O-])c4F)c4nc(c(-c5cccc(S(=O)(=O)[O-])c5F)c5ccc2[nH]5)C=C4)C=C3)cc1
REMARK SMILES IDX 28 1 27 2 26 3 25 4 24 5 23 6 22 7 20 8 21 9 19 10 18 11
REMARK SMILES IDX 1 12 2 13 3 14 9 15 4 16 5 17 8 18 10 19 6 20 11 22 7 23
REMARK SMILES IDX 12 24 13 26 14 27 17 28 15 29 16 30 29 31 30 32 31 33 32 34
REMARK SMILES IDX 33 35 34 36 35 37 36 38 37 39 38 40 99 41 39 42 98 43 40 44
REMARK SMILES IDX 41 45 42 46 92 47 43 48 97 49 91 50 93 51 44 52 96 53 90 54
REMARK SMILES IDX 89 55 45 57 77 58 57 59 76 60 58 61 61 62 75 63 94 64 59 65
REMARK SMILES IDX 60 66 74 68 95 69 62 70 46 71 47 72 55 73 48 74 50 75 56 76
REMARK SMILES IDX 49 77 51 78 52 79 53 80 54 81 78 82 79 83 87 84 80 85 82 86
REMARK SMILES IDX 88 87 81 88 83 89 84 90 85 91 86 92 63 93 64 94 72 95 65 96
REMARK SMILES IDX 67 97 73 98 66 99 68 100 69 101 70 102 71 103
REMARK H PARENT 5 21 12 25 93 56 61 67
REMARK Flexibility Score: inf
ROOT
ATOM      1  O   UNL A   1      32.075  26.612  25.605  1.00  0.00    -0.377 OA
ENDROOT
BRANCH   1   2
ATOM      2  C   UNL A   1      33.195  26.001  26.226  1.00  0.00     0.188 C 
BRANCH   2   3
ATOM      3  C   UNL A   1      33.074  24.477  26.508  1.00  0.00     0.188 C 
BRANCH   3   4
ATOM      4  O   UNL A   1      34.138  23.725  27.086  1.00  0.00    -0.376 OA
BRANCH   4   5
ATOM      5  C   UNL A   1      33.824  22.516  27.756  1.00  0.00     0.202 C 
BRANCH   5   6
ATOM      6  C   UNL A   1      32.886  21.534  27.019  1.00  0.00     0.261 C 
BRANCH   6   7
ATOM      7  O   UNL A   1      33.466  20.243  26.689  1.00  0.00    -0.462 OA
BRANCH   7   8
ATOM      8  C   UNL A   1      33.177  19.724  25.469  1.00  0.00     0.326 C 
ATOM      9  O   UNL A   1      32.117  19.147  25.223  1.00  0.00    -0.250 OA
BRANCH   8  10
ATOM     10  C   UNL A   1      34.152  20.043  24.341  1.00  0.00     0.248 C 
BRANCH  10  11
ATOM     11  N   UNL A   1      34.483  21.419  23.964  1.00  0.00    -0.293 N 
ATOM     12  C   UNL A   1      34.381  25.919  22.980  1.00  0.00     0.157 C 
ATOM     13  N   UNL A   1      33.645  24.665  22.921  1.00  0.00    -0.279 N 
ATOM     14  C   UNL A   1      32.349  24.600  22.437  1.00  0.00     0.329 A 
ATOM     15  C   UNL A   1      34.217  23.510  23.396  1.00  0.00     0.170 A 
ATOM     16  O   UNL A   1      31.699  25.572  22.057  1.00  0.00    -0.248 OA
ATOM     17  N   UNL A   1      31.755  23.346  22.411  1.00  0.00    -0.272 N 
ATOM     18  C   UNL A   1      33.602  22.297  23.363  1.00  0.00     0.154 A 
ATOM     19  N   UNL A   1      35.403  23.450  24.009  1.00  0.00    -0.194 NA
ATOM     20  C   UNL A   1      32.290  22.145  22.841  1.00  0.00     0.279 A 
ATOM     21  H   UNL A   1      30.843  23.306  22.041  1.00  0.00     0.175 HD
ATOM     22  C   UNL A   1      35.563  22.209  24.394  1.00  0.00     0.206 A 
ATOM     23  O   UNL A   1      31.675  21.092  22.801  1.00  0.00    -0.267 OA
BRANCH  22  24
ATOM     24  N   UNL A   1      36.639  21.782  25.091  1.00  0.00    -0.353 N 
ATOM     25  H   UNL A   1      36.675  20.841  25.380  1.00  0.00     0.163 HD
BRANCH  24  26
ATOM     26  C   UNL A   1      37.760  22.676  25.433  1.00  0.00     0.082 C 
ATOM     27  C   UNL A   1      37.496  23.869  26.358  1.00  0.00     0.025 C 
ATOM     28  C   UNL A   1      38.952  22.031  26.132  1.00  0.00     0.025 C 
ATOM     29  C   UNL A   1      38.885  24.459  26.556  1.00  0.00     0.002 C 
ATOM     30  C   UNL A   1      39.802  23.232  26.603  1.00  0.00     0.002 C 
ENDBRANCH  24  26
ENDBRANCH  22  24
ENDBRANCH  10  11
ENDBRANCH   8  10
ENDBRANCH   7   8
ENDBRANCH   6   7
ENDBRANCH   5   6
ENDBRANCH   4   5
ENDBRANCH   3   4
ENDBRANCH   2   3
ENDBRANCH   1   2
BRANCH   1  31
ATOM     31  C   UNL A   1      31.635  27.827  26.193  1.00  0.00     0.188 C 
BRANCH  31  32
ATOM     32  C   UNL A   1      32.358  28.218  27.494  1.00  0.00     0.188 C 
BRANCH  32  33
ATOM     33  O   UNL A   1      33.232  29.329  27.344  1.00  0.00    -0.376 OA
BRANCH  33  34
ATOM     34  C   UNL A   1      34.516  29.132  26.783  1.00  0.00     0.202 C 
BRANCH  34  35
ATOM     35  C   UNL A   1      35.690  29.907  27.370  1.00  0.00     0.261 C 
BRANCH  35  36
ATOM     36  O   UNL A   1      35.545  30.408  28.688  1.00  0.00    -0.460 OA
BRANCH  36  37
ATOM     37  C   UNL A   1      36.463  31.330  29.020  1.00  0.00     0.338 C 
ATOM     38  O   UNL A   1      36.484  32.489  28.644  1.00  0.00    -0.246 OA
BRANCH  37  39
ATOM     39  C   UNL A   1      37.537  30.700  29.796  1.00  0.00     0.060 A 
ATOM     40  C   UNL A   1      38.773  31.336  29.735  1.00  0.00     0.016 A 
ATOM     41  C   UNL A   1      37.400  29.390  30.287  1.00  0.00     0.016 A 
ATOM     42  C   UNL A   1      39.900  30.578  29.946  1.00  0.00     0.010 A 
ATOM     43  C   UNL A   1      38.534  28.631  30.500  1.00  0.00     0.010 A 
ATOM     44  C   UNL A   1      39.770  29.213  30.243  1.00  0.00    -0.014 A 
BRANCH  44  45
ATOM     45  C   UNL A   1      41.003  28.478  30.443  1.00  0.00     0.031 A 
ATOM     46  C   UNL A   1      41.398  28.484  31.868  1.00  0.00     0.074 A 
ATOM     47  C   UNL A   1      41.708  27.897  29.454  1.00  0.00     0.049 A 
ATOM     48  N   UNL A   1      42.334  29.196  32.400  1.00  0.00    -0.248 NA
ATOM     49  C   UNL A   1      40.501  27.841  32.839  1.00  0.00     0.031 C 
ATOM     50  C   UNL A   1      41.287  27.643  28.074  1.00  0.00     0.029 A 
ATOM     51  N   UNL A   1      42.936  27.307  29.510  1.00  0.00    -0.354 N 
ATOM     52  C   UNL A   1      42.303  28.880  33.753  1.00  0.00     0.074 A 
ATOM     53  C   UNL A   1      41.038  28.243  33.991  1.00  0.00     0.031 C 
ATOM     54  C   UNL A   1      42.126  26.740  27.513  1.00  0.00     0.029 A 
ATOM     55  C   UNL A   1      43.213  26.462  28.437  1.00  0.00     0.049 A 
ATOM     56  H   UNL A   1      43.573  27.465  30.244  1.00  0.00     0.167 HD
ATOM     57  C   UNL A   1      43.444  28.908  34.489  1.00  0.00     0.034 A 
ATOM     58  C   UNL A   1      44.219  25.552  28.367  1.00  0.00     0.034 A 
ATOM     59  C   UNL A   1      44.474  29.657  33.812  1.00  0.00     0.049 A 
ATOM     60  C   UNL A   1      45.244  25.968  29.349  1.00  0.00     0.074 A 
ATOM     61  C   UNL A   1      44.643  30.966  33.418  1.00  0.00     0.029 A 
ATOM     62  N   UNL A   1      45.371  28.906  33.096  1.00  0.00    -0.354 N 
ATOM     63  N   UNL A   1      45.968  27.042  29.224  1.00  0.00    -0.248 NA
ATOM     64  C   UNL A   1      45.189  25.397  30.685  1.00  0.00     0.031 C 
ATOM     65  C   UNL A   1      45.382  30.898  32.202  1.00  0.00     0.029 A 
ATOM     66  C   UNL A   1      45.687  29.560  31.941  1.00  0.00     0.049 A 
ATOM     67  H   UNL A   1      45.730  28.031  33.373  1.00  0.00     0.167 HD
ATOM     68  C   UNL A   1      46.054  27.541  30.514  1.00  0.00     0.074 A 
ATOM     69  C   UNL A   1      45.683  26.423  31.379  1.00  0.00     0.031 C 
ATOM     70  C   UNL A   1      46.118  28.887  30.732  1.00  0.00     0.034 A 
BRANCH  57  71
ATOM     71  C   UNL A   1      43.784  27.913  35.578  1.00  0.00     0.023 A 
ATOM     72  C   UNL A   1      44.160  28.444  36.832  1.00  0.00     0.012 A 
ATOM     73  C   UNL A   1      44.024  26.534  35.373  1.00  0.00     0.148 A 
ATOM     74  C   UNL A   1      44.787  27.659  37.805  1.00  0.00     0.002 A 
ATOM     75  C   UNL A   1      44.571  25.739  36.373  1.00  0.00     0.091 A 
ATOM     76  F   UNL A   1      43.852  25.990  34.167  1.00  0.00    -0.205 F 
ATOM     77  C   UNL A   1      44.986  26.304  37.580  1.00  0.00     0.022 A 
BRANCH  75  78
ATOM     78  S   UNL A   1      44.803  23.968  36.156  1.00  0.00     0.127 S 
ATOM     79  O   UNL A   1      43.486  23.556  35.680  1.00  0.00    -0.237 OA
ATOM     80  O   UNL A   1      45.866  23.934  35.152  1.00  0.00    -0.237 OA
ATOM     81  O   UNL A   1      45.194  23.454  37.462  1.00  0.00    -0.744 OA
ENDBRANCH  75  78
ENDBRANCH  57  71
BRANCH  58  82
ATOM     82  C   UNL A   1      44.256  24.194  27.764  1.00  0.00     0.023 A 
ATOM     83  C   UNL A   1      43.264  23.251  28.120  1.00  0.00     0.012 A 
ATOM     84  C   UNL A   1      45.031  23.931  26.616  1.00  0.00     0.148 A 
ATOM     85  C   UNL A   1      43.015  22.122  27.328  1.00  0.00     0.002 A 
ATOM     86  C   UNL A   1      44.777  22.811  25.828  1.00  0.00     0.091 A 
ATOM     87  F   UNL A   1      45.951  24.827  26.240  1.00  0.00    -0.205 F 
ATOM     88  C   UNL A   1      43.760  21.911  26.173  1.00  0.00     0.022 A 
BRANCH  86  89
ATOM     89  S   UNL A   1      45.655  22.507  24.288  1.00  0.00     0.127 S 
ATOM     90  O   UNL A   1      44.558  22.183  23.375  1.00  0.00    -0.237 OA
ATOM     91  O   UNL A   1      46.294  23.797  24.048  1.00  0.00    -0.237 OA
ATOM     92  O   UNL A   1      46.560  21.396  24.558  1.00  0.00    -0.744 OA
ENDBRANCH  86  89
ENDBRANCH  58  82
BRANCH  70  93
ATOM     93  C   UNL A   1      46.456  29.782  29.566  1.00  0.00     0.023 A 
ATOM     94  C   UNL A   1      47.757  29.893  29.032  1.00  0.00     0.012 A 
ATOM     95  C   UNL A   1      45.382  30.365  28.874  1.00  0.00     0.148 A 
ATOM     96  C   UNL A   1      47.976  30.574  27.830  1.00  0.00     0.002 A 
ATOM     97  C   UNL A   1      45.594  30.983  27.650  1.00  0.00     0.091 A 
ATOM     98  F   UNL A   1      44.155  30.260  29.407  1.00  0.00    -0.205 F 
ATOM     99  C   UNL A   1      46.891  31.100  27.129  1.00  0.00     0.022 A 
BRANCH  97 100
ATOM    100  S   UNL A   1      44.222  31.528  26.631  1.00  0.00     0.127 S 
ATOM    101  O   UNL A   1      43.593  32.537  27.480  1.00  0.00    -0.237 OA
ATOM    102  O   UNL A   1      44.905  32.060  25.450  1.00  0.00    -0.237 OA
ATOM    103  O   UNL A   1      43.418  30.340  26.368  1.00  0.00    -0.744 OA
ENDBRANCH  97 100
ENDBRANCH  70  93
ENDBRANCH  44  45
ENDBRANCH  37  39
ENDBRANCH  36  37
ENDBRANCH  35  36
ENDBRANCH  34  35
ENDBRANCH  33  34
ENDBRANCH  32  33
ENDBRANCH  31  32
ENDBRANCH   1  31
TORSDOF 26
ENDMDL
