MODEL 1
REMARK VINA RESULT:     -12.4      0.000      0.000
REMARK SMILES Cc1ccc(C(=O)NC2(CC(=O)OCCOCCOCCOCCOC(=O)c3ccc(-c4c5nc(c(-c6cccc(S(=O)(=O)[O-])c6F)c6ccc([nH]6)c(-c6cccc(S(=O)(=O)[O-])c6F)c6nc(c(-c7cccc(S(=O)(=O)[O-])c7F)c7ccc4[nH]7)C=C6)C=C5)cc3)CCC2)cc1
REMARK SMILES IDX 19 1 18 2 17 3 16 4 15 5 14 6 13 7 11 8 12 9 10 10 9 11
REMARK SMILES IDX 91 12 93 13 92 14 8 15 6 16 7 17 5 19 1 20 2 21 3 22 95 23
REMARK SMILES IDX 4 24 94 25 20 26 21 27 22 28 23 29 24 30 25 31 26 32 27 33
REMARK SMILES IDX 28 34 29 35 90 36 30 37 89 38 31 39 32 40 33 41 83 42 34 43
REMARK SMILES IDX 88 44 82 45 84 46 35 47 87 48 81 49 80 50 36 52 68 53 48 54
REMARK SMILES IDX 67 55 49 56 52 57 66 58 85 59 50 60 51 61 65 63 86 64 53 65
REMARK SMILES IDX 37 66 38 67 46 68 39 69 41 70 47 71 40 72 42 73 43 74 44 75
REMARK SMILES IDX 45 76 69 77 70 78 78 79 71 80 73 81 79 82 72 83 74 84 75 85
REMARK SMILES IDX 76 86 77 87 54 88 55 89 63 90 56 91 58 92 64 93 57 94 59 95
REMARK SMILES IDX 60 96 61 97 62 98
REMARK H PARENT 8 18 84 51 52 62
REMARK Flexibility Score: inf
ROOT
ATOM      1  O   UNL A   1      32.752  36.253  29.405  1.00  0.00    -0.377 OA
ENDROOT
BRANCH   1   2
ATOM      2  C   UNL A   1      33.485  35.159  28.784  1.00  0.00     0.188 C 
BRANCH   2   3
ATOM      3  C   UNL A   1      33.866  33.676  29.539  1.00  0.00     0.188 C 
BRANCH   3   4
ATOM      4  O   UNL A   1      34.908  32.274  29.130  1.00  0.00    -0.376 OA
BRANCH   4   5
ATOM      5  C   UNL A   1      35.242  31.309  27.620  1.00  0.00     0.202 C 
BRANCH   5   6
ATOM      6  C   UNL A   1      34.676  29.520  27.096  1.00  0.00     0.261 C 
BRANCH   6   7
ATOM      7  O   UNL A   1      33.374  27.840  26.897  1.00  0.00    -0.463 OA
BRANCH   7   8
ATOM      8  C   UNL A   1      31.755  27.377  26.693  1.00  0.00     0.308 C 
ATOM      9  O   UNL A   1      30.874  27.674  27.525  1.00  0.00    -0.252 OA
BRANCH   8  10
ATOM     10  C   UNL A   1      30.996  27.011  25.276  1.00  0.00     0.151 C 
BRANCH  10  11
ATOM     11  C   UNL A   1      31.114  27.937  24.003  1.00  0.00     0.051 C 
ATOM     12  C   UNL A   1      30.147  29.204  23.944  1.00  0.00     0.029 C 
ATOM     13  C   UNL A   1      30.399  27.595  22.618  1.00  0.00     0.029 C 
ATOM     14  C   UNL A   1      29.182  28.373  23.086  1.00  0.00     0.005 C 
BRANCH  11  15
ATOM     15  N   UNL A   1      32.460  28.364  23.689  1.00  0.00    -0.346 N 
ATOM     16  C   UNL A   1      33.548  27.648  23.367  1.00  0.00     0.251 C 
ATOM     17  O   UNL A   1      34.574  28.301  23.181  1.00  0.00    -0.269 OA
ATOM     18  H   UNL A   1      32.599  29.338  23.717  1.00  0.00     0.164 HD
BRANCH  16  19
ATOM     19  C   UNL A   1      33.532  26.169  23.306  1.00  0.00     0.039 A 
ATOM     20  C   UNL A   1      33.555  21.065  24.245  1.00  0.00     0.044 C 
ATOM     21  C   UNL A   1      33.425  22.534  24.048  1.00  0.00    -0.051 A 
ATOM     22  C   UNL A   1      34.365  23.688  24.955  1.00  0.00     0.004 A 
ATOM     23  C   UNL A   1      32.606  23.165  22.690  1.00  0.00     0.004 A 
ATOM     24  C   UNL A   1      34.238  25.516  24.707  1.00  0.00     0.014 A 
ATOM     25  C   UNL A   1      32.592  24.990  22.366  1.00  0.00     0.014 A 
ENDBRANCH  16  19
ENDBRANCH  11  15
ENDBRANCH  10  11
ENDBRANCH   8  10
ENDBRANCH   7   8
ENDBRANCH   6   7
ENDBRANCH   5   6
ENDBRANCH   4   5
ENDBRANCH   3   4
ENDBRANCH   2   3
ENDBRANCH   1   2
BRANCH   1  26
ATOM     26  C   UNL A   1      32.545  36.382  30.829  1.00  0.00     0.188 C 
BRANCH  26  27
ATOM     27  C   UNL A   1      33.283  37.582  31.349  1.00  0.00     0.188 C 
BRANCH  27  28
ATOM     28  O   UNL A   1      33.517  37.175  32.668  1.00  0.00    -0.376 OA
BRANCH  28  29
ATOM     29  C   UNL A   1      33.647  35.797  32.881  1.00  0.00     0.202 C 
BRANCH  29  30
ATOM     30  C   UNL A   1      35.153  35.640  32.964  1.00  0.00     0.261 C 
BRANCH  30  31
ATOM     31  O   UNL A   1      35.495  34.332  32.394  1.00  0.00    -0.460 OA
BRANCH  31  32
ATOM     32  C   UNL A   1      36.828  33.981  32.508  1.00  0.00     0.338 C 
ATOM     33  O   UNL A   1      37.615  34.587  33.223  1.00  0.00    -0.246 OA
BRANCH  32  34
ATOM     34  C   UNL A   1      37.246  32.968  31.461  1.00  0.00     0.060 A 
ATOM     35  C   UNL A   1      37.392  31.617  31.769  1.00  0.00     0.016 A 
ATOM     36  C   UNL A   1      37.765  33.339  30.248  1.00  0.00     0.016 A 
ATOM     37  C   UNL A   1      38.385  30.803  31.115  1.00  0.00     0.010 A 
ATOM     38  C   UNL A   1      38.621  32.438  29.550  1.00  0.00     0.010 A 
ATOM     39  C   UNL A   1      39.272  31.273  30.116  1.00  0.00    -0.014 A 
BRANCH  39  40
ATOM     40  C   UNL A   1      41.011  30.638  29.892  1.00  0.00     0.031 A 
ATOM     41  C   UNL A   1      41.618  29.077  28.728  1.00  0.00     0.074 A 
ATOM     42  C   UNL A   1      41.665  31.473  30.897  1.00  0.00     0.049 A 
ATOM     43  N   UNL A   1      41.637  27.692  29.141  1.00  0.00    -0.248 NA
ATOM     44  C   UNL A   1      41.541  28.538  27.194  1.00  0.00     0.031 C 
ATOM     45  C   UNL A   1      42.861  32.379  30.829  1.00  0.00     0.029 A 
ATOM     46  N   UNL A   1      41.475  31.549  32.385  1.00  0.00    -0.354 N 
ATOM     47  C   UNL A   1      42.146  26.598  28.345  1.00  0.00     0.074 A 
ATOM     48  C   UNL A   1      41.753  27.185  27.093  1.00  0.00     0.031 C 
ATOM     49  C   UNL A   1      43.251  32.812  32.064  1.00  0.00     0.029 A 
ATOM     50  C   UNL A   1      42.616  32.035  33.147  1.00  0.00     0.049 A 
ATOM     51  H   UNL A   1      40.631  31.286  32.818  1.00  0.00     0.167 HD
ATOM     52  C   UNL A   1      43.022  25.426  28.645  1.00  0.00     0.034 A 
ATOM     53  C   UNL A   1      43.411  31.491  34.249  1.00  0.00     0.034 A 
ATOM     54  C   UNL A   1      44.272  25.292  29.830  1.00  0.00     0.049 A 
ATOM     55  C   UNL A   1      44.371  29.950  34.586  1.00  0.00     0.074 A 
ATOM     56  C   UNL A   1      45.673  25.452  29.757  1.00  0.00     0.029 A 
ATOM     57  N   UNL A   1      44.268  25.028  31.310  1.00  0.00    -0.354 N 
ATOM     58  N   UNL A   1      45.090  29.092  33.803  1.00  0.00    -0.248 NA
ATOM     59  C   UNL A   1      44.243  29.295  35.892  1.00  0.00     0.031 C 
ATOM     60  C   UNL A   1      46.286  25.669  31.099  1.00  0.00     0.029 A 
ATOM     61  C   UNL A   1      45.283  25.886  32.060  1.00  0.00     0.049 A 
ATOM     62  H   UNL A   1      43.676  24.374  31.746  1.00  0.00     0.167 HD
ATOM     63  C   UNL A   1      45.104  27.686  34.289  1.00  0.00     0.074 A 
ATOM     64  C   UNL A   1      44.656  28.021  35.679  1.00  0.00     0.031 C 
ATOM     65  C   UNL A   1      45.238  26.323  33.658  1.00  0.00     0.034 A 
BRANCH  52  66
ATOM     66  C   UNL A   1      43.117  24.426  27.477  1.00  0.00     0.023 A 
ATOM     67  C   UNL A   1      43.687  24.829  26.255  1.00  0.00     0.012 A 
ATOM     68  C   UNL A   1      42.641  23.091  27.546  1.00  0.00     0.148 A 
ATOM     69  C   UNL A   1      43.678  24.016  25.119  1.00  0.00     0.002 A 
ATOM     70  C   UNL A   1      42.588  22.293  26.395  1.00  0.00     0.091 A 
ATOM     71  F   UNL A   1      42.235  22.608  28.730  1.00  0.00    -0.205 F 
ATOM     72  C   UNL A   1      43.095  22.762  25.178  1.00  0.00     0.022 A 
BRANCH  70  73
ATOM     73  S   UNL A   1      41.766  20.691  26.336  1.00  0.00     0.127 S 
ATOM     74  O   UNL A   1      40.390  21.066  26.000  1.00  0.00    -0.237 OA
ATOM     75  O   UNL A   1      42.484  20.007  25.261  1.00  0.00    -0.237 OA
ATOM     76  O   UNL A   1      41.916  20.111  27.663  1.00  0.00    -0.744 OA
ENDBRANCH  70  73
ENDBRANCH  52  66
BRANCH  53  77
ATOM     77  C   UNL A   1      42.653  32.164  35.408  1.00  0.00     0.023 A 
ATOM     78  C   UNL A   1      42.565  33.571  35.235  1.00  0.00     0.012 A 
ATOM     79  C   UNL A   1      41.507  31.483  35.878  1.00  0.00     0.148 A 
ATOM     80  C   UNL A   1      41.310  34.192  35.172  1.00  0.00     0.002 A 
ATOM     81  C   UNL A   1      40.259  32.104  35.785  1.00  0.00     0.091 A 
ATOM     82  F   UNL A   1      41.620  30.183  36.186  1.00  0.00    -0.205 F 
ATOM     83  C   UNL A   1      40.155  33.443  35.385  1.00  0.00     0.022 A 
BRANCH  81  84
ATOM     84  S   UNL A   1      38.767  31.096  35.836  1.00  0.00     0.127 S 
ATOM     85  O   UNL A   1      39.260  29.814  35.350  1.00  0.00    -0.237 OA
ATOM     86  O   UNL A   1      38.400  31.125  37.251  1.00  0.00    -0.237 OA
ATOM     87  O   UNL A   1      37.853  31.831  34.968  1.00  0.00    -0.744 OA
ENDBRANCH  81  84
ENDBRANCH  53  77
BRANCH  65  88
ATOM     88  C   UNL A   1      45.173  25.001  34.543  1.00  0.00     0.023 A 
ATOM     89  C   UNL A   1      44.000  24.377  34.989  1.00  0.00     0.012 A 
ATOM     90  C   UNL A   1      46.350  24.306  34.930  1.00  0.00     0.148 A 
ATOM     91  C   UNL A   1      43.963  23.036  35.412  1.00  0.00     0.002 A 
ATOM     92  C   UNL A   1      46.333  22.969  35.330  1.00  0.00     0.091 A 
ATOM     93  F   UNL A   1      47.510  24.959  35.071  1.00  0.00    -0.205 F 
ATOM     94  C   UNL A   1      45.132  22.301  35.506  1.00  0.00     0.022 A 
BRANCH  92  95
ATOM     95  S   UNL A   1      47.884  22.088  35.540  1.00  0.00     0.127 S 
ATOM     96  O   UNL A   1      48.278  22.478  36.892  1.00  0.00    -0.237 OA
ATOM     97  O   UNL A   1      47.477  20.689  35.404  1.00  0.00    -0.237 OA
ATOM     98  O   UNL A   1      48.715  22.578  34.447  1.00  0.00    -0.744 OA
ENDBRANCH  92  95
ENDBRANCH  65  88
ENDBRANCH  39  40
ENDBRANCH  32  34
ENDBRANCH  31  32
ENDBRANCH  30  31
ENDBRANCH  29  30
ENDBRANCH  28  29
ENDBRANCH  27  28
ENDBRANCH  26  27
ENDBRANCH   1  26
TORSDOF 26
ENDMDL
MODEL 2
REMARK VINA RESULT:     -10.9      5.123      8.822
REMARK SMILES Cc1ccc(C(=O)NC2(CC(=O)OCCOCCOCCOCCOC(=O)c3ccc(-c4c5nc(c(-c6cccc(S(=O)(=O)[O-])c6F)c6ccc([nH]6)c(-c6cccc(S(=O)(=O)[O-])c6F)c6nc(c(-c7cccc(S(=O)(=O)[O-])c7F)c7ccc4[nH]7)C=C6)C=C5)cc3)CCC2)cc1
REMARK SMILES IDX 19 1 18 2 17 3 16 4 15 5 14 6 13 7 11 8 12 9 10 10 9 11
REMARK SMILES IDX 91 12 93 13 92 14 8 15 6 16 7 17 5 19 1 20 2 21 3 22 95 23
REMARK SMILES IDX 4 24 94 25 20 26 21 27 22 28 23 29 24 30 25 31 26 32 27 33
REMARK SMILES IDX 28 34 29 35 90 36 30 37 89 38 31 39 32 40 33 41 83 42 34 43
REMARK SMILES IDX 88 44 82 45 84 46 35 47 87 48 81 49 80 50 36 52 68 53 48 54
REMARK SMILES IDX 67 55 49 56 52 57 66 58 85 59 50 60 51 61 65 63 86 64 53 65
REMARK SMILES IDX 37 66 38 67 46 68 39 69 41 70 47 71 40 72 42 73 43 74 44 75
REMARK SMILES IDX 45 76 69 77 70 78 78 79 71 80 73 81 79 82 72 83 74 84 75 85
REMARK SMILES IDX 76 86 77 87 54 88 55 89 63 90 56 91 58 92 64 93 57 94 59 95
REMARK SMILES IDX 60 96 61 97 62 98
REMARK H PARENT 8 18 84 51 52 62
REMARK Flexibility Score: inf
ROOT
ATOM      1  O   UNL A   1      40.809  28.697  28.967  1.00  0.00    -0.377 OA
ENDROOT
BRANCH   1   2
ATOM      2  C   UNL A   1      40.382  29.432  30.148  1.00  0.00     0.188 C 
BRANCH   2   3
ATOM      3  C   UNL A   1      39.217  30.679  30.164  1.00  0.00     0.188 C 
BRANCH   3   4
ATOM      4  O   UNL A   1      37.498  30.818  29.670  1.00  0.00    -0.376 OA
BRANCH   4   5
ATOM      5  C   UNL A   1      36.610  30.847  28.078  1.00  0.00     0.202 C 
BRANCH   5   6
ATOM      6  C   UNL A   1      35.333  29.595  27.304  1.00  0.00     0.261 C 
BRANCH   6   7
ATOM      7  O   UNL A   1      34.052  28.743  25.824  1.00  0.00    -0.463 OA
BRANCH   7   8
ATOM      8  C   UNL A   1      33.433  27.283  25.223  1.00  0.00     0.308 C 
ATOM      9  O   UNL A   1      33.914  26.729  24.213  1.00  0.00    -0.252 OA
BRANCH   8  10
ATOM     10  C   UNL A   1      32.585  26.143  26.058  1.00  0.00     0.151 C 
BRANCH  10  11
ATOM     11  C   UNL A   1      31.164  25.645  25.582  1.00  0.00     0.051 C 
ATOM     12  C   UNL A   1      31.073  25.034  24.111  1.00  0.00     0.029 C 
ATOM     13  C   UNL A   1      30.052  26.635  25.008  1.00  0.00     0.029 C 
ATOM     14  C   UNL A   1      30.611  26.411  23.613  1.00  0.00     0.005 C 
BRANCH  11  15
ATOM     15  N   UNL A   1      30.498  24.749  26.500  1.00  0.00    -0.346 N 
ATOM     16  C   UNL A   1      30.755  23.468  26.809  1.00  0.00     0.251 C 
ATOM     17  O   UNL A   1      29.982  22.954  27.616  1.00  0.00    -0.269 OA
ATOM     18  H   UNL A   1      29.731  25.143  26.975  1.00  0.00     0.164 HD
BRANCH  16  19
ATOM     19  C   UNL A   1      31.852  22.706  26.170  1.00  0.00     0.039 A 
ATOM     20  C   UNL A   1      36.145  20.038  24.997  1.00  0.00     0.044 C 
ATOM     21  C   UNL A   1      34.878  20.694  25.417  1.00  0.00    -0.051 A 
ATOM     22  C   UNL A   1      34.836  22.000  26.570  1.00  0.00     0.004 A 
ATOM     23  C   UNL A   1      33.432  20.443  24.546  1.00  0.00     0.004 A 
ATOM     24  C   UNL A   1      33.275  22.846  27.087  1.00  0.00     0.014 A 
ATOM     25  C   UNL A   1      31.899  21.390  24.977  1.00  0.00     0.014 A 
ENDBRANCH  16  19
ENDBRANCH  11  15
ENDBRANCH  10  11
ENDBRANCH   8  10
ENDBRANCH   7   8
ENDBRANCH   6   7
ENDBRANCH   5   6
ENDBRANCH   4   5
ENDBRANCH   3   4
ENDBRANCH   2   3
ENDBRANCH   1   2
BRANCH   1  26
ATOM     26  C   UNL A   1      40.030  28.592  27.754  1.00  0.00     0.188 C 
BRANCH  26  27
ATOM     27  C   UNL A   1      40.766  27.763  26.741  1.00  0.00     0.188 C 
BRANCH  27  28
ATOM     28  O   UNL A   1      40.620  26.492  27.309  1.00  0.00    -0.376 OA
BRANCH  28  29
ATOM     29  C   UNL A   1      39.326  25.958  27.315  1.00  0.00     0.202 C 
BRANCH  29  30
ATOM     30  C   UNL A   1      39.591  24.517  27.706  1.00  0.00     0.261 C 
BRANCH  30  31
ATOM     31  O   UNL A   1      39.954  23.785  26.487  1.00  0.00    -0.460 OA
BRANCH  31  32
ATOM     32  C   UNL A   1      40.250  22.447  26.681  1.00  0.00     0.338 C 
ATOM     33  O   UNL A   1      39.415  21.561  26.571  1.00  0.00    -0.246 OA
BRANCH  32  34
ATOM     34  C   UNL A   1      41.619  22.247  27.299  1.00  0.00     0.060 A 
ATOM     35  C   UNL A   1      41.825  22.369  28.671  1.00  0.00     0.016 A 
ATOM     36  C   UNL A   1      42.765  22.212  26.548  1.00  0.00     0.016 A 
ATOM     37  C   UNL A   1      43.067  22.877  29.200  1.00  0.00     0.010 A 
ATOM     38  C   UNL A   1      44.006  22.568  27.150  1.00  0.00     0.010 A 
ATOM     39  C   UNL A   1      44.170  23.275  28.407  1.00  0.00    -0.014 A 
BRANCH  39  40
ATOM     40  C   UNL A   1      45.335  24.655  28.868  1.00  0.00     0.031 A 
ATOM     41  C   UNL A   1      46.881  25.392  27.761  1.00  0.00     0.074 A 
ATOM     42  C   UNL A   1      44.882  24.854  30.244  1.00  0.00     0.049 A 
ATOM     43  N   UNL A   1      48.223  24.855  27.751  1.00  0.00    -0.248 NA
ATOM     44  C   UNL A   1      47.201  26.013  26.291  1.00  0.00     0.031 C 
ATOM     45  C   UNL A   1      44.439  26.080  30.988  1.00  0.00     0.029 A 
ATOM     46  N   UNL A   1      44.899  23.928  31.426  1.00  0.00    -0.354 N 
ATOM     47  C   UNL A   1      49.338  25.429  27.030  1.00  0.00     0.074 A 
ATOM     48  C   UNL A   1      48.527  25.914  25.947  1.00  0.00     0.031 C 
ATOM     49  C   UNL A   1      44.294  25.846  32.327  1.00  0.00     0.029 A 
ATOM     50  C   UNL A   1      44.914  24.568  32.734  1.00  0.00     0.049 A 
ATOM     51  H   UNL A   1      44.900  22.949  31.323  1.00  0.00     0.167 HD
ATOM     52  C   UNL A   1      50.763  25.701  27.385  1.00  0.00     0.034 A 
ATOM     53  C   UNL A   1      45.807  24.500  33.891  1.00  0.00     0.034 A 
ATOM     54  C   UNL A   1      51.438  26.057  28.935  1.00  0.00     0.049 A 
ATOM     55  C   UNL A   1      47.609  24.732  34.218  1.00  0.00     0.074 A 
ATOM     56  C   UNL A   1      51.761  27.273  29.576  1.00  0.00     0.029 A 
ATOM     57  N   UNL A   1      51.835  25.205  30.109  1.00  0.00    -0.354 N 
ATOM     58  N   UNL A   1      48.576  25.526  33.670  1.00  0.00    -0.248 NA
ATOM     59  C   UNL A   1      48.311  23.778  35.083  1.00  0.00     0.031 C 
ATOM     60  C   UNL A   1      51.906  27.112  31.051  1.00  0.00     0.029 A 
ATOM     61  C   UNL A   1      51.458  25.839  31.445  1.00  0.00     0.049 A 
ATOM     62  H   UNL A   1      52.288  24.336  30.024  1.00  0.00     0.167 HD
ATOM     63  C   UNL A   1      49.944  24.942  33.713  1.00  0.00     0.074 A 
ATOM     64  C   UNL A   1      49.620  23.921  34.761  1.00  0.00     0.031 C 
ATOM     65  C   UNL A   1      51.198  25.059  32.884  1.00  0.00     0.034 A 
BRANCH  52  66
ATOM     66  C   UNL A   1      51.611  26.158  26.181  1.00  0.00     0.023 A 
ATOM     67  C   UNL A   1      52.401  25.224  25.487  1.00  0.00     0.012 A 
ATOM     68  C   UNL A   1      51.663  27.499  25.722  1.00  0.00     0.148 A 
ATOM     69  C   UNL A   1      53.293  25.597  24.479  1.00  0.00     0.002 A 
ATOM     70  C   UNL A   1      52.592  27.883  24.746  1.00  0.00     0.091 A 
ATOM     71  F   UNL A   1      50.813  28.397  26.245  1.00  0.00    -0.205 F 
ATOM     72  C   UNL A   1      53.417  26.931  24.134  1.00  0.00     0.022 A 
BRANCH  70  73
ATOM     73  S   UNL A   1      52.904  29.598  24.292  1.00  0.00     0.127 S 
ATOM     74  O   UNL A   1      53.279  30.191  25.578  1.00  0.00    -0.237 OA
ATOM     75  O   UNL A   1      54.008  29.477  23.340  1.00  0.00    -0.237 OA
ATOM     76  O   UNL A   1      51.653  30.106  23.747  1.00  0.00    -0.744 OA
ENDBRANCH  70  73
ENDBRANCH  52  66
BRANCH  53  77
ATOM     77  C   UNL A   1      45.038  23.431  34.687  1.00  0.00     0.023 A 
ATOM     78  C   UNL A   1      45.310  22.120  34.212  1.00  0.00     0.012 A 
ATOM     79  C   UNL A   1      44.973  23.626  36.086  1.00  0.00     0.148 A 
ATOM     80  C   UNL A   1      45.855  21.161  35.078  1.00  0.00     0.002 A 
ATOM     81  C   UNL A   1      45.542  22.674  36.935  1.00  0.00     0.091 A 
ATOM     82  F   UNL A   1      44.572  24.821  36.544  1.00  0.00    -0.205 F 
ATOM     83  C   UNL A   1      46.029  21.463  36.426  1.00  0.00     0.022 A 
BRANCH  81  84
ATOM     84  S   UNL A   1      45.974  23.142  38.620  1.00  0.00     0.127 S 
ATOM     85  O   UNL A   1      45.429  24.491  38.701  1.00  0.00    -0.237 OA
ATOM     86  O   UNL A   1      45.278  22.141  39.426  1.00  0.00    -0.237 OA
ATOM     87  O   UNL A   1      47.428  23.008  38.628  1.00  0.00    -0.744 OA
ENDBRANCH  81  84
ENDBRANCH  53  77
BRANCH  65  88
ATOM     88  C   UNL A   1      52.501  24.219  33.248  1.00  0.00     0.023 A 
ATOM     89  C   UNL A   1      53.725  24.757  33.670  1.00  0.00     0.012 A 
ATOM     90  C   UNL A   1      52.507  22.799  33.206  1.00  0.00     0.148 A 
ATOM     91  C   UNL A   1      54.697  23.999  34.347  1.00  0.00     0.002 A 
ATOM     92  C   UNL A   1      53.451  22.033  33.891  1.00  0.00     0.091 A 
ATOM     93  F   UNL A   1      51.689  22.140  32.376  1.00  0.00    -0.205 F 
ATOM     94  C   UNL A   1      54.521  22.639  34.530  1.00  0.00     0.022 A 
BRANCH  92  95
ATOM     95  S   UNL A   1      53.231  20.255  34.010  1.00  0.00     0.127 S 
ATOM     96  O   UNL A   1      51.821  20.144  34.377  1.00  0.00    -0.237 OA
ATOM     97  O   UNL A   1      53.546  19.802  32.655  1.00  0.00    -0.237 OA
ATOM     98  O   UNL A   1      54.205  19.850  35.017  1.00  0.00    -0.744 OA
ENDBRANCH  92  95
ENDBRANCH  65  88
ENDBRANCH  39  40
ENDBRANCH  32  34
ENDBRANCH  31  32
ENDBRANCH  30  31
ENDBRANCH  29  30
ENDBRANCH  28  29
ENDBRANCH  27  28
ENDBRANCH  26  27
ENDBRANCH   1  26
TORSDOF 26
ENDMDL
MODEL 3
REMARK VINA RESULT:     -10.8      4.377     10.989
REMARK SMILES Cc1ccc(C(=O)NC2(CC(=O)OCCOCCOCCOCCOC(=O)c3ccc(-c4c5nc(c(-c6cccc(S(=O)(=O)[O-])c6F)c6ccc([nH]6)c(-c6cccc(S(=O)(=O)[O-])c6F)c6nc(c(-c7cccc(S(=O)(=O)[O-])c7F)c7ccc4[nH]7)C=C6)C=C5)cc3)CCC2)cc1
REMARK SMILES IDX 19 1 18 2 17 3 16 4 15 5 14 6 13 7 11 8 12 9 10 10 9 11
REMARK SMILES IDX 91 12 93 13 92 14 8 15 6 16 7 17 5 19 1 20 2 21 3 22 95 23
REMARK SMILES IDX 4 24 94 25 20 26 21 27 22 28 23 29 24 30 25 31 26 32 27 33
REMARK SMILES IDX 28 34 29 35 90 36 30 37 89 38 31 39 32 40 33 41 83 42 34 43
REMARK SMILES IDX 88 44 82 45 84 46 35 47 87 48 81 49 80 50 36 52 68 53 48 54
REMARK SMILES IDX 67 55 49 56 52 57 66 58 85 59 50 60 51 61 65 63 86 64 53 65
REMARK SMILES IDX 37 66 38 67 46 68 39 69 41 70 47 71 40 72 42 73 43 74 44 75
REMARK SMILES IDX 45 76 69 77 70 78 78 79 71 80 73 81 79 82 72 83 74 84 75 85
REMARK SMILES IDX 76 86 77 87 54 88 55 89 63 90 56 91 58 92 64 93 57 94 59 95
REMARK SMILES IDX 60 96 61 97 62 98
REMARK H PARENT 8 18 84 51 52 62
REMARK Flexibility Score: inf
ROOT
ATOM      1  O   UNL A   1      33.791  27.686  24.875  1.00  0.00    -0.377 OA
ENDROOT
BRANCH   1   2
ATOM      2  C   UNL A   1      33.084  28.937  25.109  1.00  0.00     0.188 C 
BRANCH   2   3
ATOM      3  C   UNL A   1      31.405  29.170  24.915  1.00  0.00     0.188 C 
BRANCH   3   4
ATOM      4  O   UNL A   1      30.138  28.460  23.861  1.00  0.00    -0.376 OA
BRANCH   4   5
ATOM      5  C   UNL A   1      29.837  26.817  23.130  1.00  0.00     0.202 C 
BRANCH   5   6
ATOM      6  C   UNL A   1      30.911  25.193  23.151  1.00  0.00     0.261 C 
BRANCH   6   7
ATOM      7  O   UNL A   1      31.598  23.271  22.523  1.00  0.00    -0.463 OA
BRANCH   7   8
ATOM      8  C   UNL A   1      32.232  21.796  23.070  1.00  0.00     0.308 C 
ATOM      9  O   UNL A   1      31.910  20.707  22.550  1.00  0.00    -0.252 OA
BRANCH   8  10
ATOM     10  C   UNL A   1      33.647  21.560  23.880  1.00  0.00     0.151 C 
BRANCH  10  11
ATOM     11  C   UNL A   1      33.803  20.433  24.975  1.00  0.00     0.051 C 
ATOM     12  C   UNL A   1      34.432  19.047  24.495  1.00  0.00     0.029 C 
ATOM     13  C   UNL A   1      32.597  19.487  25.417  1.00  0.00     0.029 C 
ATOM     14  C   UNL A   1      33.004  18.506  24.332  1.00  0.00     0.005 C 
BRANCH  11  15
ATOM     15  N   UNL A   1      34.475  20.854  26.185  1.00  0.00    -0.346 N 
ATOM     16  C   UNL A   1      34.080  21.696  27.152  1.00  0.00     0.251 C 
ATOM     17  O   UNL A   1      34.894  21.882  28.056  1.00  0.00    -0.269 OA
ATOM     18  H   UNL A   1      35.365  20.458  26.320  1.00  0.00     0.164 HD
BRANCH  16  19
ATOM     19  C   UNL A   1      32.782  22.407  27.101  1.00  0.00     0.039 A 
ATOM     20  C   UNL A   1      28.813  25.639  26.248  1.00  0.00     0.044 C 
ATOM     21  C   UNL A   1      29.949  24.685  26.352  1.00  0.00    -0.051 A 
ATOM     22  C   UNL A   1      31.599  25.211  26.553  1.00  0.00     0.004 A 
ATOM     23  C   UNL A   1      29.675  23.023  26.627  1.00  0.00     0.004 A 
ATOM     24  C   UNL A   1      33.023  24.043  26.711  1.00  0.00     0.014 A 
ATOM     25  C   UNL A   1      31.097  21.872  26.920  1.00  0.00     0.014 A 
ENDBRANCH  16  19
ENDBRANCH  11  15
ENDBRANCH  10  11
ENDBRANCH   8  10
ENDBRANCH   7   8
ENDBRANCH   6   7
ENDBRANCH   5   6
ENDBRANCH   4   5
ENDBRANCH   3   4
ENDBRANCH   2   3
ENDBRANCH   1   2
BRANCH   1  26
ATOM     26  C   UNL A   1      34.015  27.117  23.566  1.00  0.00     0.188 C 
BRANCH  26  27
ATOM     27  C   UNL A   1      33.925  25.620  23.634  1.00  0.00     0.188 C 
BRANCH  27  28
ATOM     28  O   UNL A   1      35.203  25.317  24.119  1.00  0.00    -0.376 OA
BRANCH  28  29
ATOM     29  C   UNL A   1      35.261  24.473  25.234  1.00  0.00     0.202 C 
BRANCH  29  30
ATOM     30  C   UNL A   1      36.566  23.737  24.994  1.00  0.00     0.261 C 
BRANCH  30  31
ATOM     31  O   UNL A   1      37.427  23.970  26.159  1.00  0.00    -0.460 OA
BRANCH  31  32
ATOM     32  C   UNL A   1      38.607  23.247  26.161  1.00  0.00     0.338 C 
ATOM     33  O   UNL A   1      38.636  22.026  26.098  1.00  0.00    -0.246 OA
BRANCH  32  34
ATOM     34  C   UNL A   1      39.804  24.104  26.522  1.00  0.00     0.060 A 
ATOM     35  C   UNL A   1      40.588  23.829  27.640  1.00  0.00     0.016 A 
ATOM     36  C   UNL A   1      40.023  25.332  25.956  1.00  0.00     0.016 A 
ATOM     37  C   UNL A   1      41.210  24.887  28.397  1.00  0.00     0.010 A 
ATOM     38  C   UNL A   1      40.784  26.304  26.668  1.00  0.00     0.010 A 
ATOM     39  C   UNL A   1      41.105  26.263  28.082  1.00  0.00    -0.014 A 
BRANCH  39  40
ATOM     40  C   UNL A   1      41.087  27.621  29.359  1.00  0.00     0.031 A 
ATOM     41  C   UNL A   1      39.535  28.857  29.830  1.00  0.00     0.074 A 
ATOM     42  C   UNL A   1      42.504  27.584  29.717  1.00  0.00     0.049 A 
ATOM     43  N   UNL A   1      39.225  30.095  29.151  1.00  0.00    -0.248 NA
ATOM     44  C   UNL A   1      37.975  28.810  30.292  1.00  0.00     0.031 C 
ATOM     45  C   UNL A   1      43.204  27.467  31.040  1.00  0.00     0.029 A 
ATOM     46  N   UNL A   1      43.732  27.849  28.894  1.00  0.00    -0.354 N 
ATOM     47  C   UNL A   1      38.176  31.011  29.539  1.00  0.00     0.074 A 
ATOM     48  C   UNL A   1      37.303  29.976  30.021  1.00  0.00     0.031 C 
ATOM     49  C   UNL A   1      44.549  27.679  30.932  1.00  0.00     0.029 A 
ATOM     50  C   UNL A   1      44.911  28.278  29.632  1.00  0.00     0.049 A 
ATOM     51  H   UNL A   1      43.739  27.740  27.916  1.00  0.00     0.167 HD
ATOM     52  C   UNL A   1      38.106  32.496  29.682  1.00  0.00     0.034 A 
ATOM     53  C   UNL A   1      45.789  29.447  29.560  1.00  0.00     0.034 A 
ATOM     54  C   UNL A   1      39.373  33.600  30.085  1.00  0.00     0.049 A 
ATOM     55  C   UNL A   1      45.596  31.282  29.619  1.00  0.00     0.074 A 
ATOM     56  C   UNL A   1      39.769  34.187  31.307  1.00  0.00     0.029 A 
ATOM     57  N   UNL A   1      40.482  34.234  29.293  1.00  0.00    -0.354 N 
ATOM     58  N   UNL A   1      44.728  32.123  30.256  1.00  0.00    -0.248 NA
ATOM     59  C   UNL A   1      46.341  32.114  28.667  1.00  0.00     0.031 C 
ATOM     60  C   UNL A   1      41.160  34.720  31.251  1.00  0.00     0.029 A 
ATOM     61  C   UNL A   1      41.795  34.294  30.070  1.00  0.00     0.049 A 
ATOM     62  H   UNL A   1      40.374  34.572  28.375  1.00  0.00     0.167 HD
ATOM     63  C   UNL A   1      44.467  33.396  29.531  1.00  0.00     0.074 A 
ATOM     64  C   UNL A   1      45.667  33.290  28.640  1.00  0.00     0.031 C 
ATOM     65  C   UNL A   1      43.326  34.378  29.442  1.00  0.00     0.034 A 
BRANCH  52  66
ATOM     66  C   UNL A   1      36.678  33.014  29.944  1.00  0.00     0.023 A 
ATOM     67  C   UNL A   1      35.816  33.266  28.862  1.00  0.00     0.012 A 
ATOM     68  C   UNL A   1      36.164  33.276  31.240  1.00  0.00     0.148 A 
ATOM     69  C   UNL A   1      34.563  33.863  29.024  1.00  0.00     0.002 A 
ATOM     70  C   UNL A   1      34.930  33.919  31.401  1.00  0.00     0.091 A 
ATOM     71  F   UNL A   1      36.885  32.905  32.310  1.00  0.00    -0.205 F 
ATOM     72  C   UNL A   1      34.135  34.224  30.289  1.00  0.00     0.022 A 
BRANCH  70  73
ATOM     73  S   UNL A   1      34.323  34.520  32.987  1.00  0.00     0.127 S 
ATOM     74  O   UNL A   1      32.992  35.022  32.634  1.00  0.00    -0.237 OA
ATOM     75  O   UNL A   1      34.311  33.305  33.802  1.00  0.00    -0.237 OA
ATOM     76  O   UNL A   1      35.255  35.554  33.410  1.00  0.00    -0.744 OA
ENDBRANCH  70  73
ENDBRANCH  52  66
BRANCH  53  77
ATOM     77  C   UNL A   1      46.872  28.841  28.650  1.00  0.00     0.023 A 
ATOM     78  C   UNL A   1      47.619  27.833  29.315  1.00  0.00     0.012 A 
ATOM     79  C   UNL A   1      46.494  28.606  27.308  1.00  0.00     0.148 A 
ATOM     80  C   UNL A   1      47.653  26.530  28.799  1.00  0.00     0.002 A 
ATOM     81  C   UNL A   1      46.508  27.299  26.814  1.00  0.00     0.091 A 
ATOM     82  F   UNL A   1      45.920  29.605  26.623  1.00  0.00    -0.205 F 
ATOM     83  C   UNL A   1      47.042  26.252  27.578  1.00  0.00     0.022 A 
BRANCH  81  84
ATOM     84  S   UNL A   1      45.530  26.896  25.357  1.00  0.00     0.127 S 
ATOM     85  O   UNL A   1      46.442  27.255  24.279  1.00  0.00    -0.237 OA
ATOM     86  O   UNL A   1      45.286  25.462  25.512  1.00  0.00    -0.237 OA
ATOM     87  O   UNL A   1      44.340  27.725  25.529  1.00  0.00    -0.744 OA
ENDBRANCH  81  84
ENDBRANCH  53  77
BRANCH  65  88
ATOM     88  C   UNL A   1      43.417  35.656  28.497  1.00  0.00     0.023 A 
ATOM     89  C   UNL A   1      42.798  35.790  27.247  1.00  0.00     0.012 A 
ATOM     90  C   UNL A   1      44.133  36.820  28.887  1.00  0.00     0.148 A 
ATOM     91  C   UNL A   1      42.572  37.038  26.639  1.00  0.00     0.002 A 
ATOM     92  C   UNL A   1      43.905  38.069  28.309  1.00  0.00     0.091 A 
ATOM     93  F   UNL A   1      45.172  36.730  29.727  1.00  0.00    -0.205 F 
ATOM     94  C   UNL A   1      43.061  38.196  27.217  1.00  0.00     0.022 A 
BRANCH  92  95
ATOM     95  S   UNL A   1      44.649  39.532  29.037  1.00  0.00     0.127 S 
ATOM     96  O   UNL A   1      44.294  39.387  30.447  1.00  0.00    -0.237 OA
ATOM     97  O   UNL A   1      46.071  39.347  28.744  1.00  0.00    -0.237 OA
ATOM     98  O   UNL A   1      44.028  40.635  28.314  1.00  0.00    -0.744 OA
ENDBRANCH  92  95
ENDBRANCH  65  88
ENDBRANCH  39  40
ENDBRANCH  32  34
ENDBRANCH  31  32
ENDBRANCH  30  31
ENDBRANCH  29  30
ENDBRANCH  28  29
ENDBRANCH  27  28
ENDBRANCH  26  27
ENDBRANCH   1  26
TORSDOF 26
ENDMDL
