MODEL 1
REMARK VINA RESULT:     -10.2      0.000      0.000
REMARK SMILES Cc1ccc(/C=C2/SC(=O)N(CC(=O)OCCOCCOCCOCCOC(=O)c3ccc(-c4c5nc(c(-c6cccc(S(=O)(=O)[O-])c6F)c6ccc([nH]6)c(-c6cccc(S(=O)(=O)[O-])c6F)c6nc(c(-c7cccc(S(=O)(=O)[O-])c7F)c7ccc4[nH]7)C=C6)C=C5)cc3)C2=O)cc1
REMARK SMILES IDX 22 1 21 2 20 3 19 4 18 5 17 6 16 7 15 8 13 9 14 10 12 11
REMARK SMILES IDX 11 12 6 13 7 14 8 15 93 16 9 17 94 18 10 19 5 20 1 21 2 22
REMARK SMILES IDX 3 23 96 24 4 25 95 26 23 27 24 28 25 29 26 30 27 31 28 32
REMARK SMILES IDX 29 33 30 34 31 35 92 36 32 37 91 38 33 39 34 40 35 41 85 42
REMARK SMILES IDX 36 43 90 44 84 45 86 46 37 47 89 48 83 49 82 50 38 52 70 53
REMARK SMILES IDX 50 54 69 55 51 56 54 57 68 58 87 59 52 60 53 61 67 63 88 64
REMARK SMILES IDX 55 65 39 66 40 67 48 68 41 69 43 70 49 71 42 72 44 73 45 74
REMARK SMILES IDX 46 75 47 76 71 77 72 78 80 79 73 80 75 81 81 82 74 83 76 84
REMARK SMILES IDX 77 85 78 86 79 87 56 88 57 89 65 90 58 91 60 92 66 93 59 94
REMARK SMILES IDX 61 95 62 96 63 97 64 98
REMARK H PARENT 86 51 54 62
REMARK Flexibility Score: inf
ROOT
ATOM      1  C   UNL A   1      35.133  24.521  25.115  1.00  0.00     0.188 C 
ENDROOT
BRANCH   1   2
ATOM      2  O   UNL A   1      35.504  24.093  23.803  1.00  0.00    -0.377 OA
BRANCH   2   3
ATOM      3  C   UNL A   1      34.657  23.045  23.313  1.00  0.00     0.188 C 
BRANCH   3   4
ATOM      4  C   UNL A   1      35.071  21.637  23.787  1.00  0.00     0.188 C 
BRANCH   4   5
ATOM      5  O   UNL A   1      34.355  20.904  24.767  1.00  0.00    -0.376 OA
BRANCH   5   6
ATOM      6  C   UNL A   1      33.007  20.593  24.507  1.00  0.00     0.202 C 
BRANCH   6   7
ATOM      7  C   UNL A   1      31.989  21.399  25.299  1.00  0.00     0.261 C 
BRANCH   7   8
ATOM      8  O   UNL A   1      32.526  22.619  25.849  1.00  0.00    -0.462 OA
BRANCH   8   9
ATOM      9  C   UNL A   1      31.710  23.288  26.701  1.00  0.00     0.326 C 
ATOM     10  O   UNL A   1      31.932  23.476  27.889  1.00  0.00    -0.250 OA
BRANCH   9  11
ATOM     11  C   UNL A   1      30.469  23.815  25.992  1.00  0.00     0.252 C 
BRANCH  11  12
ATOM     12  N   UNL A   1      30.672  24.916  25.052  1.00  0.00    -0.257 N 
ATOM     13  C   UNL A   1      31.579  28.356  24.185  1.00  0.00     0.029 C 
ATOM     14  C   UNL A   1      31.036  27.123  24.258  1.00  0.00     0.083 C 
ATOM     15  S   UNL A   1      30.703  26.203  22.820  1.00  0.00    -0.022 SA
ATOM     16  C   UNL A   1      30.769  26.238  25.441  1.00  0.00     0.268 C 
ATOM     17  C   UNL A   1      30.658  24.672  23.695  1.00  0.00     0.294 C 
ATOM     18  O   UNL A   1      30.614  26.663  26.575  1.00  0.00    -0.268 OA
ATOM     19  O   UNL A   1      30.585  23.605  23.136  1.00  0.00    -0.261 OA
BRANCH  13  20
ATOM     20  C   UNL A   1      32.384  29.043  25.214  1.00  0.00    -0.024 A 
ATOM     21  C   UNL A   1      34.267  31.502  28.275  1.00  0.00     0.044 C 
ATOM     22  C   UNL A   1      33.626  30.590  27.270  1.00  0.00    -0.051 A 
ATOM     23  C   UNL A   1      34.230  29.434  26.760  1.00  0.00     0.004 A 
ATOM     24  C   UNL A   1      32.368  30.911  26.798  1.00  0.00     0.004 A 
ATOM     25  C   UNL A   1      33.617  28.668  25.734  1.00  0.00     0.008 A 
ATOM     26  C   UNL A   1      31.760  30.122  25.821  1.00  0.00     0.008 A 
ENDBRANCH  13  20
ENDBRANCH  11  12
ENDBRANCH   9  11
ENDBRANCH   8   9
ENDBRANCH   7   8
ENDBRANCH   6   7
ENDBRANCH   5   6
ENDBRANCH   4   5
ENDBRANCH   3   4
ENDBRANCH   2   3
ENDBRANCH   1   2
BRANCH   1  27
ATOM     27  C   UNL A   1      36.187  24.147  26.136  1.00  0.00     0.188 C 
BRANCH  27  28
ATOM     28  O   UNL A   1      37.347  23.773  25.423  1.00  0.00    -0.376 OA
BRANCH  28  29
ATOM     29  C   UNL A   1      38.412  23.241  26.179  1.00  0.00     0.202 C 
BRANCH  29  30
ATOM     30  C   UNL A   1      38.680  21.825  25.703  1.00  0.00     0.261 C 
BRANCH  30  31
ATOM     31  O   UNL A   1      39.403  21.080  26.711  1.00  0.00    -0.460 OA
BRANCH  31  32
ATOM     32  C   UNL A   1      40.645  20.655  26.321  1.00  0.00     0.338 C 
ATOM     33  O   UNL A   1      40.839  19.572  25.793  1.00  0.00    -0.246 OA
BRANCH  32  34
ATOM     34  C   UNL A   1      41.718  21.630  26.728  1.00  0.00     0.060 A 
ATOM     35  C   UNL A   1      41.797  22.030  28.069  1.00  0.00     0.016 A 
ATOM     36  C   UNL A   1      42.348  22.406  25.756  1.00  0.00     0.016 A 
ATOM     37  C   UNL A   1      42.306  23.301  28.406  1.00  0.00     0.010 A 
ATOM     38  C   UNL A   1      42.703  23.714  26.086  1.00  0.00     0.010 A 
ATOM     39  C   UNL A   1      42.649  24.207  27.413  1.00  0.00    -0.014 A 
BRANCH  39  40
ATOM     40  C   UNL A   1      43.035  25.635  27.610  1.00  0.00     0.031 A 
ATOM     41  C   UNL A   1      41.873  26.591  27.755  1.00  0.00     0.074 A 
ATOM     42  C   UNL A   1      44.276  26.038  28.019  1.00  0.00     0.049 A 
ATOM     43  N   UNL A   1      41.919  27.790  28.229  1.00  0.00    -0.248 NA
ATOM     44  C   UNL A   1      40.510  26.203  27.401  1.00  0.00     0.031 C 
ATOM     45  C   UNL A   1      44.506  27.142  28.960  1.00  0.00     0.029 A 
ATOM     46  N   UNL A   1      45.577  25.554  27.850  1.00  0.00    -0.354 N 
ATOM     47  C   UNL A   1      40.630  28.237  28.464  1.00  0.00     0.074 A 
ATOM     48  C   UNL A   1      39.792  27.212  27.904  1.00  0.00     0.031 C 
ATOM     49  C   UNL A   1      45.788  27.220  29.330  1.00  0.00     0.029 A 
ATOM     50  C   UNL A   1      46.502  26.514  28.310  1.00  0.00     0.049 A 
ATOM     51  H   UNL A   1      45.812  24.677  27.469  1.00  0.00     0.167 HD
ATOM     52  C   UNL A   1      40.442  29.384  29.186  1.00  0.00     0.034 A 
ATOM     53  C   UNL A   1      47.439  27.170  27.560  1.00  0.00     0.034 A 
ATOM     54  C   UNL A   1      41.728  30.113  29.377  1.00  0.00     0.049 A 
ATOM     55  C   UNL A   1      47.091  28.663  27.372  1.00  0.00     0.074 A 
ATOM     56  C   UNL A   1      42.423  30.631  30.460  1.00  0.00     0.029 A 
ATOM     57  N   UNL A   1      42.571  30.307  28.276  1.00  0.00    -0.354 N 
ATOM     58  N   UNL A   1      45.979  29.214  27.807  1.00  0.00    -0.248 NA
ATOM     59  C   UNL A   1      47.946  29.667  26.743  1.00  0.00     0.031 C 
ATOM     60  C   UNL A   1      43.734  30.988  30.028  1.00  0.00     0.029 A 
ATOM     61  C   UNL A   1      43.803  30.810  28.656  1.00  0.00     0.049 A 
ATOM     62  H   UNL A   1      42.319  30.111  27.346  1.00  0.00     0.167 HD
ATOM     63  C   UNL A   1      45.890  30.530  27.451  1.00  0.00     0.074 A 
ATOM     64  C   UNL A   1      47.181  30.776  26.830  1.00  0.00     0.031 C 
ATOM     65  C   UNL A   1      44.757  31.282  27.653  1.00  0.00     0.034 A 
BRANCH  52  66
ATOM     66  C   UNL A   1      39.130  29.841  29.870  1.00  0.00     0.023 A 
ATOM     67  C   UNL A   1      38.260  28.818  30.322  1.00  0.00     0.012 A 
ATOM     68  C   UNL A   1      38.625  31.160  30.049  1.00  0.00     0.148 A 
ATOM     69  C   UNL A   1      36.972  29.055  30.823  1.00  0.00     0.002 A 
ATOM     70  C   UNL A   1      37.356  31.405  30.607  1.00  0.00     0.091 A 
ATOM     71  F   UNL A   1      39.346  32.214  29.671  1.00  0.00    -0.205 F 
ATOM     72  C   UNL A   1      36.516  30.351  30.965  1.00  0.00     0.022 A 
BRANCH  70  73
ATOM     73  S   UNL A   1      36.698  33.064  30.913  1.00  0.00     0.127 S 
ATOM     74  O   UNL A   1      35.306  32.785  31.273  1.00  0.00    -0.237 OA
ATOM     75  O   UNL A   1      37.527  33.526  32.026  1.00  0.00    -0.237 OA
ATOM     76  O   UNL A   1      36.863  33.809  29.672  1.00  0.00    -0.744 OA
ENDBRANCH  70  73
ENDBRANCH  52  66
BRANCH  53  77
ATOM     77  C   UNL A   1      48.248  26.223  26.732  1.00  0.00     0.023 A 
ATOM     78  C   UNL A   1      47.846  26.194  25.368  1.00  0.00     0.012 A 
ATOM     79  C   UNL A   1      49.613  26.121  27.028  1.00  0.00     0.148 A 
ATOM     80  C   UNL A   1      48.780  26.412  24.350  1.00  0.00     0.002 A 
ATOM     81  C   UNL A   1      50.538  26.372  26.011  1.00  0.00     0.091 A 
ATOM     82  F   UNL A   1      49.976  26.011  28.312  1.00  0.00    -0.205 F 
ATOM     83  C   UNL A   1      50.119  26.575  24.685  1.00  0.00     0.022 A 
BRANCH  81  84
ATOM     84  S   UNL A   1      52.224  26.839  26.436  1.00  0.00     0.127 S 
ATOM     85  O   UNL A   1      52.016  27.963  27.338  1.00  0.00    -0.237 OA
ATOM     86  O   UNL A   1      52.730  25.619  27.062  1.00  0.00    -0.237 OA
ATOM     87  O   UNL A   1      52.836  27.142  25.150  1.00  0.00    -0.744 OA
ENDBRANCH  81  84
ENDBRANCH  53  77
BRANCH  65  88
ATOM     88  C   UNL A   1      44.396  32.579  26.926  1.00  0.00     0.023 A 
ATOM     89  C   UNL A   1      44.146  32.613  25.544  1.00  0.00     0.012 A 
ATOM     90  C   UNL A   1      44.109  33.781  27.644  1.00  0.00     0.148 A 
ATOM     91  C   UNL A   1      43.687  33.768  24.899  1.00  0.00     0.002 A 
ATOM     92  C   UNL A   1      43.540  34.886  27.019  1.00  0.00     0.091 A 
ATOM     93  F   UNL A   1      44.404  33.882  28.946  1.00  0.00    -0.205 F 
ATOM     94  C   UNL A   1      43.358  34.894  25.637  1.00  0.00     0.022 A 
BRANCH  92  95
ATOM     95  S   UNL A   1      42.879  36.278  27.952  1.00  0.00     0.127 S 
ATOM     96  O   UNL A   1      42.334  37.118  26.889  1.00  0.00    -0.237 OA
ATOM     97  O   UNL A   1      41.871  35.626  28.793  1.00  0.00    -0.237 OA
ATOM     98  O   UNL A   1      44.006  36.832  28.689  1.00  0.00    -0.744 OA
ENDBRANCH  92  95
ENDBRANCH  65  88
ENDBRANCH  39  40
ENDBRANCH  32  34
ENDBRANCH  31  32
ENDBRANCH  30  31
ENDBRANCH  29  30
ENDBRANCH  28  29
ENDBRANCH  27  28
ENDBRANCH   1  27
TORSDOF 25
ENDMDL
MODEL 2
REMARK VINA RESULT:      -9.7      1.526      2.590
REMARK SMILES Cc1ccc(/C=C2/SC(=O)N(CC(=O)OCCOCCOCCOCCOC(=O)c3ccc(-c4c5nc(c(-c6cccc(S(=O)(=O)[O-])c6F)c6ccc([nH]6)c(-c6cccc(S(=O)(=O)[O-])c6F)c6nc(c(-c7cccc(S(=O)(=O)[O-])c7F)c7ccc4[nH]7)C=C6)C=C5)cc3)C2=O)cc1
REMARK SMILES IDX 22 1 21 2 20 3 19 4 18 5 17 6 16 7 15 8 13 9 14 10 12 11
REMARK SMILES IDX 11 12 6 13 7 14 8 15 93 16 9 17 94 18 10 19 5 20 1 21 2 22
REMARK SMILES IDX 3 23 96 24 4 25 95 26 23 27 24 28 25 29 26 30 27 31 28 32
REMARK SMILES IDX 29 33 30 34 31 35 92 36 32 37 91 38 33 39 34 40 35 41 85 42
REMARK SMILES IDX 36 43 90 44 84 45 86 46 37 47 89 48 83 49 82 50 38 52 70 53
REMARK SMILES IDX 50 54 69 55 51 56 54 57 68 58 87 59 52 60 53 61 67 63 88 64
REMARK SMILES IDX 55 65 39 66 40 67 48 68 41 69 43 70 49 71 42 72 44 73 45 74
REMARK SMILES IDX 46 75 47 76 71 77 72 78 80 79 73 80 75 81 81 82 74 83 76 84
REMARK SMILES IDX 77 85 78 86 79 87 56 88 57 89 65 90 58 91 60 92 66 93 59 94
REMARK SMILES IDX 61 95 62 96 63 97 64 98
REMARK H PARENT 86 51 54 62
REMARK Flexibility Score: inf
ROOT
ATOM      1  C   UNL A   1      35.659  19.316  24.916  1.00  0.00     0.188 C 
ENDROOT
BRANCH   1   2
ATOM      2  O   UNL A   1      35.560  17.907  24.700  1.00  0.00    -0.377 OA
BRANCH   2   3
ATOM      3  C   UNL A   1      34.291  17.529  24.149  1.00  0.00     0.188 C 
BRANCH   3   4
ATOM      4  C   UNL A   1      33.143  17.522  25.179  1.00  0.00     0.188 C 
BRANCH   4   5
ATOM      5  O   UNL A   1      32.186  18.563  25.285  1.00  0.00    -0.376 OA
BRANCH   5   6
ATOM      6  C   UNL A   1      32.229  19.601  24.336  1.00  0.00     0.202 C 
BRANCH   6   7
ATOM      7  C   UNL A   1      32.226  21.009  24.911  1.00  0.00     0.261 C 
BRANCH   7   8
ATOM      8  O   UNL A   1      31.759  22.007  23.981  1.00  0.00    -0.462 OA
BRANCH   8   9
ATOM      9  C   UNL A   1      32.374  22.018  22.773  1.00  0.00     0.326 C 
ATOM     10  O   UNL A   1      31.981  21.431  21.774  1.00  0.00    -0.250 OA
BRANCH   9  11
ATOM     11  C   UNL A   1      33.628  22.885  22.789  1.00  0.00     0.252 C 
BRANCH  11  12
ATOM     12  N   UNL A   1      33.606  24.048  23.675  1.00  0.00    -0.257 N 
ATOM     13  C   UNL A   1      32.328  27.294  24.786  1.00  0.00     0.029 C 
ATOM     14  C   UNL A   1      33.081  26.216  24.485  1.00  0.00     0.083 C 
ATOM     15  S   UNL A   1      34.291  25.631  25.588  1.00  0.00    -0.022 SA
ATOM     16  C   UNL A   1      32.983  25.237  23.351  1.00  0.00     0.268 C 
ATOM     17  C   UNL A   1      34.328  24.030  24.849  1.00  0.00     0.294 C 
ATOM     18  O   UNL A   1      32.459  25.501  22.280  1.00  0.00    -0.268 OA
ATOM     19  O   UNL A   1      34.943  23.108  25.325  1.00  0.00    -0.261 OA
BRANCH  13  20
ATOM     20  C   UNL A   1      30.979  27.615  24.279  1.00  0.00    -0.024 A 
ATOM     21  C   UNL A   1      27.233  29.167  22.692  1.00  0.00     0.044 C 
ATOM     22  C   UNL A   1      28.522  28.575  23.181  1.00  0.00    -0.051 A 
ATOM     23  C   UNL A   1      28.670  27.241  23.584  1.00  0.00     0.004 A 
ATOM     24  C   UNL A   1      29.634  29.390  23.260  1.00  0.00     0.004 A 
ATOM     25  C   UNL A   1      29.889  26.764  24.135  1.00  0.00     0.008 A 
ATOM     26  C   UNL A   1      30.837  28.894  23.763  1.00  0.00     0.008 A 
ENDBRANCH  13  20
ENDBRANCH  11  12
ENDBRANCH   9  11
ENDBRANCH   8   9
ENDBRANCH   7   8
ENDBRANCH   6   7
ENDBRANCH   5   6
ENDBRANCH   4   5
ENDBRANCH   3   4
ENDBRANCH   2   3
ENDBRANCH   1   2
BRANCH   1  27
ATOM     27  C   UNL A   1      37.069  19.814  24.671  1.00  0.00     0.188 C 
BRANCH  27  28
ATOM     28  O   UNL A   1      37.296  20.885  25.564  1.00  0.00    -0.376 OA
BRANCH  28  29
ATOM     29  C   UNL A   1      38.316  21.794  25.217  1.00  0.00     0.202 C 
BRANCH  29  30
ATOM     30  C   UNL A   1      39.115  22.120  26.465  1.00  0.00     0.261 C 
BRANCH  30  31
ATOM     31  O   UNL A   1      39.828  20.951  26.931  1.00  0.00    -0.460 OA
BRANCH  31  32
ATOM     32  C   UNL A   1      41.010  20.710  26.282  1.00  0.00     0.338 C 
ATOM     33  O   UNL A   1      41.186  19.736  25.567  1.00  0.00    -0.246 OA
BRANCH  32  34
ATOM     34  C   UNL A   1      42.064  21.718  26.656  1.00  0.00     0.060 A 
ATOM     35  C   UNL A   1      42.208  22.081  28.003  1.00  0.00     0.016 A 
ATOM     36  C   UNL A   1      42.599  22.550  25.675  1.00  0.00     0.016 A 
ATOM     37  C   UNL A   1      42.682  23.362  28.350  1.00  0.00     0.010 A 
ATOM     38  C   UNL A   1      42.919  23.862  26.026  1.00  0.00     0.010 A 
ATOM     39  C   UNL A   1      42.926  24.312  27.369  1.00  0.00    -0.014 A 
BRANCH  39  40
ATOM     40  C   UNL A   1      43.263  25.749  27.589  1.00  0.00     0.031 A 
ATOM     41  C   UNL A   1      42.069  26.668  27.708  1.00  0.00     0.074 A 
ATOM     42  C   UNL A   1      44.479  26.184  28.038  1.00  0.00     0.049 A 
ATOM     43  N   UNL A   1      42.065  27.863  28.193  1.00  0.00    -0.248 NA
ATOM     44  C   UNL A   1      40.729  26.244  27.310  1.00  0.00     0.031 C 
ATOM     45  C   UNL A   1      44.648  27.286  28.995  1.00  0.00     0.029 A 
ATOM     46  N   UNL A   1      45.798  25.741  27.904  1.00  0.00    -0.354 N 
ATOM     47  C   UNL A   1      40.757  28.270  28.393  1.00  0.00     0.074 A 
ATOM     48  C   UNL A   1      39.967  27.226  27.800  1.00  0.00     0.031 C 
ATOM     49  C   UNL A   1      45.916  27.399  29.404  1.00  0.00     0.029 A 
ATOM     50  C   UNL A   1      46.680  26.724  28.400  1.00  0.00     0.049 A 
ATOM     51  H   UNL A   1      46.071  24.875  27.522  1.00  0.00     0.167 HD
ATOM     52  C   UNL A   1      40.514  29.404  29.119  1.00  0.00     0.034 A 
ATOM     53  C   UNL A   1      47.619  27.414  27.683  1.00  0.00     0.034 A 
ATOM     54  C   UNL A   1      41.771  30.169  29.354  1.00  0.00     0.049 A 
ATOM     55  C   UNL A   1      47.232  28.898  27.498  1.00  0.00     0.074 A 
ATOM     56  C   UNL A   1      42.417  30.697  30.462  1.00  0.00     0.029 A 
ATOM     57  N   UNL A   1      42.640  30.399  28.281  1.00  0.00    -0.354 N 
ATOM     58  N   UNL A   1      46.091  29.412  27.903  1.00  0.00    -0.248 NA
ATOM     59  C   UNL A   1      48.074  29.933  26.902  1.00  0.00     0.031 C 
ATOM     60  C   UNL A   1      43.729  31.097  30.072  1.00  0.00     0.029 A 
ATOM     61  C   UNL A   1      43.845  30.934  28.701  1.00  0.00     0.049 A 
ATOM     62  H   UNL A   1      42.421  30.203  27.342  1.00  0.00     0.167 HD
ATOM     63  C   UNL A   1      45.973  30.728  27.556  1.00  0.00     0.074 A 
ATOM     64  C   UNL A   1      47.274  31.017  26.976  1.00  0.00     0.031 C 
ATOM     65  C   UNL A   1      44.813  31.443  27.732  1.00  0.00     0.034 A 
BRANCH  52  66
ATOM     66  C   UNL A   1      39.168  29.816  29.768  1.00  0.00     0.023 A 
ATOM     67  C   UNL A   1      38.313  28.763  30.177  1.00  0.00     0.012 A 
ATOM     68  C   UNL A   1      38.623  31.118  29.950  1.00  0.00     0.148 A 
ATOM     69  C   UNL A   1      37.003  28.958  30.640  1.00  0.00     0.002 A 
ATOM     70  C   UNL A   1      37.331  31.321  30.471  1.00  0.00     0.091 A 
ATOM     71  F   UNL A   1      39.327  32.196  29.611  1.00  0.00    -0.205 F 
ATOM     72  C   UNL A   1      36.509  30.239  30.787  1.00  0.00     0.022 A 
BRANCH  70  73
ATOM     73  S   UNL A   1      36.620  32.956  30.781  1.00  0.00     0.127 S 
ATOM     74  O   UNL A   1      36.835  33.636  29.502  1.00  0.00    -0.237 OA
ATOM     75  O   UNL A   1      35.221  32.638  31.066  1.00  0.00    -0.237 OA
ATOM     76  O   UNL A   1      37.362  33.524  31.898  1.00  0.00    -0.744 OA
ENDBRANCH  70  73
ENDBRANCH  52  66
BRANCH  53  77
ATOM     77  C   UNL A   1      48.479  26.499  26.871  1.00  0.00     0.023 A 
ATOM     78  C   UNL A   1      48.186  26.549  25.480  1.00  0.00     0.012 A 
ATOM     79  C   UNL A   1      49.816  26.361  27.267  1.00  0.00     0.148 A 
ATOM     80  C   UNL A   1      49.200  26.805  24.552  1.00  0.00     0.002 A 
ATOM     81  C   UNL A   1      50.821  26.650  26.341  1.00  0.00     0.091 A 
ATOM     82  F   UNL A   1      50.074  26.178  28.568  1.00  0.00    -0.205 F 
ATOM     83  C   UNL A   1      50.510  26.930  24.999  1.00  0.00     0.022 A 
BRANCH  81  84
ATOM     84  S   UNL A   1      52.473  27.069  26.921  1.00  0.00     0.127 S 
ATOM     85  O   UNL A   1      53.316  26.555  25.850  1.00  0.00    -0.237 OA
ATOM     86  O   UNL A   1      52.403  28.526  27.017  1.00  0.00    -0.237 OA
ATOM     87  O   UNL A   1      52.572  26.395  28.207  1.00  0.00    -0.744 OA
ENDBRANCH  81  84
ENDBRANCH  53  77
BRANCH  65  88
ATOM     88  C   UNL A   1      44.435  32.736  27.004  1.00  0.00     0.023 A 
ATOM     89  C   UNL A   1      44.185  32.768  25.622  1.00  0.00     0.012 A 
ATOM     90  C   UNL A   1      44.131  33.934  27.723  1.00  0.00     0.148 A 
ATOM     91  C   UNL A   1      43.710  33.916  24.979  1.00  0.00     0.002 A 
ATOM     92  C   UNL A   1      43.548  35.031  27.098  1.00  0.00     0.091 A 
ATOM     93  F   UNL A   1      44.424  34.038  29.026  1.00  0.00    -0.205 F 
ATOM     94  C   UNL A   1      43.366  35.038  25.717  1.00  0.00     0.022 A 
BRANCH  92  95
ATOM     95  S   UNL A   1      42.867  36.413  28.032  1.00  0.00     0.127 S 
ATOM     96  O   UNL A   1      42.286  37.233  26.972  1.00  0.00    -0.237 OA
ATOM     97  O   UNL A   1      41.889  35.743  28.893  1.00  0.00    -0.237 OA
ATOM     98  O   UNL A   1      43.991  37.000  28.748  1.00  0.00    -0.744 OA
ENDBRANCH  92  95
ENDBRANCH  65  88
ENDBRANCH  39  40
ENDBRANCH  32  34
ENDBRANCH  31  32
ENDBRANCH  30  31
ENDBRANCH  29  30
ENDBRANCH  28  29
ENDBRANCH  27  28
ENDBRANCH   1  27
TORSDOF 25
ENDMDL
MODEL 3
REMARK VINA RESULT:      -9.4      2.849      3.927
REMARK SMILES Cc1ccc(/C=C2/SC(=O)N(CC(=O)OCCOCCOCCOCCOC(=O)c3ccc(-c4c5nc(c(-c6cccc(S(=O)(=O)[O-])c6F)c6ccc([nH]6)c(-c6cccc(S(=O)(=O)[O-])c6F)c6nc(c(-c7cccc(S(=O)(=O)[O-])c7F)c7ccc4[nH]7)C=C6)C=C5)cc3)C2=O)cc1
REMARK SMILES IDX 22 1 21 2 20 3 19 4 18 5 17 6 16 7 15 8 13 9 14 10 12 11
REMARK SMILES IDX 11 12 6 13 7 14 8 15 93 16 9 17 94 18 10 19 5 20 1 21 2 22
REMARK SMILES IDX 3 23 96 24 4 25 95 26 23 27 24 28 25 29 26 30 27 31 28 32
REMARK SMILES IDX 29 33 30 34 31 35 92 36 32 37 91 38 33 39 34 40 35 41 85 42
REMARK SMILES IDX 36 43 90 44 84 45 86 46 37 47 89 48 83 49 82 50 38 52 70 53
REMARK SMILES IDX 50 54 69 55 51 56 54 57 68 58 87 59 52 60 53 61 67 63 88 64
REMARK SMILES IDX 55 65 39 66 40 67 48 68 41 69 43 70 49 71 42 72 44 73 45 74
REMARK SMILES IDX 46 75 47 76 71 77 72 78 80 79 73 80 75 81 81 82 74 83 76 84
REMARK SMILES IDX 77 85 78 86 79 87 56 88 57 89 65 90 58 91 60 92 66 93 59 94
REMARK SMILES IDX 61 95 62 96 63 97 64 98
REMARK H PARENT 86 51 54 62
REMARK Flexibility Score: inf
ROOT
ATOM      1  C   UNL A   1      36.206  20.283  25.331  1.00  0.00     0.188 C 
ENDROOT
BRANCH   1   2
ATOM      2  O   UNL A   1      36.412  18.896  25.054  1.00  0.00    -0.377 OA
BRANCH   2   3
ATOM      3  C   UNL A   1      35.403  18.357  24.191  1.00  0.00     0.188 C 
BRANCH   3   4
ATOM      4  C   UNL A   1      34.748  17.067  24.728  1.00  0.00     0.188 C 
BRANCH   4   5
ATOM      5  O   UNL A   1      33.457  17.037  25.314  1.00  0.00    -0.376 OA
BRANCH   5   6
ATOM      6  C   UNL A   1      32.530  18.022  24.926  1.00  0.00     0.202 C 
BRANCH   6   7
ATOM      7  C   UNL A   1      32.565  19.304  25.743  1.00  0.00     0.261 C 
BRANCH   7   8
ATOM      8  O   UNL A   1      31.831  20.389  25.139  1.00  0.00    -0.462 OA
BRANCH   8   9
ATOM      9  C   UNL A   1      32.197  21.634  25.530  1.00  0.00     0.326 C 
ATOM     10  O   UNL A   1      33.166  21.899  26.229  1.00  0.00    -0.250 OA
BRANCH   9  11
ATOM     11  C   UNL A   1      31.262  22.698  24.966  1.00  0.00     0.252 C 
BRANCH  11  12
ATOM     12  N   UNL A   1      31.870  23.712  24.107  1.00  0.00    -0.257 N 
ATOM     13  C   UNL A   1      33.132  27.076  23.399  1.00  0.00     0.029 C 
ATOM     14  C   UNL A   1      32.584  25.844  23.346  1.00  0.00     0.083 C 
ATOM     15  S   UNL A   1      32.877  24.790  21.995  1.00  0.00    -0.022 SA
ATOM     16  C   UNL A   1      31.819  25.066  24.378  1.00  0.00     0.268 C 
ATOM     17  C   UNL A   1      32.431  23.345  22.902  1.00  0.00     0.294 C 
ATOM     18  O   UNL A   1      31.204  25.589  25.294  1.00  0.00    -0.268 OA
ATOM     19  O   UNL A   1      32.581  22.230  22.465  1.00  0.00    -0.261 OA
BRANCH  13  20
ATOM     20  C   UNL A   1      33.435  27.870  24.606  1.00  0.00    -0.024 A 
ATOM     21  C   UNL A   1      33.969  30.684  27.887  1.00  0.00     0.044 C 
ATOM     22  C   UNL A   1      33.757  29.660  26.810  1.00  0.00    -0.051 A 
ATOM     23  C   UNL A   1      34.329  28.381  26.818  1.00  0.00     0.004 A 
ATOM     24  C   UNL A   1      32.964  29.995  25.731  1.00  0.00     0.004 A 
ATOM     25  C   UNL A   1      34.174  27.493  25.721  1.00  0.00     0.008 A 
ATOM     26  C   UNL A   1      32.786  29.094  24.679  1.00  0.00     0.008 A 
ENDBRANCH  13  20
ENDBRANCH  11  12
ENDBRANCH   9  11
ENDBRANCH   8   9
ENDBRANCH   7   8
ENDBRANCH   6   7
ENDBRANCH   5   6
ENDBRANCH   4   5
ENDBRANCH   3   4
ENDBRANCH   2   3
ENDBRANCH   1   2
BRANCH   1  27
ATOM     27  C   UNL A   1      36.015  21.077  24.055  1.00  0.00     0.188 C 
BRANCH  27  28
ATOM     28  O   UNL A   1      35.787  22.420  24.428  1.00  0.00    -0.376 OA
BRANCH  28  29
ATOM     29  C   UNL A   1      36.914  23.267  24.470  1.00  0.00     0.202 C 
BRANCH  29  30
ATOM     30  C   UNL A   1      37.479  23.247  25.877  1.00  0.00     0.261 C 
BRANCH  30  31
ATOM     31  O   UNL A   1      38.750  22.556  25.904  1.00  0.00    -0.460 OA
BRANCH  31  32
ATOM     32  C   UNL A   1      39.641  23.041  26.825  1.00  0.00     0.338 C 
ATOM     33  O   UNL A   1      40.382  22.318  27.472  1.00  0.00    -0.246 OA
BRANCH  32  34
ATOM     34  C   UNL A   1      39.498  24.528  27.007  1.00  0.00     0.060 A 
ATOM     35  C   UNL A   1      40.283  25.386  26.224  1.00  0.00     0.016 A 
ATOM     36  C   UNL A   1      38.914  25.026  28.170  1.00  0.00     0.016 A 
ATOM     37  C   UNL A   1      40.659  26.654  26.711  1.00  0.00     0.010 A 
ATOM     38  C   UNL A   1      39.417  26.213  28.704  1.00  0.00     0.010 A 
ATOM     39  C   UNL A   1      40.337  27.034  28.006  1.00  0.00    -0.014 A 
BRANCH  39  40
ATOM     40  C   UNL A   1      40.808  28.260  28.714  1.00  0.00     0.031 A 
ATOM     41  C   UNL A   1      39.822  29.406  28.722  1.00  0.00     0.074 A 
ATOM     42  C   UNL A   1      41.838  28.269  29.613  1.00  0.00     0.049 A 
ATOM     43  N   UNL A   1      39.846  30.434  29.500  1.00  0.00    -0.248 NA
ATOM     44  C   UNL A   1      38.662  29.427  27.835  1.00  0.00     0.031 C 
ATOM     45  C   UNL A   1      41.837  29.067  30.847  1.00  0.00     0.029 A 
ATOM     46  N   UNL A   1      43.025  27.544  29.764  1.00  0.00    -0.354 N 
ATOM     47  C   UNL A   1      38.640  31.107  29.403  1.00  0.00     0.074 A 
ATOM     48  C   UNL A   1      37.950  30.445  28.329  1.00  0.00     0.031 C 
ATOM     49  C   UNL A   1      42.875  28.767  31.634  1.00  0.00     0.029 A 
ATOM     50  C   UNL A   1      43.822  28.146  30.760  1.00  0.00     0.049 A 
ATOM     51  H   UNL A   1      43.266  26.738  29.254  1.00  0.00     0.167 HD
ATOM     52  C   UNL A   1      38.347  32.088  30.311  1.00  0.00     0.034 A 
ATOM     53  C   UNL A   1      45.056  28.710  30.586  1.00  0.00     0.034 A 
ATOM     54  C   UNL A   1      39.546  32.443  31.120  1.00  0.00     0.049 A 
ATOM     55  C   UNL A   1      45.015  30.248  30.720  1.00  0.00     0.074 A 
ATOM     56  C   UNL A   1      39.834  32.546  32.474  1.00  0.00     0.029 A 
ATOM     57  N   UNL A   1      40.767  32.664  30.471  1.00  0.00    -0.354 N 
ATOM     58  N   UNL A   1      43.908  30.937  30.890  1.00  0.00    -0.248 NA
ATOM     59  C   UNL A   1      46.175  31.137  30.725  1.00  0.00     0.031 C 
ATOM     60  C   UNL A   1      41.245  32.673  32.628  1.00  0.00     0.029 A 
ATOM     61  C   UNL A   1      41.813  32.777  31.369  1.00  0.00     0.049 A 
ATOM     62  H   UNL A   1      40.868  32.732  29.494  1.00  0.00     0.167 HD
ATOM     63  C   UNL A   1      44.144  32.283  30.910  1.00  0.00     0.074 A 
ATOM     64  C   UNL A   1      45.595  32.348  30.857  1.00  0.00     0.031 C 
ATOM     65  C   UNL A   1      43.134  33.216  30.922  1.00  0.00     0.034 A 
BRANCH  52  66
ATOM     66  C   UNL A   1      36.948  32.682  30.611  1.00  0.00     0.023 A 
ATOM     67  C   UNL A   1      36.417  32.434  31.901  1.00  0.00     0.012 A 
ATOM     68  C   UNL A   1      36.070  33.390  29.743  1.00  0.00     0.148 A 
ATOM     69  C   UNL A   1      35.110  32.768  32.284  1.00  0.00     0.002 A 
ATOM     70  C   UNL A   1      34.777  33.780  30.143  1.00  0.00     0.091 A 
ATOM     71  F   UNL A   1      36.448  33.692  28.503  1.00  0.00    -0.205 F 
ATOM     72  C   UNL A   1      34.286  33.441  31.404  1.00  0.00     0.022 A 
BRANCH  70  73
ATOM     73  S   UNL A   1      33.651  34.737  29.099  1.00  0.00     0.127 S 
ATOM     74  O   UNL A   1      32.548  35.029  30.017  1.00  0.00    -0.237 OA
ATOM     75  O   UNL A   1      34.465  35.899  28.746  1.00  0.00    -0.237 OA
ATOM     76  O   UNL A   1      33.292  33.875  27.980  1.00  0.00    -0.744 OA
ENDBRANCH  70  73
ENDBRANCH  52  66
BRANCH  53  77
ATOM     77  C   UNL A   1      45.984  27.798  29.848  1.00  0.00     0.023 A 
ATOM     78  C   UNL A   1      46.047  26.494  30.412  1.00  0.00     0.012 A 
ATOM     79  C   UNL A   1      46.031  27.927  28.454  1.00  0.00     0.148 A 
ATOM     80  C   UNL A   1      45.808  25.368  29.617  1.00  0.00     0.002 A 
ATOM     81  C   UNL A   1      45.760  26.803  27.670  1.00  0.00     0.091 A 
ATOM     82  F   UNL A   1      46.110  29.158  27.934  1.00  0.00    -0.205 F 
ATOM     83  C   UNL A   1      45.591  25.536  28.255  1.00  0.00     0.022 A 
BRANCH  81  84
ATOM     84  S   UNL A   1      45.224  27.014  25.964  1.00  0.00     0.127 S 
ATOM     85  O   UNL A   1      46.351  27.721  25.371  1.00  0.00    -0.237 OA
ATOM     86  O   UNL A   1      45.053  25.630  25.524  1.00  0.00    -0.237 OA
ATOM     87  O   UNL A   1      43.978  27.757  26.080  1.00  0.00    -0.744 OA
ENDBRANCH  81  84
ENDBRANCH  53  77
BRANCH  65  88
ATOM     88  C   UNL A   1      43.262  34.685  30.512  1.00  0.00     0.023 A 
ATOM     89  C   UNL A   1      43.549  35.697  31.443  1.00  0.00     0.012 A 
ATOM     90  C   UNL A   1      43.286  35.075  29.137  1.00  0.00     0.148 A 
ATOM     91  C   UNL A   1      43.799  37.017  31.054  1.00  0.00     0.002 A 
ATOM     92  C   UNL A   1      43.652  36.360  28.750  1.00  0.00     0.091 A 
ATOM     93  F   UNL A   1      42.932  34.210  28.178  1.00  0.00    -0.205 F 
ATOM     94  C   UNL A   1      43.877  37.345  29.709  1.00  0.00     0.022 A 
BRANCH  92  95
ATOM     95  S   UNL A   1      43.999  36.779  27.032  1.00  0.00     0.127 S 
ATOM     96  O   UNL A   1      42.655  36.841  26.463  1.00  0.00    -0.237 OA
ATOM     97  O   UNL A   1      44.666  38.077  27.167  1.00  0.00    -0.237 OA
ATOM     98  O   UNL A   1      44.856  35.715  26.529  1.00  0.00    -0.744 OA
ENDBRANCH  92  95
ENDBRANCH  65  88
ENDBRANCH  39  40
ENDBRANCH  32  34
ENDBRANCH  31  32
ENDBRANCH  30  31
ENDBRANCH  29  30
ENDBRANCH  28  29
ENDBRANCH  27  28
ENDBRANCH   1  27
TORSDOF 25
ENDMDL
