MODEL 1
REMARK VINA RESULT:      -7.1      0.000      0.000
REMARK SMILES CC1=C(C)C[C@@H](C(=O)N[C@H](C)C(C)(C)C)[C@@H](C(=O)OCCOCCOCCOCCOC(=O)c2ccc(-c3c4nc(c(-c5cccc(S(=O)(=O)[O-])c5F)c5ccc([nH]5)c(-c5cccc(S(=O)(=O)[O-])c5F)c5nc(c(-c6cccc(S(=O)(=O)[O-])c6F)c6ccc3[nH]6)C=C5)C=C4)cc2)C1
REMARK SMILES IDX 25 1 24 2 23 3 22 4 21 5 20 6 19 7 17 8 18 9 16 10 1 11 2 12
REMARK SMILES IDX 3 13 97 14 4 15 5 16 6 17 7 18 8 19 9 20 10 22 11 23 12 24
REMARK SMILES IDX 13 25 14 26 15 27 26 28 27 29 28 30 29 31 30 32 31 33 32 34
REMARK SMILES IDX 33 35 34 36 35 37 96 38 36 39 95 40 37 41 38 42 39 43 89 44
REMARK SMILES IDX 40 45 94 46 88 47 90 48 41 49 93 50 87 51 86 52 42 54 74 55
REMARK SMILES IDX 54 56 73 57 55 58 58 59 72 60 91 61 56 62 57 63 71 65 92 66
REMARK SMILES IDX 59 67 43 68 44 69 52 70 45 71 47 72 53 73 46 74 48 75 49 76
REMARK SMILES IDX 50 77 51 78 75 79 76 80 84 81 77 82 79 83 85 84 78 85 80 86
REMARK SMILES IDX 81 87 82 88 83 89 60 90 61 91 69 92 62 93 64 94 70 95 63 96
REMARK SMILES IDX 65 97 66 98 67 99 68 100
REMARK H PARENT 9 21 90 53 58 64
REMARK Flexibility Score: inf
ROOT
ATOM      1  O   UNL A   1      36.892  30.981  29.450  1.00  0.00    -0.377 OA
ENDROOT
BRANCH   1   2
ATOM      2  C   UNL A   1      37.119  29.674  29.943  1.00  0.00     0.188 C 
BRANCH   2   3
ATOM      3  C   UNL A   1      38.518  29.053  29.749  1.00  0.00     0.188 C 
BRANCH   3   4
ATOM      4  O   UNL A   1      38.635  28.304  28.537  1.00  0.00    -0.376 OA
BRANCH   4   5
ATOM      5  C   UNL A   1      39.338  27.070  28.599  1.00  0.00     0.202 C 
BRANCH   5   6
ATOM      6  C   UNL A   1      40.386  26.823  27.511  1.00  0.00     0.261 C 
BRANCH   6   7
ATOM      7  O   UNL A   1      41.334  25.805  27.878  1.00  0.00    -0.463 OA
BRANCH   7   8
ATOM      8  C   UNL A   1      42.602  26.104  28.230  1.00  0.00     0.310 C 
ATOM      9  O   UNL A   1      43.020  27.232  28.439  1.00  0.00    -0.252 OA
BRANCH   8  10
ATOM     10  C   UNL A   1      43.453  24.841  28.174  1.00  0.00     0.116 C 
ATOM     11  C   UNL A   1      40.879  22.037  27.960  1.00  0.00     0.039 C 
ATOM     12  C   UNL A   1      42.243  22.615  27.724  1.00  0.00    -0.073 C 
ATOM     13  C   UNL A   1      43.127  22.234  26.779  1.00  0.00    -0.074 C 
ATOM     14  C   UNL A   1      42.643  23.664  28.733  1.00  0.00     0.046 C 
ATOM     15  C   UNL A   1      42.987  21.061  25.849  1.00  0.00     0.039 C 
ATOM     16  C   UNL A   1      44.415  23.003  26.628  1.00  0.00     0.045 C 
ATOM     17  C   UNL A   1      44.262  24.510  26.902  1.00  0.00     0.097 C 
BRANCH  17  18
ATOM     18  C   UNL A   1      44.133  25.274  25.579  1.00  0.00     0.224 C 
ATOM     19  O   UNL A   1      43.026  25.302  25.020  1.00  0.00    -0.275 OA
ATOM     20  N   UNL A   1      45.094  25.968  24.935  1.00  0.00    -0.353 N 
ATOM     21  H   UNL A   1      44.923  26.085  23.972  1.00  0.00     0.163 HD
BRANCH  20  22
ATOM     22  C   UNL A   1      46.336  26.578  25.391  1.00  0.00     0.084 C 
ATOM     23  C   UNL A   1      46.397  27.984  24.783  1.00  0.00     0.031 C 
BRANCH  22  24
ATOM     24  C   UNL A   1      47.611  25.721  25.027  1.00  0.00    -0.018 C 
ATOM     25  C   UNL A   1      47.149  24.342  24.519  1.00  0.00     0.013 C 
ATOM     26  C   UNL A   1      48.460  26.356  23.918  1.00  0.00     0.013 C 
ATOM     27  C   UNL A   1      48.572  25.527  26.217  1.00  0.00     0.013 C 
ENDBRANCH  22  24
ENDBRANCH  20  22
ENDBRANCH  17  18
ENDBRANCH   8  10
ENDBRANCH   7   8
ENDBRANCH   6   7
ENDBRANCH   5   6
ENDBRANCH   4   5
ENDBRANCH   3   4
ENDBRANCH   2   3
ENDBRANCH   1   2
BRANCH   1  28
ATOM     28  C   UNL A   1      35.562  31.278  29.098  1.00  0.00     0.188 C 
BRANCH  28  29
ATOM     29  C   UNL A   1      35.437  32.407  28.055  1.00  0.00     0.188 C 
BRANCH  29  30
ATOM     30  O   UNL A   1      35.399  33.790  28.405  1.00  0.00    -0.376 OA
BRANCH  30  31
ATOM     31  C   UNL A   1      34.182  34.497  28.576  1.00  0.00     0.202 C 
BRANCH  31  32
ATOM     32  C   UNL A   1      33.802  35.089  29.945  1.00  0.00     0.261 C 
BRANCH  32  33
ATOM     33  O   UNL A   1      34.756  34.930  30.998  1.00  0.00    -0.460 OA
BRANCH  33  34
ATOM     34  C   UNL A   1      34.550  33.893  31.844  1.00  0.00     0.338 C 
ATOM     35  O   UNL A   1      33.508  33.285  32.027  1.00  0.00    -0.246 OA
BRANCH  34  36
ATOM     36  C   UNL A   1      35.869  33.463  32.365  1.00  0.00     0.060 A 
ATOM     37  C   UNL A   1      35.961  32.197  32.962  1.00  0.00     0.016 A 
ATOM     38  C   UNL A   1      37.018  34.237  32.168  1.00  0.00     0.016 A 
ATOM     39  C   UNL A   1      37.198  31.702  33.368  1.00  0.00     0.010 A 
ATOM     40  C   UNL A   1      38.251  33.763  32.623  1.00  0.00     0.010 A 
ATOM     41  C   UNL A   1      38.337  32.508  33.250  1.00  0.00    -0.014 A 
BRANCH  41  42
ATOM     42  C   UNL A   1      39.526  32.173  34.063  1.00  0.00     0.031 A 
ATOM     43  C   UNL A   1      39.534  32.663  35.484  1.00  0.00     0.074 A 
ATOM     44  C   UNL A   1      40.559  31.466  33.572  1.00  0.00     0.049 A 
ATOM     45  N   UNL A   1      40.443  32.512  36.410  1.00  0.00    -0.248 NA
ATOM     46  C   UNL A   1      38.349  33.426  35.922  1.00  0.00     0.031 C 
ATOM     47  C   UNL A   1      40.657  30.934  32.214  1.00  0.00     0.029 A 
ATOM     48  N   UNL A   1      41.738  31.094  34.167  1.00  0.00    -0.354 N 
ATOM     49  C   UNL A   1      39.946  33.169  37.529  1.00  0.00     0.074 A 
ATOM     50  C   UNL A   1      38.665  33.730  37.168  1.00  0.00     0.031 C 
ATOM     51  C   UNL A   1      41.855  30.337  32.068  1.00  0.00     0.029 A 
ATOM     52  C   UNL A   1      42.609  30.456  33.316  1.00  0.00     0.049 A 
ATOM     53  H   UNL A   1      41.941  31.269  35.115  1.00  0.00     0.167 HD
ATOM     54  C   UNL A   1      40.498  33.283  38.757  1.00  0.00     0.034 A 
ATOM     55  C   UNL A   1      43.874  30.039  33.525  1.00  0.00     0.034 A 
ATOM     56  C   UNL A   1      41.776  32.738  39.111  1.00  0.00     0.049 A 
ATOM     57  C   UNL A   1      44.488  30.216  34.892  1.00  0.00     0.074 A 
ATOM     58  C   UNL A   1      42.421  32.783  40.332  1.00  0.00     0.029 A 
ATOM     59  N   UNL A   1      42.611  32.063  38.235  1.00  0.00    -0.354 N 
ATOM     60  N   UNL A   1      43.957  30.726  35.979  1.00  0.00    -0.248 NA
ATOM     61  C   UNL A   1      45.866  29.733  35.073  1.00  0.00     0.031 C 
ATOM     62  C   UNL A   1      43.661  32.152  40.187  1.00  0.00     0.029 A 
ATOM     63  C   UNL A   1      43.773  31.693  38.883  1.00  0.00     0.049 A 
ATOM     64  H   UNL A   1      42.406  31.875  37.291  1.00  0.00     0.167 HD
ATOM     65  C   UNL A   1      44.917  30.591  36.977  1.00  0.00     0.074 A 
ATOM     66  C   UNL A   1      46.057  29.934  36.371  1.00  0.00     0.031 C 
ATOM     67  C   UNL A   1      44.869  30.985  38.274  1.00  0.00     0.034 A 
BRANCH  54  68
ATOM     68  C   UNL A   1      39.703  34.013  39.802  1.00  0.00     0.023 A 
ATOM     69  C   UNL A   1      39.930  35.389  40.011  1.00  0.00     0.012 A 
ATOM     70  C   UNL A   1      38.725  33.348  40.564  1.00  0.00     0.148 A 
ATOM     71  C   UNL A   1      39.213  36.086  40.982  1.00  0.00     0.002 A 
ATOM     72  C   UNL A   1      37.986  34.058  41.501  1.00  0.00     0.091 A 
ATOM     73  F   UNL A   1      38.551  32.032  40.374  1.00  0.00    -0.205 F 
ATOM     74  C   UNL A   1      38.236  35.423  41.720  1.00  0.00     0.022 A 
BRANCH  72  75
ATOM     75  S   UNL A   1      36.659  33.310  42.452  1.00  0.00     0.127 S 
ATOM     76  O   UNL A   1      36.171  34.451  43.226  1.00  0.00    -0.237 OA
ATOM     77  O   UNL A   1      35.749  32.853  41.401  1.00  0.00    -0.237 OA
ATOM     78  O   UNL A   1      37.273  32.243  43.228  1.00  0.00    -0.744 OA
ENDBRANCH  72  75
ENDBRANCH  54  68
BRANCH  55  79
ATOM     79  C   UNL A   1      44.641  29.384  32.425  1.00  0.00     0.023 A 
ATOM     80  C   UNL A   1      45.244  30.176  31.429  1.00  0.00     0.012 A 
ATOM     81  C   UNL A   1      44.774  27.983  32.360  1.00  0.00     0.148 A 
ATOM     82  C   UNL A   1      45.938  29.584  30.371  1.00  0.00     0.002 A 
ATOM     83  C   UNL A   1      45.512  27.403  31.334  1.00  0.00     0.091 A 
ATOM     84  F   UNL A   1      44.173  27.243  33.303  1.00  0.00    -0.205 F 
ATOM     85  C   UNL A   1      46.080  28.200  30.329  1.00  0.00     0.022 A 
BRANCH  83  86
ATOM     86  S   UNL A   1      45.853  25.640  31.273  1.00  0.00     0.127 S 
ATOM     87  O   UNL A   1      46.735  25.464  32.424  1.00  0.00    -0.237 OA
ATOM     88  O   UNL A   1      44.516  25.067  31.429  1.00  0.00    -0.237 OA
ATOM     89  O   UNL A   1      46.456  25.403  29.969  1.00  0.00    -0.744 OA
ENDBRANCH  83  86
ENDBRANCH  55  79
BRANCH  67  90
ATOM     90  C   UNL A   1      46.062  30.692  39.145  1.00  0.00     0.023 A 
ATOM     91  C   UNL A   1      47.065  31.667  39.309  1.00  0.00     0.012 A 
ATOM     92  C   UNL A   1      46.136  29.491  39.879  1.00  0.00     0.148 A 
ATOM     93  C   UNL A   1      48.137  31.440  40.171  1.00  0.00     0.002 A 
ATOM     94  C   UNL A   1      47.182  29.291  40.771  1.00  0.00     0.091 A 
ATOM     95  F   UNL A   1      45.179  28.569  39.695  1.00  0.00    -0.205 F 
ATOM     96  C   UNL A   1      48.189  30.260  40.911  1.00  0.00     0.022 A 
BRANCH  94  97
ATOM     97  S   UNL A   1      47.275  27.848  41.837  1.00  0.00     0.127 S 
ATOM     98  O   UNL A   1      48.355  28.221  42.748  1.00  0.00    -0.237 OA
ATOM     99  O   UNL A   1      45.944  27.824  42.445  1.00  0.00    -0.237 OA
ATOM    100  O   UNL A   1      47.557  26.720  40.959  1.00  0.00    -0.744 OA
ENDBRANCH  94  97
ENDBRANCH  67  90
ENDBRANCH  41  42
ENDBRANCH  34  36
ENDBRANCH  33  34
ENDBRANCH  32  33
ENDBRANCH  31  32
ENDBRANCH  30  31
ENDBRANCH  29  30
ENDBRANCH  28  29
ENDBRANCH   1  28
TORSDOF 26
ENDMDL
MODEL 2
REMARK VINA RESULT:      -6.9     12.166     15.518
REMARK SMILES CC1=C(C)C[C@@H](C(=O)N[C@H](C)C(C)(C)C)[C@@H](C(=O)OCCOCCOCCOCCOC(=O)c2ccc(-c3c4nc(c(-c5cccc(S(=O)(=O)[O-])c5F)c5ccc([nH]5)c(-c5cccc(S(=O)(=O)[O-])c5F)c5nc(c(-c6cccc(S(=O)(=O)[O-])c6F)c6ccc3[nH]6)C=C5)C=C4)cc2)C1
REMARK SMILES IDX 25 1 24 2 23 3 22 4 21 5 20 6 19 7 17 8 18 9 16 10 1 11 2 12
REMARK SMILES IDX 3 13 97 14 4 15 5 16 6 17 7 18 8 19 9 20 10 22 11 23 12 24
REMARK SMILES IDX 13 25 14 26 15 27 26 28 27 29 28 30 29 31 30 32 31 33 32 34
REMARK SMILES IDX 33 35 34 36 35 37 96 38 36 39 95 40 37 41 38 42 39 43 89 44
REMARK SMILES IDX 40 45 94 46 88 47 90 48 41 49 93 50 87 51 86 52 42 54 74 55
REMARK SMILES IDX 54 56 73 57 55 58 58 59 72 60 91 61 56 62 57 63 71 65 92 66
REMARK SMILES IDX 59 67 43 68 44 69 52 70 45 71 47 72 53 73 46 74 48 75 49 76
REMARK SMILES IDX 50 77 51 78 75 79 76 80 84 81 77 82 79 83 85 84 78 85 80 86
REMARK SMILES IDX 81 87 82 88 83 89 60 90 61 91 69 92 62 93 64 94 70 95 63 96
REMARK SMILES IDX 65 97 66 98 67 99 68 100
REMARK H PARENT 9 21 90 53 58 64
REMARK Flexibility Score: inf
ROOT
ATOM      1  O   UNL A   1      50.075  47.725  25.677  1.00  0.00    -0.377 OA
ENDROOT
BRANCH   1   2
ATOM      2  C   UNL A   1      50.162  48.122  24.322  1.00  0.00     0.188 C 
BRANCH   2   3
ATOM      3  C   UNL A   1      51.096  47.325  23.387  1.00  0.00     0.188 C 
BRANCH   3   4
ATOM      4  O   UNL A   1      50.491  46.136  22.872  1.00  0.00    -0.376 OA
BRANCH   4   5
ATOM      5  C   UNL A   1      50.000  46.180  21.538  1.00  0.00     0.202 C 
BRANCH   5   6
ATOM      6  C   UNL A   1      49.651  44.838  20.892  1.00  0.00     0.261 C 
BRANCH   6   7
ATOM      7  O   UNL A   1      48.253  44.724  20.575  1.00  0.00    -0.463 OA
BRANCH   7   8
ATOM      8  C   UNL A   1      47.826  44.358  19.348  1.00  0.00     0.310 C 
ATOM      9  O   UNL A   1      48.308  44.748  18.296  1.00  0.00    -0.252 OA
BRANCH   8  10
ATOM     10  C   UNL A   1      46.566  43.512  19.483  1.00  0.00     0.116 C 
ATOM     11  C   UNL A   1      46.731  42.228  23.070  1.00  0.00     0.039 C 
ATOM     12  C   UNL A   1      45.988  42.610  21.823  1.00  0.00    -0.073 C 
ATOM     13  C   UNL A   1      44.699  42.997  21.740  1.00  0.00    -0.074 C 
ATOM     14  C   UNL A   1      46.794  42.440  20.558  1.00  0.00     0.046 C 
ATOM     15  C   UNL A   1      43.696  42.998  22.860  1.00  0.00     0.039 C 
ATOM     16  C   UNL A   1      44.151  43.442  20.408  1.00  0.00     0.045 C 
ATOM     17  C   UNL A   1      45.182  44.190  19.544  1.00  0.00     0.097 C 
BRANCH  17  18
ATOM     18  C   UNL A   1      44.972  45.704  19.669  1.00  0.00     0.224 C 
ATOM     19  O   UNL A   1      45.411  46.278  20.677  1.00  0.00    -0.275 OA
ATOM     20  N   UNL A   1      44.376  46.526  18.780  1.00  0.00    -0.353 N 
ATOM     21  H   UNL A   1      44.037  47.362  19.177  1.00  0.00     0.163 HD
BRANCH  20  22
ATOM     22  C   UNL A   1      44.138  46.415  17.347  1.00  0.00     0.084 C 
ATOM     23  C   UNL A   1      44.461  47.780  16.730  1.00  0.00     0.031 C 
BRANCH  22  24
ATOM     24  C   UNL A   1      42.672  45.943  17.003  1.00  0.00    -0.018 C 
ATOM     25  C   UNL A   1      41.914  45.687  18.320  1.00  0.00     0.013 C 
ATOM     26  C   UNL A   1      41.877  46.992  16.214  1.00  0.00     0.013 C 
ATOM     27  C   UNL A   1      42.633  44.666  16.139  1.00  0.00     0.013 C 
ENDBRANCH  22  24
ENDBRANCH  20  22
ENDBRANCH  17  18
ENDBRANCH   8  10
ENDBRANCH   7   8
ENDBRANCH   6   7
ENDBRANCH   5   6
ENDBRANCH   4   5
ENDBRANCH   3   4
ENDBRANCH   2   3
ENDBRANCH   1   2
BRANCH   1  28
ATOM     28  C   UNL A   1      49.525  46.449  25.905  1.00  0.00     0.188 C 
BRANCH  28  29
ATOM     29  C   UNL A   1      49.452  46.066  27.397  1.00  0.00     0.188 C 
BRANCH  29  30
ATOM     30  O   UNL A   1      48.292  46.280  28.200  1.00  0.00    -0.376 OA
BRANCH  30  31
ATOM     31  C   UNL A   1      47.061  46.723  27.653  1.00  0.00     0.202 C 
BRANCH  31  32
ATOM     32  C   UNL A   1      45.752  45.969  27.947  1.00  0.00     0.261 C 
BRANCH  32  33
ATOM     33  O   UNL A   1      45.802  44.543  27.857  1.00  0.00    -0.460 OA
BRANCH  33  34
ATOM     34  C   UNL A   1      45.310  43.995  26.720  1.00  0.00     0.338 C 
ATOM     35  O   UNL A   1      45.081  44.564  25.666  1.00  0.00    -0.246 OA
BRANCH  34  36
ATOM     36  C   UNL A   1      45.294  42.524  26.895  1.00  0.00     0.060 A 
ATOM     37  C   UNL A   1      45.876  41.991  28.054  1.00  0.00     0.016 A 
ATOM     38  C   UNL A   1      44.620  41.690  25.995  1.00  0.00     0.016 A 
ATOM     39  C   UNL A   1      45.791  40.626  28.317  1.00  0.00     0.010 A 
ATOM     40  C   UNL A   1      44.579  40.314  26.233  1.00  0.00     0.010 A 
ATOM     41  C   UNL A   1      45.191  39.777  27.379  1.00  0.00    -0.014 A 
BRANCH  41  42
ATOM     42  C   UNL A   1      45.489  38.330  27.444  1.00  0.00     0.031 A 
ATOM     43  C   UNL A   1      44.440  37.451  28.066  1.00  0.00     0.074 A 
ATOM     44  C   UNL A   1      46.636  37.809  26.975  1.00  0.00     0.049 A 
ATOM     45  N   UNL A   1      44.442  36.158  28.250  1.00  0.00    -0.248 NA
ATOM     46  C   UNL A   1      43.219  38.126  28.545  1.00  0.00     0.031 C 
ATOM     47  C   UNL A   1      47.719  38.562  26.346  1.00  0.00     0.029 A 
ATOM     48  N   UNL A   1      47.084  36.512  26.980  1.00  0.00    -0.354 N 
ATOM     49  C   UNL A   1      43.233  35.870  28.872  1.00  0.00     0.074 A 
ATOM     50  C   UNL A   1      42.528  37.118  29.048  1.00  0.00     0.031 C 
ATOM     51  C   UNL A   1      48.727  37.716  26.061  1.00  0.00     0.029 A 
ATOM     52  C   UNL A   1      48.363  36.368  26.498  1.00  0.00     0.049 A 
ATOM     53  H   UNL A   1      46.540  35.755  27.299  1.00  0.00     0.167 HD
ATOM     54  C   UNL A   1      42.744  34.670  29.252  1.00  0.00     0.034 A 
ATOM     55  C   UNL A   1      49.148  35.273  26.440  1.00  0.00     0.034 A 
ATOM     56  C   UNL A   1      43.449  33.432  29.089  1.00  0.00     0.049 A 
ATOM     57  C   UNL A   1      48.597  33.950  26.910  1.00  0.00     0.074 A 
ATOM     58  C   UNL A   1      43.037  32.157  29.424  1.00  0.00     0.029 A 
ATOM     59  N   UNL A   1      44.725  33.321  28.560  1.00  0.00    -0.354 N 
ATOM     60  N   UNL A   1      47.404  33.670  27.379  1.00  0.00    -0.248 NA
ATOM     61  C   UNL A   1      49.488  32.783  26.814  1.00  0.00     0.031 C 
ATOM     62  C   UNL A   1      44.077  31.273  29.117  1.00  0.00     0.029 A 
ATOM     63  C   UNL A   1      45.124  31.998  28.567  1.00  0.00     0.049 A 
ATOM     64  H   UNL A   1      45.267  34.072  28.229  1.00  0.00     0.167 HD
ATOM     65  C   UNL A   1      47.388  32.295  27.598  1.00  0.00     0.074 A 
ATOM     66  C   UNL A   1      48.686  31.796  27.193  1.00  0.00     0.031 C 
ATOM     67  C   UNL A   1      46.398  31.516  28.102  1.00  0.00     0.034 A 
BRANCH  54  68
ATOM     68  C   UNL A   1      41.370  34.650  29.861  1.00  0.00     0.023 A 
ATOM     69  C   UNL A   1      40.238  34.682  29.021  1.00  0.00     0.012 A 
ATOM     70  C   UNL A   1      41.198  34.584  31.256  1.00  0.00     0.148 A 
ATOM     71  C   UNL A   1      38.954  34.676  29.562  1.00  0.00     0.002 A 
ATOM     72  C   UNL A   1      39.915  34.536  31.786  1.00  0.00     0.091 A 
ATOM     73  F   UNL A   1      42.288  34.590  32.037  1.00  0.00    -0.205 F 
ATOM     74  C   UNL A   1      38.792  34.593  30.942  1.00  0.00     0.022 A 
BRANCH  72  75
ATOM     75  S   UNL A   1      39.603  34.360  33.545  1.00  0.00     0.127 S 
ATOM     76  O   UNL A   1      38.224  34.836  33.650  1.00  0.00    -0.237 OA
ATOM     77  O   UNL A   1      39.767  32.919  33.744  1.00  0.00    -0.237 OA
ATOM     78  O   UNL A   1      40.602  35.181  34.213  1.00  0.00    -0.744 OA
ENDBRANCH  72  75
ENDBRANCH  54  68
BRANCH  55  79
ATOM     79  C   UNL A   1      50.533  35.370  25.890  1.00  0.00     0.023 A 
ATOM     80  C   UNL A   1      50.749  35.187  24.511  1.00  0.00     0.012 A 
ATOM     81  C   UNL A   1      51.634  35.640  26.727  1.00  0.00     0.148 A 
ATOM     82  C   UNL A   1      52.039  35.239  23.978  1.00  0.00     0.002 A 
ATOM     83  C   UNL A   1      52.909  35.745  26.182  1.00  0.00     0.091 A 
ATOM     84  F   UNL A   1      51.413  35.788  28.040  1.00  0.00    -0.205 F 
ATOM     85  C   UNL A   1      53.117  35.527  24.812  1.00  0.00     0.022 A 
BRANCH  83  86
ATOM     86  S   UNL A   1      54.334  36.237  27.159  1.00  0.00     0.127 S 
ATOM     87  O   UNL A   1      55.322  36.531  26.123  1.00  0.00    -0.237 OA
ATOM     88  O   UNL A   1      53.823  37.408  27.872  1.00  0.00    -0.237 OA
ATOM     89  O   UNL A   1      54.633  35.099  28.016  1.00  0.00    -0.744 OA
ENDBRANCH  83  86
ENDBRANCH  55  79
BRANCH  67  90
ATOM     90  C   UNL A   1      46.653  30.036  28.214  1.00  0.00     0.023 A 
ATOM     91  C   UNL A   1      47.283  29.520  29.364  1.00  0.00     0.012 A 
ATOM     92  C   UNL A   1      46.177  29.150  27.227  1.00  0.00     0.148 A 
ATOM     93  C   UNL A   1      47.458  28.146  29.516  1.00  0.00     0.002 A 
ATOM     94  C   UNL A   1      46.312  27.779  27.409  1.00  0.00     0.091 A 
ATOM     95  F   UNL A   1      45.595  29.664  26.133  1.00  0.00    -0.205 F 
ATOM     96  C   UNL A   1      46.962  27.276  28.547  1.00  0.00     0.022 A 
BRANCH  94  97
ATOM     97  S   UNL A   1      45.616  26.584  26.262  1.00  0.00     0.127 S 
ATOM     98  O   UNL A   1      44.205  26.964  26.258  1.00  0.00    -0.237 OA
ATOM     99  O   UNL A   1      46.334  26.886  25.024  1.00  0.00    -0.237 OA
ATOM    100  O   UNL A   1      45.910  25.273  26.825  1.00  0.00    -0.744 OA
ENDBRANCH  94  97
ENDBRANCH  67  90
ENDBRANCH  41  42
ENDBRANCH  34  36
ENDBRANCH  33  34
ENDBRANCH  32  33
ENDBRANCH  31  32
ENDBRANCH  30  31
ENDBRANCH  29  30
ENDBRANCH  28  29
ENDBRANCH   1  28
TORSDOF 26
ENDMDL
MODEL 3
REMARK VINA RESULT:      -6.8      5.017      9.026
REMARK SMILES CC1=C(C)C[C@@H](C(=O)N[C@H](C)C(C)(C)C)[C@@H](C(=O)OCCOCCOCCOCCOC(=O)c2ccc(-c3c4nc(c(-c5cccc(S(=O)(=O)[O-])c5F)c5ccc([nH]5)c(-c5cccc(S(=O)(=O)[O-])c5F)c5nc(c(-c6cccc(S(=O)(=O)[O-])c6F)c6ccc3[nH]6)C=C5)C=C4)cc2)C1
REMARK SMILES IDX 25 1 24 2 23 3 22 4 21 5 20 6 19 7 17 8 18 9 16 10 1 11 2 12
REMARK SMILES IDX 3 13 97 14 4 15 5 16 6 17 7 18 8 19 9 20 10 22 11 23 12 24
REMARK SMILES IDX 13 25 14 26 15 27 26 28 27 29 28 30 29 31 30 32 31 33 32 34
REMARK SMILES IDX 33 35 34 36 35 37 96 38 36 39 95 40 37 41 38 42 39 43 89 44
REMARK SMILES IDX 40 45 94 46 88 47 90 48 41 49 93 50 87 51 86 52 42 54 74 55
REMARK SMILES IDX 54 56 73 57 55 58 58 59 72 60 91 61 56 62 57 63 71 65 92 66
REMARK SMILES IDX 59 67 43 68 44 69 52 70 45 71 47 72 53 73 46 74 48 75 49 76
REMARK SMILES IDX 50 77 51 78 75 79 76 80 84 81 77 82 79 83 85 84 78 85 80 86
REMARK SMILES IDX 81 87 82 88 83 89 60 90 61 91 69 92 62 93 64 94 70 95 63 96
REMARK SMILES IDX 65 97 66 98 67 99 68 100
REMARK H PARENT 9 21 90 53 58 64
REMARK Flexibility Score: inf
ROOT
ATOM      1  O   UNL A   1      39.258  28.547  30.898  1.00  0.00    -0.377 OA
ENDROOT
BRANCH   1   2
ATOM      2  C   UNL A   1      39.797  27.753  29.857  1.00  0.00     0.188 C 
BRANCH   2   3
ATOM      3  C   UNL A   1      40.960  28.333  29.026  1.00  0.00     0.188 C 
BRANCH   3   4
ATOM      4  O   UNL A   1      40.820  28.093  27.624  1.00  0.00    -0.376 OA
BRANCH   4   5
ATOM      5  C   UNL A   1      41.581  28.911  26.744  1.00  0.00     0.202 C 
BRANCH   5   6
ATOM      6  C   UNL A   1      43.078  29.026  27.038  1.00  0.00     0.261 C 
BRANCH   6   7
ATOM      7  O   UNL A   1      43.795  27.818  26.731  1.00  0.00    -0.463 OA
BRANCH   7   8
ATOM      8  C   UNL A   1      44.624  27.234  27.622  1.00  0.00     0.310 C 
ATOM      9  O   UNL A   1      44.284  26.407  28.453  1.00  0.00    -0.252 OA
BRANCH   8  10
ATOM     10  C   UNL A   1      46.002  27.877  27.527  1.00  0.00     0.116 C 
ATOM     11  C   UNL A   1      48.334  25.206  28.928  1.00  0.00     0.039 C 
ATOM     12  C   UNL A   1      48.039  26.402  28.072  1.00  0.00    -0.073 C 
ATOM     13  C   UNL A   1      48.715  26.792  26.972  1.00  0.00    -0.074 C 
ATOM     14  C   UNL A   1      46.917  27.265  28.597  1.00  0.00     0.046 C 
ATOM     15  C   UNL A   1      49.988  26.186  26.448  1.00  0.00     0.039 C 
ATOM     16  C   UNL A   1      48.208  27.968  26.178  1.00  0.00     0.045 C 
ATOM     17  C   UNL A   1      46.673  28.070  26.151  1.00  0.00     0.097 C 
BRANCH  17  18
ATOM     18  C   UNL A   1      46.131  27.483  24.842  1.00  0.00     0.224 C 
ATOM     19  O   UNL A   1      46.108  28.208  23.836  1.00  0.00    -0.275 OA
ATOM     20  N   UNL A   1      45.687  26.227  24.626  1.00  0.00    -0.353 N 
ATOM     21  H   UNL A   1      45.079  26.147  23.855  1.00  0.00     0.163 HD
BRANCH  20  22
ATOM     22  C   UNL A   1      45.934  24.968  25.316  1.00  0.00     0.084 C 
ATOM     23  C   UNL A   1      47.170  24.335  24.668  1.00  0.00     0.031 C 
BRANCH  22  24
ATOM     24  C   UNL A   1      44.689  23.997  25.286  1.00  0.00    -0.018 C 
ATOM     25  C   UNL A   1      43.420  24.830  25.023  1.00  0.00     0.013 C 
ATOM     26  C   UNL A   1      44.781  22.941  24.177  1.00  0.00     0.013 C 
ATOM     27  C   UNL A   1      44.509  23.200  26.595  1.00  0.00     0.013 C 
ENDBRANCH  22  24
ENDBRANCH  20  22
ENDBRANCH  17  18
ENDBRANCH   8  10
ENDBRANCH   7   8
ENDBRANCH   6   7
ENDBRANCH   5   6
ENDBRANCH   4   5
ENDBRANCH   3   4
ENDBRANCH   2   3
ENDBRANCH   1   2
BRANCH   1  28
ATOM     28  C   UNL A   1      37.881  28.380  31.142  1.00  0.00     0.188 C 
BRANCH  28  29
ATOM     29  C   UNL A   1      37.131  29.706  31.381  1.00  0.00     0.188 C 
BRANCH  29  30
ATOM     30  O   UNL A   1      37.666  30.772  32.166  1.00  0.00    -0.376 OA
BRANCH  30  31
ATOM     31  C   UNL A   1      36.857  31.571  33.013  1.00  0.00     0.202 C 
BRANCH  31  32
ATOM     32  C   UNL A   1      37.435  32.191  34.297  1.00  0.00     0.261 C 
BRANCH  32  33
ATOM     33  O   UNL A   1      38.803  31.897  34.589  1.00  0.00    -0.460 OA
BRANCH  33  34
ATOM     34  C   UNL A   1      39.028  30.885  35.460  1.00  0.00     0.338 C 
ATOM     35  O   UNL A   1      38.253  30.441  36.290  1.00  0.00    -0.246 OA
BRANCH  34  36
ATOM     36  C   UNL A   1      40.314  30.247  35.093  1.00  0.00     0.060 A 
ATOM     37  C   UNL A   1      41.442  30.539  35.874  1.00  0.00     0.016 A 
ATOM     38  C   UNL A   1      40.389  29.291  34.074  1.00  0.00     0.016 A 
ATOM     39  C   UNL A   1      42.647  29.882  35.638  1.00  0.00     0.010 A 
ATOM     40  C   UNL A   1      41.611  28.670  33.804  1.00  0.00     0.010 A 
ATOM     41  C   UNL A   1      42.748  28.987  34.566  1.00  0.00    -0.014 A 
BRANCH  41  42
ATOM     42  C   UNL A   1      44.094  28.644  34.057  1.00  0.00     0.031 A 
ATOM     43  C   UNL A   1      44.658  29.534  32.984  1.00  0.00     0.074 A 
ATOM     44  C   UNL A   1      44.792  27.593  34.519  1.00  0.00     0.049 A 
ATOM     45  N   UNL A   1      45.806  29.463  32.365  1.00  0.00    -0.248 NA
ATOM     46  C   UNL A   1      43.809  30.661  32.553  1.00  0.00     0.031 C 
ATOM     47  C   UNL A   1      44.350  26.668  35.560  1.00  0.00     0.029 A 
ATOM     48  N   UNL A   1      46.024  27.118  34.145  1.00  0.00    -0.354 N 
ATOM     49  C   UNL A   1      45.810  30.525  31.469  1.00  0.00     0.074 A 
ATOM     50  C   UNL A   1      44.550  31.217  31.612  1.00  0.00     0.031 C 
ATOM     51  C   UNL A   1      45.283  25.710  35.714  1.00  0.00     0.029 A 
ATOM     52  C   UNL A   1      46.379  25.948  34.775  1.00  0.00     0.049 A 
ATOM     53  H   UNL A   1      46.600  27.571  33.488  1.00  0.00     0.167 HD
ATOM     54  C   UNL A   1      46.783  30.902  30.611  1.00  0.00     0.034 A 
ATOM     55  C   UNL A   1      47.457  25.159  34.592  1.00  0.00     0.034 A 
ATOM     56  C   UNL A   1      48.027  30.207  30.460  1.00  0.00     0.049 A 
ATOM     57  C   UNL A   1      48.511  25.577  33.596  1.00  0.00     0.074 A 
ATOM     58  C   UNL A   1      49.089  30.515  29.630  1.00  0.00     0.029 A 
ATOM     59  N   UNL A   1      48.368  29.051  31.143  1.00  0.00    -0.354 N 
ATOM     60  N   UNL A   1      48.561  26.652  32.847  1.00  0.00    -0.248 NA
ATOM     61  C   UNL A   1      49.674  24.689  33.443  1.00  0.00     0.031 C 
ATOM     62  C   UNL A   1      50.066  29.529  29.797  1.00  0.00     0.029 A 
ATOM     63  C   UNL A   1      49.621  28.623  30.749  1.00  0.00     0.049 A 
ATOM     64  H   UNL A   1      47.801  28.602  31.810  1.00  0.00     0.167 HD
ATOM     65  C   UNL A   1      49.772  26.590  32.163  1.00  0.00     0.074 A 
ATOM     66  C   UNL A   1      50.434  25.378  32.602  1.00  0.00     0.031 C 
ATOM     67  C   UNL A   1      50.287  27.447  31.246  1.00  0.00     0.034 A 
BRANCH  54  68
ATOM     68  C   UNL A   1      46.533  32.136  29.789  1.00  0.00     0.023 A 
ATOM     69  C   UNL A   1      46.881  33.399  30.311  1.00  0.00     0.012 A 
ATOM     70  C   UNL A   1      45.973  32.047  28.502  1.00  0.00     0.148 A 
ATOM     71  C   UNL A   1      46.650  34.558  29.574  1.00  0.00     0.002 A 
ATOM     72  C   UNL A   1      45.783  33.204  27.756  1.00  0.00     0.091 A 
ATOM     73  F   UNL A   1      45.617  30.840  28.040  1.00  0.00    -0.205 F 
ATOM     74  C   UNL A   1      46.111  34.460  28.294  1.00  0.00     0.022 A 
BRANCH  72  75
ATOM     75  S   UNL A   1      45.160  33.175  26.073  1.00  0.00     0.127 S 
ATOM     76  O   UNL A   1      43.783  33.631  26.260  1.00  0.00    -0.237 OA
ATOM     77  O   UNL A   1      46.035  34.138  25.404  1.00  0.00    -0.237 OA
ATOM     78  O   UNL A   1      45.307  31.802  25.614  1.00  0.00    -0.744 OA
ENDBRANCH  72  75
ENDBRANCH  54  68
BRANCH  55  79
ATOM     79  C   UNL A   1      47.614  23.906  35.388  1.00  0.00     0.023 A 
ATOM     80  C   UNL A   1      48.401  23.916  36.555  1.00  0.00     0.012 A 
ATOM     81  C   UNL A   1      46.990  22.706  34.992  1.00  0.00     0.148 A 
ATOM     82  C   UNL A   1      48.591  22.748  37.297  1.00  0.00     0.002 A 
ATOM     83  C   UNL A   1      47.138  21.560  35.766  1.00  0.00     0.091 A 
ATOM     84  F   UNL A   1      46.264  22.709  33.866  1.00  0.00    -0.205 F 
ATOM     85  C   UNL A   1      47.952  21.574  36.908  1.00  0.00     0.022 A 
BRANCH  83  86
ATOM     86  S   UNL A   1      46.251  20.039  35.410  1.00  0.00     0.127 S 
ATOM     87  O   UNL A   1      47.046  19.475  34.322  1.00  0.00    -0.237 OA
ATOM     88  O   UNL A   1      46.354  19.323  36.682  1.00  0.00    -0.237 OA
ATOM     89  O   UNL A   1      44.897  20.447  35.062  1.00  0.00    -0.744 OA
ENDBRANCH  83  86
ENDBRANCH  55  79
BRANCH  67  90
ATOM     90  C   UNL A   1      51.645  27.136  30.674  1.00  0.00     0.023 A 
ATOM     91  C   UNL A   1      51.747  26.464  29.440  1.00  0.00     0.012 A 
ATOM     92  C   UNL A   1      52.813  27.600  31.310  1.00  0.00     0.148 A 
ATOM     93  C   UNL A   1      52.994  26.235  28.861  1.00  0.00     0.002 A 
ATOM     94  C   UNL A   1      54.049  27.411  30.703  1.00  0.00     0.091 A 
ATOM     95  F   UNL A   1      52.694  28.223  32.491  1.00  0.00    -0.205 F 
ATOM     96  C   UNL A   1      54.142  26.720  29.485  1.00  0.00     0.022 A 
BRANCH  94  97
ATOM     97  S   UNL A   1      55.568  28.088  31.384  1.00  0.00     0.127 S 
ATOM     98  O   UNL A   1      55.729  27.291  32.599  1.00  0.00    -0.237 OA
ATOM     99  O   UNL A   1      56.539  27.797  30.329  1.00  0.00    -0.237 OA
ATOM    100  O   UNL A   1      55.314  29.507  31.595  1.00  0.00    -0.744 OA
ENDBRANCH  94  97
ENDBRANCH  67  90
ENDBRANCH  41  42
ENDBRANCH  34  36
ENDBRANCH  33  34
ENDBRANCH  32  33
ENDBRANCH  31  32
ENDBRANCH  30  31
ENDBRANCH  29  30
ENDBRANCH  28  29
ENDBRANCH   1  28
TORSDOF 26
ENDMDL
