MODEL 1
REMARK VINA RESULT:      -9.0      0.000      0.000
REMARK SMILES CC(C)(C)c1ccc(C[N@@H+]2CCO[C@H](CC(=O)OCCOCCOCCOCCOC(=O)c3ccc(-c4c5nc(c(-c6cccc(S(=O)(=O)[O-])c6F)c6ccc([nH]6)c(-c6cccc(S(=O)(=O)[O-])c6F)c6nc(c(-c7cccc(S(=O)(=O)[O-])c7F)c7ccc4[nH]7)C=C6)C=C5)cc3)C2)cc1
REMARK SMILES IDX 23 1 22 2 21 3 20 4 19 5 18 6 16 7 17 8 15 9 14 10 10 11
REMARK SMILES IDX 11 12 96 13 12 15 13 16 9 17 8 18 5 19 6 20 98 21 7 22 97 23
REMARK SMILES IDX 2 24 1 25 3 26 4 27 24 28 25 29 26 30 27 31 28 32 29 33
REMARK SMILES IDX 30 34 31 35 32 36 33 37 34 38 95 39 35 40 94 41 36 42 37 43
REMARK SMILES IDX 38 44 88 45 39 46 93 47 87 48 89 49 40 50 92 51 86 52 85 53
REMARK SMILES IDX 41 55 73 56 53 57 72 58 54 59 57 60 71 61 90 62 55 63 56 64
REMARK SMILES IDX 70 66 91 67 58 68 42 69 43 70 51 71 44 72 46 73 52 74 45 75
REMARK SMILES IDX 47 76 48 77 49 78 50 79 74 80 75 81 83 82 76 83 78 84 84 85
REMARK SMILES IDX 77 86 79 87 80 88 81 89 82 90 59 91 60 92 68 93 61 94 63 95
REMARK SMILES IDX 69 96 62 97 64 98 65 99 66 100 67 101
REMARK H PARENT 10 14 89 54 57 65
REMARK Flexibility Score: inf
ROOT
ATOM      1  C   UNL A   1      45.670  21.821  24.885  1.00  0.00     0.188 C 
ENDROOT
BRANCH   1   2
ATOM      2  C   UNL A   1      44.261  22.316  24.558  1.00  0.00     0.188 C 
BRANCH   2   3
ATOM      3  O   UNL A   1      43.078  21.688  25.143  1.00  0.00    -0.376 OA
BRANCH   3   4
ATOM      4  C   UNL A   1      42.501  22.109  26.390  1.00  0.00     0.202 C 
BRANCH   4   5
ATOM      5  C   UNL A   1      40.939  22.291  26.637  1.00  0.00     0.261 C 
BRANCH   5   6
ATOM      6  O   UNL A   1      40.078  23.544  26.502  1.00  0.00    -0.463 OA
BRANCH   6   7
ATOM      7  C   UNL A   1      38.732  24.181  26.667  1.00  0.00     0.308 C 
ATOM      8  O   UNL A   1      39.033  25.184  27.374  1.00  0.00    -0.252 OA
BRANCH   7   9
ATOM      9  C   UNL A   1      36.822  23.552  25.795  1.00  0.00     0.160 C 
BRANCH   9  10
ATOM     10  C   UNL A   1      36.244  22.509  24.496  1.00  0.00     0.184 C 
ATOM     11  N   UNL A   1      33.845  21.868  24.734  1.00  0.00    -0.327 N 
ATOM     12  C   UNL A   1      34.294  20.495  25.017  1.00  0.00     0.291 C 
ATOM     13  C   UNL A   1      34.828  22.527  23.877  1.00  0.00     0.295 C 
ATOM     14  H   UNL A   1      32.943  21.775  24.267  1.00  0.00     0.348 HD
ATOM     15  C   UNL A   1      35.806  20.168  25.001  1.00  0.00     0.222 C 
ATOM     16  O   UNL A   1      36.743  21.159  24.569  1.00  0.00    -0.366 OA
BRANCH  11  17
ATOM     17  C   UNL A   1      33.575  22.694  25.914  1.00  0.00     0.299 C 
BRANCH  17  18
ATOM     18  C   UNL A   1      32.736  23.886  25.553  1.00  0.00     0.006 A 
ATOM     19  C   UNL A   1      31.124  26.883  24.269  1.00  0.00    -0.043 A 
ATOM     20  C   UNL A   1      32.597  26.969  25.235  1.00  0.00     0.005 A 
ATOM     21  C   UNL A   1      30.457  25.284  23.894  1.00  0.00     0.005 A 
ATOM     22  C   UNL A   1      33.446  25.489  25.887  1.00  0.00     0.010 A 
ATOM     23  C   UNL A   1      31.280  23.776  24.494  1.00  0.00     0.010 A 
BRANCH  19  24
ATOM     24  C   UNL A   1      30.666  28.253  23.713  1.00  0.00    -0.013 C 
ATOM     25  C   UNL A   1      31.261  28.658  22.326  1.00  0.00     0.016 C 
ATOM     26  C   UNL A   1      31.028  29.404  24.642  1.00  0.00     0.016 C 
ATOM     27  C   UNL A   1      29.140  28.153  23.499  1.00  0.00     0.016 C 
ENDBRANCH  19  24
ENDBRANCH  17  18
ENDBRANCH  11  17
ENDBRANCH   9  10
ENDBRANCH   7   9
ENDBRANCH   6   7
ENDBRANCH   5   6
ENDBRANCH   4   5
ENDBRANCH   3   4
ENDBRANCH   2   3
ENDBRANCH   1   2
BRANCH   1  28
ATOM     28  O   UNL A   1      46.051  22.192  26.168  1.00  0.00    -0.377 OA
BRANCH  28  29
ATOM     29  C   UNL A   1      46.070  23.577  26.382  1.00  0.00     0.188 C 
BRANCH  29  30
ATOM     30  C   UNL A   1      47.089  24.507  25.673  1.00  0.00     0.188 C 
BRANCH  30  31
ATOM     31  O   UNL A   1      47.518  25.800  26.079  1.00  0.00    -0.376 OA
BRANCH  31  32
ATOM     32  C   UNL A   1      47.225  27.081  25.564  1.00  0.00     0.202 C 
BRANCH  32  33
ATOM     33  C   UNL A   1      46.034  27.400  24.657  1.00  0.00     0.261 C 
BRANCH  33  34
ATOM     34  O   UNL A   1      45.015  28.221  25.209  1.00  0.00    -0.460 OA
BRANCH  34  35
ATOM     35  C   UNL A   1      44.301  27.624  26.197  1.00  0.00     0.338 C 
ATOM     36  O   UNL A   1      44.057  26.438  26.312  1.00  0.00    -0.246 OA
BRANCH  35  37
ATOM     37  C   UNL A   1      44.022  28.628  27.239  1.00  0.00     0.060 A 
ATOM     38  C   UNL A   1      43.303  29.781  26.886  1.00  0.00     0.016 A 
ATOM     39  C   UNL A   1      44.435  28.411  28.553  1.00  0.00     0.016 A 
ATOM     40  C   UNL A   1      43.015  30.738  27.839  1.00  0.00     0.010 A 
ATOM     41  C   UNL A   1      44.221  29.415  29.493  1.00  0.00     0.010 A 
ATOM     42  C   UNL A   1      43.560  30.596  29.113  1.00  0.00    -0.014 A 
BRANCH  42  43
ATOM     43  C   UNL A   1      43.722  31.827  29.901  1.00  0.00     0.031 A 
ATOM     44  C   UNL A   1      42.633  32.164  30.878  1.00  0.00     0.074 A 
ATOM     45  C   UNL A   1      44.841  32.560  29.812  1.00  0.00     0.049 A 
ATOM     46  N   UNL A   1      42.539  33.178  31.693  1.00  0.00    -0.248 NA
ATOM     47  C   UNL A   1      41.495  31.226  30.950  1.00  0.00     0.031 C 
ATOM     48  C   UNL A   1      45.974  32.271  28.936  1.00  0.00     0.029 A 
ATOM     49  N   UNL A   1      45.193  33.706  30.466  1.00  0.00    -0.354 N 
ATOM     50  C   UNL A   1      41.320  33.022  32.340  1.00  0.00     0.074 A 
ATOM     51  C   UNL A   1      40.702  31.824  31.821  1.00  0.00     0.031 C 
ATOM     52  C   UNL A   1      46.891  33.242  29.084  1.00  0.00     0.029 A 
ATOM     53  C   UNL A   1      46.387  34.228  30.037  1.00  0.00     0.049 A 
ATOM     54  H   UNL A   1      44.645  34.117  31.174  1.00  0.00     0.167 HD
ATOM     55  C   UNL A   1      40.768  33.812  33.287  1.00  0.00     0.034 A 
ATOM     56  C   UNL A   1      46.978  35.394  30.359  1.00  0.00     0.034 A 
ATOM     57  C   UNL A   1      41.394  35.004  33.784  1.00  0.00     0.049 A 
ATOM     58  C   UNL A   1      46.311  36.285  31.371  1.00  0.00     0.074 A 
ATOM     59  C   UNL A   1      40.938  35.873  34.757  1.00  0.00     0.029 A 
ATOM     60  N   UNL A   1      42.601  35.511  33.325  1.00  0.00    -0.354 N 
ATOM     61  N   UNL A   1      45.190  36.104  32.025  1.00  0.00    -0.248 NA
ATOM     62  C   UNL A   1      47.015  37.527  31.717  1.00  0.00     0.031 C 
ATOM     63  C   UNL A   1      41.838  36.939  34.840  1.00  0.00     0.029 A 
ATOM     64  C   UNL A   1      42.897  36.692  33.980  1.00  0.00     0.049 A 
ATOM     65  H   UNL A   1      43.163  35.091  32.635  1.00  0.00     0.167 HD
ATOM     66  C   UNL A   1      45.076  37.181  32.896  1.00  0.00     0.074 A 
ATOM     67  C   UNL A   1      46.255  38.000  32.695  1.00  0.00     0.031 C 
ATOM     68  C   UNL A   1      44.091  37.472  33.783  1.00  0.00     0.034 A 
BRANCH  55  69
ATOM     69  C   UNL A   1      39.410  33.429  33.812  1.00  0.00     0.023 A 
ATOM     70  C   UNL A   1      39.288  32.614  34.956  1.00  0.00     0.012 A 
ATOM     71  C   UNL A   1      38.248  33.910  33.179  1.00  0.00     0.148 A 
ATOM     72  C   UNL A   1      38.030  32.255  35.439  1.00  0.00     0.002 A 
ATOM     73  C   UNL A   1      37.001  33.595  33.698  1.00  0.00     0.091 A 
ATOM     74  F   UNL A   1      38.386  34.658  32.075  1.00  0.00    -0.205 F 
ATOM     75  C   UNL A   1      36.888  32.756  34.819  1.00  0.00     0.022 A 
BRANCH  73  76
ATOM     76  S   UNL A   1      35.477  34.256  33.019  1.00  0.00     0.127 S 
ATOM     77  O   UNL A   1      35.572  33.838  31.620  1.00  0.00    -0.237 OA
ATOM     78  O   UNL A   1      34.464  33.547  33.801  1.00  0.00    -0.237 OA
ATOM     79  O   UNL A   1      35.525  35.695  33.239  1.00  0.00    -0.744 OA
ENDBRANCH  73  76
ENDBRANCH  55  69
BRANCH  56  80
ATOM     80  C   UNL A   1      48.262  35.781  29.717  1.00  0.00     0.023 A 
ATOM     81  C   UNL A   1      49.483  35.527  30.371  1.00  0.00     0.012 A 
ATOM     82  C   UNL A   1      48.273  36.409  28.457  1.00  0.00     0.148 A 
ATOM     83  C   UNL A   1      50.689  35.931  29.801  1.00  0.00     0.002 A 
ATOM     84  C   UNL A   1      49.480  36.755  27.867  1.00  0.00     0.091 A 
ATOM     85  F   UNL A   1      47.098  36.645  27.856  1.00  0.00    -0.205 F 
ATOM     86  C   UNL A   1      50.689  36.537  28.547  1.00  0.00     0.022 A 
BRANCH  84  87
ATOM     87  S   UNL A   1      49.582  37.429  26.207  1.00  0.00     0.127 S 
ATOM     88  O   UNL A   1      51.013  37.696  26.082  1.00  0.00    -0.237 OA
ATOM     89  O   UNL A   1      49.088  36.312  25.403  1.00  0.00    -0.237 OA
ATOM     90  O   UNL A   1      48.721  38.604  26.203  1.00  0.00    -0.744 OA
ENDBRANCH  84  87
ENDBRANCH  56  80
BRANCH  68  91
ATOM     91  C   UNL A   1      44.285  38.684  34.660  1.00  0.00     0.023 A 
ATOM     92  C   UNL A   1      44.991  38.589  35.875  1.00  0.00     0.012 A 
ATOM     93  C   UNL A   1      43.781  39.934  34.249  1.00  0.00     0.148 A 
ATOM     94  C   UNL A   1      45.133  39.705  36.698  1.00  0.00     0.002 A 
ATOM     95  C   UNL A   1      43.986  41.055  35.041  1.00  0.00     0.091 A 
ATOM     96  F   UNL A   1      43.104  40.003  33.093  1.00  0.00    -0.205 F 
ATOM     97  C   UNL A   1      44.640  40.938  36.277  1.00  0.00     0.022 A 
BRANCH  95  98
ATOM     98  S   UNL A   1      43.477  42.698  34.530  1.00  0.00     0.127 S 
ATOM     99  O   UNL A   1      42.194  42.839  35.216  1.00  0.00    -0.237 OA
ATOM    100  O   UNL A   1      44.552  43.533  35.066  1.00  0.00    -0.237 OA
ATOM    101  O   UNL A   1      43.404  42.665  33.075  1.00  0.00    -0.744 OA
ENDBRANCH  95  98
ENDBRANCH  68  91
ENDBRANCH  42  43
ENDBRANCH  35  37
ENDBRANCH  34  35
ENDBRANCH  33  34
ENDBRANCH  32  33
ENDBRANCH  31  32
ENDBRANCH  30  31
ENDBRANCH  29  30
ENDBRANCH  28  29
ENDBRANCH   1  28
TORSDOF 27
ENDMDL
MODEL 2
REMARK VINA RESULT:      -8.6      6.485     13.207
REMARK SMILES CC(C)(C)c1ccc(C[N@@H+]2CCO[C@H](CC(=O)OCCOCCOCCOCCOC(=O)c3ccc(-c4c5nc(c(-c6cccc(S(=O)(=O)[O-])c6F)c6ccc([nH]6)c(-c6cccc(S(=O)(=O)[O-])c6F)c6nc(c(-c7cccc(S(=O)(=O)[O-])c7F)c7ccc4[nH]7)C=C6)C=C5)cc3)C2)cc1
REMARK SMILES IDX 23 1 22 2 21 3 20 4 19 5 18 6 16 7 17 8 15 9 14 10 10 11
REMARK SMILES IDX 11 12 96 13 12 15 13 16 9 17 8 18 5 19 6 20 98 21 7 22 97 23
REMARK SMILES IDX 2 24 1 25 3 26 4 27 24 28 25 29 26 30 27 31 28 32 29 33
REMARK SMILES IDX 30 34 31 35 32 36 33 37 34 38 95 39 35 40 94 41 36 42 37 43
REMARK SMILES IDX 38 44 88 45 39 46 93 47 87 48 89 49 40 50 92 51 86 52 85 53
REMARK SMILES IDX 41 55 73 56 53 57 72 58 54 59 57 60 71 61 90 62 55 63 56 64
REMARK SMILES IDX 70 66 91 67 58 68 42 69 43 70 51 71 44 72 46 73 52 74 45 75
REMARK SMILES IDX 47 76 48 77 49 78 50 79 74 80 75 81 83 82 76 83 78 84 84 85
REMARK SMILES IDX 77 86 79 87 80 88 81 89 82 90 59 91 60 92 68 93 61 94 63 95
REMARK SMILES IDX 69 96 62 97 64 98 65 99 66 100 67 101
REMARK H PARENT 10 14 89 54 57 65
REMARK Flexibility Score: inf
ROOT
ATOM      1  C   UNL A   1      38.325  27.894  31.043  1.00  0.00     0.188 C 
ENDROOT
BRANCH   1   2
ATOM      2  C   UNL A   1      37.988  28.714  32.289  1.00  0.00     0.188 C 
BRANCH   2   3
ATOM      3  O   UNL A   1      36.677  29.338  32.459  1.00  0.00    -0.376 OA
BRANCH   3   4
ATOM      4  C   UNL A   1      36.431  30.730  32.198  1.00  0.00     0.202 C 
BRANCH   4   5
ATOM      5  C   UNL A   1      36.546  31.879  33.295  1.00  0.00     0.261 C 
BRANCH   5   6
ATOM      6  O   UNL A   1      37.295  31.878  34.624  1.00  0.00    -0.463 OA
BRANCH   6   7
ATOM      7  C   UNL A   1      37.616  32.596  35.900  1.00  0.00     0.308 C 
ATOM      8  O   UNL A   1      37.422  31.675  36.742  1.00  0.00    -0.252 OA
BRANCH   7   9
ATOM      9  C   UNL A   1      38.334  34.652  36.149  1.00  0.00     0.160 C 
BRANCH   9  10
ATOM     10  C   UNL A   1      39.863  35.529  36.117  1.00  0.00     0.184 C 
ATOM     11  N   UNL A   1      41.738  34.289  37.200  1.00  0.00    -0.327 N 
ATOM     12  C   UNL A   1      41.711  35.293  38.276  1.00  0.00     0.291 C 
ATOM     13  C   UNL A   1      41.268  34.902  35.960  1.00  0.00     0.295 C 
ATOM     14  H   UNL A   1      42.710  33.988  37.124  1.00  0.00     0.348 HD
ATOM     15  C   UNL A   1      40.703  36.465  38.201  1.00  0.00     0.222 C 
ATOM     16  O   UNL A   1      39.911  36.647  37.025  1.00  0.00    -0.366 OA
BRANCH  11  17
ATOM     17  C   UNL A   1      40.983  33.062  37.470  1.00  0.00     0.299 C 
BRANCH  17  18
ATOM     18  C   UNL A   1      41.535  31.909  36.681  1.00  0.00     0.006 A 
ATOM     19  C   UNL A   1      42.678  28.779  35.224  1.00  0.00    -0.043 A 
ATOM     20  C   UNL A   1      43.490  29.501  36.614  1.00  0.00     0.005 A 
ATOM     21  C   UNL A   1      41.249  29.596  34.566  1.00  0.00     0.005 A 
ATOM     22  C   UNL A   1      42.939  31.063  37.385  1.00  0.00     0.010 A 
ATOM     23  C   UNL A   1      40.642  31.140  35.315  1.00  0.00     0.010 A 
BRANCH  19  24
ATOM     24  C   UNL A   1      43.236  27.389  34.833  1.00  0.00    -0.013 C 
ATOM     25  C   UNL A   1      43.396  27.128  33.300  1.00  0.00     0.016 C 
ATOM     26  C   UNL A   1      42.356  26.251  35.331  1.00  0.00     0.016 C 
ATOM     27  C   UNL A   1      44.661  27.305  35.421  1.00  0.00     0.016 C 
ENDBRANCH  19  24
ENDBRANCH  17  18
ENDBRANCH  11  17
ENDBRANCH   9  10
ENDBRANCH   7   9
ENDBRANCH   6   7
ENDBRANCH   5   6
ENDBRANCH   4   5
ENDBRANCH   3   4
ENDBRANCH   2   3
ENDBRANCH   1   2
BRANCH   1  28
ATOM     28  O   UNL A   1      39.003  28.659  30.103  1.00  0.00    -0.377 OA
BRANCH  28  29
ATOM     29  C   UNL A   1      38.283  28.885  28.922  1.00  0.00     0.188 C 
BRANCH  29  30
ATOM     30  C   UNL A   1      37.898  30.313  28.451  1.00  0.00     0.188 C 
BRANCH  30  31
ATOM     31  O   UNL A   1      36.616  30.784  28.057  1.00  0.00    -0.376 OA
BRANCH  31  32
ATOM     32  C   UNL A   1      36.061  32.081  28.065  1.00  0.00     0.202 C 
BRANCH  32  33
ATOM     33  C   UNL A   1      36.688  33.289  28.763  1.00  0.00     0.261 C 
BRANCH  33  34
ATOM     34  O   UNL A   1      37.655  33.015  29.767  1.00  0.00    -0.460 OA
BRANCH  34  35
ATOM     35  C   UNL A   1      38.732  33.840  29.735  1.00  0.00     0.338 C 
ATOM     36  O   UNL A   1      38.745  35.017  29.428  1.00  0.00    -0.246 OA
BRANCH  35  37
ATOM     37  C   UNL A   1      39.879  33.129  30.328  1.00  0.00     0.060 A 
ATOM     38  C   UNL A   1      41.174  33.592  30.047  1.00  0.00     0.016 A 
ATOM     39  C   UNL A   1      39.671  32.045  31.180  1.00  0.00     0.016 A 
ATOM     40  C   UNL A   1      42.272  32.958  30.594  1.00  0.00     0.010 A 
ATOM     41  C   UNL A   1      40.779  31.353  31.659  1.00  0.00     0.010 A 
ATOM     42  C   UNL A   1      42.072  31.784  31.316  1.00  0.00    -0.014 A 
BRANCH  42  43
ATOM     43  C   UNL A   1      43.212  30.858  31.396  1.00  0.00     0.031 A 
ATOM     44  C   UNL A   1      44.136  31.007  32.571  1.00  0.00     0.074 A 
ATOM     45  C   UNL A   1      43.357  29.866  30.506  1.00  0.00     0.049 A 
ATOM     46  N   UNL A   1      45.199  30.318  32.877  1.00  0.00    -0.248 NA
ATOM     47  C   UNL A   1      43.814  32.079  33.533  1.00  0.00     0.031 C 
ATOM     48  C   UNL A   1      42.472  29.610  29.373  1.00  0.00     0.029 A 
ATOM     49  N   UNL A   1      44.318  28.899  30.420  1.00  0.00    -0.354 N 
ATOM     50  C   UNL A   1      45.693  30.896  34.040  1.00  0.00     0.074 A 
ATOM     51  C   UNL A   1      44.824  31.997  34.381  1.00  0.00     0.031 C 
ATOM     52  C   UNL A   1      42.953  28.565  28.678  1.00  0.00     0.029 A 
ATOM     53  C   UNL A   1      44.192  28.110  29.304  1.00  0.00     0.049 A 
ATOM     54  H   UNL A   1      45.029  28.780  31.090  1.00  0.00     0.167 HD
ATOM     55  C   UNL A   1      46.779  30.534  34.758  1.00  0.00     0.034 A 
ATOM     56  C   UNL A   1      45.015  27.155  28.833  1.00  0.00     0.034 A 
ATOM     57  C   UNL A   1      47.636  29.441  34.397  1.00  0.00     0.049 A 
ATOM     58  C   UNL A   1      46.251  26.814  29.620  1.00  0.00     0.074 A 
ATOM     59  C   UNL A   1      48.754  28.970  35.060  1.00  0.00     0.029 A 
ATOM     60  N   UNL A   1      47.487  28.665  33.257  1.00  0.00    -0.354 N 
ATOM     61  N   UNL A   1      46.681  27.321  30.749  1.00  0.00    -0.248 NA
ATOM     62  C   UNL A   1      47.095  25.739  29.084  1.00  0.00     0.031 C 
ATOM     63  C   UNL A   1      49.317  27.951  34.287  1.00  0.00     0.029 A 
ATOM     64  C   UNL A   1      48.503  27.730  33.186  1.00  0.00     0.049 A 
ATOM     65  H   UNL A   1      46.764  28.765  32.597  1.00  0.00     0.167 HD
ATOM     66  C   UNL A   1      47.818  26.596  31.087  1.00  0.00     0.074 A 
ATOM     67  C   UNL A   1      47.996  25.603  30.046  1.00  0.00     0.031 C 
ATOM     68  C   UNL A   1      48.641  26.733  32.156  1.00  0.00     0.034 A 
BRANCH  55  69
ATOM     69  C   UNL A   1      47.115  31.351  35.976  1.00  0.00     0.023 A 
ATOM     70  C   UNL A   1      47.651  32.648  35.843  1.00  0.00     0.012 A 
ATOM     71  C   UNL A   1      46.865  30.836  37.262  1.00  0.00     0.148 A 
ATOM     72  C   UNL A   1      47.967  33.404  36.973  1.00  0.00     0.002 A 
ATOM     73  C   UNL A   1      47.129  31.615  38.379  1.00  0.00     0.091 A 
ATOM     74  F   UNL A   1      46.383  29.589  37.367  1.00  0.00    -0.205 F 
ATOM     75  C   UNL A   1      47.694  32.893  38.239  1.00  0.00     0.022 A 
BRANCH  73  76
ATOM     76  S   UNL A   1      46.737  31.077  40.046  1.00  0.00     0.127 S 
ATOM     77  O   UNL A   1      47.121  32.249  40.832  1.00  0.00    -0.237 OA
ATOM     78  O   UNL A   1      45.295  30.845  39.960  1.00  0.00    -0.237 OA
ATOM     79  O   UNL A   1      47.535  29.882  40.286  1.00  0.00    -0.744 OA
ENDBRANCH  73  76
ENDBRANCH  55  69
BRANCH  56  80
ATOM     80  C   UNL A   1      44.699  26.462  27.556  1.00  0.00     0.023 A 
ATOM     81  C   UNL A   1      45.248  26.927  26.346  1.00  0.00     0.012 A 
ATOM     82  C   UNL A   1      43.846  25.341  27.540  1.00  0.00     0.148 A 
ATOM     83  C   UNL A   1      44.918  26.314  25.137  1.00  0.00     0.002 A 
ATOM     84  C   UNL A   1      43.569  24.700  26.342  1.00  0.00     0.091 A 
ATOM     85  F   UNL A   1      43.332  24.920  28.704  1.00  0.00    -0.205 F 
ATOM     86  C   UNL A   1      44.086  25.198  25.136  1.00  0.00     0.022 A 
BRANCH  84  87
ATOM     87  S   UNL A   1      42.606  23.187  26.261  1.00  0.00     0.127 S 
ATOM     88  O   UNL A   1      42.789  22.794  24.865  1.00  0.00    -0.237 OA
ATOM     89  O   UNL A   1      43.297  22.345  27.236  1.00  0.00    -0.237 OA
ATOM     90  O   UNL A   1      41.249  23.560  26.636  1.00  0.00    -0.744 OA
ENDBRANCH  84  87
ENDBRANCH  56  80
BRANCH  68  91
ATOM     91  C   UNL A   1      49.763  25.735  32.298  1.00  0.00     0.023 A 
ATOM     92  C   UNL A   1      51.036  25.999  31.754  1.00  0.00     0.012 A 
ATOM     93  C   UNL A   1      49.549  24.536  33.007  1.00  0.00     0.148 A 
ATOM     94  C   UNL A   1      52.057  25.055  31.857  1.00  0.00     0.002 A 
ATOM     95  C   UNL A   1      50.590  23.632  33.163  1.00  0.00     0.091 A 
ATOM     96  F   UNL A   1      48.329  24.298  33.509  1.00  0.00    -0.205 F 
ATOM     97  C   UNL A   1      51.837  23.878  32.569  1.00  0.00     0.022 A 
BRANCH  95  98
ATOM     98  S   UNL A   1      50.427  22.142  34.150  1.00  0.00     0.127 S 
ATOM     99  O   UNL A   1      50.328  21.111  33.118  1.00  0.00    -0.237 OA
ATOM    100  O   UNL A   1      51.681  22.134  34.903  1.00  0.00    -0.237 OA
ATOM    101  O   UNL A   1      49.233  22.324  34.964  1.00  0.00    -0.744 OA
ENDBRANCH  95  98
ENDBRANCH  68  91
ENDBRANCH  42  43
ENDBRANCH  35  37
ENDBRANCH  34  35
ENDBRANCH  33  34
ENDBRANCH  32  33
ENDBRANCH  31  32
ENDBRANCH  30  31
ENDBRANCH  29  30
ENDBRANCH  28  29
ENDBRANCH   1  28
TORSDOF 27
ENDMDL
MODEL 3
REMARK VINA RESULT:      -8.3      5.883     10.567
REMARK SMILES CC(C)(C)c1ccc(C[N@@H+]2CCO[C@H](CC(=O)OCCOCCOCCOCCOC(=O)c3ccc(-c4c5nc(c(-c6cccc(S(=O)(=O)[O-])c6F)c6ccc([nH]6)c(-c6cccc(S(=O)(=O)[O-])c6F)c6nc(c(-c7cccc(S(=O)(=O)[O-])c7F)c7ccc4[nH]7)C=C6)C=C5)cc3)C2)cc1
REMARK SMILES IDX 23 1 22 2 21 3 20 4 19 5 18 6 16 7 17 8 15 9 14 10 10 11
REMARK SMILES IDX 11 12 96 13 12 15 13 16 9 17 8 18 5 19 6 20 98 21 7 22 97 23
REMARK SMILES IDX 2 24 1 25 3 26 4 27 24 28 25 29 26 30 27 31 28 32 29 33
REMARK SMILES IDX 30 34 31 35 32 36 33 37 34 38 95 39 35 40 94 41 36 42 37 43
REMARK SMILES IDX 38 44 88 45 39 46 93 47 87 48 89 49 40 50 92 51 86 52 85 53
REMARK SMILES IDX 41 55 73 56 53 57 72 58 54 59 57 60 71 61 90 62 55 63 56 64
REMARK SMILES IDX 70 66 91 67 58 68 42 69 43 70 51 71 44 72 46 73 52 74 45 75
REMARK SMILES IDX 47 76 48 77 49 78 50 79 74 80 75 81 83 82 76 83 78 84 84 85
REMARK SMILES IDX 77 86 79 87 80 88 81 89 82 90 59 91 60 92 68 93 61 94 63 95
REMARK SMILES IDX 69 96 62 97 64 98 65 99 66 100 67 101
REMARK H PARENT 10 14 89 54 57 65
REMARK Flexibility Score: inf
ROOT
ATOM      1  C   UNL A   1      38.774  30.034  30.381  1.00  0.00     0.188 C 
ENDROOT
BRANCH   1   2
ATOM      2  C   UNL A   1      39.975  30.378  29.499  1.00  0.00     0.188 C 
BRANCH   2   3
ATOM      3  O   UNL A   1      41.324  29.929  29.841  1.00  0.00    -0.376 OA
BRANCH   3   4
ATOM      4  C   UNL A   1      42.200  29.286  28.900  1.00  0.00     0.202 C 
BRANCH   4   5
ATOM      5  C   UNL A   1      42.016  27.791  28.384  1.00  0.00     0.261 C 
BRANCH   5   6
ATOM      6  O   UNL A   1      42.774  26.529  28.785  1.00  0.00    -0.463 OA
BRANCH   6   7
ATOM      7  C   UNL A   1      43.285  25.177  28.389  1.00  0.00     0.308 C 
ATOM      8  O   UNL A   1      42.657  24.442  29.202  1.00  0.00    -0.252 OA
BRANCH   7   9
ATOM      9  C   UNL A   1      44.661  24.675  26.758  1.00  0.00     0.160 C 
BRANCH   9  10
ATOM     10  C   UNL A   1      44.661  23.713  25.281  1.00  0.00     0.184 C 
ATOM     11  N   UNL A   1      42.997  21.854  25.310  1.00  0.00    -0.327 N 
ATOM     12  C   UNL A   1      44.128  20.913  25.378  1.00  0.00     0.291 C 
ATOM     13  C   UNL A   1      43.424  23.067  24.616  1.00  0.00     0.295 C 
ATOM     14  H   UNL A   1      42.262  21.368  24.798  1.00  0.00     0.348 HD
ATOM     15  C   UNL A   1      45.576  21.459  25.369  1.00  0.00     0.222 C 
ATOM     16  O   UNL A   1      45.809  22.853  25.148  1.00  0.00    -0.366 OA
BRANCH  11  17
ATOM     17  C   UNL A   1      42.394  22.200  26.600  1.00  0.00     0.299 C 
BRANCH  17  18
ATOM     18  C   UNL A   1      40.895  22.198  26.508  1.00  0.00     0.006 A 
ATOM     19  C   UNL A   1      37.342  22.554  25.815  1.00  0.00    -0.043 A 
ATOM     20  C   UNL A   1      38.286  23.878  26.497  1.00  0.00     0.005 A 
ATOM     21  C   UNL A   1      38.176  21.038  25.428  1.00  0.00     0.005 A 
ATOM     22  C   UNL A   1      40.075  23.746  26.846  1.00  0.00     0.010 A 
ATOM     23  C   UNL A   1      39.962  20.864  25.730  1.00  0.00     0.010 A 
BRANCH  19  24
ATOM     24  C   UNL A   1      35.882  22.942  25.478  1.00  0.00    -0.013 C 
ATOM     25  C   UNL A   1      35.586  24.475  25.406  1.00  0.00     0.016 C 
ATOM     26  C   UNL A   1      34.890  22.402  26.499  1.00  0.00     0.016 C 
ATOM     27  C   UNL A   1      35.596  22.396  24.063  1.00  0.00     0.016 C 
ENDBRANCH  19  24
ENDBRANCH  17  18
ENDBRANCH  11  17
ENDBRANCH   9  10
ENDBRANCH   7   9
ENDBRANCH   6   7
ENDBRANCH   5   6
ENDBRANCH   4   5
ENDBRANCH   3   4
ENDBRANCH   2   3
ENDBRANCH   1   2
BRANCH   1  28
ATOM     28  O   UNL A   1      38.649  30.931  31.434  1.00  0.00    -0.377 OA
BRANCH  28  29
ATOM     29  C   UNL A   1      37.607  30.630  32.321  1.00  0.00     0.188 C 
BRANCH  29  30
ATOM     30  C   UNL A   1      36.184  31.225  32.156  1.00  0.00     0.188 C 
BRANCH  30  31
ATOM     31  O   UNL A   1      35.500  31.525  30.946  1.00  0.00    -0.376 OA
BRANCH  31  32
ATOM     32  C   UNL A   1      34.831  32.692  30.522  1.00  0.00     0.202 C 
BRANCH  32  33
ATOM     33  C   UNL A   1      34.416  33.839  31.446  1.00  0.00     0.261 C 
BRANCH  33  34
ATOM     34  O   UNL A   1      35.386  34.850  31.682  1.00  0.00    -0.460 OA
BRANCH  34  35
ATOM     35  C   UNL A   1      35.484  35.227  32.982  1.00  0.00     0.338 C 
ATOM     36  O   UNL A   1      34.668  35.859  33.626  1.00  0.00    -0.246 OA
BRANCH  35  37
ATOM     37  C   UNL A   1      36.669  34.575  33.566  1.00  0.00     0.060 A 
ATOM     38  C   UNL A   1      36.538  33.931  34.806  1.00  0.00     0.016 A 
ATOM     39  C   UNL A   1      37.882  34.570  32.877  1.00  0.00     0.016 A 
ATOM     40  C   UNL A   1      37.624  33.299  35.380  1.00  0.00     0.010 A 
ATOM     41  C   UNL A   1      38.996  34.011  33.495  1.00  0.00     0.010 A 
ATOM     42  C   UNL A   1      38.869  33.428  34.768  1.00  0.00    -0.014 A 
BRANCH  42  43
ATOM     43  C   UNL A   1      40.048  33.258  35.631  1.00  0.00     0.031 A 
ATOM     44  C   UNL A   1      40.712  31.911  35.626  1.00  0.00     0.074 A 
ATOM     45  C   UNL A   1      40.556  34.293  36.314  1.00  0.00     0.049 A 
ATOM     46  N   UNL A   1      41.762  31.507  36.285  1.00  0.00    -0.248 NA
ATOM     47  C   UNL A   1      40.110  30.880  34.759  1.00  0.00     0.031 C 
ATOM     48  C   UNL A   1      40.012  35.649  36.324  1.00  0.00     0.029 A 
ATOM     49  N   UNL A   1      41.643  34.350  37.140  1.00  0.00    -0.354 N 
ATOM     50  C   UNL A   1      41.922  30.170  35.943  1.00  0.00     0.074 A 
ATOM     51  C   UNL A   1      40.859  29.825  35.028  1.00  0.00     0.031 C 
ATOM     52  C   UNL A   1      40.755  36.404  37.151  1.00  0.00     0.029 A 
ATOM     53  C   UNL A   1      41.798  35.572  37.746  1.00  0.00     0.049 A 
ATOM     54  H   UNL A   1      42.253  33.592  37.286  1.00  0.00     0.167 HD
ATOM     55  C   UNL A   1      42.877  29.308  36.358  1.00  0.00     0.034 A 
ATOM     56  C   UNL A   1      42.667  35.949  38.701  1.00  0.00     0.034 A 
ATOM     57  C   UNL A   1      43.920  29.668  37.275  1.00  0.00     0.049 A 
ATOM     58  C   UNL A   1      43.680  34.952  39.191  1.00  0.00     0.074 A 
ATOM     59  C   UNL A   1      44.954  28.884  37.751  1.00  0.00     0.029 A 
ATOM     60  N   UNL A   1      44.047  30.912  37.877  1.00  0.00    -0.354 N 
ATOM     61  N   UNL A   1      43.866  33.708  38.821  1.00  0.00    -0.248 NA
ATOM     62  C   UNL A   1      44.630  35.425  40.206  1.00  0.00     0.031 C 
ATOM     63  C   UNL A   1      45.667  29.634  38.691  1.00  0.00     0.029 A 
ATOM     64  C   UNL A   1      45.130  30.912  38.737  1.00  0.00     0.049 A 
ATOM     65  H   UNL A   1      43.453  31.680  37.716  1.00  0.00     0.167 HD
ATOM     66  C   UNL A   1      44.983  33.263  39.518  1.00  0.00     0.074 A 
ATOM     67  C   UNL A   1      45.439  34.381  40.320  1.00  0.00     0.031 C 
ATOM     68  C   UNL A   1      45.581  32.046  39.501  1.00  0.00     0.034 A 
BRANCH  55  69
ATOM     69  C   UNL A   1      42.807  27.893  35.853  1.00  0.00     0.023 A 
ATOM     70  C   UNL A   1      41.864  26.988  36.382  1.00  0.00     0.012 A 
ATOM     71  C   UNL A   1      43.667  27.469  34.822  1.00  0.00     0.148 A 
ATOM     72  C   UNL A   1      41.803  25.674  35.917  1.00  0.00     0.002 A 
ATOM     73  C   UNL A   1      43.563  26.178  34.325  1.00  0.00     0.091 A 
ATOM     74  F   UNL A   1      44.577  28.335  34.353  1.00  0.00    -0.205 F 
ATOM     75  C   UNL A   1      42.642  25.273  34.881  1.00  0.00     0.022 A 
BRANCH  73  76
ATOM     76  S   UNL A   1      44.543  25.593  32.940  1.00  0.00     0.127 S 
ATOM     77  O   UNL A   1      44.140  24.189  32.865  1.00  0.00    -0.237 OA
ATOM     78  O   UNL A   1      44.050  26.429  31.845  1.00  0.00    -0.237 OA
ATOM     79  O   UNL A   1      45.935  25.819  33.304  1.00  0.00    -0.744 OA
ENDBRANCH  73  76
ENDBRANCH  55  69
BRANCH  56  80
ATOM     80  C   UNL A   1      42.612  37.328  39.255  1.00  0.00     0.023 A 
ATOM     81  C   UNL A   1      43.420  38.342  38.706  1.00  0.00     0.012 A 
ATOM     82  C   UNL A   1      41.760  37.634  40.334  1.00  0.00     0.148 A 
ATOM     83  C   UNL A   1      43.413  39.626  39.250  1.00  0.00     0.002 A 
ATOM     84  C   UNL A   1      41.713  38.928  40.832  1.00  0.00     0.091 A 
ATOM     85  F   UNL A   1      41.003  36.652  40.843  1.00  0.00    -0.205 F 
ATOM     86  C   UNL A   1      42.555  39.921  40.307  1.00  0.00     0.022 A 
BRANCH  84  87
ATOM     87  S   UNL A   1      40.554  39.426  42.109  1.00  0.00     0.127 S 
ATOM     88  O   UNL A   1      39.275  39.047  41.513  1.00  0.00    -0.237 OA
ATOM     89  O   UNL A   1      40.981  38.598  43.235  1.00  0.00    -0.237 OA
ATOM     90  O   UNL A   1      40.761  40.856  42.297  1.00  0.00    -0.744 OA
ENDBRANCH  84  87
ENDBRANCH  56  80
BRANCH  68  91
ATOM     91  C   UNL A   1      46.842  31.882  40.313  1.00  0.00     0.023 A 
ATOM     92  C   UNL A   1      46.784  31.470  41.659  1.00  0.00     0.012 A 
ATOM     93  C   UNL A   1      48.096  32.116  39.714  1.00  0.00     0.148 A 
ATOM     94  C   UNL A   1      47.951  31.357  42.413  1.00  0.00     0.002 A 
ATOM     95  C   UNL A   1      49.257  31.936  40.453  1.00  0.00     0.091 A 
ATOM     96  F   UNL A   1      48.130  32.516  38.435  1.00  0.00    -0.205 F 
ATOM     97  C   UNL A   1      49.186  31.581  41.808  1.00  0.00     0.022 A 
BRANCH  95  98
ATOM     98  S   UNL A   1      50.891  32.100  39.728  1.00  0.00     0.127 S 
ATOM     99  O   UNL A   1      50.979  33.544  39.518  1.00  0.00    -0.237 OA
ATOM    100  O   UNL A   1      51.752  31.583  40.792  1.00  0.00    -0.237 OA
ATOM    101  O   UNL A   1      50.878  31.294  38.514  1.00  0.00    -0.744 OA
ENDBRANCH  95  98
ENDBRANCH  68  91
ENDBRANCH  42  43
ENDBRANCH  35  37
ENDBRANCH  34  35
ENDBRANCH  33  34
ENDBRANCH  32  33
ENDBRANCH  31  32
ENDBRANCH  30  31
ENDBRANCH  29  30
ENDBRANCH  28  29
ENDBRANCH   1  28
TORSDOF 27
ENDMDL
