MODEL 1
REMARK VINA RESULT:      -7.7      0.000      0.000
REMARK SMILES O=C(OCCOCCOCCOCCOC(=O)c1ccccc1Nc1cccc(C(F)(F)F)c1)c1ccc(-c2c3nc(c(-c4cccc(S(=O)(=O)[O-])c4F)c4ccc([nH]4)c(-c4cccc(S(=O)(=O)[O-])c4F)c4nc(c(-c5cccc(S(=O)(=O)[O-])c5F)c5ccc2[nH]5)C=C4)C=C3)cc1
REMARK SMILES IDX 9 1 8 2 7 3 6 4 5 5 4 6 3 7 2 8 1 9 35 10 36 11 97 12 37 13
REMARK SMILES IDX 96 14 38 15 39 16 40 17 90 18 41 19 95 20 89 21 91 22 42 23
REMARK SMILES IDX 94 24 88 25 87 26 43 28 75 29 55 30 74 31 56 32 59 33 73 34
REMARK SMILES IDX 92 35 57 36 58 37 72 39 93 40 60 41 44 42 45 43 53 44 46 45
REMARK SMILES IDX 48 46 54 47 47 48 49 49 50 50 51 51 52 52 76 53 77 54 85 55
REMARK SMILES IDX 78 56 80 57 86 58 79 59 81 60 82 61 83 62 84 63 61 64 62 65
REMARK SMILES IDX 70 66 63 67 65 68 71 69 64 70 66 71 67 72 68 73 69 74 10 75
REMARK SMILES IDX 11 76 12 77 13 78 14 79 15 80 16 81 17 82 18 83 19 84 23 85
REMARK SMILES IDX 20 86 22 87 21 88 24 89 25 91 26 92 34 93 27 94 29 95 28 96
REMARK SMILES IDX 30 97 31 98 32 99 33 100
REMARK H PARENT 91 27 59 38 24 90
REMARK Flexibility Score: inf
ROOT
ATOM      1  O   UNL A   1      43.424  20.684  24.990  1.00  0.00    -0.377 OA
ENDROOT
BRANCH   1   2
ATOM      2  C   UNL A   1      44.533  21.583  25.010  1.00  0.00     0.188 C 
BRANCH   2   3
ATOM      3  C   UNL A   1      44.400  22.783  24.072  1.00  0.00     0.188 C 
BRANCH   3   4
ATOM      4  O   UNL A   1      45.490  23.687  24.266  1.00  0.00    -0.376 OA
BRANCH   4   5
ATOM      5  C   UNL A   1      46.212  23.526  25.483  1.00  0.00     0.202 C 
BRANCH   5   6
ATOM      6  C   UNL A   1      45.882  24.581  26.539  1.00  0.00     0.261 C 
BRANCH   6   7
ATOM      7  O   UNL A   1      44.837  25.459  26.099  1.00  0.00    -0.460 OA
BRANCH   7   8
ATOM      8  C   UNL A   1      44.939  26.775  25.781  1.00  0.00     0.338 C 
ATOM      9  O   UNL A   1      45.319  27.061  24.645  1.00  0.00    -0.246 OA
BRANCH   8  10
ATOM     10  C   UNL A   1      44.590  27.901  26.709  1.00  0.00     0.060 A 
ATOM     11  C   UNL A   1      43.589  28.855  26.505  1.00  0.00     0.016 A 
ATOM     12  C   UNL A   1      45.311  27.964  27.915  1.00  0.00     0.016 A 
ATOM     13  C   UNL A   1      43.367  29.888  27.407  1.00  0.00     0.010 A 
ATOM     14  C   UNL A   1      45.077  28.983  28.844  1.00  0.00     0.010 A 
ATOM     15  C   UNL A   1      44.129  29.972  28.566  1.00  0.00    -0.014 A 
BRANCH  15  16
ATOM     16  C   UNL A   1      44.040  31.203  29.367  1.00  0.00     0.031 A 
ATOM     17  C   UNL A   1      45.181  32.170  29.286  1.00  0.00     0.074 A 
ATOM     18  C   UNL A   1      42.924  31.480  30.062  1.00  0.00     0.049 A 
ATOM     19  N   UNL A   1      45.363  33.292  29.924  1.00  0.00    -0.248 NA
ATOM     20  C   UNL A   1      46.263  31.829  28.344  1.00  0.00     0.031 C 
ATOM     21  C   UNL A   1      41.732  30.633  30.115  1.00  0.00     0.029 A 
ATOM     22  N   UNL A   1      42.613  32.551  30.858  1.00  0.00    -0.354 N 
ATOM     23  C   UNL A   1      46.603  33.761  29.507  1.00  0.00     0.074 A 
ATOM     24  C   UNL A   1      47.122  32.815  28.547  1.00  0.00     0.031 C 
ATOM     25  C   UNL A   1      40.824  31.208  30.920  1.00  0.00     0.029 A 
ATOM     26  C   UNL A   1      41.392  32.432  31.478  1.00  0.00     0.049 A 
ATOM     27  H   UNL A   1      43.206  33.329  30.975  1.00  0.00     0.167 HD
ATOM     28  C   UNL A   1      47.249  34.881  29.902  1.00  0.00     0.034 A 
ATOM     29  C   UNL A   1      40.827  33.207  32.423  1.00  0.00     0.034 A 
ATOM     30  C   UNL A   1      46.702  35.806  30.851  1.00  0.00     0.049 A 
ATOM     31  C   UNL A   1      41.583  34.430  32.876  1.00  0.00     0.074 A 
ATOM     32  C   UNL A   1      47.264  36.963  31.353  1.00  0.00     0.029 A 
ATOM     33  N   UNL A   1      45.457  35.665  31.451  1.00  0.00    -0.354 N 
ATOM     34  N   UNL A   1      42.740  34.885  32.455  1.00  0.00    -0.248 NA
ATOM     35  C   UNL A   1      40.956  35.252  33.917  1.00  0.00     0.031 C 
ATOM     36  C   UNL A   1      46.365  37.509  32.277  1.00  0.00     0.029 A 
ATOM     37  C   UNL A   1      45.233  36.708  32.328  1.00  0.00     0.049 A 
ATOM     38  H   UNL A   1      44.827  34.929  31.275  1.00  0.00     0.167 HD
ATOM     39  C   UNL A   1      42.974  36.055  33.164  1.00  0.00     0.074 A 
ATOM     40  C   UNL A   1      41.822  36.252  34.024  1.00  0.00     0.031 C 
ATOM     41  C   UNL A   1      44.047  36.885  33.129  1.00  0.00     0.034 A 
BRANCH  28  42
ATOM     42  C   UNL A   1      48.619  35.114  29.329  1.00  0.00     0.023 A 
ATOM     43  C   UNL A   1      49.737  34.444  29.869  1.00  0.00     0.012 A 
ATOM     44  C   UNL A   1      48.806  36.036  28.281  1.00  0.00     0.148 A 
ATOM     45  C   UNL A   1      51.023  34.722  29.403  1.00  0.00     0.002 A 
ATOM     46  C   UNL A   1      50.086  36.278  27.796  1.00  0.00     0.091 A 
ATOM     47  F   UNL A   1      47.736  36.688  27.805  1.00  0.00    -0.205 F 
ATOM     48  C   UNL A   1      51.196  35.633  28.365  1.00  0.00     0.022 A 
BRANCH  46  49
ATOM     49  S   UNL A   1      50.404  37.396  26.428  1.00  0.00     0.127 S 
ATOM     50  O   UNL A   1      50.055  38.688  27.016  1.00  0.00    -0.237 OA
ATOM     51  O   UNL A   1      51.835  37.198  26.197  1.00  0.00    -0.237 OA
ATOM     52  O   UNL A   1      49.547  36.951  25.339  1.00  0.00    -0.744 OA
ENDBRANCH  46  49
ENDBRANCH  28  42
BRANCH  29  53
ATOM     53  C   UNL A   1      39.499  32.841  32.995  1.00  0.00     0.023 A 
ATOM     54  C   UNL A   1      39.419  31.910  34.048  1.00  0.00     0.012 A 
ATOM     55  C   UNL A   1      38.315  33.449  32.531  1.00  0.00     0.148 A 
ATOM     56  C   UNL A   1      38.185  31.577  34.611  1.00  0.00     0.002 A 
ATOM     57  C   UNL A   1      37.098  33.158  33.135  1.00  0.00     0.091 A 
ATOM     58  F   UNL A   1      38.404  34.315  31.511  1.00  0.00    -0.205 F 
ATOM     59  C   UNL A   1      37.027  32.210  34.165  1.00  0.00     0.022 A 
BRANCH  57  60
ATOM     60  S   UNL A   1      35.583  34.031  32.715  1.00  0.00     0.127 S 
ATOM     61  O   UNL A   1      34.562  33.121  33.225  1.00  0.00    -0.237 OA
ATOM     62  O   UNL A   1      35.731  35.277  33.470  1.00  0.00    -0.237 OA
ATOM     63  O   UNL A   1      35.617  34.202  31.269  1.00  0.00    -0.744 OA
ENDBRANCH  57  60
ENDBRANCH  29  53
BRANCH  41  64
ATOM     64  C   UNL A   1      44.016  38.091  34.027  1.00  0.00     0.023 A 
ATOM     65  C   UNL A   1      44.549  38.006  35.327  1.00  0.00     0.012 A 
ATOM     66  C   UNL A   1      43.560  39.329  33.539  1.00  0.00     0.148 A 
ATOM     67  C   UNL A   1      44.610  39.136  36.139  1.00  0.00     0.002 A 
ATOM     68  C   UNL A   1      43.670  40.461  34.334  1.00  0.00     0.091 A 
ATOM     69  F   UNL A   1      43.039  39.379  32.304  1.00  0.00    -0.205 F 
ATOM     70  C   UNL A   1      44.184  40.365  35.638  1.00  0.00     0.022 A 
BRANCH  68  71
ATOM     71  S   UNL A   1      43.250  42.099  33.729  1.00  0.00     0.127 S 
ATOM     72  O   UNL A   1      44.143  42.946  34.517  1.00  0.00    -0.237 OA
ATOM     73  O   UNL A   1      43.592  42.003  32.310  1.00  0.00    -0.237 OA
ATOM     74  O   UNL A   1      41.828  42.271  33.995  1.00  0.00    -0.744 OA
ENDBRANCH  68  71
ENDBRANCH  41  64
ENDBRANCH  15  16
ENDBRANCH   8  10
ENDBRANCH   7   8
ENDBRANCH   6   7
ENDBRANCH   5   6
ENDBRANCH   4   5
ENDBRANCH   3   4
ENDBRANCH   2   3
ENDBRANCH   1   2
BRANCH   1  75
ATOM     75  C   UNL A   1      42.697  20.537  26.204  1.00  0.00     0.188 C 
BRANCH  75  76
ATOM     76  C   UNL A   1      41.315  19.847  26.173  1.00  0.00     0.188 C 
BRANCH  76  77
ATOM     77  O   UNL A   1      40.216  20.692  26.482  1.00  0.00    -0.376 OA
BRANCH  77  78
ATOM     78  C   UNL A   1      40.519  22.078  26.610  1.00  0.00     0.202 C 
BRANCH  78  79
ATOM     79  C   UNL A   1      39.276  22.976  26.621  1.00  0.00     0.261 C 
BRANCH  79  80
ATOM     80  O   UNL A   1      39.455  24.242  27.281  1.00  0.00    -0.460 OA
BRANCH  80  81
ATOM     81  C   UNL A   1      40.376  25.107  26.793  1.00  0.00     0.340 C 
ATOM     82  O   UNL A   1      40.415  25.575  25.669  1.00  0.00    -0.246 OA
BRANCH  81  83
ATOM     83  C   UNL A   1      41.223  25.556  27.929  1.00  0.00     0.083 A 
ATOM     84  C   UNL A   1      42.295  24.712  28.271  1.00  0.00     0.018 A 
ATOM     85  C   UNL A   1      41.041  26.807  28.566  1.00  0.00     0.053 A 
ATOM     86  C   UNL A   1      43.217  25.107  29.236  1.00  0.00     0.001 A 
ATOM     87  C   UNL A   1      41.942  27.135  29.590  1.00  0.00     0.027 A 
ATOM     88  C   UNL A   1      43.034  26.315  29.900  1.00  0.00     0.002 A 
BRANCH  85  89
ATOM     89  N   UNL A   1      39.940  27.622  28.233  1.00  0.00    -0.355 N 
ATOM     90  H   UNL A   1      39.791  27.687  27.262  1.00  0.00     0.167 HD
BRANCH  89  91
ATOM     91  C   UNL A   1      39.012  28.360  28.978  1.00  0.00     0.039 A 
ATOM     92  C   UNL A   1      38.729  27.921  30.279  1.00  0.00     0.026 A 
ATOM     93  C   UNL A   1      38.386  29.519  28.515  1.00  0.00     0.039 A 
ATOM     94  C   UNL A   1      37.879  28.642  31.115  1.00  0.00     0.003 A 
ATOM     95  C   UNL A   1      37.527  30.261  29.344  1.00  0.00     0.058 A 
ATOM     96  C   UNL A   1      37.288  29.814  30.653  1.00  0.00     0.013 A 
BRANCH  95  97
ATOM     97  C   UNL A   1      36.882  31.531  28.857  1.00  0.00     0.416 C 
ATOM     98  F   UNL A   1      36.382  31.417  27.595  1.00  0.00    -0.166 F 
ATOM     99  F   UNL A   1      35.829  31.907  29.638  1.00  0.00    -0.166 F 
ATOM    100  F   UNL A   1      37.720  32.605  28.830  1.00  0.00    -0.166 F 
ENDBRANCH  95  97
ENDBRANCH  89  91
ENDBRANCH  85  89
ENDBRANCH  81  83
ENDBRANCH  80  81
ENDBRANCH  79  80
ENDBRANCH  78  79
ENDBRANCH  77  78
ENDBRANCH  76  77
ENDBRANCH  75  76
ENDBRANCH   1  75
TORSDOF 26
ENDMDL
MODEL 2
REMARK VINA RESULT:      -7.6      5.350      9.190
REMARK SMILES O=C(OCCOCCOCCOCCOC(=O)c1ccccc1Nc1cccc(C(F)(F)F)c1)c1ccc(-c2c3nc(c(-c4cccc(S(=O)(=O)[O-])c4F)c4ccc([nH]4)c(-c4cccc(S(=O)(=O)[O-])c4F)c4nc(c(-c5cccc(S(=O)(=O)[O-])c5F)c5ccc2[nH]5)C=C4)C=C3)cc1
REMARK SMILES IDX 9 1 8 2 7 3 6 4 5 5 4 6 3 7 2 8 1 9 35 10 36 11 97 12 37 13
REMARK SMILES IDX 96 14 38 15 39 16 40 17 90 18 41 19 95 20 89 21 91 22 42 23
REMARK SMILES IDX 94 24 88 25 87 26 43 28 75 29 55 30 74 31 56 32 59 33 73 34
REMARK SMILES IDX 92 35 57 36 58 37 72 39 93 40 60 41 44 42 45 43 53 44 46 45
REMARK SMILES IDX 48 46 54 47 47 48 49 49 50 50 51 51 52 52 76 53 77 54 85 55
REMARK SMILES IDX 78 56 80 57 86 58 79 59 81 60 82 61 83 62 84 63 61 64 62 65
REMARK SMILES IDX 70 66 63 67 65 68 71 69 64 70 66 71 67 72 68 73 69 74 10 75
REMARK SMILES IDX 11 76 12 77 13 78 14 79 15 80 16 81 17 82 18 83 19 84 23 85
REMARK SMILES IDX 20 86 22 87 21 88 24 89 25 91 26 92 34 93 27 94 29 95 28 96
REMARK SMILES IDX 30 97 31 98 32 99 33 100
REMARK H PARENT 91 27 59 38 24 90
REMARK Flexibility Score: inf
ROOT
ATOM      1  O   UNL A   1      41.659  21.175  27.285  1.00  0.00    -0.377 OA
ENDROOT
BRANCH   1   2
ATOM      2  C   UNL A   1      41.451  19.764  27.255  1.00  0.00     0.188 C 
BRANCH   2   3
ATOM      3  C   UNL A   1      42.413  18.995  26.348  1.00  0.00     0.188 C 
BRANCH   3   4
ATOM      4  O   UNL A   1      42.980  19.870  25.371  1.00  0.00    -0.376 OA
BRANCH   4   5
ATOM      5  C   UNL A   1      44.098  19.352  24.657  1.00  0.00     0.202 C 
BRANCH   5   6
ATOM      6  C   UNL A   1      45.437  19.949  25.093  1.00  0.00     0.261 C 
BRANCH   6   7
ATOM      7  O   UNL A   1      45.809  21.064  24.273  1.00  0.00    -0.460 OA
BRANCH   7   8
ATOM      8  C   UNL A   1      45.127  22.224  24.091  1.00  0.00     0.338 C 
ATOM      9  O   UNL A   1      44.363  22.292  23.127  1.00  0.00    -0.246 OA
BRANCH   8  10
ATOM     10  C   UNL A   1      45.216  23.413  25.001  1.00  0.00     0.060 A 
ATOM     11  C   UNL A   1      46.393  24.023  25.445  1.00  0.00     0.016 A 
ATOM     12  C   UNL A   1      43.996  23.988  25.400  1.00  0.00     0.016 A 
ATOM     13  C   UNL A   1      46.373  25.100  26.324  1.00  0.00     0.010 A 
ATOM     14  C   UNL A   1      43.964  25.089  26.261  1.00  0.00     0.010 A 
ATOM     15  C   UNL A   1      45.160  25.619  26.756  1.00  0.00    -0.014 A 
BRANCH  15  16
ATOM     16  C   UNL A   1      45.175  26.585  27.867  1.00  0.00     0.031 A 
ATOM     17  C   UNL A   1      45.150  26.042  29.262  1.00  0.00     0.074 A 
ATOM     18  C   UNL A   1      45.307  27.899  27.620  1.00  0.00     0.049 A 
ATOM     19  N   UNL A   1      45.110  26.679  30.399  1.00  0.00    -0.248 NA
ATOM     20  C   UNL A   1      45.189  24.573  29.395  1.00  0.00     0.031 C 
ATOM     21  C   UNL A   1      45.433  28.498  26.291  1.00  0.00     0.029 A 
ATOM     22  N   UNL A   1      45.356  28.966  28.478  1.00  0.00    -0.354 N 
ATOM     23  C   UNL A   1      45.059  25.693  31.377  1.00  0.00     0.074 A 
ATOM     24  C   UNL A   1      45.094  24.415  30.705  1.00  0.00     0.031 C 
ATOM     25  C   UNL A   1      45.524  29.831  26.420  1.00  0.00     0.029 A 
ATOM     26  C   UNL A   1      45.409  30.179  27.834  1.00  0.00     0.049 A 
ATOM     27  H   UNL A   1      45.353  28.873  29.458  1.00  0.00     0.167 HD
ATOM     28  C   UNL A   1      44.982  25.849  32.717  1.00  0.00     0.034 A 
ATOM     29  C   UNL A   1      45.328  31.426  28.338  1.00  0.00     0.034 A 
ATOM     30  C   UNL A   1      44.958  27.133  33.355  1.00  0.00     0.049 A 
ATOM     31  C   UNL A   1      45.203  31.574  29.832  1.00  0.00     0.074 A 
ATOM     32  C   UNL A   1      44.857  27.429  34.700  1.00  0.00     0.029 A 
ATOM     33  N   UNL A   1      45.028  28.343  32.677  1.00  0.00    -0.354 N 
ATOM     34  N   UNL A   1      45.188  30.640  30.753  1.00  0.00    -0.248 NA
ATOM     35  C   UNL A   1      45.101  32.940  30.359  1.00  0.00     0.031 C 
ATOM     36  C   UNL A   1      44.841  28.822  34.832  1.00  0.00     0.029 A 
ATOM     37  C   UNL A   1      44.962  29.393  33.573  1.00  0.00     0.049 A 
ATOM     38  H   UNL A   1      45.112  28.439  31.701  1.00  0.00     0.167 HD
ATOM     39  C   UNL A   1      45.092  31.302  31.971  1.00  0.00     0.074 A 
ATOM     40  C   UNL A   1      45.080  32.720  31.668  1.00  0.00     0.031 C 
ATOM     41  C   UNL A   1      45.001  30.792  33.225  1.00  0.00     0.034 A 
BRANCH  28  42
ATOM     42  C   UNL A   1      44.876  24.598  33.544  1.00  0.00     0.023 A 
ATOM     43  C   UNL A   1      43.610  24.057  33.852  1.00  0.00     0.012 A 
ATOM     44  C   UNL A   1      46.034  23.981  34.054  1.00  0.00     0.148 A 
ATOM     45  C   UNL A   1      43.499  22.947  34.693  1.00  0.00     0.002 A 
ATOM     46  C   UNL A   1      45.917  22.853  34.858  1.00  0.00     0.091 A 
ATOM     47  F   UNL A   1      47.226  24.531  33.778  1.00  0.00    -0.205 F 
ATOM     48  C   UNL A   1      44.651  22.344  35.190  1.00  0.00     0.022 A 
BRANCH  46  49
ATOM     49  S   UNL A   1      47.345  21.977  35.505  1.00  0.00     0.127 S 
ATOM     50  O   UNL A   1      47.806  22.893  36.547  1.00  0.00    -0.237 OA
ATOM     51  O   UNL A   1      46.744  20.739  36.004  1.00  0.00    -0.237 OA
ATOM     52  O   UNL A   1      48.250  21.801  34.379  1.00  0.00    -0.744 OA
ENDBRANCH  46  49
ENDBRANCH  28  42
BRANCH  29  53
ATOM     53  C   UNL A   1      45.352  32.605  27.424  1.00  0.00     0.023 A 
ATOM     54  C   UNL A   1      44.148  33.115  26.902  1.00  0.00     0.012 A 
ATOM     55  C   UNL A   1      46.563  33.254  27.107  1.00  0.00     0.148 A 
ATOM     56  C   UNL A   1      44.153  34.235  26.067  1.00  0.00     0.002 A 
ATOM     57  C   UNL A   1      46.555  34.402  26.324  1.00  0.00     0.091 A 
ATOM     58  F   UNL A   1      47.703  32.742  27.591  1.00  0.00    -0.205 F 
ATOM     59  C   UNL A   1      45.353  34.886  25.789  1.00  0.00     0.022 A 
BRANCH  57  60
ATOM     60  S   UNL A   1      48.036  35.378  26.035  1.00  0.00     0.127 S 
ATOM     61  O   UNL A   1      48.719  34.590  25.012  1.00  0.00    -0.237 OA
ATOM     62  O   UNL A   1      47.477  36.646  25.564  1.00  0.00    -0.237 OA
ATOM     63  O   UNL A   1      48.708  35.463  27.324  1.00  0.00    -0.744 OA
ENDBRANCH  57  60
ENDBRANCH  29  53
BRANCH  41  64
ATOM     64  C   UNL A   1      44.905  31.770  34.362  1.00  0.00     0.023 A 
ATOM     65  C   UNL A   1      46.080  32.288  34.937  1.00  0.00     0.012 A 
ATOM     66  C   UNL A   1      43.651  32.253  34.781  1.00  0.00     0.148 A 
ATOM     67  C   UNL A   1      46.008  33.262  35.931  1.00  0.00     0.002 A 
ATOM     68  C   UNL A   1      43.588  33.259  35.735  1.00  0.00     0.091 A 
ATOM     69  F   UNL A   1      42.546  31.728  34.231  1.00  0.00    -0.205 F 
ATOM     70  C   UNL A   1      44.765  33.757  36.319  1.00  0.00     0.022 A 
BRANCH  68  71
ATOM     71  S   UNL A   1      42.037  34.030  36.210  1.00  0.00     0.127 S 
ATOM     72  O   UNL A   1      41.296  32.895  36.757  1.00  0.00    -0.237 OA
ATOM     73  O   UNL A   1      42.470  35.013  37.203  1.00  0.00    -0.237 OA
ATOM     74  O   UNL A   1      41.487  34.608  34.991  1.00  0.00    -0.744 OA
ENDBRANCH  68  71
ENDBRANCH  41  64
ENDBRANCH  15  16
ENDBRANCH   8  10
ENDBRANCH   7   8
ENDBRANCH   6   7
ENDBRANCH   5   6
ENDBRANCH   4   5
ENDBRANCH   3   4
ENDBRANCH   2   3
ENDBRANCH   1   2
BRANCH   1  75
ATOM     75  C   UNL A   1      40.509  21.988  27.492  1.00  0.00     0.188 C 
BRANCH  75  76
ATOM     76  C   UNL A   1      40.390  23.327  26.732  1.00  0.00     0.188 C 
BRANCH  76  77
ATOM     77  O   UNL A   1      39.082  23.646  26.281  1.00  0.00    -0.376 OA
BRANCH  77  78
ATOM     78  C   UNL A   1      38.295  22.544  25.837  1.00  0.00     0.202 C 
BRANCH  78  79
ATOM     79  C   UNL A   1      36.786  22.783  25.957  1.00  0.00     0.261 C 
BRANCH  79  80
ATOM     80  O   UNL A   1      36.251  23.737  25.022  1.00  0.00    -0.460 OA
BRANCH  80  81
ATOM     81  C   UNL A   1      35.620  23.280  23.914  1.00  0.00     0.340 C 
ATOM     82  O   UNL A   1      36.113  23.097  22.816  1.00  0.00    -0.246 OA
BRANCH  81  83
ATOM     83  C   UNL A   1      34.260  22.838  24.317  1.00  0.00     0.083 A 
ATOM     84  C   UNL A   1      33.977  21.471  24.141  1.00  0.00     0.018 A 
ATOM     85  C   UNL A   1      33.332  23.704  24.944  1.00  0.00     0.053 A 
ATOM     86  C   UNL A   1      32.777  20.938  24.604  1.00  0.00     0.001 A 
ATOM     87  C   UNL A   1      32.100  23.150  25.323  1.00  0.00     0.027 A 
ATOM     88  C   UNL A   1      31.837  21.781  25.187  1.00  0.00     0.002 A 
BRANCH  85  89
ATOM     89  N   UNL A   1      33.620  25.078  25.079  1.00  0.00    -0.355 N 
ATOM     90  H   UNL A   1      34.585  25.262  25.143  1.00  0.00     0.167 HD
BRANCH  89  91
ATOM     91  C   UNL A   1      32.838  26.238  25.142  1.00  0.00     0.039 A 
ATOM     92  C   UNL A   1      32.967  27.046  26.280  1.00  0.00     0.026 A 
ATOM     93  C   UNL A   1      31.972  26.649  24.127  1.00  0.00     0.039 A 
ATOM     94  C   UNL A   1      32.285  28.256  26.386  1.00  0.00     0.003 A 
ATOM     95  C   UNL A   1      31.278  27.868  24.216  1.00  0.00     0.058 A 
ATOM     96  C   UNL A   1      31.452  28.672  25.352  1.00  0.00     0.013 A 
BRANCH  95  97
ATOM     97  C   UNL A   1      30.373  28.330  23.104  1.00  0.00     0.416 C 
ATOM     98  F   UNL A   1      30.698  29.570  22.641  1.00  0.00    -0.166 F 
ATOM     99  F   UNL A   1      30.428  27.506  22.019  1.00  0.00    -0.166 F 
ATOM    100  F   UNL A   1      29.057  28.394  23.449  1.00  0.00    -0.166 F 
ENDBRANCH  95  97
ENDBRANCH  89  91
ENDBRANCH  85  89
ENDBRANCH  81  83
ENDBRANCH  80  81
ENDBRANCH  79  80
ENDBRANCH  78  79
ENDBRANCH  77  78
ENDBRANCH  76  77
ENDBRANCH  75  76
ENDBRANCH   1  75
TORSDOF 26
ENDMDL
MODEL 3
REMARK VINA RESULT:      -7.4      6.635     11.549
REMARK SMILES O=C(OCCOCCOCCOCCOC(=O)c1ccccc1Nc1cccc(C(F)(F)F)c1)c1ccc(-c2c3nc(c(-c4cccc(S(=O)(=O)[O-])c4F)c4ccc([nH]4)c(-c4cccc(S(=O)(=O)[O-])c4F)c4nc(c(-c5cccc(S(=O)(=O)[O-])c5F)c5ccc2[nH]5)C=C4)C=C3)cc1
REMARK SMILES IDX 9 1 8 2 7 3 6 4 5 5 4 6 3 7 2 8 1 9 35 10 36 11 97 12 37 13
REMARK SMILES IDX 96 14 38 15 39 16 40 17 90 18 41 19 95 20 89 21 91 22 42 23
REMARK SMILES IDX 94 24 88 25 87 26 43 28 75 29 55 30 74 31 56 32 59 33 73 34
REMARK SMILES IDX 92 35 57 36 58 37 72 39 93 40 60 41 44 42 45 43 53 44 46 45
REMARK SMILES IDX 48 46 54 47 47 48 49 49 50 50 51 51 52 52 76 53 77 54 85 55
REMARK SMILES IDX 78 56 80 57 86 58 79 59 81 60 82 61 83 62 84 63 61 64 62 65
REMARK SMILES IDX 70 66 63 67 65 68 71 69 64 70 66 71 67 72 68 73 69 74 10 75
REMARK SMILES IDX 11 76 12 77 13 78 14 79 15 80 16 81 17 82 18 83 19 84 23 85
REMARK SMILES IDX 20 86 22 87 21 88 24 89 25 91 26 92 34 93 27 94 29 95 28 96
REMARK SMILES IDX 30 97 31 98 32 99 33 100
REMARK H PARENT 91 27 59 38 24 90
REMARK Flexibility Score: inf
ROOT
ATOM      1  O   UNL A   1      33.787  30.579  27.298  1.00  0.00    -0.377 OA
ENDROOT
BRANCH   1   2
ATOM      2  C   UNL A   1      34.846  31.432  27.732  1.00  0.00     0.188 C 
BRANCH   2   3
ATOM      3  C   UNL A   1      36.189  30.730  27.940  1.00  0.00     0.188 C 
BRANCH   3   4
ATOM      4  O   UNL A   1      37.078  31.569  28.680  1.00  0.00    -0.376 OA
BRANCH   4   5
ATOM      5  C   UNL A   1      37.422  31.104  29.982  1.00  0.00     0.202 C 
BRANCH   5   6
ATOM      6  C   UNL A   1      36.648  29.858  30.414  1.00  0.00     0.261 C 
BRANCH   6   7
ATOM      7  O   UNL A   1      36.412  29.848  31.828  1.00  0.00    -0.460 OA
BRANCH   7   8
ATOM      8  C   UNL A   1      37.302  29.566  32.815  1.00  0.00     0.338 C 
ATOM      9  O   UNL A   1      37.435  28.388  33.145  1.00  0.00    -0.246 OA
BRANCH   8  10
ATOM     10  C   UNL A   1      38.155  30.589  33.505  1.00  0.00     0.060 A 
ATOM     11  C   UNL A   1      39.436  30.378  34.024  1.00  0.00     0.016 A 
ATOM     12  C   UNL A   1      37.627  31.890  33.589  1.00  0.00     0.016 A 
ATOM     13  C   UNL A   1      40.133  31.382  34.685  1.00  0.00     0.010 A 
ATOM     14  C   UNL A   1      38.331  32.916  34.227  1.00  0.00     0.010 A 
ATOM     15  C   UNL A   1      39.572  32.646  34.813  1.00  0.00    -0.014 A 
BRANCH  15  16
ATOM     16  C   UNL A   1      40.221  33.604  35.724  1.00  0.00     0.031 A 
ATOM     17  C   UNL A   1      39.819  33.573  37.166  1.00  0.00     0.074 A 
ATOM     18  C   UNL A   1      41.206  34.401  35.279  1.00  0.00     0.049 A 
ATOM     19  N   UNL A   1      40.204  34.337  38.150  1.00  0.00    -0.248 NA
ATOM     20  C   UNL A   1      38.857  32.525  37.556  1.00  0.00     0.031 C 
ATOM     21  C   UNL A   1      41.719  34.423  33.909  1.00  0.00     0.029 A 
ATOM     22  N   UNL A   1      41.950  35.347  35.933  1.00  0.00    -0.354 N 
ATOM     23  C   UNL A   1      39.490  33.903  39.260  1.00  0.00     0.074 A 
ATOM     24  C   UNL A   1      38.664  32.796  38.837  1.00  0.00     0.031 C 
ATOM     25  C   UNL A   1      42.682  35.354  33.818  1.00  0.00     0.029 A 
ATOM     26  C   UNL A   1      42.814  36.026  35.108  1.00  0.00     0.049 A 
ATOM     27  H   UNL A   1      41.873  35.524  36.899  1.00  0.00     0.167 HD
ATOM     28  C   UNL A   1      39.521  34.394  40.519  1.00  0.00     0.034 A 
ATOM     29  C   UNL A   1      43.588  37.098  35.365  1.00  0.00     0.034 A 
ATOM     30  C   UNL A   1      40.361  35.489  40.910  1.00  0.00     0.049 A 
ATOM     31  C   UNL A   1      43.577  37.654  36.766  1.00  0.00     0.074 A 
ATOM     32  C   UNL A   1      40.469  36.098  42.144  1.00  0.00     0.029 A 
ATOM     33  N   UNL A   1      41.236  36.147  40.055  1.00  0.00    -0.354 N 
ATOM     34  N   UNL A   1      42.924  37.219  37.819  1.00  0.00    -0.248 NA
ATOM     35  C   UNL A   1      44.414  38.832  37.021  1.00  0.00     0.031 C 
ATOM     36  C   UNL A   1      41.393  37.142  42.028  1.00  0.00     0.029 A 
ATOM     37  C   UNL A   1      41.882  37.164  40.729  1.00  0.00     0.049 A 
ATOM     38  H   UNL A   1      41.375  35.920  39.107  1.00  0.00     0.167 HD
ATOM     39  C   UNL A   1      43.284  38.057  38.867  1.00  0.00     0.074 A 
ATOM     40  C   UNL A   1      44.235  39.009  38.325  1.00  0.00     0.031 C 
ATOM     41  C   UNL A   1      42.858  38.058  40.155  1.00  0.00     0.034 A 
BRANCH  28  42
ATOM     42  C   UNL A   1      38.590  33.768  41.519  1.00  0.00     0.023 A 
ATOM     43  C   UNL A   1      37.300  34.302  41.718  1.00  0.00     0.012 A 
ATOM     44  C   UNL A   1      39.012  32.671  42.296  1.00  0.00     0.148 A 
ATOM     45  C   UNL A   1      36.463  33.782  42.707  1.00  0.00     0.002 A 
ATOM     46  C   UNL A   1      38.157  32.134  43.251  1.00  0.00     0.091 A 
ATOM     47  F   UNL A   1      40.254  32.200  42.114  1.00  0.00    -0.205 F 
ATOM     48  C   UNL A   1      36.889  32.697  43.468  1.00  0.00     0.022 A 
BRANCH  46  49
ATOM     49  S   UNL A   1      38.597  30.705  44.244  1.00  0.00     0.127 S 
ATOM     50  O   UNL A   1      38.009  31.052  45.538  1.00  0.00    -0.237 OA
ATOM     51  O   UNL A   1      37.917  29.619  43.538  1.00  0.00    -0.237 OA
ATOM     52  O   UNL A   1      40.050  30.629  44.217  1.00  0.00    -0.744 OA
ENDBRANCH  46  49
ENDBRANCH  28  42
BRANCH  29  53
ATOM     53  C   UNL A   1      44.410  37.705  34.280  1.00  0.00     0.023 A 
ATOM     54  C   UNL A   1      45.626  37.107  33.899  1.00  0.00     0.012 A 
ATOM     55  C   UNL A   1      43.968  38.853  33.588  1.00  0.00     0.148 A 
ATOM     56  C   UNL A   1      46.394  37.650  32.866  1.00  0.00     0.002 A 
ATOM     57  C   UNL A   1      44.707  39.353  32.523  1.00  0.00     0.091 A 
ATOM     58  F   UNL A   1      42.821  39.426  33.979  1.00  0.00    -0.205 F 
ATOM     59  C   UNL A   1      45.929  38.763  32.170  1.00  0.00     0.022 A 
BRANCH  57  60
ATOM     60  S   UNL A   1      44.111  40.695  31.487  1.00  0.00     0.127 S 
ATOM     61  O   UNL A   1      44.391  41.862  32.319  1.00  0.00    -0.237 OA
ATOM     62  O   UNL A   1      44.962  40.565  30.302  1.00  0.00    -0.237 OA
ATOM     63  O   UNL A   1      42.704  40.410  31.245  1.00  0.00    -0.744 OA
ENDBRANCH  57  60
ENDBRANCH  29  53
BRANCH  41  64
ATOM     64  C   UNL A   1      43.432  39.104  41.071  1.00  0.00     0.023 A 
ATOM     65  C   UNL A   1      44.642  38.853  41.744  1.00  0.00     0.012 A 
ATOM     66  C   UNL A   1      42.825  40.369  41.173  1.00  0.00     0.148 A 
ATOM     67  C   UNL A   1      45.232  39.844  42.525  1.00  0.00     0.002 A 
ATOM     68  C   UNL A   1      43.444  41.368  41.912  1.00  0.00     0.091 A 
ATOM     69  F   UNL A   1      41.662  40.576  40.538  1.00  0.00    -0.205 F 
ATOM     70  C   UNL A   1      44.642  41.104  42.597  1.00  0.00     0.022 A 
BRANCH  68  71
ATOM     71  S   UNL A   1      42.812  43.048  41.967  1.00  0.00     0.127 S 
ATOM     72  O   UNL A   1      42.829  43.419  40.553  1.00  0.00    -0.237 OA
ATOM     73  O   UNL A   1      41.476  42.859  42.533  1.00  0.00    -0.237 OA
ATOM     74  O   UNL A   1      43.727  43.792  42.822  1.00  0.00    -0.744 OA
ENDBRANCH  68  71
ENDBRANCH  41  64
ENDBRANCH  15  16
ENDBRANCH   8  10
ENDBRANCH   7   8
ENDBRANCH   6   7
ENDBRANCH   5   6
ENDBRANCH   4   5
ENDBRANCH   3   4
ENDBRANCH   2   3
ENDBRANCH   1   2
BRANCH   1  75
ATOM     75  C   UNL A   1      34.103  29.202  27.126  1.00  0.00     0.188 C 
BRANCH  75  76
ATOM     76  C   UNL A   1      33.556  28.455  25.890  1.00  0.00     0.188 C 
BRANCH  76  77
ATOM     77  O   UNL A   1      32.147  28.282  25.869  1.00  0.00    -0.376 OA
BRANCH  77  78
ATOM     78  C   UNL A   1      31.572  27.753  27.061  1.00  0.00     0.202 C 
BRANCH  78  79
ATOM     79  C   UNL A   1      30.783  26.458  26.835  1.00  0.00     0.261 C 
BRANCH  79  80
ATOM     80  O   UNL A   1      31.591  25.273  26.723  1.00  0.00    -0.460 OA
BRANCH  80  81
ATOM     81  C   UNL A   1      30.975  24.071  26.632  1.00  0.00     0.340 C 
ATOM     82  O   UNL A   1      30.057  23.666  27.323  1.00  0.00    -0.246 OA
BRANCH  81  83
ATOM     83  C   UNL A   1      31.470  23.399  25.402  1.00  0.00     0.083 A 
ATOM     84  C   UNL A   1      32.413  22.373  25.596  1.00  0.00     0.018 A 
ATOM     85  C   UNL A   1      30.953  23.687  24.116  1.00  0.00     0.053 A 
ATOM     86  C   UNL A   1      32.841  21.602  24.519  1.00  0.00     0.001 A 
ATOM     87  C   UNL A   1      31.468  22.945  23.043  1.00  0.00     0.027 A 
ATOM     88  C   UNL A   1      32.374  21.895  23.243  1.00  0.00     0.002 A 
BRANCH  85  89
ATOM     89  N   UNL A   1      30.035  24.743  23.938  1.00  0.00    -0.355 N 
ATOM     90  H   UNL A   1      29.111  24.489  24.165  1.00  0.00     0.167 HD
BRANCH  89  91
ATOM     91  C   UNL A   1      30.147  26.071  23.511  1.00  0.00     0.039 A 
ATOM     92  C   UNL A   1      31.397  26.499  23.043  1.00  0.00     0.026 A 
ATOM     93  C   UNL A   1      29.083  26.975  23.490  1.00  0.00     0.039 A 
ATOM     94  C   UNL A   1      31.575  27.780  22.526  1.00  0.00     0.003 A 
ATOM     95  C   UNL A   1      29.242  28.271  22.969  1.00  0.00     0.058 A 
ATOM     96  C   UNL A   1      30.498  28.660  22.479  1.00  0.00     0.013 A 
BRANCH  95  97
ATOM     97  C   UNL A   1      28.085  29.233  22.912  1.00  0.00     0.416 C 
ATOM     98  F   UNL A   1      28.266  30.323  23.709  1.00  0.00    -0.166 F 
ATOM     99  F   UNL A   1      27.885  29.724  21.656  1.00  0.00    -0.166 F 
ATOM    100  F   UNL A   1      26.893  28.691  23.287  1.00  0.00    -0.166 F 
ENDBRANCH  95  97
ENDBRANCH  89  91
ENDBRANCH  85  89
ENDBRANCH  81  83
ENDBRANCH  80  81
ENDBRANCH  79  80
ENDBRANCH  78  79
ENDBRANCH  77  78
ENDBRANCH  76  77
ENDBRANCH  75  76
ENDBRANCH   1  75
TORSDOF 26
ENDMDL
