MODEL 1
REMARK VINA RESULT:      -9.9      0.000      0.000
REMARK SMILES Cc1ccccc1OCC(=O)N[C@@H](Cc1c[nH]c2ccccc12)C(=O)OCCOCCOCCOCCOC(=O)c1ccc(-c2c3nc(c(-c4cccc(S(=O)(=O)[O-])c4F)c4ccc([nH]4)c(-c4cccc(S(=O)(=O)[O-])c4F)c4nc(c(-c5cccc(S(=O)(=O)[O-])c5F)c5ccc2[nH]5)C=C4)C=C3)cc1
REMARK SMILES IDX 31 1 30 2 29 3 28 4 27 5 26 6 24 7 25 8 13 9 12 10 10 11
REMARK SMILES IDX 11 12 9 14 8 15 7 16 1 17 2 18 3 19 4 20 6 21 5 22 14 23
REMARK SMILES IDX 15 24 16 25 23 26 17 27 18 28 22 29 19 31 21 32 20 33 32 34
REMARK SMILES IDX 33 35 34 36 35 37 36 38 37 39 38 40 39 41 40 42 41 43 42 44
REMARK SMILES IDX 103 45 43 46 102 47 44 48 45 49 46 50 96 51 47 52 101 53
REMARK SMILES IDX 95 54 97 55 48 56 100 57 94 58 93 59 49 61 81 62 61 63 80 64
REMARK SMILES IDX 62 65 65 66 79 67 98 68 63 69 64 70 78 72 99 73 66 74 50 75
REMARK SMILES IDX 51 76 59 77 52 78 54 79 60 80 53 81 55 82 56 83 57 84 58 85
REMARK SMILES IDX 82 86 83 87 91 88 84 89 86 90 92 91 85 92 87 93 88 94 89 95
REMARK SMILES IDX 90 96 67 97 68 98 76 99 69 100 71 101 77 102 70 103 72 104
REMARK SMILES IDX 73 105 74 106 75 107
REMARK H PARENT 12 13 17 30 97 60 65 71
REMARK Flexibility Score: inf
ROOT
ATOM      1  C   UNL A   1      37.482  23.443  25.582  1.00  0.00     0.188 C 
ENDROOT
BRANCH   1   2
ATOM      2  C   UNL A   1      36.177  22.787  25.980  1.00  0.00     0.188 C 
BRANCH   2   3
ATOM      3  O   UNL A   1      35.286  22.505  24.913  1.00  0.00    -0.376 OA
BRANCH   3   4
ATOM      4  C   UNL A   1      33.990  22.128  25.386  1.00  0.00     0.202 C 
BRANCH   4   5
ATOM      5  C   UNL A   1      33.220  20.999  24.660  1.00  0.00     0.261 C 
BRANCH   5   6
ATOM      6  O   UNL A   1      32.073  21.442  23.896  1.00  0.00    -0.462 OA
BRANCH   6   7
ATOM      7  C   UNL A   1      32.135  22.690  23.365  1.00  0.00     0.329 C 
ATOM      8  O   UNL A   1      32.982  23.079  22.592  1.00  0.00    -0.250 OA
BRANCH   7   9
ATOM      9  C   UNL A   1      30.982  23.611  23.830  1.00  0.00     0.196 C 
BRANCH   9  10
ATOM     10  N   UNL A   1      30.370  23.373  25.135  1.00  0.00    -0.339 N 
ATOM     11  C   UNL A   1      30.836  23.800  26.347  1.00  0.00     0.258 C 
ATOM     12  O   UNL A   1      30.411  23.270  27.374  1.00  0.00    -0.271 OA
ATOM     13  H   UNL A   1      29.535  22.851  25.142  1.00  0.00     0.164 HD
BRANCH  11  14
ATOM     14  C   UNL A   1      31.855  24.985  26.392  1.00  0.00     0.329 C 
BRANCH  14  15
ATOM     15  O   UNL A   1      31.742  26.207  27.083  1.00  0.00    -0.484 OA
BRANCH  15  16
ATOM     16  C   UNL A   1      32.183  27.258  26.351  1.00  0.00     0.122 A 
ATOM     17  C   UNL A   1      34.279  26.012  25.590  1.00  0.00     0.048 C 
ATOM     18  C   UNL A   1      33.385  27.221  25.641  1.00  0.00    -0.009 A 
ATOM     19  C   UNL A   1      33.757  28.370  24.937  1.00  0.00     0.007 A 
ATOM     20  C   UNL A   1      32.960  29.520  24.970  1.00  0.00     0.001 A 
ATOM     21  C   UNL A   1      31.393  28.408  26.409  1.00  0.00     0.047 A 
ATOM     22  C   UNL A   1      31.778  29.540  25.707  1.00  0.00     0.004 A 
ENDBRANCH  15  16
ENDBRANCH  14  15
ENDBRANCH  11  14
ENDBRANCH   9  10
BRANCH   9  23
ATOM     23  C   UNL A   1      31.283  25.095  23.568  1.00  0.00     0.074 C 
BRANCH  23  24
ATOM     24  C   UNL A   1      30.119  26.041  23.464  1.00  0.00    -0.020 A 
ATOM     25  C   UNL A   1      28.840  25.786  23.902  1.00  0.00     0.087 A 
ATOM     26  C   UNL A   1      30.104  27.392  22.971  1.00  0.00     0.003 A 
ATOM     27  N   UNL A   1      28.078  26.908  23.752  1.00  0.00    -0.361 N 
ATOM     28  C   UNL A   1      28.829  27.915  23.203  1.00  0.00     0.046 A 
ATOM     29  C   UNL A   1      31.059  28.226  22.355  1.00  0.00     0.010 A 
ATOM     30  H   UNL A   1      27.129  26.983  24.002  1.00  0.00     0.166 HD
ATOM     31  C   UNL A   1      28.473  29.234  22.894  1.00  0.00     0.026 A 
ATOM     32  C   UNL A   1      30.713  29.541  22.015  1.00  0.00     0.001 A 
ATOM     33  C   UNL A   1      29.443  30.041  22.296  1.00  0.00     0.002 A 
ENDBRANCH  23  24
ENDBRANCH   9  23
ENDBRANCH   7   9
ENDBRANCH   6   7
ENDBRANCH   5   6
ENDBRANCH   4   5
ENDBRANCH   3   4
ENDBRANCH   2   3
ENDBRANCH   1   2
BRANCH   1  34
ATOM     34  O   UNL A   1      38.527  23.133  26.514  1.00  0.00    -0.377 OA
BRANCH  34  35
ATOM     35  C   UNL A   1      39.229  21.921  26.221  1.00  0.00     0.188 C 
BRANCH  35  36
ATOM     36  C   UNL A   1      40.720  22.184  26.311  1.00  0.00     0.188 C 
BRANCH  36  37
ATOM     37  O   UNL A   1      40.999  22.527  27.665  1.00  0.00    -0.376 OA
BRANCH  37  38
ATOM     38  C   UNL A   1      42.123  23.360  27.886  1.00  0.00     0.202 C 
BRANCH  38  39
ATOM     39  C   UNL A   1      41.730  24.611  28.657  1.00  0.00     0.261 C 
BRANCH  39  40
ATOM     40  O   UNL A   1      41.981  25.753  27.809  1.00  0.00    -0.460 OA
BRANCH  40  41
ATOM     41  C   UNL A   1      40.869  26.259  27.206  1.00  0.00     0.338 C 
ATOM     42  O   UNL A   1      40.425  25.820  26.157  1.00  0.00    -0.246 OA
BRANCH  41  43
ATOM     43  C   UNL A   1      40.358  27.469  27.924  1.00  0.00     0.060 A 
ATOM     44  C   UNL A   1      41.109  28.652  27.909  1.00  0.00     0.016 A 
ATOM     45  C   UNL A   1      39.278  27.374  28.799  1.00  0.00     0.016 A 
ATOM     46  C   UNL A   1      40.896  29.646  28.880  1.00  0.00     0.010 A 
ATOM     47  C   UNL A   1      39.142  28.312  29.819  1.00  0.00     0.010 A 
ATOM     48  C   UNL A   1      39.983  29.435  29.906  1.00  0.00    -0.014 A 
BRANCH  48  49
ATOM     49  C   UNL A   1      39.889  30.234  31.151  1.00  0.00     0.031 A 
ATOM     50  C   UNL A   1      40.831  29.945  32.281  1.00  0.00     0.074 A 
ATOM     51  C   UNL A   1      39.334  31.471  31.065  1.00  0.00     0.049 A 
ATOM     52  N   UNL A   1      40.993  30.684  33.333  1.00  0.00    -0.248 NA
ATOM     53  C   UNL A   1      41.670  28.751  32.307  1.00  0.00     0.031 C 
ATOM     54  C   UNL A   1      39.866  32.671  31.706  1.00  0.00     0.029 A 
ATOM     55  N   UNL A   1      38.235  31.957  30.349  1.00  0.00    -0.354 N 
ATOM     56  C   UNL A   1      42.113  30.237  34.008  1.00  0.00     0.074 A 
ATOM     57  C   UNL A   1      42.417  28.970  33.395  1.00  0.00     0.031 C 
ATOM     58  C   UNL A   1      39.158  33.746  31.358  1.00  0.00     0.029 A 
ATOM     59  C   UNL A   1      37.921  33.245  30.831  1.00  0.00     0.049 A 
ATOM     60  H   UNL A   1      37.760  31.480  29.631  1.00  0.00     0.167 HD
ATOM     61  C   UNL A   1      42.729  31.044  34.925  1.00  0.00     0.034 A 
ATOM     62  C   UNL A   1      36.731  33.648  31.357  1.00  0.00     0.034 A 
ATOM     63  C   UNL A   1      41.917  32.250  35.264  1.00  0.00     0.049 A 
ATOM     64  C   UNL A   1      36.815  33.885  32.866  1.00  0.00     0.074 A 
ATOM     65  C   UNL A   1      42.203  33.599  35.415  1.00  0.00     0.029 A 
ATOM     66  N   UNL A   1      40.525  32.154  35.422  1.00  0.00    -0.354 N 
ATOM     67  N   UNL A   1      37.907  33.754  33.587  1.00  0.00    -0.248 NA
ATOM     68  C   UNL A   1      35.687  34.305  33.694  1.00  0.00     0.031 C 
ATOM     69  C   UNL A   1      40.985  34.302  35.602  1.00  0.00     0.029 A 
ATOM     70  C   UNL A   1      39.934  33.400  35.568  1.00  0.00     0.049 A 
ATOM     71  H   UNL A   1      40.029  31.305  35.428  1.00  0.00     0.167 HD
ATOM     72  C   UNL A   1      37.628  33.868  34.921  1.00  0.00     0.074 A 
ATOM     73  C   UNL A   1      36.242  34.313  34.921  1.00  0.00     0.031 C 
ATOM     74  C   UNL A   1      38.516  33.532  35.915  1.00  0.00     0.034 A 
BRANCH  61  75
ATOM     75  C   UNL A   1      44.188  30.872  35.432  1.00  0.00     0.023 A 
ATOM     76  C   UNL A   1      45.220  31.479  34.671  1.00  0.00     0.012 A 
ATOM     77  C   UNL A   1      44.649  30.080  36.521  1.00  0.00     0.148 A 
ATOM     78  C   UNL A   1      46.588  31.261  34.907  1.00  0.00     0.002 A 
ATOM     79  C   UNL A   1      46.018  29.943  36.820  1.00  0.00     0.091 A 
ATOM     80  F   UNL A   1      43.786  29.373  37.252  1.00  0.00    -0.205 F 
ATOM     81  C   UNL A   1      46.989  30.500  35.991  1.00  0.00     0.022 A 
BRANCH  79  82
ATOM     82  S   UNL A   1      46.632  29.073  38.282  1.00  0.00     0.127 S 
ATOM     83  O   UNL A   1      46.299  27.682  37.978  1.00  0.00    -0.237 OA
ATOM     84  O   UNL A   1      48.063  29.377  38.244  1.00  0.00    -0.237 OA
ATOM     85  O   UNL A   1      45.924  29.640  39.422  1.00  0.00    -0.744 OA
ENDBRANCH  79  82
ENDBRANCH  61  75
BRANCH  62  86
ATOM     86  C   UNL A   1      35.577  33.320  30.469  1.00  0.00     0.023 A 
ATOM     87  C   UNL A   1      35.372  34.284  29.448  1.00  0.00     0.012 A 
ATOM     88  C   UNL A   1      35.333  31.974  30.179  1.00  0.00     0.148 A 
ATOM     89  C   UNL A   1      35.249  33.886  28.114  1.00  0.00     0.002 A 
ATOM     90  C   UNL A   1      35.269  31.580  28.842  1.00  0.00     0.091 A 
ATOM     91  F   UNL A   1      35.384  31.087  31.183  1.00  0.00    -0.205 F 
ATOM     92  C   UNL A   1      35.272  32.530  27.806  1.00  0.00     0.022 A 
BRANCH  90  93
ATOM     93  S   UNL A   1      35.608  29.864  28.414  1.00  0.00     0.127 S 
ATOM     94  O   UNL A   1      34.272  29.323  28.203  1.00  0.00    -0.237 OA
ATOM     95  O   UNL A   1      36.428  29.990  27.211  1.00  0.00    -0.237 OA
ATOM     96  O   UNL A   1      36.339  29.364  29.572  1.00  0.00    -0.744 OA
ENDBRANCH  90  93
ENDBRANCH  62  86
BRANCH  74  97
ATOM     97  C   UNL A   1      38.126  33.284  37.371  1.00  0.00     0.023 A 
ATOM     98  C   UNL A   1      37.546  32.073  37.791  1.00  0.00     0.012 A 
ATOM     99  C   UNL A   1      38.495  34.193  38.404  1.00  0.00     0.148 A 
ATOM    100  C   UNL A   1      37.267  31.803  39.134  1.00  0.00     0.002 A 
ATOM    101  C   UNL A   1      38.323  33.871  39.747  1.00  0.00     0.091 A 
ATOM    102  F   UNL A   1      39.005  35.393  38.099  1.00  0.00    -0.205 F 
ATOM    103  C   UNL A   1      37.674  32.692  40.115  1.00  0.00     0.022 A 
BRANCH 101 104
ATOM    104  S   UNL A   1      39.054  34.861  41.061  1.00  0.00     0.127 S 
ATOM    105  O   UNL A   1      40.457  34.906  40.653  1.00  0.00    -0.237 OA
ATOM    106  O   UNL A   1      38.336  36.129  40.921  1.00  0.00    -0.237 OA
ATOM    107  O   UNL A   1      38.772  34.147  42.297  1.00  0.00    -0.744 OA
ENDBRANCH 101 104
ENDBRANCH  74  97
ENDBRANCH  48  49
ENDBRANCH  41  43
ENDBRANCH  40  41
ENDBRANCH  39  40
ENDBRANCH  38  39
ENDBRANCH  37  38
ENDBRANCH  36  37
ENDBRANCH  35  36
ENDBRANCH  34  35
ENDBRANCH   1  34
TORSDOF 29
ENDMDL
MODEL 2
REMARK VINA RESULT:      -9.9      5.317      9.694
REMARK SMILES Cc1ccccc1OCC(=O)N[C@@H](Cc1c[nH]c2ccccc12)C(=O)OCCOCCOCCOCCOC(=O)c1ccc(-c2c3nc(c(-c4cccc(S(=O)(=O)[O-])c4F)c4ccc([nH]4)c(-c4cccc(S(=O)(=O)[O-])c4F)c4nc(c(-c5cccc(S(=O)(=O)[O-])c5F)c5ccc2[nH]5)C=C4)C=C3)cc1
REMARK SMILES IDX 31 1 30 2 29 3 28 4 27 5 26 6 24 7 25 8 13 9 12 10 10 11
REMARK SMILES IDX 11 12 9 14 8 15 7 16 1 17 2 18 3 19 4 20 6 21 5 22 14 23
REMARK SMILES IDX 15 24 16 25 23 26 17 27 18 28 22 29 19 31 21 32 20 33 32 34
REMARK SMILES IDX 33 35 34 36 35 37 36 38 37 39 38 40 39 41 40 42 41 43 42 44
REMARK SMILES IDX 103 45 43 46 102 47 44 48 45 49 46 50 96 51 47 52 101 53
REMARK SMILES IDX 95 54 97 55 48 56 100 57 94 58 93 59 49 61 81 62 61 63 80 64
REMARK SMILES IDX 62 65 65 66 79 67 98 68 63 69 64 70 78 72 99 73 66 74 50 75
REMARK SMILES IDX 51 76 59 77 52 78 54 79 60 80 53 81 55 82 56 83 57 84 58 85
REMARK SMILES IDX 82 86 83 87 91 88 84 89 86 90 92 91 85 92 87 93 88 94 89 95
REMARK SMILES IDX 90 96 67 97 68 98 76 99 69 100 71 101 77 102 70 103 72 104
REMARK SMILES IDX 73 105 74 106 75 107
REMARK H PARENT 12 13 17 30 97 60 65 71
REMARK Flexibility Score: inf
ROOT
ATOM      1  C   UNL A   1      33.669  20.622  24.671  1.00  0.00     0.188 C 
ENDROOT
BRANCH   1   2
ATOM      2  C   UNL A   1      32.820  21.856  24.456  1.00  0.00     0.188 C 
BRANCH   2   3
ATOM      3  O   UNL A   1      31.733  22.013  25.354  1.00  0.00    -0.376 OA
BRANCH   3   4
ATOM      4  C   UNL A   1      31.975  23.051  26.309  1.00  0.00     0.202 C 
BRANCH   4   5
ATOM      5  C   UNL A   1      33.052  24.119  26.006  1.00  0.00     0.261 C 
BRANCH   5   6
ATOM      6  O   UNL A   1      32.572  25.277  25.281  1.00  0.00    -0.462 OA
BRANCH   6   7
ATOM      7  C   UNL A   1      32.053  26.290  26.021  1.00  0.00     0.329 C 
ATOM      8  O   UNL A   1      30.917  26.342  26.436  1.00  0.00    -0.250 OA
BRANCH   7   9
ATOM      9  C   UNL A   1      33.073  27.414  26.320  1.00  0.00     0.196 C 
BRANCH   9  10
ATOM     10  N   UNL A   1      33.871  27.955  25.222  1.00  0.00    -0.339 N 
ATOM     11  C   UNL A   1      33.423  28.296  23.976  1.00  0.00     0.258 C 
ATOM     12  O   UNL A   1      34.237  28.432  23.062  1.00  0.00    -0.271 OA
ATOM     13  H   UNL A   1      34.830  28.089  25.397  1.00  0.00     0.164 HD
BRANCH  11  14
ATOM     14  C   UNL A   1      31.895  28.551  23.764  1.00  0.00     0.329 C 
BRANCH  14  15
ATOM     15  O   UNL A   1      31.038  27.968  22.810  1.00  0.00    -0.484 OA
BRANCH  15  16
ATOM     16  C   UNL A   1      29.837  28.591  22.744  1.00  0.00     0.122 A 
ATOM     17  C   UNL A   1      28.620  26.636  23.852  1.00  0.00     0.048 C 
ATOM     18  C   UNL A   1      28.661  27.995  23.208  1.00  0.00    -0.009 A 
ATOM     19  C   UNL A   1      27.472  28.717  23.071  1.00  0.00     0.007 A 
ATOM     20  C   UNL A   1      27.466  29.978  22.465  1.00  0.00     0.001 A 
ATOM     21  C   UNL A   1      29.836  29.838  22.117  1.00  0.00     0.047 A 
ATOM     22  C   UNL A   1      28.648  30.539  21.987  1.00  0.00     0.004 A 
ENDBRANCH  15  16
ENDBRANCH  14  15
ENDBRANCH  11  14
ENDBRANCH   9  10
BRANCH   9  23
ATOM     23  C   UNL A   1      32.487  28.503  27.232  1.00  0.00     0.074 C 
BRANCH  23  24
ATOM     24  C   UNL A   1      33.203  29.823  27.300  1.00  0.00    -0.020 A 
ATOM     25  C   UNL A   1      32.624  31.057  27.114  1.00  0.00     0.087 A 
ATOM     26  C   UNL A   1      34.578  30.080  27.633  1.00  0.00     0.003 A 
ATOM     27  N   UNL A   1      33.545  32.032  27.365  1.00  0.00    -0.361 N 
ATOM     28  C   UNL A   1      34.747  31.466  27.705  1.00  0.00     0.046 A 
ATOM     29  C   UNL A   1      35.699  29.264  27.889  1.00  0.00     0.010 A 
ATOM     30  H   UNL A   1      33.373  33.000  27.310  1.00  0.00     0.166 HD
ATOM     31  C   UNL A   1      35.957  32.074  28.060  1.00  0.00     0.026 A 
ATOM     32  C   UNL A   1      36.925  29.855  28.222  1.00  0.00     0.001 A 
ATOM     33  C   UNL A   1      37.047  31.240  28.320  1.00  0.00     0.002 A 
ENDBRANCH  23  24
ENDBRANCH   9  23
ENDBRANCH   7   9
ENDBRANCH   6   7
ENDBRANCH   5   6
ENDBRANCH   4   5
ENDBRANCH   3   4
ENDBRANCH   2   3
ENDBRANCH   1   2
BRANCH   1  34
ATOM     34  O   UNL A   1      34.880  20.938  25.370  1.00  0.00    -0.377 OA
BRANCH  34  35
ATOM     35  C   UNL A   1      36.009  20.157  24.963  1.00  0.00     0.188 C 
BRANCH  35  36
ATOM     36  C   UNL A   1      37.147  21.092  24.603  1.00  0.00     0.188 C 
BRANCH  36  37
ATOM     37  O   UNL A   1      38.061  21.072  25.696  1.00  0.00    -0.376 OA
BRANCH  37  38
ATOM     38  C   UNL A   1      39.127  20.143  25.611  1.00  0.00     0.202 C 
BRANCH  38  39
ATOM     39  C   UNL A   1      40.270  20.542  26.532  1.00  0.00     0.261 C 
BRANCH  39  40
ATOM     40  O   UNL A   1      41.342  21.057  25.714  1.00  0.00    -0.460 OA
BRANCH  40  41
ATOM     41  C   UNL A   1      42.590  20.731  26.153  1.00  0.00     0.338 C 
ATOM     42  O   UNL A   1      43.020  19.589  26.146  1.00  0.00    -0.246 OA
BRANCH  41  43
ATOM     43  C   UNL A   1      43.290  21.917  26.743  1.00  0.00     0.060 A 
ATOM     44  C   UNL A   1      42.965  22.339  28.038  1.00  0.00     0.016 A 
ATOM     45  C   UNL A   1      44.078  22.745  25.947  1.00  0.00     0.016 A 
ATOM     46  C   UNL A   1      43.269  23.645  28.461  1.00  0.00     0.010 A 
ATOM     47  C   UNL A   1      44.283  24.067  26.332  1.00  0.00     0.010 A 
ATOM     48  C   UNL A   1      43.834  24.552  27.573  1.00  0.00    -0.014 A 
BRANCH  48  49
ATOM     49  C   UNL A   1      43.909  26.019  27.774  1.00  0.00     0.031 A 
ATOM     50  C   UNL A   1      42.657  26.782  28.084  1.00  0.00     0.074 A 
ATOM     51  C   UNL A   1      45.102  26.542  28.158  1.00  0.00     0.049 A 
ATOM     52  N   UNL A   1      42.604  28.016  28.475  1.00  0.00    -0.248 NA
ATOM     53  C   UNL A   1      41.331  26.186  27.952  1.00  0.00     0.031 C 
ATOM     54  C   UNL A   1      45.274  27.555  29.197  1.00  0.00     0.029 A 
ATOM     55  N   UNL A   1      46.418  26.255  27.777  1.00  0.00    -0.354 N 
ATOM     56  C   UNL A   1      41.317  28.281  28.905  1.00  0.00     0.074 A 
ATOM     57  C   UNL A   1      40.549  27.153  28.445  1.00  0.00     0.031 C 
ATOM     58  C   UNL A   1      46.569  27.795  29.412  1.00  0.00     0.029 A 
ATOM     59  C   UNL A   1      47.259  27.275  28.267  1.00  0.00     0.049 A 
ATOM     60  H   UNL A   1      46.706  25.473  27.254  1.00  0.00     0.167 HD
ATOM     61  C   UNL A   1      41.070  29.362  29.705  1.00  0.00     0.034 A 
ATOM     62  C   UNL A   1      48.078  28.077  27.530  1.00  0.00     0.034 A 
ATOM     63  C   UNL A   1      42.239  30.287  29.797  1.00  0.00     0.049 A 
ATOM     64  C   UNL A   1      47.567  29.517  27.459  1.00  0.00     0.074 A 
ATOM     65  C   UNL A   1      42.864  30.957  30.838  1.00  0.00     0.029 A 
ATOM     66  N   UNL A   1      43.015  30.574  28.662  1.00  0.00    -0.354 N 
ATOM     67  N   UNL A   1      46.485  29.961  28.059  1.00  0.00    -0.248 NA
ATOM     68  C   UNL A   1      48.235  30.587  26.723  1.00  0.00     0.031 C 
ATOM     69  C   UNL A   1      44.032  31.586  30.334  1.00  0.00     0.029 A 
ATOM     70  C   UNL A   1      44.144  31.313  28.980  1.00  0.00     0.049 A 
ATOM     71  H   UNL A   1      42.784  30.285  27.750  1.00  0.00     0.167 HD
ATOM     72  C   UNL A   1      46.200  31.241  27.670  1.00  0.00     0.074 A 
ATOM     73  C   UNL A   1      47.387  31.615  26.912  1.00  0.00     0.031 C 
ATOM     74  C   UNL A   1      45.007  31.869  27.935  1.00  0.00     0.034 A 
BRANCH  61  75
ATOM     75  C   UNL A   1      39.809  29.548  30.595  1.00  0.00     0.023 A 
ATOM     76  C   UNL A   1      39.060  28.387  30.917  1.00  0.00     0.012 A 
ATOM     77  C   UNL A   1      39.233  30.766  31.053  1.00  0.00     0.148 A 
ATOM     78  C   UNL A   1      37.811  28.424  31.559  1.00  0.00     0.002 A 
ATOM     79  C   UNL A   1      38.031  30.795  31.786  1.00  0.00     0.091 A 
ATOM     80  F   UNL A   1      39.784  31.935  30.728  1.00  0.00    -0.205 F 
ATOM     81  C   UNL A   1      37.299  29.630  32.004  1.00  0.00     0.022 A 
BRANCH  79  82
ATOM     82  S   UNL A   1      37.350  32.305  32.513  1.00  0.00     0.127 S 
ATOM     83  O   UNL A   1      36.859  33.022  31.337  1.00  0.00    -0.237 OA
ATOM     84  O   UNL A   1      36.299  31.780  33.386  1.00  0.00    -0.237 OA
ATOM     85  O   UNL A   1      38.450  32.953  33.215  1.00  0.00    -0.744 OA
ENDBRANCH  79  82
ENDBRANCH  61  75
BRANCH  62  86
ATOM     86  C   UNL A   1      48.971  27.297  26.625  1.00  0.00     0.023 A 
ATOM     87  C   UNL A   1      48.268  26.655  25.572  1.00  0.00     0.012 A 
ATOM     88  C   UNL A   1      50.249  27.803  26.366  1.00  0.00     0.148 A 
ATOM     89  C   UNL A   1      48.686  26.805  24.247  1.00  0.00     0.002 A 
ATOM     90  C   UNL A   1      50.633  28.002  25.038  1.00  0.00     0.091 A 
ATOM     91  F   UNL A   1      50.967  28.275  27.394  1.00  0.00    -0.205 F 
ATOM     92  C   UNL A   1      49.832  27.544  23.977  1.00  0.00     0.022 A 
BRANCH  90  93
ATOM     93  S   UNL A   1      51.922  29.203  24.666  1.00  0.00     0.127 S 
ATOM     94  O   UNL A   1      53.074  28.654  25.368  1.00  0.00    -0.237 OA
ATOM     95  O   UNL A   1      51.995  29.152  23.208  1.00  0.00    -0.237 OA
ATOM     96  O   UNL A   1      51.379  30.454  25.182  1.00  0.00    -0.744 OA
ENDBRANCH  90  93
ENDBRANCH  62  86
BRANCH  74  97
ATOM     97  C   UNL A   1      44.512  33.120  27.211  1.00  0.00     0.023 A 
ATOM     98  C   UNL A   1      44.125  33.093  25.858  1.00  0.00     0.012 A 
ATOM     99  C   UNL A   1      44.248  34.330  27.914  1.00  0.00     0.148 A 
ATOM    100  C   UNL A   1      43.588  34.210  25.211  1.00  0.00     0.002 A 
ATOM    101  C   UNL A   1      43.606  35.399  27.297  1.00  0.00     0.091 A 
ATOM    102  F   UNL A   1      44.629  34.468  29.190  1.00  0.00    -0.205 F 
ATOM    103  C   UNL A   1      43.308  35.357  25.935  1.00  0.00     0.022 A 
BRANCH 101 104
ATOM    104  S   UNL A   1      42.992  36.807  28.237  1.00  0.00     0.127 S 
ATOM    105  O   UNL A   1      42.355  36.149  29.376  1.00  0.00    -0.237 OA
ATOM    106  O   UNL A   1      44.230  37.521  28.557  1.00  0.00    -0.237 OA
ATOM    107  O   UNL A   1      42.102  37.526  27.337  1.00  0.00    -0.744 OA
ENDBRANCH 101 104
ENDBRANCH  74  97
ENDBRANCH  48  49
ENDBRANCH  41  43
ENDBRANCH  40  41
ENDBRANCH  39  40
ENDBRANCH  38  39
ENDBRANCH  37  38
ENDBRANCH  36  37
ENDBRANCH  35  36
ENDBRANCH  34  35
ENDBRANCH   1  34
TORSDOF 29
ENDMDL
MODEL 3
REMARK VINA RESULT:      -9.0      4.840      8.286
REMARK SMILES Cc1ccccc1OCC(=O)N[C@@H](Cc1c[nH]c2ccccc12)C(=O)OCCOCCOCCOCCOC(=O)c1ccc(-c2c3nc(c(-c4cccc(S(=O)(=O)[O-])c4F)c4ccc([nH]4)c(-c4cccc(S(=O)(=O)[O-])c4F)c4nc(c(-c5cccc(S(=O)(=O)[O-])c5F)c5ccc2[nH]5)C=C4)C=C3)cc1
REMARK SMILES IDX 31 1 30 2 29 3 28 4 27 5 26 6 24 7 25 8 13 9 12 10 10 11
REMARK SMILES IDX 11 12 9 14 8 15 7 16 1 17 2 18 3 19 4 20 6 21 5 22 14 23
REMARK SMILES IDX 15 24 16 25 23 26 17 27 18 28 22 29 19 31 21 32 20 33 32 34
REMARK SMILES IDX 33 35 34 36 35 37 36 38 37 39 38 40 39 41 40 42 41 43 42 44
REMARK SMILES IDX 103 45 43 46 102 47 44 48 45 49 46 50 96 51 47 52 101 53
REMARK SMILES IDX 95 54 97 55 48 56 100 57 94 58 93 59 49 61 81 62 61 63 80 64
REMARK SMILES IDX 62 65 65 66 79 67 98 68 63 69 64 70 78 72 99 73 66 74 50 75
REMARK SMILES IDX 51 76 59 77 52 78 54 79 60 80 53 81 55 82 56 83 57 84 58 85
REMARK SMILES IDX 82 86 83 87 91 88 84 89 86 90 92 91 85 92 87 93 88 94 89 95
REMARK SMILES IDX 90 96 67 97 68 98 76 99 69 100 71 101 77 102 70 103 72 104
REMARK SMILES IDX 73 105 74 106 75 107
REMARK H PARENT 12 13 17 30 97 60 65 71
REMARK Flexibility Score: inf
ROOT
ATOM      1  C   UNL A   1      37.295  19.841  24.356  1.00  0.00     0.188 C 
ENDROOT
BRANCH   1   2
ATOM      2  C   UNL A   1      36.150  19.139  25.056  1.00  0.00     0.188 C 
BRANCH   2   3
ATOM      3  O   UNL A   1      35.927  17.795  24.661  1.00  0.00    -0.376 OA
BRANCH   3   4
ATOM      4  C   UNL A   1      34.633  17.618  24.075  1.00  0.00     0.202 C 
BRANCH   4   5
ATOM      5  C   UNL A   1      33.437  17.252  24.984  1.00  0.00     0.261 C 
BRANCH   5   6
ATOM      6  O   UNL A   1      32.824  18.375  25.663  1.00  0.00    -0.462 OA
BRANCH   6   7
ATOM      7  C   UNL A   1      32.442  19.423  24.890  1.00  0.00     0.329 C 
ATOM      8  O   UNL A   1      32.260  19.379  23.693  1.00  0.00    -0.250 OA
BRANCH   7   9
ATOM      9  C   UNL A   1      32.231  20.730  25.691  1.00  0.00     0.196 C 
BRANCH   9  10
ATOM     10  N   UNL A   1      33.283  21.180  26.599  1.00  0.00    -0.339 N 
ATOM     11  C   UNL A   1      34.458  21.787  26.252  1.00  0.00     0.258 C 
ATOM     12  O   UNL A   1      35.379  21.822  27.068  1.00  0.00    -0.271 OA
ATOM     13  H   UNL A   1      33.131  21.031  27.560  1.00  0.00     0.164 HD
BRANCH  11  14
ATOM     14  C   UNL A   1      34.575  22.463  24.847  1.00  0.00     0.329 C 
BRANCH  14  15
ATOM     15  O   UNL A   1      34.893  23.802  24.547  1.00  0.00    -0.484 OA
BRANCH  15  16
ATOM     16  C   UNL A   1      34.228  24.262  23.461  1.00  0.00     0.122 A 
ATOM     17  C   UNL A   1      33.967  26.602  24.453  1.00  0.00     0.048 C 
ATOM     18  C   UNL A   1      33.754  25.573  23.376  1.00  0.00    -0.009 A 
ATOM     19  C   UNL A   1      33.060  25.937  22.218  1.00  0.00     0.007 A 
ATOM     20  C   UNL A   1      32.830  25.007  21.199  1.00  0.00     0.001 A 
ATOM     21  C   UNL A   1      33.982  23.320  22.460  1.00  0.00     0.047 A 
ATOM     22  C   UNL A   1      33.289  23.697  21.320  1.00  0.00     0.004 A 
ENDBRANCH  15  16
ENDBRANCH  14  15
ENDBRANCH  11  14
ENDBRANCH   9  10
BRANCH   9  23
ATOM     23  C   UNL A   1      31.664  21.861  24.819  1.00  0.00     0.074 C 
BRANCH  23  24
ATOM     24  C   UNL A   1      31.336  23.167  25.487  1.00  0.00    -0.020 A 
ATOM     25  C   UNL A   1      31.592  23.479  26.801  1.00  0.00     0.087 A 
ATOM     26  C   UNL A   1      30.771  24.354  24.903  1.00  0.00     0.003 A 
ATOM     27  N   UNL A   1      31.269  24.785  27.028  1.00  0.00    -0.361 N 
ATOM     28  C   UNL A   1      30.782  25.354  25.879  1.00  0.00     0.046 A 
ATOM     29  C   UNL A   1      30.258  24.678  23.630  1.00  0.00     0.010 A 
ATOM     30  H   UNL A   1      31.370  25.251  27.889  1.00  0.00     0.166 HD
ATOM     31  C   UNL A   1      30.351  26.665  25.640  1.00  0.00     0.026 A 
ATOM     32  C   UNL A   1      29.799  25.978  23.380  1.00  0.00     0.001 A 
ATOM     33  C   UNL A   1      29.859  26.960  24.367  1.00  0.00     0.002 A 
ENDBRANCH  23  24
ENDBRANCH   9  23
ENDBRANCH   7   9
ENDBRANCH   6   7
ENDBRANCH   5   6
ENDBRANCH   4   5
ENDBRANCH   3   4
ENDBRANCH   2   3
ENDBRANCH   1   2
BRANCH   1  34
ATOM     34  O   UNL A   1      38.258  20.332  25.298  1.00  0.00    -0.377 OA
BRANCH  34  35
ATOM     35  C   UNL A   1      39.048  19.308  25.912  1.00  0.00     0.188 C 
BRANCH  35  36
ATOM     36  C   UNL A   1      40.515  19.652  25.741  1.00  0.00     0.188 C 
BRANCH  36  37
ATOM     37  O   UNL A   1      40.680  20.996  26.185  1.00  0.00    -0.376 OA
BRANCH  37  38
ATOM     38  C   UNL A   1      40.671  21.204  27.586  1.00  0.00     0.202 C 
BRANCH  38  39
ATOM     39  C   UNL A   1      41.489  22.432  27.958  1.00  0.00     0.261 C 
BRANCH  39  40
ATOM     40  O   UNL A   1      42.863  22.178  27.595  1.00  0.00    -0.460 OA
BRANCH  40  41
ATOM     41  C   UNL A   1      43.538  23.276  27.152  1.00  0.00     0.338 C 
ATOM     42  O   UNL A   1      44.581  23.204  26.521  1.00  0.00    -0.246 OA
BRANCH  41  43
ATOM     43  C   UNL A   1      42.906  24.542  27.641  1.00  0.00     0.060 A 
ATOM     44  C   UNL A   1      42.270  25.395  26.730  1.00  0.00     0.016 A 
ATOM     45  C   UNL A   1      43.142  25.001  28.935  1.00  0.00     0.016 A 
ATOM     46  C   UNL A   1      42.044  26.745  27.054  1.00  0.00     0.010 A 
ATOM     47  C   UNL A   1      43.012  26.359  29.211  1.00  0.00     0.010 A 
ATOM     48  C   UNL A   1      42.511  27.261  28.257  1.00  0.00    -0.014 A 
BRANCH  48  49
ATOM     49  C   UNL A   1      42.629  28.702  28.586  1.00  0.00     0.031 A 
ATOM     50  C   UNL A   1      41.397  29.475  28.946  1.00  0.00     0.074 A 
ATOM     51  C   UNL A   1      43.832  29.151  29.028  1.00  0.00     0.049 A 
ATOM     52  N   UNL A   1      41.377  30.672  29.443  1.00  0.00    -0.248 NA
ATOM     53  C   UNL A   1      40.055  28.936  28.747  1.00  0.00     0.031 C 
ATOM     54  C   UNL A   1      44.021  30.064  30.152  1.00  0.00     0.029 A 
ATOM     55  N   UNL A   1      45.144  28.855  28.638  1.00  0.00    -0.354 N 
ATOM     56  C   UNL A   1      40.093  30.940  29.879  1.00  0.00     0.074 A 
ATOM     57  C   UNL A   1      39.296  29.881  29.314  1.00  0.00     0.031 C 
ATOM     58  C   UNL A   1      45.319  30.242  30.403  1.00  0.00     0.029 A 
ATOM     59  C   UNL A   1      46.009  29.801  29.225  1.00  0.00     0.049 A 
ATOM     60  H   UNL A   1      45.415  28.113  28.052  1.00  0.00     0.167 HD
ATOM     61  C   UNL A   1      39.868  31.956  30.767  1.00  0.00     0.034 A 
ATOM     62  C   UNL A   1      46.863  30.637  28.570  1.00  0.00     0.034 A 
ATOM     63  C   UNL A   1      41.063  32.831  30.953  1.00  0.00     0.049 A 
ATOM     64  C   UNL A   1      46.399  32.094  28.618  1.00  0.00     0.074 A 
ATOM     65  C   UNL A   1      41.695  33.387  32.055  1.00  0.00     0.029 A 
ATOM     66  N   UNL A   1      41.864  33.189  29.857  1.00  0.00    -0.354 N 
ATOM     67  N   UNL A   1      45.322  32.519  29.243  1.00  0.00    -0.248 NA
ATOM     68  C   UNL A   1      47.110  33.202  27.986  1.00  0.00     0.031 C 
ATOM     69  C   UNL A   1      42.888  34.019  31.622  1.00  0.00     0.029 A 
ATOM     70  C   UNL A   1      43.011  33.861  30.251  1.00  0.00     0.049 A 
ATOM     71  H   UNL A   1      41.638  32.988  28.920  1.00  0.00     0.167 HD
ATOM     72  C   UNL A   1      45.083  33.836  28.963  1.00  0.00     0.074 A 
ATOM     73  C   UNL A   1      46.291  34.236  28.255  1.00  0.00     0.031 C 
ATOM     74  C   UNL A   1      43.906  34.478  29.268  1.00  0.00     0.034 A 
BRANCH  61  75
ATOM     75  C   UNL A   1      38.601  32.104  31.655  1.00  0.00     0.023 A 
ATOM     76  C   UNL A   1      38.656  31.568  32.967  1.00  0.00     0.012 A 
ATOM     77  C   UNL A   1      37.328  32.621  31.284  1.00  0.00     0.148 A 
ATOM     78  C   UNL A   1      37.539  31.472  33.813  1.00  0.00     0.002 A 
ATOM     79  C   UNL A   1      36.233  32.617  32.169  1.00  0.00     0.091 A 
ATOM     80  F   UNL A   1      37.115  33.059  30.043  1.00  0.00    -0.205 F 
ATOM     81  C   UNL A   1      36.325  32.007  33.418  1.00  0.00     0.022 A 
BRANCH  79  82
ATOM     82  S   UNL A   1      34.648  33.401  31.788  1.00  0.00     0.127 S 
ATOM     83  O   UNL A   1      34.239  32.701  30.571  1.00  0.00    -0.237 OA
ATOM     84  O   UNL A   1      33.851  33.077  32.972  1.00  0.00    -0.237 OA
ATOM     85  O   UNL A   1      34.925  34.821  31.618  1.00  0.00    -0.744 OA
ENDBRANCH  79  82
ENDBRANCH  61  75
BRANCH  62  86
ATOM     86  C   UNL A   1      47.745  29.910  27.611  1.00  0.00     0.023 A 
ATOM     87  C   UNL A   1      48.657  29.033  28.252  1.00  0.00     0.012 A 
ATOM     88  C   UNL A   1      47.202  29.530  26.379  1.00  0.00     0.148 A 
ATOM     89  C   UNL A   1      48.766  27.702  27.842  1.00  0.00     0.002 A 
ATOM     90  C   UNL A   1      47.267  28.186  26.007  1.00  0.00     0.091 A 
ATOM     91  F   UNL A   1      46.460  30.421  25.708  1.00  0.00    -0.205 F 
ATOM     92  C   UNL A   1      48.010  27.261  26.761  1.00  0.00     0.022 A 
BRANCH  90  93
ATOM     93  S   UNL A   1      46.073  27.544  24.822  1.00  0.00     0.127 S 
ATOM     94  O   UNL A   1      46.484  28.187  23.582  1.00  0.00    -0.237 OA
ATOM     95  O   UNL A   1      46.303  26.102  24.885  1.00  0.00    -0.237 OA
ATOM     96  O   UNL A   1      44.789  27.957  25.377  1.00  0.00    -0.744 OA
ENDBRANCH  90  93
ENDBRANCH  62  86
BRANCH  74  97
ATOM     97  C   UNL A   1      43.461  35.801  28.650  1.00  0.00     0.023 A 
ATOM     98  C   UNL A   1      42.555  35.854  27.574  1.00  0.00     0.012 A 
ATOM     99  C   UNL A   1      43.799  37.050  29.246  1.00  0.00     0.148 A 
ATOM    100  C   UNL A   1      42.074  37.062  27.059  1.00  0.00     0.002 A 
ATOM    101  C   UNL A   1      43.227  38.240  28.806  1.00  0.00     0.091 A 
ATOM    102  F   UNL A   1      44.694  37.106  30.240  1.00  0.00    -0.205 F 
ATOM    103  C   UNL A   1      42.392  38.254  27.687  1.00  0.00     0.022 A 
BRANCH 101 104
ATOM    104  S   UNL A   1      43.400  39.775  29.730  1.00  0.00     0.127 S 
ATOM    105  O   UNL A   1      44.589  40.360  29.114  1.00  0.00    -0.237 OA
ATOM    106  O   UNL A   1      42.146  40.463  29.414  1.00  0.00    -0.237 OA
ATOM    107  O   UNL A   1      43.532  39.383  31.126  1.00  0.00    -0.744 OA
ENDBRANCH 101 104
ENDBRANCH  74  97
ENDBRANCH  48  49
ENDBRANCH  41  43
ENDBRANCH  40  41
ENDBRANCH  39  40
ENDBRANCH  38  39
ENDBRANCH  37  38
ENDBRANCH  36  37
ENDBRANCH  35  36
ENDBRANCH  34  35
ENDBRANCH   1  34
TORSDOF 29
ENDMDL
