MODEL 1
REMARK VINA RESULT:      -8.6      0.000      0.000
REMARK SMILES Cc1ccc2ncc(/C=C/c3cc(C(=O)OCCOCCOCCOCCOC(=O)c4ccc(-c5c6nc(c(-c7cccc(S(=O)(=O)[O-])c7F)c7ccc([nH]7)c(-c7cccc(S(=O)(=O)[O-])c7F)c7nc(c(-c8cccc(S(=O)(=O)[O-])c8F)c8ccc5[nH]8)C=C7)C=C6)cc4)ncn3)n2c1
REMARK SMILES IDX 23 1 22 2 21 3 20 4 19 5 18 6 17 7 16 8 14 9 15 10 13 11
REMARK SMILES IDX 11 12 12 13 96 14 95 15 94 16 10 17 9 18 8 19 1 20 2 21 3 22
REMARK SMILES IDX 98 23 4 24 97 25 5 26 6 27 7 28 24 29 25 30 26 31 27 32
REMARK SMILES IDX 28 33 29 34 30 35 31 36 32 37 93 38 33 39 92 40 34 41 35 42
REMARK SMILES IDX 36 43 86 44 37 45 91 46 85 47 87 48 38 49 90 50 84 51 83 52
REMARK SMILES IDX 39 54 71 55 51 56 70 57 52 58 55 59 69 60 88 61 53 62 54 63
REMARK SMILES IDX 68 65 89 66 56 67 40 68 41 69 49 70 42 71 44 72 50 73 43 74
REMARK SMILES IDX 45 75 46 76 47 77 48 78 72 79 73 80 81 81 74 82 76 83 82 84
REMARK SMILES IDX 75 85 77 86 78 87 79 88 80 89 57 90 58 91 66 92 59 93 61 94
REMARK SMILES IDX 67 95 60 96 62 97 63 98 64 99 65 100
REMARK H PARENT 87 53 55 64
REMARK Flexibility Score: inf
ROOT
ATOM      1  C   UNL A   1      36.108  32.787  33.006  1.00  0.00     0.188 C 
ENDROOT
BRANCH   1   2
ATOM      2  O   UNL A   1      37.337  32.904  33.715  1.00  0.00    -0.377 OA
BRANCH   2   3
ATOM      3  C   UNL A   1      37.591  31.944  34.712  1.00  0.00     0.188 C 
BRANCH   3   4
ATOM      4  C   UNL A   1      39.083  31.770  35.032  1.00  0.00     0.188 C 
BRANCH   4   5
ATOM      5  O   UNL A   1      40.031  32.305  34.135  1.00  0.00    -0.376 OA
BRANCH   5   6
ATOM      6  C   UNL A   1      40.879  33.417  34.378  1.00  0.00     0.202 C 
BRANCH   6   7
ATOM      7  C   UNL A   1      41.457  34.440  33.385  1.00  0.00     0.261 C 
BRANCH   7   8
ATOM      8  O   UNL A   1      40.955  34.427  32.061  1.00  0.00    -0.459 OA
BRANCH   8   9
ATOM      9  C   UNL A   1      41.698  33.793  31.135  1.00  0.00     0.357 C 
ATOM     10  O   UNL A   1      41.892  32.588  31.040  1.00  0.00    -0.244 OA
BRANCH   9  11
ATOM     11  C   UNL A   1      42.066  34.825  30.134  1.00  0.00     0.152 A 
ATOM     12  C   UNL A   1      43.432  36.544  29.377  1.00  0.00     0.067 A 
ATOM     13  C   UNL A   1      43.172  35.610  30.352  1.00  0.00     0.064 A 
ATOM     14  N   UNL A   1      42.591  36.794  28.354  1.00  0.00    -0.237 NA
ATOM     15  C   UNL A   1      41.513  36.002  28.274  1.00  0.00     0.223 A 
ATOM     16  N   UNL A   1      41.216  34.993  29.095  1.00  0.00    -0.229 NA
BRANCH  12  17
ATOM     17  C   UNL A   1      44.704  37.275  29.349  1.00  0.00     0.030 C 
ATOM     18  C   UNL A   1      44.781  38.447  28.701  1.00  0.00     0.030 C 
BRANCH  18  19
ATOM     19  C   UNL A   1      45.858  39.362  28.611  1.00  0.00     0.065 A 
ATOM     20  C   UNL A   1      49.848  36.835  26.852  1.00  0.00     0.046 C 
ATOM     21  C   UNL A   1      49.123  38.024  27.398  1.00  0.00    -0.034 A 
ATOM     22  C   UNL A   1      49.842  39.277  27.578  1.00  0.00     0.009 A 
ATOM     23  C   UNL A   1      47.821  37.976  27.742  1.00  0.00     0.096 A 
ATOM     24  C   UNL A   1      49.231  40.372  28.061  1.00  0.00     0.048 A 
ATOM     25  N   UNL A   1      47.167  39.119  28.215  1.00  0.00    -0.300 N 
ATOM     26  C   UNL A   1      47.850  40.330  28.390  1.00  0.00     0.137 A 
ATOM     27  N   UNL A   1      47.077  41.277  28.865  1.00  0.00    -0.236 NA
ATOM     28  C   UNL A   1      45.856  40.693  29.006  1.00  0.00     0.140 A 
ENDBRANCH  18  19
ENDBRANCH  12  17
ENDBRANCH   9  11
ENDBRANCH   8   9
ENDBRANCH   7   8
ENDBRANCH   6   7
ENDBRANCH   5   6
ENDBRANCH   4   5
ENDBRANCH   3   4
ENDBRANCH   2   3
ENDBRANCH   1   2
BRANCH   1  29
ATOM     29  C   UNL A   1      34.809  33.463  33.507  1.00  0.00     0.188 C 
BRANCH  29  30
ATOM     30  O   UNL A   1      33.889  33.741  32.460  1.00  0.00    -0.376 OA
BRANCH  30  31
ATOM     31  C   UNL A   1      34.363  34.518  31.370  1.00  0.00     0.202 C 
BRANCH  31  32
ATOM     32  C   UNL A   1      34.224  33.915  29.960  1.00  0.00     0.261 C 
BRANCH  32  33
ATOM     33  O   UNL A   1      34.733  32.574  29.847  1.00  0.00    -0.460 OA
BRANCH  33  34
ATOM     34  C   UNL A   1      35.369  32.190  28.715  1.00  0.00     0.338 C 
ATOM     35  O   UNL A   1      35.219  32.662  27.604  1.00  0.00    -0.246 OA
BRANCH  34  36
ATOM     36  C   UNL A   1      36.526  31.367  29.168  1.00  0.00     0.060 A 
ATOM     37  C   UNL A   1      37.649  31.944  29.773  1.00  0.00     0.016 A 
ATOM     38  C   UNL A   1      36.591  30.062  28.659  1.00  0.00     0.016 A 
ATOM     39  C   UNL A   1      38.864  31.253  29.744  1.00  0.00     0.010 A 
ATOM     40  C   UNL A   1      37.814  29.393  28.603  1.00  0.00     0.010 A 
ATOM     41  C   UNL A   1      38.965  30.003  29.100  1.00  0.00    -0.014 A 
BRANCH  41  42
ATOM     42  C   UNL A   1      40.238  29.268  29.202  1.00  0.00     0.031 A 
ATOM     43  C   UNL A   1      40.554  28.924  30.617  1.00  0.00     0.074 A 
ATOM     44  C   UNL A   1      40.996  28.761  28.202  1.00  0.00     0.049 A 
ATOM     45  N   UNL A   1      41.548  29.322  31.342  1.00  0.00    -0.248 NA
ATOM     46  C   UNL A   1      39.527  28.165  31.351  1.00  0.00     0.031 C 
ATOM     47  C   UNL A   1      40.674  28.701  26.777  1.00  0.00     0.029 A 
ATOM     48  N   UNL A   1      42.185  28.075  28.271  1.00  0.00    -0.354 N 
ATOM     49  C   UNL A   1      41.373  28.687  32.570  1.00  0.00     0.074 A 
ATOM     50  C   UNL A   1      40.039  28.144  32.578  1.00  0.00     0.031 C 
ATOM     51  C   UNL A   1      41.533  27.864  26.152  1.00  0.00     0.029 A 
ATOM     52  C   UNL A   1      42.503  27.364  27.108  1.00  0.00     0.049 A 
ATOM     53  H   UNL A   1      42.763  28.083  29.067  1.00  0.00     0.167 HD
ATOM     54  C   UNL A   1      42.401  28.432  33.419  1.00  0.00     0.034 A 
ATOM     55  C   UNL A   1      43.421  26.367  26.972  1.00  0.00     0.034 A 
ATOM     56  C   UNL A   1      43.579  29.184  33.111  1.00  0.00     0.049 A 
ATOM     57  C   UNL A   1      44.362  26.480  28.108  1.00  0.00     0.074 A 
ATOM     58  C   UNL A   1      43.901  30.524  33.054  1.00  0.00     0.029 A 
ATOM     59  N   UNL A   1      44.578  28.524  32.442  1.00  0.00    -0.354 N 
ATOM     60  N   UNL A   1      45.197  27.466  28.269  1.00  0.00    -0.248 NA
ATOM     61  C   UNL A   1      44.105  25.667  29.284  1.00  0.00     0.031 C 
ATOM     62  C   UNL A   1      44.813  30.639  31.967  1.00  0.00     0.029 A 
ATOM     63  C   UNL A   1      45.024  29.358  31.453  1.00  0.00     0.049 A 
ATOM     64  H   UNL A   1      44.913  27.619  32.637  1.00  0.00     0.167 HD
ATOM     65  C   UNL A   1      45.220  27.669  29.640  1.00  0.00     0.074 A 
ATOM     66  C   UNL A   1      44.608  26.476  30.217  1.00  0.00     0.031 C 
ATOM     67  C   UNL A   1      45.472  28.904  30.157  1.00  0.00     0.034 A 
BRANCH  54  68
ATOM     68  C   UNL A   1      42.430  27.230  34.319  1.00  0.00     0.023 A 
ATOM     69  C   UNL A   1      41.873  27.336  35.606  1.00  0.00     0.012 A 
ATOM     70  C   UNL A   1      43.200  26.078  34.029  1.00  0.00     0.148 A 
ATOM     71  C   UNL A   1      42.062  26.331  36.560  1.00  0.00     0.002 A 
ATOM     72  C   UNL A   1      43.317  25.048  34.951  1.00  0.00     0.091 A 
ATOM     73  F   UNL A   1      43.925  26.034  32.905  1.00  0.00    -0.205 F 
ATOM     74  C   UNL A   1      42.767  25.177  36.226  1.00  0.00     0.022 A 
BRANCH  72  75
ATOM     75  S   UNL A   1      44.181  23.525  34.551  1.00  0.00     0.127 S 
ATOM     76  O   UNL A   1      43.302  22.948  33.538  1.00  0.00    -0.237 OA
ATOM     77  O   UNL A   1      45.460  24.029  34.051  1.00  0.00    -0.237 OA
ATOM     78  O   UNL A   1      44.279  22.795  35.809  1.00  0.00    -0.744 OA
ENDBRANCH  72  75
ENDBRANCH  54  68
BRANCH  55  79
ATOM     79  C   UNL A   1      43.412  25.140  26.117  1.00  0.00     0.023 A 
ATOM     80  C   UNL A   1      44.425  24.958  25.146  1.00  0.00     0.012 A 
ATOM     81  C   UNL A   1      42.619  24.019  26.442  1.00  0.00     0.148 A 
ATOM     82  C   UNL A   1      44.675  23.701  24.573  1.00  0.00     0.002 A 
ATOM     83  C   UNL A   1      42.861  22.775  25.860  1.00  0.00     0.091 A 
ATOM     84  F   UNL A   1      41.690  24.133  27.397  1.00  0.00    -0.205 F 
ATOM     85  C   UNL A   1      43.900  22.607  24.940  1.00  0.00     0.022 A 
BRANCH  83  86
ATOM     86  S   UNL A   1      41.898  21.324  26.308  1.00  0.00     0.127 S 
ATOM     87  O   UNL A   1      42.486  20.288  25.458  1.00  0.00    -0.237 OA
ATOM     88  O   UNL A   1      42.194  21.191  27.731  1.00  0.00    -0.237 OA
ATOM     89  O   UNL A   1      40.517  21.652  25.974  1.00  0.00    -0.744 OA
ENDBRANCH  83  86
ENDBRANCH  55  79
BRANCH  67  90
ATOM     90  C   UNL A   1      46.019  29.962  29.238  1.00  0.00     0.023 A 
ATOM     91  C   UNL A   1      47.395  30.078  28.952  1.00  0.00     0.012 A 
ATOM     92  C   UNL A   1      45.097  30.719  28.498  1.00  0.00     0.148 A 
ATOM     93  C   UNL A   1      47.839  30.933  27.939  1.00  0.00     0.002 A 
ATOM     94  C   UNL A   1      45.539  31.534  27.466  1.00  0.00     0.091 A 
ATOM     95  F   UNL A   1      43.794  30.586  28.789  1.00  0.00    -0.205 F 
ATOM     96  C   UNL A   1      46.910  31.647  27.184  1.00  0.00     0.022 A 
BRANCH  94  97
ATOM     97  S   UNL A   1      44.397  32.394  26.384  1.00  0.00     0.127 S 
ATOM     98  O   UNL A   1      43.929  33.484  27.238  1.00  0.00    -0.237 OA
ATOM     99  O   UNL A   1      45.272  32.808  25.286  1.00  0.00    -0.237 OA
ATOM    100  O   UNL A   1      43.380  31.421  26.008  1.00  0.00    -0.744 OA
ENDBRANCH  94  97
ENDBRANCH  67  90
ENDBRANCH  41  42
ENDBRANCH  34  36
ENDBRANCH  33  34
ENDBRANCH  32  33
ENDBRANCH  31  32
ENDBRANCH  30  31
ENDBRANCH  29  30
ENDBRANCH   1  29
TORSDOF 25
ENDMDL
MODEL 2
REMARK VINA RESULT:      -8.3      2.293      2.994
REMARK SMILES Cc1ccc2ncc(/C=C/c3cc(C(=O)OCCOCCOCCOCCOC(=O)c4ccc(-c5c6nc(c(-c7cccc(S(=O)(=O)[O-])c7F)c7ccc([nH]7)c(-c7cccc(S(=O)(=O)[O-])c7F)c7nc(c(-c8cccc(S(=O)(=O)[O-])c8F)c8ccc5[nH]8)C=C7)C=C6)cc4)ncn3)n2c1
REMARK SMILES IDX 23 1 22 2 21 3 20 4 19 5 18 6 17 7 16 8 14 9 15 10 13 11
REMARK SMILES IDX 11 12 12 13 96 14 95 15 94 16 10 17 9 18 8 19 1 20 2 21 3 22
REMARK SMILES IDX 98 23 4 24 97 25 5 26 6 27 7 28 24 29 25 30 26 31 27 32
REMARK SMILES IDX 28 33 29 34 30 35 31 36 32 37 93 38 33 39 92 40 34 41 35 42
REMARK SMILES IDX 36 43 86 44 37 45 91 46 85 47 87 48 38 49 90 50 84 51 83 52
REMARK SMILES IDX 39 54 71 55 51 56 70 57 52 58 55 59 69 60 88 61 53 62 54 63
REMARK SMILES IDX 68 65 89 66 56 67 40 68 41 69 49 70 42 71 44 72 50 73 43 74
REMARK SMILES IDX 45 75 46 76 47 77 48 78 72 79 73 80 81 81 74 82 76 83 82 84
REMARK SMILES IDX 75 85 77 86 78 87 79 88 80 89 57 90 58 91 66 92 59 93 61 94
REMARK SMILES IDX 67 95 60 96 62 97 63 98 64 99 65 100
REMARK H PARENT 87 53 55 64
REMARK Flexibility Score: inf
ROOT
ATOM      1  C   UNL A   1      36.673  32.937  33.411  1.00  0.00     0.188 C 
ENDROOT
BRANCH   1   2
ATOM      2  O   UNL A   1      36.718  31.548  33.100  1.00  0.00    -0.377 OA
BRANCH   2   3
ATOM      3  C   UNL A   1      37.924  30.874  33.368  1.00  0.00     0.188 C 
BRANCH   3   4
ATOM      4  C   UNL A   1      38.564  31.269  34.708  1.00  0.00     0.188 C 
BRANCH   4   5
ATOM      5  O   UNL A   1      39.857  31.832  34.696  1.00  0.00    -0.376 OA
BRANCH   5   6
ATOM      6  C   UNL A   1      40.428  32.595  33.643  1.00  0.00     0.202 C 
BRANCH   6   7
ATOM      7  C   UNL A   1      40.502  34.122  33.474  1.00  0.00     0.261 C 
BRANCH   7   8
ATOM      8  O   UNL A   1      41.121  34.869  34.506  1.00  0.00    -0.459 OA
BRANCH   8   9
ATOM      9  C   UNL A   1      42.442  34.684  34.682  1.00  0.00     0.357 C 
ATOM     10  O   UNL A   1      42.990  33.760  35.268  1.00  0.00    -0.244 OA
BRANCH   9  11
ATOM     11  C   UNL A   1      43.110  35.715  33.847  1.00  0.00     0.152 A 
ATOM     12  C   UNL A   1      43.445  37.920  33.201  1.00  0.00     0.067 A 
ATOM     13  C   UNL A   1      42.784  37.037  34.022  1.00  0.00     0.064 A 
ATOM     14  N   UNL A   1      44.240  37.527  32.186  1.00  0.00    -0.237 NA
ATOM     15  C   UNL A   1      44.441  36.207  32.075  1.00  0.00     0.223 A 
ATOM     16  N   UNL A   1      43.944  35.266  32.881  1.00  0.00    -0.229 NA
BRANCH  12  17
ATOM     17  C   UNL A   1      43.387  39.366  33.441  1.00  0.00     0.030 C 
ATOM     18  C   UNL A   1      43.389  40.212  32.399  1.00  0.00     0.030 C 
BRANCH  18  19
ATOM     19  C   UNL A   1      43.254  41.622  32.378  1.00  0.00     0.065 A 
ATOM     20  C   UNL A   1      47.211  43.559  34.824  1.00  0.00     0.046 C 
ATOM     21  C   UNL A   1      45.903  43.606  34.101  1.00  0.00    -0.034 A 
ATOM     22  C   UNL A   1      45.263  44.892  33.865  1.00  0.00     0.009 A 
ATOM     23  C   UNL A   1      45.285  42.492  33.662  1.00  0.00     0.096 A 
ATOM     24  C   UNL A   1      44.090  44.983  33.216  1.00  0.00     0.048 A 
ATOM     25  N   UNL A   1      44.079  42.577  32.956  1.00  0.00    -0.300 N 
ATOM     26  C   UNL A   1      43.456  43.810  32.724  1.00  0.00     0.137 A 
ATOM     27  N   UNL A   1      42.327  43.687  32.070  1.00  0.00    -0.236 NA
ATOM     28  C   UNL A   1      42.193  42.349  31.856  1.00  0.00     0.140 A 
ENDBRANCH  18  19
ENDBRANCH  12  17
ENDBRANCH   9  11
ENDBRANCH   8   9
ENDBRANCH   7   8
ENDBRANCH   6   7
ENDBRANCH   5   6
ENDBRANCH   4   5
ENDBRANCH   3   4
ENDBRANCH   2   3
ENDBRANCH   1   2
BRANCH   1  29
ATOM     29  C   UNL A   1      35.336  33.709  33.506  1.00  0.00     0.188 C 
BRANCH  29  30
ATOM     30  O   UNL A   1      35.122  34.586  32.408  1.00  0.00    -0.376 OA
BRANCH  30  31
ATOM     31  C   UNL A   1      34.111  34.225  31.479  1.00  0.00     0.202 C 
BRANCH  31  32
ATOM     32  C   UNL A   1      34.446  34.360  29.982  1.00  0.00     0.261 C 
BRANCH  32  33
ATOM     33  O   UNL A   1      35.586  33.586  29.569  1.00  0.00    -0.460 OA
BRANCH  33  34
ATOM     34  C   UNL A   1      35.401  32.375  28.992  1.00  0.00     0.338 C 
ATOM     35  O   UNL A   1      34.628  32.111  28.091  1.00  0.00    -0.246 OA
BRANCH  34  36
ATOM     36  C   UNL A   1      36.572  31.553  29.410  1.00  0.00     0.060 A 
ATOM     37  C   UNL A   1      37.750  32.138  29.889  1.00  0.00     0.016 A 
ATOM     38  C   UNL A   1      36.571  30.217  28.983  1.00  0.00     0.016 A 
ATOM     39  C   UNL A   1      38.944  31.417  29.815  1.00  0.00     0.010 A 
ATOM     40  C   UNL A   1      37.772  29.515  28.879  1.00  0.00     0.010 A 
ATOM     41  C   UNL A   1      38.970  30.126  29.247  1.00  0.00    -0.014 A 
BRANCH  41  42
ATOM     42  C   UNL A   1      40.232  29.367  29.301  1.00  0.00     0.031 A 
ATOM     43  C   UNL A   1      40.595  29.017  30.703  1.00  0.00     0.074 A 
ATOM     44  C   UNL A   1      40.942  28.846  28.273  1.00  0.00     0.049 A 
ATOM     45  N   UNL A   1      41.623  29.396  31.390  1.00  0.00    -0.248 NA
ATOM     46  C   UNL A   1      39.583  28.277  31.475  1.00  0.00     0.031 C 
ATOM     47  C   UNL A   1      40.565  28.794  26.861  1.00  0.00     0.029 A 
ATOM     48  N   UNL A   1      42.120  28.138  28.297  1.00  0.00    -0.354 N 
ATOM     49  C   UNL A   1      41.483  28.763  32.623  1.00  0.00     0.074 A 
ATOM     50  C   UNL A   1      40.141  28.246  32.682  1.00  0.00     0.031 C 
ATOM     51  C   UNL A   1      41.384  27.941  26.204  1.00  0.00     0.029 A 
ATOM     52  C   UNL A   1      42.380  27.422  27.123  1.00  0.00     0.049 A 
ATOM     53  H   UNL A   1      42.728  28.134  29.071  1.00  0.00     0.167 HD
ATOM     54  C   UNL A   1      42.538  28.489  33.433  1.00  0.00     0.034 A 
ATOM     55  C   UNL A   1      43.273  26.408  26.952  1.00  0.00     0.034 A 
ATOM     56  C   UNL A   1      43.718  29.218  33.080  1.00  0.00     0.049 A 
ATOM     57  C   UNL A   1      44.258  26.502  28.051  1.00  0.00     0.074 A 
ATOM     58  C   UNL A   1      44.062  30.552  33.011  1.00  0.00     0.029 A 
ATOM     59  N   UNL A   1      44.678  28.540  32.374  1.00  0.00    -0.354 N 
ATOM     60  N   UNL A   1      45.117  27.472  28.180  1.00  0.00    -0.248 NA
ATOM     61  C   UNL A   1      44.031  25.694  29.236  1.00  0.00     0.031 C 
ATOM     62  C   UNL A   1      44.934  30.650  31.890  1.00  0.00     0.029 A 
ATOM     63  C   UNL A   1      45.101  29.366  31.368  1.00  0.00     0.049 A 
ATOM     64  H   UNL A   1      45.003  27.629  32.556  1.00  0.00     0.167 HD
ATOM     65  C   UNL A   1      45.196  27.675  29.549  1.00  0.00     0.074 A 
ATOM     66  C   UNL A   1      44.585  26.493  30.150  1.00  0.00     0.031 C 
ATOM     67  C   UNL A   1      45.491  28.904  30.057  1.00  0.00     0.034 A 
BRANCH  54  68
ATOM     68  C   UNL A   1      42.578  27.285  34.331  1.00  0.00     0.023 A 
ATOM     69  C   UNL A   1      42.048  27.394  35.629  1.00  0.00     0.012 A 
ATOM     70  C   UNL A   1      43.336  26.129  34.026  1.00  0.00     0.148 A 
ATOM     71  C   UNL A   1      42.250  26.387  36.578  1.00  0.00     0.002 A 
ATOM     72  C   UNL A   1      43.466  25.098  34.944  1.00  0.00     0.091 A 
ATOM     73  F   UNL A   1      44.038  26.083  32.887  1.00  0.00    -0.205 F 
ATOM     74  C   UNL A   1      42.942  25.229  36.230  1.00  0.00     0.022 A 
BRANCH  72  75
ATOM     75  S   UNL A   1      44.314  23.571  34.526  1.00  0.00     0.127 S 
ATOM     76  O   UNL A   1      44.088  22.774  35.728  1.00  0.00    -0.237 OA
ATOM     77  O   UNL A   1      43.575  23.133  33.342  1.00  0.00    -0.237 OA
ATOM     78  O   UNL A   1      45.693  23.956  34.258  1.00  0.00    -0.744 OA
ENDBRANCH  72  75
ENDBRANCH  54  68
BRANCH  55  79
ATOM     79  C   UNL A   1      43.209  25.182  26.098  1.00  0.00     0.023 A 
ATOM     80  C   UNL A   1      44.184  24.978  25.094  1.00  0.00     0.012 A 
ATOM     81  C   UNL A   1      42.402  24.078  26.450  1.00  0.00     0.148 A 
ATOM     82  C   UNL A   1      44.387  23.716  24.514  1.00  0.00     0.002 A 
ATOM     83  C   UNL A   1      42.597  22.830  25.861  1.00  0.00     0.091 A 
ATOM     84  F   UNL A   1      41.508  24.213  27.435  1.00  0.00    -0.205 F 
ATOM     85  C   UNL A   1      43.601  22.639  24.906  1.00  0.00     0.022 A 
BRANCH  83  86
ATOM     86  S   UNL A   1      41.617  21.400  26.341  1.00  0.00     0.127 S 
ATOM     87  O   UNL A   1      41.720  21.431  27.800  1.00  0.00    -0.237 OA
ATOM     88  O   UNL A   1      40.301  21.742  25.811  1.00  0.00    -0.237 OA
ATOM     89  O   UNL A   1      42.272  20.253  25.724  1.00  0.00    -0.744 OA
ENDBRANCH  83  86
ENDBRANCH  55  79
BRANCH  67  90
ATOM     90  C   UNL A   1      46.023  29.952  29.117  1.00  0.00     0.023 A 
ATOM     91  C   UNL A   1      47.392  30.054  28.794  1.00  0.00     0.012 A 
ATOM     92  C   UNL A   1      45.088  30.713  28.398  1.00  0.00     0.148 A 
ATOM     93  C   UNL A   1      47.816  30.899  27.764  1.00  0.00     0.002 A 
ATOM     94  C   UNL A   1      45.510  31.518  27.349  1.00  0.00     0.091 A 
ATOM     95  F   UNL A   1      43.792  30.593  28.724  1.00  0.00    -0.205 F 
ATOM     96  C   UNL A   1      46.873  31.617  27.031  1.00  0.00     0.022 A 
BRANCH  94  97
ATOM     97  S   UNL A   1      44.347  32.383  26.293  1.00  0.00     0.127 S 
ATOM     98  O   UNL A   1      45.188  32.767  25.162  1.00  0.00    -0.237 OA
ATOM     99  O   UNL A   1      43.366  31.336  26.000  1.00  0.00    -0.237 OA
ATOM    100  O   UNL A   1      43.825  33.491  27.082  1.00  0.00    -0.744 OA
ENDBRANCH  94  97
ENDBRANCH  67  90
ENDBRANCH  41  42
ENDBRANCH  34  36
ENDBRANCH  33  34
ENDBRANCH  32  33
ENDBRANCH  31  32
ENDBRANCH  30  31
ENDBRANCH  29  30
ENDBRANCH   1  29
TORSDOF 25
ENDMDL
MODEL 3
REMARK VINA RESULT:      -8.3      4.912      8.924
REMARK SMILES Cc1ccc2ncc(/C=C/c3cc(C(=O)OCCOCCOCCOCCOC(=O)c4ccc(-c5c6nc(c(-c7cccc(S(=O)(=O)[O-])c7F)c7ccc([nH]7)c(-c7cccc(S(=O)(=O)[O-])c7F)c7nc(c(-c8cccc(S(=O)(=O)[O-])c8F)c8ccc5[nH]8)C=C7)C=C6)cc4)ncn3)n2c1
REMARK SMILES IDX 23 1 22 2 21 3 20 4 19 5 18 6 17 7 16 8 14 9 15 10 13 11
REMARK SMILES IDX 11 12 12 13 96 14 95 15 94 16 10 17 9 18 8 19 1 20 2 21 3 22
REMARK SMILES IDX 98 23 4 24 97 25 5 26 6 27 7 28 24 29 25 30 26 31 27 32
REMARK SMILES IDX 28 33 29 34 30 35 31 36 32 37 93 38 33 39 92 40 34 41 35 42
REMARK SMILES IDX 36 43 86 44 37 45 91 46 85 47 87 48 38 49 90 50 84 51 83 52
REMARK SMILES IDX 39 54 71 55 51 56 70 57 52 58 55 59 69 60 88 61 53 62 54 63
REMARK SMILES IDX 68 65 89 66 56 67 40 68 41 69 49 70 42 71 44 72 50 73 43 74
REMARK SMILES IDX 45 75 46 76 47 77 48 78 72 79 73 80 81 81 74 82 76 83 82 84
REMARK SMILES IDX 75 85 77 86 78 87 79 88 80 89 57 90 58 91 66 92 59 93 61 94
REMARK SMILES IDX 67 95 60 96 62 97 63 98 64 99 65 100
REMARK H PARENT 87 53 55 64
REMARK Flexibility Score: inf
ROOT
ATOM      1  C   UNL A   1      36.470  33.009  33.485  1.00  0.00     0.188 C 
ENDROOT
BRANCH   1   2
ATOM      2  O   UNL A   1      36.802  31.649  33.224  1.00  0.00    -0.377 OA
BRANCH   2   3
ATOM      3  C   UNL A   1      38.086  31.221  33.609  1.00  0.00     0.188 C 
BRANCH   3   4
ATOM      4  C   UNL A   1      38.157  30.717  35.058  1.00  0.00     0.188 C 
BRANCH   4   5
ATOM      5  O   UNL A   1      38.755  31.545  36.030  1.00  0.00    -0.376 OA
BRANCH   5   6
ATOM      6  C   UNL A   1      38.169  32.692  36.629  1.00  0.00     0.202 C 
BRANCH   6   7
ATOM      7  C   UNL A   1      37.791  32.939  38.099  1.00  0.00     0.261 C 
BRANCH   7   8
ATOM      8  O   UNL A   1      36.569  32.396  38.565  1.00  0.00    -0.459 OA
BRANCH   8   9
ATOM      9  C   UNL A   1      36.638  31.229  39.231  1.00  0.00     0.357 C 
ATOM     10  O   UNL A   1      36.979  30.142  38.786  1.00  0.00    -0.244 OA
BRANCH   9  11
ATOM     11  C   UNL A   1      36.414  31.564  40.660  1.00  0.00     0.152 A 
ATOM     12  C   UNL A   1      35.207  32.599  42.353  1.00  0.00     0.067 A 
ATOM     13  C   UNL A   1      35.331  32.332  41.010  1.00  0.00     0.064 A 
ATOM     14  N   UNL A   1      36.152  32.275  43.258  1.00  0.00    -0.237 NA
ATOM     15  C   UNL A   1      37.195  31.574  42.792  1.00  0.00     0.223 A 
ATOM     16  N   UNL A   1      37.366  31.162  41.534  1.00  0.00    -0.229 NA
BRANCH  12  17
ATOM     17  C   UNL A   1      33.979  33.189  42.898  1.00  0.00     0.030 C 
ATOM     18  C   UNL A   1      33.012  33.597  42.063  1.00  0.00     0.030 C 
BRANCH  18  19
ATOM     19  C   UNL A   1      31.723  34.107  42.353  1.00  0.00     0.065 A 
ATOM     20  C   UNL A   1      32.331  38.630  44.491  1.00  0.00     0.046 C 
ATOM     21  C   UNL A   1      31.554  37.447  44.007  1.00  0.00    -0.034 A 
ATOM     22  C   UNL A   1      30.104  37.442  44.144  1.00  0.00     0.009 A 
ATOM     23  C   UNL A   1      32.150  36.374  43.452  1.00  0.00     0.096 A 
ATOM     24  C   UNL A   1      29.365  36.403  43.719  1.00  0.00     0.048 A 
ATOM     25  N   UNL A   1      31.387  35.301  42.977  1.00  0.00    -0.300 N 
ATOM     26  C   UNL A   1      29.992  35.287  43.103  1.00  0.00     0.137 A 
ATOM     27  N   UNL A   1      29.456  34.190  42.623  1.00  0.00    -0.236 NA
ATOM     28  C   UNL A   1      30.509  33.460  42.164  1.00  0.00     0.140 A 
ENDBRANCH  18  19
ENDBRANCH  12  17
ENDBRANCH   9  11
ENDBRANCH   8   9
ENDBRANCH   7   8
ENDBRANCH   6   7
ENDBRANCH   5   6
ENDBRANCH   4   5
ENDBRANCH   3   4
ENDBRANCH   2   3
ENDBRANCH   1   2
BRANCH   1  29
ATOM     29  C   UNL A   1      35.050  33.566  33.230  1.00  0.00     0.188 C 
BRANCH  29  30
ATOM     30  O   UNL A   1      35.012  34.531  32.186  1.00  0.00    -0.376 OA
BRANCH  30  31
ATOM     31  C   UNL A   1      34.013  34.368  31.191  1.00  0.00     0.202 C 
BRANCH  31  32
ATOM     32  C   UNL A   1      34.481  34.292  29.726  1.00  0.00     0.261 C 
BRANCH  32  33
ATOM     33  O   UNL A   1      35.677  33.514  29.537  1.00  0.00    -0.460 OA
BRANCH  33  34
ATOM     34  C   UNL A   1      35.635  32.392  28.780  1.00  0.00     0.338 C 
ATOM     35  O   UNL A   1      35.007  32.235  27.750  1.00  0.00    -0.246 OA
BRANCH  34  36
ATOM     36  C   UNL A   1      36.777  31.556  29.246  1.00  0.00     0.060 A 
ATOM     37  C   UNL A   1      37.905  32.120  29.854  1.00  0.00     0.016 A 
ATOM     38  C   UNL A   1      36.828  30.247  28.744  1.00  0.00     0.016 A 
ATOM     39  C   UNL A   1      39.110  31.414  29.838  1.00  0.00     0.010 A 
ATOM     40  C   UNL A   1      38.042  29.561  28.700  1.00  0.00     0.010 A 
ATOM     41  C   UNL A   1      39.198  30.158  29.201  1.00  0.00    -0.014 A 
BRANCH  41  42
ATOM     42  C   UNL A   1      40.460  29.407  29.316  1.00  0.00     0.031 A 
ATOM     43  C   UNL A   1      40.736  29.021  30.729  1.00  0.00     0.074 A 
ATOM     44  C   UNL A   1      41.239  28.919  28.322  1.00  0.00     0.049 A 
ATOM     45  N   UNL A   1      41.715  29.388  31.489  1.00  0.00    -0.248 NA
ATOM     46  C   UNL A   1      39.683  28.254  31.414  1.00  0.00     0.031 C 
ATOM     47  C   UNL A   1      40.954  28.902  26.888  1.00  0.00     0.029 A 
ATOM     48  N   UNL A   1      42.419  28.218  28.402  1.00  0.00    -0.354 N 
ATOM     49  C   UNL A   1      41.501  28.722  32.694  1.00  0.00     0.074 A 
ATOM     50  C   UNL A   1      40.162  28.194  32.653  1.00  0.00     0.031 C 
ATOM     51  C   UNL A   1      41.820  28.072  26.263  1.00  0.00     0.029 A 
ATOM     52  C   UNL A   1      42.760  27.536  27.229  1.00  0.00     0.049 A 
ATOM     53  H   UNL A   1      42.976  28.198  29.213  1.00  0.00     0.167 HD
ATOM     54  C   UNL A   1      42.505  28.433  33.562  1.00  0.00     0.034 A 
ATOM     55  C   UNL A   1      43.670  26.533  27.089  1.00  0.00     0.034 A 
ATOM     56  C   UNL A   1      43.698  29.180  33.305  1.00  0.00     0.049 A 
ATOM     57  C   UNL A   1      44.582  26.604  28.251  1.00  0.00     0.074 A 
ATOM     58  C   UNL A   1      44.035  30.518  33.294  1.00  0.00     0.029 A 
ATOM     59  N   UNL A   1      44.707  28.527  32.644  1.00  0.00    -0.354 N 
ATOM     60  N   UNL A   1      45.423  27.576  28.460  1.00  0.00    -0.248 NA
ATOM     61  C   UNL A   1      44.287  25.763  29.397  1.00  0.00     0.031 C 
ATOM     62  C   UNL A   1      44.976  30.652  32.234  1.00  0.00     0.029 A 
ATOM     63  C   UNL A   1      45.187  29.383  31.690  1.00  0.00     0.049 A 
ATOM     64  H   UNL A   1      45.027  27.614  32.823  1.00  0.00     0.167 HD
ATOM     65  C   UNL A   1      45.413  27.742  29.837  1.00  0.00     0.074 A 
ATOM     66  C   UNL A   1      44.774  26.541  30.365  1.00  0.00     0.031 C 
ATOM     67  C   UNL A   1      45.664  28.959  30.394  1.00  0.00     0.034 A 
BRANCH  54  68
ATOM     68  C   UNL A   1      42.498  27.206  34.429  1.00  0.00     0.023 A 
ATOM     69  C   UNL A   1      41.897  27.280  35.698  1.00  0.00     0.012 A 
ATOM     70  C   UNL A   1      43.273  26.059  34.135  1.00  0.00     0.148 A 
ATOM     71  C   UNL A   1      42.048  26.248  36.630  1.00  0.00     0.002 A 
ATOM     72  C   UNL A   1      43.354  25.004  35.031  1.00  0.00     0.091 A 
ATOM     73  F   UNL A   1      44.037  26.043  33.035  1.00  0.00    -0.205 F 
ATOM     74  C   UNL A   1      42.760  25.100  36.290  1.00  0.00     0.022 A 
BRANCH  72  75
ATOM     75  S   UNL A   1      44.226  23.488  34.620  1.00  0.00     0.127 S 
ATOM     76  O   UNL A   1      44.152  22.758  35.882  1.00  0.00    -0.237 OA
ATOM     77  O   UNL A   1      43.398  22.951  33.541  1.00  0.00    -0.237 OA
ATOM     78  O   UNL A   1      45.555  23.910  34.197  1.00  0.00    -0.744 OA
ENDBRANCH  72  75
ENDBRANCH  54  68
BRANCH  55  79
ATOM     79  C   UNL A   1      43.671  25.330  26.201  1.00  0.00     0.023 A 
ATOM     80  C   UNL A   1      44.722  25.150  25.270  1.00  0.00     0.012 A 
ATOM     81  C   UNL A   1      42.839  24.220  26.460  1.00  0.00     0.148 A 
ATOM     82  C   UNL A   1      44.967  23.903  24.674  1.00  0.00     0.002 A 
ATOM     83  C   UNL A   1      43.078  22.987  25.854  1.00  0.00     0.091 A 
ATOM     84  F   UNL A   1      41.871  24.331  27.376  1.00  0.00    -0.205 F 
ATOM     85  C   UNL A   1      44.152  22.818  24.975  1.00  0.00     0.022 A 
BRANCH  83  86
ATOM     86  S   UNL A   1      42.062  21.547  26.219  1.00  0.00     0.127 S 
ATOM     87  O   UNL A   1      42.675  20.517  25.381  1.00  0.00    -0.237 OA
ATOM     88  O   UNL A   1      42.279  21.380  27.653  1.00  0.00    -0.237 OA
ATOM     89  O   UNL A   1      40.709  21.912  25.819  1.00  0.00    -0.744 OA
ENDBRANCH  83  86
ENDBRANCH  55  79
BRANCH  67  90
ATOM     90  C   UNL A   1      46.246  30.036  29.519  1.00  0.00     0.023 A 
ATOM     91  C   UNL A   1      47.632  30.159  29.291  1.00  0.00     0.012 A 
ATOM     92  C   UNL A   1      45.352  30.806  28.758  1.00  0.00     0.148 A 
ATOM     93  C   UNL A   1      48.114  31.034  28.314  1.00  0.00     0.002 A 
ATOM     94  C   UNL A   1      45.834  31.642  27.760  1.00  0.00     0.091 A 
ATOM     95  F   UNL A   1      44.040  30.666  28.993  1.00  0.00    -0.205 F 
ATOM     96  C   UNL A   1      47.215  31.762  27.537  1.00  0.00     0.022 A 
BRANCH  94  97
ATOM     97  S   UNL A   1      44.735  32.522  26.650  1.00  0.00     0.127 S 
ATOM     98  O   UNL A   1      44.971  33.915  27.026  1.00  0.00    -0.237 OA
ATOM     99  O   UNL A   1      45.262  32.144  25.338  1.00  0.00    -0.237 OA
ATOM    100  O   UNL A   1      43.393  32.025  26.926  1.00  0.00    -0.744 OA
ENDBRANCH  94  97
ENDBRANCH  67  90
ENDBRANCH  41  42
ENDBRANCH  34  36
ENDBRANCH  33  34
ENDBRANCH  32  33
ENDBRANCH  31  32
ENDBRANCH  30  31
ENDBRANCH  29  30
ENDBRANCH   1  29
TORSDOF 25
ENDMDL
