MODEL 1
REMARK VINA RESULT:      -9.2      0.000      0.000
REMARK SMILES CCc1ccc(N2C(=O)/C(=C/c3cc(Cl)c(OCC(=O)OCCOCCOCCOCCOC(=O)c4ccc(-c5c6nc(c(-c7cccc(S(=O)(=O)[O-])c7F)c7ccc([nH]7)c(-c7cccc(S(=O)(=O)[O-])c7F)c7nc(c(-c8cccc(S(=O)(=O)[O-])c8F)c8ccc5[nH]8)C=C7)C=C6)cc4)c(Cl)c3)C(=O)NC2=S)cc1
REMARK SMILES IDX 26 1 25 2 24 3 23 4 22 5 21 6 19 7 20 8 18 9 17 10 16 11
REMARK SMILES IDX 12 12 13 13 101 14 14 15 99 16 15 17 100 18 11 19 7 20 8 21
REMARK SMILES IDX 105 22 9 23 10 24 104 25 106 26 102 27 103 29 6 30 3 31 4 32
REMARK SMILES IDX 108 33 5 34 107 35 2 36 1 37 27 38 28 39 29 40 30 41 31 42
REMARK SMILES IDX 32 43 33 44 34 45 35 46 36 47 37 48 98 49 38 50 97 51 39 52
REMARK SMILES IDX 40 53 41 54 91 55 42 56 96 57 90 58 92 59 43 60 95 61 89 62
REMARK SMILES IDX 88 63 44 65 76 66 56 67 75 68 57 69 60 70 74 71 93 72 58 73
REMARK SMILES IDX 59 74 73 76 94 77 61 78 45 79 46 80 54 81 47 82 49 83 55 84
REMARK SMILES IDX 48 85 50 86 51 87 52 88 53 89 77 90 78 91 86 92 79 93 81 94
REMARK SMILES IDX 87 95 80 96 82 97 83 98 84 99 85 100 62 101 63 102 71 103
REMARK SMILES IDX 64 104 66 105 72 106 65 107 67 108 68 109 69 110 70 111
REMARK H PARENT 104 28 92 64 60 75
REMARK Flexibility Score: inf
ROOT
ATOM      1  C   UNL A   1      36.733  34.189  34.792  1.00  0.00     0.188 C 
ENDROOT
BRANCH   1   2
ATOM      2  C   UNL A   1      38.199  34.682  34.617  1.00  0.00     0.188 C 
BRANCH   2   3
ATOM      3  O   UNL A   1      38.809  34.740  33.336  1.00  0.00    -0.376 OA
BRANCH   3   4
ATOM      4  C   UNL A   1      39.373  33.547  32.833  1.00  0.00     0.202 C 
BRANCH   4   5
ATOM      5  C   UNL A   1      38.884  33.074  31.443  1.00  0.00     0.261 C 
BRANCH   5   6
ATOM      6  O   UNL A   1      37.706  33.732  30.891  1.00  0.00    -0.461 OA
BRANCH   6   7
ATOM      7  C   UNL A   1      37.645  33.985  29.552  1.00  0.00     0.344 C 
ATOM      8  O   UNL A   1      38.637  34.210  28.865  1.00  0.00    -0.248 OA
BRANCH   7   9
ATOM      9  C   UNL A   1      36.170  33.985  28.952  1.00  0.00     0.352 C 
BRANCH   9  10
ATOM     10  O   UNL A   1      35.161  32.978  28.994  1.00  0.00    -0.479 OA
BRANCH  10  11
ATOM     11  C   UNL A   1      34.969  31.810  28.293  1.00  0.00     0.157 A 
ATOM     12  C   UNL A   1      33.914  29.253  27.282  1.00  0.00    -0.021 A 
ATOM     13  C   UNL A   1      33.193  30.457  27.192  1.00  0.00     0.032 A 
ATOM     14  C   UNL A   1      35.243  29.403  27.695  1.00  0.00     0.032 A 
ATOM     15  C   UNL A   1      33.690  31.685  27.708  1.00  0.00     0.085 A 
ATOM     16  C   UNL A   1      35.776  30.672  28.156  1.00  0.00     0.085 A 
ATOM     17  Cl  UNL A   1      32.595  33.033  27.657  1.00  0.00    -0.080 Cl
ATOM     18  Cl  UNL A   1      37.468  30.699  28.502  1.00  0.00    -0.080 Cl
BRANCH  12  19
ATOM     19  C   UNL A   1      33.128  27.998  26.961  1.00  0.00     0.028 C 
ATOM     20  N   UNL A   1      32.754  25.208  24.723  1.00  0.00    -0.253 N 
ATOM     21  C   UNL A   1      32.391  25.925  25.881  1.00  0.00     0.270 C 
ATOM     22  C   UNL A   1      32.853  25.806  23.461  1.00  0.00     0.187 C 
ATOM     23  O   UNL A   1      31.917  25.426  26.901  1.00  0.00    -0.268 OA
ATOM     24  C   UNL A   1      32.640  27.416  25.825  1.00  0.00     0.106 C 
ATOM     25  N   UNL A   1      32.671  27.172  23.438  1.00  0.00    -0.298 N 
ATOM     26  S   UNL A   1      33.057  25.056  21.963  1.00  0.00    -0.040 S 
ATOM     27  C   UNL A   1      32.492  28.033  24.494  1.00  0.00     0.263 C 
ATOM     28  H   UNL A   1      32.668  27.587  22.544  1.00  0.00     0.172 HD
ATOM     29  O   UNL A   1      32.239  29.219  24.330  1.00  0.00    -0.269 OA
BRANCH  20  30
ATOM     30  C   UNL A   1      32.812  23.776  24.816  1.00  0.00     0.052 A 
ATOM     31  C   UNL A   1      32.930  20.970  25.174  1.00  0.00    -0.048 A 
ATOM     32  C   UNL A   1      34.075  21.767  25.320  1.00  0.00     0.006 A 
ATOM     33  C   UNL A   1      31.722  21.596  24.834  1.00  0.00     0.006 A 
ATOM     34  C   UNL A   1      34.020  23.154  25.138  1.00  0.00     0.027 A 
ATOM     35  C   UNL A   1      31.657  22.992  24.674  1.00  0.00     0.027 A 
BRANCH  31  36
ATOM     36  C   UNL A   1      33.040  19.468  25.329  1.00  0.00     0.032 C 
ATOM     37  C   UNL A   1      32.428  18.658  24.193  1.00  0.00     0.009 C 
ENDBRANCH  31  36
ENDBRANCH  20  30
ENDBRANCH  12  19
ENDBRANCH  10  11
ENDBRANCH   9  10
ENDBRANCH   7   9
ENDBRANCH   6   7
ENDBRANCH   5   6
ENDBRANCH   4   5
ENDBRANCH   3   4
ENDBRANCH   2   3
ENDBRANCH   1   2
BRANCH   1  38
ATOM     38  O   UNL A   1      36.459  33.450  35.966  1.00  0.00    -0.377 OA
BRANCH  38  39
ATOM     39  C   UNL A   1      37.481  33.383  36.944  1.00  0.00     0.188 C 
BRANCH  39  40
ATOM     40  C   UNL A   1      38.232  32.054  37.028  1.00  0.00     0.188 C 
BRANCH  40  41
ATOM     41  O   UNL A   1      37.718  31.065  36.169  1.00  0.00    -0.376 OA
BRANCH  41  42
ATOM     42  C   UNL A   1      38.084  30.990  34.815  1.00  0.00     0.202 C 
BRANCH  42  43
ATOM     43  C   UNL A   1      38.277  29.674  34.056  1.00  0.00     0.261 C 
BRANCH  43  44
ATOM     44  O   UNL A   1      38.705  29.800  32.730  1.00  0.00    -0.460 OA
BRANCH  44  45
ATOM     45  C   UNL A   1      39.595  28.878  32.354  1.00  0.00     0.338 C 
ATOM     46  O   UNL A   1      39.509  27.667  32.429  1.00  0.00    -0.246 OA
BRANCH  45  47
ATOM     47  C   UNL A   1      40.618  29.656  31.709  1.00  0.00     0.060 A 
ATOM     48  C   UNL A   1      40.625  29.700  30.316  1.00  0.00     0.016 A 
ATOM     49  C   UNL A   1      41.430  30.454  32.520  1.00  0.00     0.016 A 
ATOM     50  C   UNL A   1      41.505  30.556  29.705  1.00  0.00     0.010 A 
ATOM     51  C   UNL A   1      42.319  31.300  31.907  1.00  0.00     0.010 A 
ATOM     52  C   UNL A   1      42.366  31.313  30.507  1.00  0.00    -0.014 A 
BRANCH  52  53
ATOM     53  C   UNL A   1      43.469  31.997  29.856  1.00  0.00     0.031 A 
ATOM     54  C   UNL A   1      44.705  31.202  29.617  1.00  0.00     0.074 A 
ATOM     55  C   UNL A   1      43.291  33.273  29.502  1.00  0.00     0.049 A 
ATOM     56  N   UNL A   1      45.818  31.569  29.058  1.00  0.00    -0.248 NA
ATOM     57  C   UNL A   1      44.689  29.799  30.080  1.00  0.00     0.031 C 
ATOM     58  C   UNL A   1      42.065  34.045  29.722  1.00  0.00     0.029 A 
ATOM     59  N   UNL A   1      44.140  34.141  28.891  1.00  0.00    -0.354 N 
ATOM     60  C   UNL A   1      46.648  30.460  29.129  1.00  0.00     0.074 A 
ATOM     61  C   UNL A   1      45.921  29.409  29.800  1.00  0.00     0.031 C 
ATOM     62  C   UNL A   1      42.246  35.287  29.249  1.00  0.00     0.029 A 
ATOM     63  C   UNL A   1      43.606  35.394  28.736  1.00  0.00     0.049 A 
ATOM     64  H   UNL A   1      45.045  33.895  28.593  1.00  0.00     0.167 HD
ATOM     65  C   UNL A   1      47.909  30.349  28.660  1.00  0.00     0.034 A 
ATOM     66  C   UNL A   1      44.189  36.496  28.242  1.00  0.00     0.034 A 
ATOM     67  C   UNL A   1      48.577  31.449  28.023  1.00  0.00     0.049 A 
ATOM     68  C   UNL A   1      45.603  36.356  27.759  1.00  0.00     0.074 A 
ATOM     69  C   UNL A   1      49.845  31.499  27.484  1.00  0.00     0.029 A 
ATOM     70  N   UNL A   1      48.017  32.713  27.865  1.00  0.00    -0.354 N 
ATOM     71  N   UNL A   1      46.367  35.286  27.751  1.00  0.00    -0.248 NA
ATOM     72  C   UNL A   1      46.227  37.553  27.194  1.00  0.00     0.031 C 
ATOM     73  C   UNL A   1      50.067  32.808  27.041  1.00  0.00     0.029 A 
ATOM     74  C   UNL A   1      48.917  33.561  27.254  1.00  0.00     0.049 A 
ATOM     75  H   UNL A   1      47.108  32.966  28.147  1.00  0.00     0.167 HD
ATOM     76  C   UNL A   1      47.557  35.668  27.150  1.00  0.00     0.074 A 
ATOM     77  C   UNL A   1      47.396  37.070  26.794  1.00  0.00     0.031 C 
ATOM     78  C   UNL A   1      48.681  34.945  26.913  1.00  0.00     0.034 A 
BRANCH  65  79
ATOM     79  C   UNL A   1      48.607  29.033  28.872  1.00  0.00     0.023 A 
ATOM     80  C   UNL A   1      49.387  28.818  30.030  1.00  0.00     0.012 A 
ATOM     81  C   UNL A   1      48.541  28.024  27.894  1.00  0.00     0.148 A 
ATOM     82  C   UNL A   1      50.132  27.648  30.182  1.00  0.00     0.002 A 
ATOM     83  C   UNL A   1      49.243  26.838  28.078  1.00  0.00     0.091 A 
ATOM     84  F   UNL A   1      47.830  28.256  26.783  1.00  0.00    -0.205 F 
ATOM     85  C   UNL A   1      50.053  26.655  29.211  1.00  0.00     0.022 A 
BRANCH  83  86
ATOM     86  S   UNL A   1      49.152  25.473  26.915  1.00  0.00     0.127 S 
ATOM     87  O   UNL A   1      47.713  25.207  26.884  1.00  0.00    -0.237 OA
ATOM     88  O   UNL A   1      49.687  26.077  25.695  1.00  0.00    -0.237 OA
ATOM     89  O   UNL A   1      49.971  24.410  27.477  1.00  0.00    -0.744 OA
ENDBRANCH  83  86
ENDBRANCH  65  79
BRANCH  66  90
ATOM     90  C   UNL A   1      43.408  37.756  28.135  1.00  0.00     0.023 A 
ATOM     91  C   UNL A   1      42.550  37.943  27.036  1.00  0.00     0.012 A 
ATOM     92  C   UNL A   1      43.437  38.721  29.161  1.00  0.00     0.148 A 
ATOM     93  C   UNL A   1      41.747  39.080  26.950  1.00  0.00     0.002 A 
ATOM     94  C   UNL A   1      42.599  39.828  29.093  1.00  0.00     0.091 A 
ATOM     95  F   UNL A   1      44.255  38.516  30.202  1.00  0.00    -0.205 F 
ATOM     96  C   UNL A   1      41.763  40.016  27.980  1.00  0.00     0.022 A 
BRANCH  94  97
ATOM     97  S   UNL A   1      42.458  41.020  30.429  1.00  0.00     0.127 S 
ATOM     98  O   UNL A   1      43.556  41.936  30.127  1.00  0.00    -0.237 OA
ATOM     99  O   UNL A   1      41.120  41.567  30.202  1.00  0.00    -0.237 OA
ATOM    100  O   UNL A   1      42.599  40.256  31.660  1.00  0.00    -0.744 OA
ENDBRANCH  94  97
ENDBRANCH  66  90
BRANCH  78 101
ATOM    101  C   UNL A   1      49.797  35.661  26.207  1.00  0.00     0.023 A 
ATOM    102  C   UNL A   1      49.962  35.512  24.816  1.00  0.00     0.012 A 
ATOM    103  C   UNL A   1      50.634  36.536  26.923  1.00  0.00     0.148 A 
ATOM    104  C   UNL A   1      50.977  36.198  24.154  1.00  0.00     0.002 A 
ATOM    105  C   UNL A   1      51.600  37.263  26.246  1.00  0.00     0.091 A 
ATOM    106  F   UNL A   1      50.463  36.644  28.250  1.00  0.00    -0.205 F 
ATOM    107  C   UNL A   1      51.784  37.083  24.865  1.00  0.00     0.022 A 
BRANCH 105 108
ATOM    108  S   UNL A   1      52.605  38.508  27.059  1.00  0.00     0.127 S 
ATOM    109  O   UNL A   1      53.389  39.030  25.942  1.00  0.00    -0.237 OA
ATOM    110  O   UNL A   1      51.591  39.428  27.578  1.00  0.00    -0.237 OA
ATOM    111  O   UNL A   1      53.367  37.806  28.082  1.00  0.00    -0.744 OA
ENDBRANCH 105 108
ENDBRANCH  78 101
ENDBRANCH  52  53
ENDBRANCH  45  47
ENDBRANCH  44  45
ENDBRANCH  43  44
ENDBRANCH  42  43
ENDBRANCH  41  42
ENDBRANCH  40  41
ENDBRANCH  39  40
ENDBRANCH  38  39
ENDBRANCH   1  38
TORSDOF 28
ENDMDL
MODEL 2
REMARK VINA RESULT:      -8.3      1.304      7.063
REMARK SMILES CCc1ccc(N2C(=O)/C(=C/c3cc(Cl)c(OCC(=O)OCCOCCOCCOCCOC(=O)c4ccc(-c5c6nc(c(-c7cccc(S(=O)(=O)[O-])c7F)c7ccc([nH]7)c(-c7cccc(S(=O)(=O)[O-])c7F)c7nc(c(-c8cccc(S(=O)(=O)[O-])c8F)c8ccc5[nH]8)C=C7)C=C6)cc4)c(Cl)c3)C(=O)NC2=S)cc1
REMARK SMILES IDX 26 1 25 2 24 3 23 4 22 5 21 6 19 7 20 8 18 9 17 10 16 11
REMARK SMILES IDX 12 12 13 13 101 14 14 15 99 16 15 17 100 18 11 19 7 20 8 21
REMARK SMILES IDX 105 22 9 23 10 24 104 25 106 26 102 27 103 29 6 30 3 31 4 32
REMARK SMILES IDX 108 33 5 34 107 35 2 36 1 37 27 38 28 39 29 40 30 41 31 42
REMARK SMILES IDX 32 43 33 44 34 45 35 46 36 47 37 48 98 49 38 50 97 51 39 52
REMARK SMILES IDX 40 53 41 54 91 55 42 56 96 57 90 58 92 59 43 60 95 61 89 62
REMARK SMILES IDX 88 63 44 65 76 66 56 67 75 68 57 69 60 70 74 71 93 72 58 73
REMARK SMILES IDX 59 74 73 76 94 77 61 78 45 79 46 80 54 81 47 82 49 83 55 84
REMARK SMILES IDX 48 85 50 86 51 87 52 88 53 89 77 90 78 91 86 92 79 93 81 94
REMARK SMILES IDX 87 95 80 96 82 97 83 98 84 99 85 100 62 101 63 102 71 103
REMARK SMILES IDX 64 104 66 105 72 106 65 107 67 108 68 109 69 110 70 111
REMARK H PARENT 104 28 92 64 60 75
REMARK Flexibility Score: inf
ROOT
ATOM      1  C   UNL A   1      37.270  34.206  34.891  1.00  0.00     0.188 C 
ENDROOT
BRANCH   1   2
ATOM      2  C   UNL A   1      38.741  34.711  34.825  1.00  0.00     0.188 C 
BRANCH   2   3
ATOM      3  O   UNL A   1      39.439  34.788  33.590  1.00  0.00    -0.376 OA
BRANCH   3   4
ATOM      4  C   UNL A   1      39.833  33.571  32.992  1.00  0.00     0.202 C 
BRANCH   4   5
ATOM      5  C   UNL A   1      39.503  33.389  31.492  1.00  0.00     0.261 C 
BRANCH   5   6
ATOM      6  O   UNL A   1      38.400  34.176  30.951  1.00  0.00    -0.461 OA
BRANCH   6   7
ATOM      7  C   UNL A   1      38.213  34.229  29.602  1.00  0.00     0.344 C 
ATOM      8  O   UNL A   1      39.112  34.488  28.808  1.00  0.00    -0.248 OA
BRANCH   7   9
ATOM      9  C   UNL A   1      36.716  33.946  29.137  1.00  0.00     0.352 C 
BRANCH   9  10
ATOM     10  O   UNL A   1      35.905  32.785  29.308  1.00  0.00    -0.479 OA
BRANCH  10  11
ATOM     11  C   UNL A   1      35.621  31.710  28.497  1.00  0.00     0.157 A 
ATOM     12  C   UNL A   1      34.374  29.346  27.262  1.00  0.00    -0.021 A 
ATOM     13  C   UNL A   1      33.736  30.598  27.310  1.00  0.00     0.032 A 
ATOM     14  C   UNL A   1      35.717  29.363  27.656  1.00  0.00     0.032 A 
ATOM     15  C   UNL A   1      34.327  31.731  27.934  1.00  0.00     0.085 A 
ATOM     16  C   UNL A   1      36.344  30.539  28.229  1.00  0.00     0.085 A 
ATOM     17  Cl  UNL A   1      33.327  33.148  28.044  1.00  0.00    -0.080 Cl
ATOM     18  Cl  UNL A   1      38.040  30.417  28.535  1.00  0.00    -0.080 Cl
BRANCH  12  19
ATOM     19  C   UNL A   1      33.497  28.185  26.836  1.00  0.00     0.028 C 
ATOM     20  N   UNL A   1      32.801  25.762  24.271  1.00  0.00    -0.253 N 
ATOM     21  C   UNL A   1      32.567  26.322  25.544  1.00  0.00     0.270 C 
ATOM     22  C   UNL A   1      32.839  26.528  23.100  1.00  0.00     0.187 C 
ATOM     23  O   UNL A   1      32.143  25.704  26.520  1.00  0.00    -0.268 OA
ATOM     24  C   UNL A   1      32.893  27.794  25.674  1.00  0.00     0.106 C 
ATOM     25  N   UNL A   1      32.731  27.891  23.282  1.00  0.00    -0.298 N 
ATOM     26  S   UNL A   1      32.888  25.991  21.501  1.00  0.00    -0.040 S 
ATOM     27  C   UNL A   1      32.681  28.600  24.458  1.00  0.00     0.263 C 
ATOM     28  H   UNL A   1      32.685  28.428  22.458  1.00  0.00     0.172 HD
ATOM     29  O   UNL A   1      32.483  29.807  24.481  1.00  0.00    -0.269 OA
BRANCH  20  30
ATOM     30  C   UNL A   1      32.786  24.330  24.161  1.00  0.00     0.052 A 
ATOM     31  C   UNL A   1      32.739  21.499  24.116  1.00  0.00    -0.048 A 
ATOM     32  C   UNL A   1      33.889  22.198  24.512  1.00  0.00     0.006 A 
ATOM     33  C   UNL A   1      31.611  22.239  23.730  1.00  0.00     0.006 A 
ATOM     34  C   UNL A   1      33.917  23.597  24.529  1.00  0.00     0.027 A 
ATOM     35  C   UNL A   1      31.626  23.644  23.768  1.00  0.00     0.027 A 
BRANCH  31  36
ATOM     36  C   UNL A   1      32.765  19.987  24.061  1.00  0.00     0.032 C 
ATOM     37  C   UNL A   1      33.235  19.305  25.340  1.00  0.00     0.009 C 
ENDBRANCH  31  36
ENDBRANCH  20  30
ENDBRANCH  12  19
ENDBRANCH  10  11
ENDBRANCH   9  10
ENDBRANCH   7   9
ENDBRANCH   6   7
ENDBRANCH   5   6
ENDBRANCH   4   5
ENDBRANCH   3   4
ENDBRANCH   2   3
ENDBRANCH   1   2
BRANCH   1  38
ATOM     38  O   UNL A   1      36.978  33.267  35.908  1.00  0.00    -0.377 OA
BRANCH  38  39
ATOM     39  C   UNL A   1      38.054  32.837  36.723  1.00  0.00     0.188 C 
BRANCH  39  40
ATOM     40  C   UNL A   1      38.539  31.407  36.482  1.00  0.00     0.188 C 
BRANCH  40  41
ATOM     41  O   UNL A   1      37.729  30.684  35.588  1.00  0.00    -0.376 OA
BRANCH  41  42
ATOM     42  C   UNL A   1      37.963  30.685  34.203  1.00  0.00     0.202 C 
BRANCH  42  43
ATOM     43  C   UNL A   1      38.686  29.557  33.460  1.00  0.00     0.261 C 
BRANCH  43  44
ATOM     44  O   UNL A   1      39.245  29.909  32.227  1.00  0.00    -0.460 OA
BRANCH  44  45
ATOM     45  C   UNL A   1      40.023  28.965  31.691  1.00  0.00     0.338 C 
ATOM     46  O   UNL A   1      39.827  27.765  31.630  1.00  0.00    -0.246 OA
BRANCH  45  47
ATOM     47  C   UNL A   1      41.080  29.722  31.079  1.00  0.00     0.060 A 
ATOM     48  C   UNL A   1      41.136  29.759  29.686  1.00  0.00     0.016 A 
ATOM     49  C   UNL A   1      41.878  30.510  31.913  1.00  0.00     0.016 A 
ATOM     50  C   UNL A   1      42.050  30.598  29.101  1.00  0.00     0.010 A 
ATOM     51  C   UNL A   1      42.802  31.338  31.327  1.00  0.00     0.010 A 
ATOM     52  C   UNL A   1      42.897  31.343  29.929  1.00  0.00    -0.014 A 
BRANCH  52  53
ATOM     53  C   UNL A   1      44.033  32.005  29.313  1.00  0.00     0.031 A 
ATOM     54  C   UNL A   1      43.890  33.458  29.026  1.00  0.00     0.074 A 
ATOM     55  C   UNL A   1      45.125  31.273  29.070  1.00  0.00     0.049 A 
ATOM     56  N   UNL A   1      44.747  34.274  28.491  1.00  0.00    -0.248 NA
ATOM     57  C   UNL A   1      42.598  34.079  29.385  1.00  0.00     0.031 C 
ATOM     58  C   UNL A   1      45.267  29.846  29.373  1.00  0.00     0.029 A 
ATOM     59  N   UNL A   1      46.311  31.626  28.509  1.00  0.00    -0.354 N 
ATOM     60  C   UNL A   1      44.093  35.495  28.415  1.00  0.00     0.074 A 
ATOM     61  C   UNL A   1      42.761  35.315  28.942  1.00  0.00     0.031 C 
ATOM     62  C   UNL A   1      46.487  29.442  28.988  1.00  0.00     0.029 A 
ATOM     63  C   UNL A   1      47.179  30.573  28.382  1.00  0.00     0.049 A 
ATOM     64  H   UNL A   1      46.523  32.543  28.223  1.00  0.00     0.167 HD
ATOM     65  C   UNL A   1      44.585  36.660  27.944  1.00  0.00     0.034 A 
ATOM     66  C   UNL A   1      48.394  30.554  27.814  1.00  0.00     0.034 A 
ATOM     67  C   UNL A   1      45.915  36.757  27.411  1.00  0.00     0.049 A 
ATOM     68  C   UNL A   1      48.906  31.855  27.267  1.00  0.00     0.074 A 
ATOM     69  C   UNL A   1      46.570  37.861  26.907  1.00  0.00     0.029 A 
ATOM     70  N   UNL A   1      46.788  35.679  27.297  1.00  0.00    -0.354 N 
ATOM     71  N   UNL A   1      48.322  33.033  27.264  1.00  0.00    -0.248 NA
ATOM     72  C   UNL A   1      50.244  31.838  26.673  1.00  0.00     0.031 C 
ATOM     73  C   UNL A   1      47.822  37.439  26.446  1.00  0.00     0.029 A 
ATOM     74  C   UNL A   1      47.971  36.082  26.712  1.00  0.00     0.049 A 
ATOM     75  H   UNL A   1      46.591  34.760  27.592  1.00  0.00     0.167 HD
ATOM     76  C   UNL A   1      49.232  33.912  26.698  1.00  0.00     0.074 A 
ATOM     77  C   UNL A   1      50.414  33.122  26.387  1.00  0.00     0.031 C 
ATOM     78  C   UNL A   1      49.116  35.241  26.449  1.00  0.00     0.034 A 
BRANCH  65  79
ATOM     79  C   UNL A   1      43.666  37.851  27.959  1.00  0.00     0.023 A 
ATOM     80  C   UNL A   1      42.859  38.143  26.837  1.00  0.00     0.012 A 
ATOM     81  C   UNL A   1      43.642  38.721  29.065  1.00  0.00     0.148 A 
ATOM     82  C   UNL A   1      42.090  39.306  26.794  1.00  0.00     0.002 A 
ATOM     83  C   UNL A   1      42.832  39.850  29.037  1.00  0.00     0.091 A 
ATOM     84  F   UNL A   1      44.442  38.454  30.105  1.00  0.00    -0.205 F 
ATOM     85  C   UNL A   1      42.070  40.156  27.896  1.00  0.00     0.022 A 
BRANCH  83  86
ATOM     86  S   UNL A   1      42.688  40.969  30.434  1.00  0.00     0.127 S 
ATOM     87  O   UNL A   1      43.648  42.013  30.075  1.00  0.00    -0.237 OA
ATOM     88  O   UNL A   1      41.284  41.377  30.353  1.00  0.00    -0.237 OA
ATOM     89  O   UNL A   1      43.027  40.187  31.612  1.00  0.00    -0.744 OA
ENDBRANCH  83  86
ENDBRANCH  65  79
BRANCH  66  90
ATOM     90  C   UNL A   1      49.186  29.297  27.812  1.00  0.00     0.023 A 
ATOM     91  C   UNL A   1      49.040  28.393  26.744  1.00  0.00     0.012 A 
ATOM     92  C   UNL A   1      50.150  29.042  28.807  1.00  0.00     0.148 A 
ATOM     93  C   UNL A   1      49.828  27.243  26.677  1.00  0.00     0.002 A 
ATOM     94  C   UNL A   1      50.965  27.920  28.708  1.00  0.00     0.091 A 
ATOM     95  F   UNL A   1      50.277  29.923  29.809  1.00  0.00    -0.205 F 
ATOM     96  C   UNL A   1      50.796  27.012  27.651  1.00  0.00     0.022 A 
BRANCH  94  97
ATOM     97  S   UNL A   1      52.320  27.605  29.845  1.00  0.00     0.127 S 
ATOM     98  O   UNL A   1      53.034  28.879  29.817  1.00  0.00    -0.237 OA
ATOM     99  O   UNL A   1      51.606  27.325  31.091  1.00  0.00    -0.237 OA
ATOM    100  O   UNL A   1      53.044  26.467  29.294  1.00  0.00    -0.744 OA
ENDBRANCH  94  97
ENDBRANCH  66  90
BRANCH  78 101
ATOM    101  C   UNL A   1      50.315  35.913  25.844  1.00  0.00     0.023 A 
ATOM    102  C   UNL A   1      50.464  35.962  24.444  1.00  0.00     0.012 A 
ATOM    103  C   UNL A   1      51.253  36.556  26.673  1.00  0.00     0.148 A 
ATOM    104  C   UNL A   1      51.559  36.611  23.879  1.00  0.00     0.002 A 
ATOM    105  C   UNL A   1      52.304  37.254  26.100  1.00  0.00     0.091 A 
ATOM    106  F   UNL A   1      51.093  36.478  28.002  1.00  0.00    -0.205 F 
ATOM    107  C   UNL A   1      52.469  37.268  24.704  1.00  0.00     0.022 A 
BRANCH 105 108
ATOM    108  S   UNL A   1      53.455  38.223  27.078  1.00  0.00     0.127 S 
ATOM    109  O   UNL A   1      54.693  38.069  26.318  1.00  0.00    -0.237 OA
ATOM    110  O   UNL A   1      52.860  39.559  27.015  1.00  0.00    -0.237 OA
ATOM    111  O   UNL A   1      53.459  37.625  28.406  1.00  0.00    -0.744 OA
ENDBRANCH 105 108
ENDBRANCH  78 101
ENDBRANCH  52  53
ENDBRANCH  45  47
ENDBRANCH  44  45
ENDBRANCH  43  44
ENDBRANCH  42  43
ENDBRANCH  41  42
ENDBRANCH  40  41
ENDBRANCH  39  40
ENDBRANCH  38  39
ENDBRANCH   1  38
TORSDOF 28
ENDMDL
MODEL 3
REMARK VINA RESULT:      -7.3      3.810      9.990
REMARK SMILES CCc1ccc(N2C(=O)/C(=C/c3cc(Cl)c(OCC(=O)OCCOCCOCCOCCOC(=O)c4ccc(-c5c6nc(c(-c7cccc(S(=O)(=O)[O-])c7F)c7ccc([nH]7)c(-c7cccc(S(=O)(=O)[O-])c7F)c7nc(c(-c8cccc(S(=O)(=O)[O-])c8F)c8ccc5[nH]8)C=C7)C=C6)cc4)c(Cl)c3)C(=O)NC2=S)cc1
REMARK SMILES IDX 26 1 25 2 24 3 23 4 22 5 21 6 19 7 20 8 18 9 17 10 16 11
REMARK SMILES IDX 12 12 13 13 101 14 14 15 99 16 15 17 100 18 11 19 7 20 8 21
REMARK SMILES IDX 105 22 9 23 10 24 104 25 106 26 102 27 103 29 6 30 3 31 4 32
REMARK SMILES IDX 108 33 5 34 107 35 2 36 1 37 27 38 28 39 29 40 30 41 31 42
REMARK SMILES IDX 32 43 33 44 34 45 35 46 36 47 37 48 98 49 38 50 97 51 39 52
REMARK SMILES IDX 40 53 41 54 91 55 42 56 96 57 90 58 92 59 43 60 95 61 89 62
REMARK SMILES IDX 88 63 44 65 76 66 56 67 75 68 57 69 60 70 74 71 93 72 58 73
REMARK SMILES IDX 59 74 73 76 94 77 61 78 45 79 46 80 54 81 47 82 49 83 55 84
REMARK SMILES IDX 48 85 50 86 51 87 52 88 53 89 77 90 78 91 86 92 79 93 81 94
REMARK SMILES IDX 87 95 80 96 82 97 83 98 84 99 85 100 62 101 63 102 71 103
REMARK SMILES IDX 64 104 66 105 72 106 65 107 67 108 68 109 69 110 70 111
REMARK H PARENT 104 28 92 64 60 75
REMARK Flexibility Score: inf
ROOT
ATOM      1  C   UNL A   1      35.579  29.559  27.993  1.00  0.00     0.188 C 
ENDROOT
BRANCH   1   2
ATOM      2  C   UNL A   1      34.531  29.461  26.847  1.00  0.00     0.188 C 
BRANCH   2   3
ATOM      3  O   UNL A   1      33.697  28.320  26.706  1.00  0.00    -0.376 OA
BRANCH   3   4
ATOM      4  C   UNL A   1      33.078  28.120  25.453  1.00  0.00     0.202 C 
BRANCH   4   5
ATOM      5  C   UNL A   1      33.546  26.897  24.629  1.00  0.00     0.261 C 
BRANCH   5   6
ATOM      6  O   UNL A   1      33.151  26.846  23.226  1.00  0.00    -0.461 OA
BRANCH   6   7
ATOM      7  C   UNL A   1      33.120  25.646  22.581  1.00  0.00     0.344 C 
ATOM      8  O   UNL A   1      33.480  25.499  21.416  1.00  0.00    -0.248 OA
BRANCH   7   9
ATOM      9  C   UNL A   1      32.556  24.443  23.460  1.00  0.00     0.352 C 
BRANCH   9  10
ATOM     10  O   UNL A   1      33.250  23.413  24.160  1.00  0.00    -0.479 OA
BRANCH  10  11
ATOM     11  C   UNL A   1      34.565  23.250  24.529  1.00  0.00     0.157 A 
ATOM     12  C   UNL A   1      37.230  23.583  25.739  1.00  0.00    -0.021 A 
ATOM     13  C   UNL A   1      36.072  23.369  26.507  1.00  0.00     0.032 A 
ATOM     14  C   UNL A   1      37.049  23.418  24.360  1.00  0.00     0.032 A 
ATOM     15  C   UNL A   1      34.782  23.239  25.924  1.00  0.00     0.085 A 
ATOM     16  C   UNL A   1      35.741  23.214  23.766  1.00  0.00     0.085 A 
ATOM     17  Cl  UNL A   1      33.449  23.146  27.035  1.00  0.00    -0.080 Cl
ATOM     18  Cl  UNL A   1      35.724  22.901  22.068  1.00  0.00    -0.080 Cl
BRANCH  12  19
ATOM     19  C   UNL A   1      38.462  23.996  26.518  1.00  0.00     0.028 C 
ATOM     20  N   UNL A   1      42.034  24.407  26.444  1.00  0.00    -0.253 N 
ATOM     21  C   UNL A   1      40.787  24.516  27.093  1.00  0.00     0.270 C 
ATOM     22  C   UNL A   1      42.471  23.224  25.836  1.00  0.00     0.187 C 
ATOM     23  O   UNL A   1      40.509  25.351  27.953  1.00  0.00    -0.268 OA
ATOM     24  C   UNL A   1      39.737  23.520  26.650  1.00  0.00     0.106 C 
ATOM     25  N   UNL A   1      41.556  22.193  25.821  1.00  0.00    -0.298 N 
ATOM     26  S   UNL A   1      44.003  22.870  25.220  1.00  0.00    -0.040 S 
ATOM     27  C   UNL A   1      40.248  22.199  26.244  1.00  0.00     0.263 C 
ATOM     28  H   UNL A   1      41.883  21.338  25.459  1.00  0.00     0.172 HD
ATOM     29  O   UNL A   1      39.569  21.182  26.269  1.00  0.00    -0.269 OA
BRANCH  20  30
ATOM     30  C   UNL A   1      42.967  25.486  26.608  1.00  0.00     0.052 A 
ATOM     31  C   UNL A   1      44.673  27.715  26.981  1.00  0.00    -0.048 A 
ATOM     32  C   UNL A   1      43.840  27.621  25.856  1.00  0.00     0.006 A 
ATOM     33  C   UNL A   1      44.649  26.669  27.915  1.00  0.00     0.006 A 
ATOM     34  C   UNL A   1      43.001  26.517  25.666  1.00  0.00     0.027 A 
ATOM     35  C   UNL A   1      43.790  25.570  27.742  1.00  0.00     0.027 A 
BRANCH  31  36
ATOM     36  C   UNL A   1      45.604  28.899  27.125  1.00  0.00     0.032 C 
ATOM     37  C   UNL A   1      46.314  29.319  25.844  1.00  0.00     0.009 C 
ENDBRANCH  31  36
ENDBRANCH  20  30
ENDBRANCH  12  19
ENDBRANCH  10  11
ENDBRANCH   9  10
ENDBRANCH   7   9
ENDBRANCH   6   7
ENDBRANCH   5   6
ENDBRANCH   4   5
ENDBRANCH   3   4
ENDBRANCH   2   3
ENDBRANCH   1   2
BRANCH   1  38
ATOM     38  O   UNL A   1      35.487  30.697  28.827  1.00  0.00    -0.377 OA
BRANCH  38  39
ATOM     39  C   UNL A   1      36.493  31.685  28.691  1.00  0.00     0.188 C 
BRANCH  39  40
ATOM     40  C   UNL A   1      37.456  31.818  29.872  1.00  0.00     0.188 C 
BRANCH  40  41
ATOM     41  O   UNL A   1      38.785  31.488  29.550  1.00  0.00    -0.376 OA
BRANCH  41  42
ATOM     42  C   UNL A   1      39.722  31.126  30.532  1.00  0.00     0.202 C 
BRANCH  42  43
ATOM     43  C   UNL A   1      39.741  31.711  31.948  1.00  0.00     0.261 C 
BRANCH  43  44
ATOM     44  O   UNL A   1      40.825  32.545  32.241  1.00  0.00    -0.460 OA
BRANCH  44  45
ATOM     45  C   UNL A   1      40.845  33.680  31.537  1.00  0.00     0.338 C 
ATOM     46  O   UNL A   1      40.015  34.569  31.508  1.00  0.00    -0.246 OA
BRANCH  45  47
ATOM     47  C   UNL A   1      42.149  33.665  30.931  1.00  0.00     0.060 A 
ATOM     48  C   UNL A   1      43.257  33.839  31.758  1.00  0.00     0.016 A 
ATOM     49  C   UNL A   1      42.230  33.305  29.583  1.00  0.00     0.016 A 
ATOM     50  C   UNL A   1      44.502  33.678  31.207  1.00  0.00     0.010 A 
ATOM     51  C   UNL A   1      43.477  33.157  29.029  1.00  0.00     0.010 A 
ATOM     52  C   UNL A   1      44.595  33.379  29.843  1.00  0.00    -0.014 A 
BRANCH  52  53
ATOM     53  C   UNL A   1      45.900  33.486  29.215  1.00  0.00     0.031 A 
ATOM     54  C   UNL A   1      46.250  34.802  28.613  1.00  0.00     0.074 A 
ATOM     55  C   UNL A   1      46.695  32.413  29.241  1.00  0.00     0.049 A 
ATOM     56  N   UNL A   1      47.340  35.158  28.003  1.00  0.00    -0.248 NA
ATOM     57  C   UNL A   1      45.226  35.864  28.702  1.00  0.00     0.031 C 
ATOM     58  C   UNL A   1      46.352  31.125  29.853  1.00  0.00     0.029 A 
ATOM     59  N   UNL A   1      47.944  32.233  28.737  1.00  0.00    -0.354 N 
ATOM     60  C   UNL A   1      47.126  36.469  27.606  1.00  0.00     0.074 A 
ATOM     61  C   UNL A   1      45.797  36.846  28.026  1.00  0.00     0.031 C 
ATOM     62  C   UNL A   1      47.380  30.280  29.684  1.00  0.00     0.029 A 
ATOM     63  C   UNL A   1      48.420  30.961  28.923  1.00  0.00     0.049 A 
ATOM     64  H   UNL A   1      48.453  32.944  28.286  1.00  0.00     0.167 HD
ATOM     65  C   UNL A   1      47.986  37.277  26.948  1.00  0.00     0.034 A 
ATOM     66  C   UNL A   1      49.574  30.429  28.494  1.00  0.00     0.034 A 
ATOM     67  C   UNL A   1      49.285  36.823  26.541  1.00  0.00     0.049 A 
ATOM     68  C   UNL A   1      50.498  31.337  27.736  1.00  0.00     0.074 A 
ATOM     69  C   UNL A   1      50.278  37.515  25.880  1.00  0.00     0.029 A 
ATOM     70  N   UNL A   1      49.757  35.529  26.745  1.00  0.00    -0.354 N 
ATOM     71  N   UNL A   1      50.334  32.604  27.426  1.00  0.00    -0.248 NA
ATOM     72  C   UNL A   1      51.770  30.762  27.294  1.00  0.00     0.031 C 
ATOM     73  C   UNL A   1      51.332  36.625  25.645  1.00  0.00     0.029 A 
ATOM     74  C   UNL A   1      51.020  35.391  26.206  1.00  0.00     0.049 A 
ATOM     75  H   UNL A   1      49.262  34.815  27.208  1.00  0.00     0.167 HD
ATOM     76  C   UNL A   1      51.497  32.994  26.778  1.00  0.00     0.074 A 
ATOM     77  C   UNL A   1      52.360  31.822  26.760  1.00  0.00     0.031 C 
ATOM     78  C   UNL A   1      51.831  34.195  26.242  1.00  0.00     0.034 A 
BRANCH  65  79
ATOM     79  C   UNL A   1      47.509  38.665  26.620  1.00  0.00     0.023 A 
ATOM     80  C   UNL A   1      46.956  38.948  25.351  1.00  0.00     0.012 A 
ATOM     81  C   UNL A   1      47.663  39.712  27.548  1.00  0.00     0.148 A 
ATOM     82  C   UNL A   1      46.618  40.254  24.994  1.00  0.00     0.002 A 
ATOM     83  C   UNL A   1      47.273  41.001  27.205  1.00  0.00     0.091 A 
ATOM     84  F   UNL A   1      48.225  39.437  28.733  1.00  0.00    -0.205 F 
ATOM     85  C   UNL A   1      46.769  41.279  25.923  1.00  0.00     0.022 A 
BRANCH  83  86
ATOM     86  S   UNL A   1      47.366  42.376  28.357  1.00  0.00     0.127 S 
ATOM     87  O   UNL A   1      46.800  43.466  27.562  1.00  0.00    -0.237 OA
ATOM     88  O   UNL A   1      46.514  41.913  29.452  1.00  0.00    -0.237 OA
ATOM     89  O   UNL A   1      48.773  42.518  28.700  1.00  0.00    -0.744 OA
ENDBRANCH  83  86
ENDBRANCH  65  79
BRANCH  66  90
ATOM     90  C   UNL A   1      49.908  29.023  28.837  1.00  0.00     0.023 A 
ATOM     91  C   UNL A   1      50.415  28.728  30.116  1.00  0.00     0.012 A 
ATOM     92  C   UNL A   1      49.634  27.968  27.943  1.00  0.00     0.148 A 
ATOM     93  C   UNL A   1      50.663  27.407  30.493  1.00  0.00     0.002 A 
ATOM     94  C   UNL A   1      49.837  26.653  28.341  1.00  0.00     0.091 A 
ATOM     95  F   UNL A   1      49.142  28.274  26.734  1.00  0.00    -0.205 F 
ATOM     96  C   UNL A   1      50.365  26.371  29.611  1.00  0.00     0.022 A 
BRANCH  94  97
ATOM     97  S   UNL A   1      49.367  25.249  27.324  1.00  0.00     0.127 S 
ATOM     98  O   UNL A   1      49.804  25.682  25.999  1.00  0.00    -0.237 OA
ATOM     99  O   UNL A   1      50.163  24.172  27.915  1.00  0.00    -0.237 OA
ATOM    100  O   UNL A   1      47.928  25.100  27.494  1.00  0.00    -0.744 OA
ENDBRANCH  94  97
ENDBRANCH  66  90
BRANCH  78 101
ATOM    101  C   UNL A   1      53.198  34.295  25.629  1.00  0.00     0.023 A 
ATOM    102  C   UNL A   1      54.298  34.684  26.418  1.00  0.00     0.012 A 
ATOM    103  C   UNL A   1      53.393  33.931  24.284  1.00  0.00     0.148 A 
ATOM    104  C   UNL A   1      55.572  34.748  25.861  1.00  0.00     0.002 A 
ATOM    105  C   UNL A   1      54.674  33.936  23.755  1.00  0.00     0.091 A 
ATOM    106  F   UNL A   1      52.324  33.581  23.553  1.00  0.00    -0.205 F 
ATOM    107  C   UNL A   1      55.762  34.361  24.536  1.00  0.00     0.022 A 
BRANCH 105 108
ATOM    108  S   UNL A   1      55.026  33.344  22.098  1.00  0.00     0.127 S 
ATOM    109  O   UNL A   1      56.449  33.652  21.970  1.00  0.00    -0.237 OA
ATOM    110  O   UNL A   1      54.716  31.918  22.211  1.00  0.00    -0.237 OA
ATOM    111  O   UNL A   1      54.145  34.086  21.208  1.00  0.00    -0.744 OA
ENDBRANCH 105 108
ENDBRANCH  78 101
ENDBRANCH  52  53
ENDBRANCH  45  47
ENDBRANCH  44  45
ENDBRANCH  43  44
ENDBRANCH  42  43
ENDBRANCH  41  42
ENDBRANCH  40  41
ENDBRANCH  39  40
ENDBRANCH  38  39
ENDBRANCH   1  38
TORSDOF 28
ENDMDL
