MODEL 1
REMARK VINA RESULT:      -8.9      0.000      0.000
REMARK SMILES Cc1c(NC(=S)NC(=O)CSc2ccc(Cl)cc2)cccc1C(=O)OCCOCCOCCOCCOC(=O)c1ccc(-c2c3nc(c(-c4cccc(S(=O)(=O)[O-])c4F)c4ccc([nH]4)c(-c4cccc(S(=O)(=O)[O-])c4F)c4nc(c(-c5cccc(S(=O)(=O)[O-])c5F)c5ccc2[nH]5)C=C4)C=C3)cc1
REMARK SMILES IDX 29 1 28 2 27 3 26 4 25 5 23 6 24 7 22 8 1 9 2 10 3 11 19 12
REMARK SMILES IDX 21 13 20 14 4 15 5 17 6 18 7 19 8 20 9 22 10 23 11 24 12 25
REMARK SMILES IDX 13 26 18 27 14 28 17 29 15 30 16 31 30 32 31 33 32 34 33 35
REMARK SMILES IDX 34 36 35 37 36 38 37 39 38 40 39 41 40 42 41 43 102 44 42 45
REMARK SMILES IDX 101 46 43 47 44 48 45 49 95 50 46 51 100 52 94 53 96 54
REMARK SMILES IDX 47 55 99 56 93 57 92 58 48 60 80 61 60 62 79 63 61 64 64 65
REMARK SMILES IDX 78 66 97 67 62 68 63 69 77 71 98 72 65 73 49 74 50 75 58 76
REMARK SMILES IDX 51 77 53 78 59 79 52 80 54 81 55 82 56 83 57 84 81 85 82 86
REMARK SMILES IDX 90 87 83 88 85 89 91 90 84 91 86 92 87 93 88 94 89 95 66 96
REMARK SMILES IDX 67 97 75 98 68 99 70 100 76 101 69 102 71 103 72 104 73 105
REMARK SMILES IDX 74 106
REMARK H PARENT 4 16 7 21 96 59 64 70
REMARK Flexibility Score: inf
ROOT
ATOM      1  C   UNL A   1      32.752  27.205  26.535  1.00  0.00     0.188 C 
ENDROOT
BRANCH   1   2
ATOM      2  O   UNL A   1      31.707  26.799  25.659  1.00  0.00    -0.376 OA
BRANCH   2   3
ATOM      3  C   UNL A   1      30.843  25.765  26.120  1.00  0.00     0.202 C 
BRANCH   3   4
ATOM      4  C   UNL A   1      30.290  24.852  25.055  1.00  0.00     0.261 C 
BRANCH   4   5
ATOM      5  O   UNL A   1      31.292  23.876  24.787  1.00  0.00    -0.460 OA
BRANCH   5   6
ATOM      6  C   UNL A   1      31.269  22.832  25.631  1.00  0.00     0.338 C 
ATOM      7  O   UNL A   1      30.346  22.376  26.231  1.00  0.00    -0.246 OA
BRANCH   6   8
ATOM      8  C   UNL A   1      32.515  22.088  25.346  1.00  0.00     0.065 A 
ATOM      9  C   UNL A   1      34.152  24.009  25.791  1.00  0.00     0.047 C 
ATOM     10  C   UNL A   1      33.821  22.568  25.524  1.00  0.00    -0.013 A 
ATOM     11  C   UNL A   1      34.817  21.588  25.522  1.00  0.00     0.044 A 
ATOM     12  C   UNL A   1      34.602  20.338  24.922  1.00  0.00     0.026 A 
ATOM     13  C   UNL A   1      32.274  20.801  24.831  1.00  0.00     0.016 A 
ATOM     14  C   UNL A   1      33.330  19.966  24.514  1.00  0.00     0.003 A 
BRANCH  11  15
ATOM     15  N   UNL A   1      35.969  21.829  26.277  1.00  0.00    -0.332 N 
ATOM     16  H   UNL A   1      35.876  21.711  27.250  1.00  0.00     0.169 HD
BRANCH  15  17
ATOM     17  C   UNL A   1      37.191  22.204  25.848  1.00  0.00     0.177 C 
ATOM     18  S   UNL A   1      37.484  23.832  25.591  1.00  0.00    -0.040 S 
BRANCH  17  19
ATOM     19  N   UNL A   1      38.223  21.325  25.624  1.00  0.00    -0.302 N 
ATOM     20  C   UNL A   1      39.508  21.020  26.054  1.00  0.00     0.236 C 
ATOM     21  H   UNL A   1      37.963  20.696  24.915  1.00  0.00     0.172 HD
ATOM     22  O   UNL A   1      39.854  19.837  25.919  1.00  0.00    -0.274 OA
BRANCH  20  23
ATOM     23  C   UNL A   1      40.494  22.011  26.647  1.00  0.00     0.175 C 
BRANCH  23  24
ATOM     24  S   UNL A   1      41.909  21.308  27.534  1.00  0.00    -0.116 SA
BRANCH  24  25
ATOM     25  C   UNL A   1      42.751  22.828  27.906  1.00  0.00     0.008 A 
ATOM     26  C   UNL A   1      42.687  23.467  29.148  1.00  0.00     0.016 A 
ATOM     27  C   UNL A   1      43.562  23.354  26.900  1.00  0.00     0.016 A 
ATOM     28  C   UNL A   1      43.465  24.605  29.394  1.00  0.00     0.021 A 
ATOM     29  C   UNL A   1      44.335  24.486  27.141  1.00  0.00     0.021 A 
ATOM     30  C   UNL A   1      44.293  25.102  28.389  1.00  0.00     0.041 A 
ATOM     31  Cl  UNL A   1      45.285  26.476  28.680  1.00  0.00    -0.084 Cl
ENDBRANCH  24  25
ENDBRANCH  23  24
ENDBRANCH  20  23
ENDBRANCH  17  19
ENDBRANCH  15  17
ENDBRANCH  11  15
ENDBRANCH   6   8
ENDBRANCH   5   6
ENDBRANCH   4   5
ENDBRANCH   3   4
ENDBRANCH   2   3
ENDBRANCH   1   2
BRANCH   1  32
ATOM     32  C   UNL A   1      33.412  28.566  26.265  1.00  0.00     0.188 C 
BRANCH  32  33
ATOM     33  O   UNL A   1      33.467  29.478  27.337  1.00  0.00    -0.377 OA
BRANCH  33  34
ATOM     34  C   UNL A   1      33.471  30.842  26.976  1.00  0.00     0.188 C 
BRANCH  34  35
ATOM     35  C   UNL A   1      34.136  31.727  28.043  1.00  0.00     0.188 C 
BRANCH  35  36
ATOM     36  O   UNL A   1      33.979  33.116  27.878  1.00  0.00    -0.376 OA
BRANCH  36  37
ATOM     37  C   UNL A   1      34.507  33.874  28.954  1.00  0.00     0.202 C 
BRANCH  37  38
ATOM     38  C   UNL A   1      33.586  34.743  29.908  1.00  0.00     0.261 C 
BRANCH  38  39
ATOM     39  O   UNL A   1      33.551  34.466  31.406  1.00  0.00    -0.460 OA
BRANCH  39  40
ATOM     40  C   UNL A   1      34.168  33.817  32.465  1.00  0.00     0.338 C 
ATOM     41  O   UNL A   1      33.506  32.976  33.080  1.00  0.00    -0.246 OA
BRANCH  40  42
ATOM     42  C   UNL A   1      35.658  33.808  32.803  1.00  0.00     0.060 A 
ATOM     43  C   UNL A   1      36.619  33.933  31.799  1.00  0.00     0.016 A 
ATOM     44  C   UNL A   1      36.202  33.820  34.075  1.00  0.00     0.016 A 
ATOM     45  C   UNL A   1      37.952  33.498  32.000  1.00  0.00     0.010 A 
ATOM     46  C   UNL A   1      37.470  33.262  34.286  1.00  0.00     0.010 A 
ATOM     47  C   UNL A   1      38.295  32.928  33.208  1.00  0.00    -0.014 A 
BRANCH  47  48
ATOM     48  C   UNL A   1      39.308  31.856  33.393  1.00  0.00     0.031 A 
ATOM     49  C   UNL A   1      39.224  30.588  32.548  1.00  0.00     0.074 A 
ATOM     50  C   UNL A   1      40.515  32.219  33.931  1.00  0.00     0.049 A 
ATOM     51  N   UNL A   1      40.158  29.697  32.419  1.00  0.00    -0.248 NA
ATOM     52  C   UNL A   1      38.079  30.261  31.698  1.00  0.00     0.031 C 
ATOM     53  C   UNL A   1      41.764  31.568  33.577  1.00  0.00     0.029 A 
ATOM     54  N   UNL A   1      40.969  33.236  34.796  1.00  0.00    -0.354 N 
ATOM     55  C   UNL A   1      39.922  28.939  31.286  1.00  0.00     0.074 A 
ATOM     56  C   UNL A   1      38.564  29.273  30.931  1.00  0.00     0.031 C 
ATOM     57  C   UNL A   1      42.819  32.170  34.123  1.00  0.00     0.029 A 
ATOM     58  C   UNL A   1      42.287  32.936  35.213  1.00  0.00     0.049 A 
ATOM     59  H   UNL A   1      40.452  34.029  35.068  1.00  0.00     0.167 HD
ATOM     60  C   UNL A   1      40.937  28.208  30.720  1.00  0.00     0.034 A 
ATOM     61  C   UNL A   1      42.736  32.642  36.474  1.00  0.00     0.034 A 
ATOM     62  C   UNL A   1      42.163  28.181  31.572  1.00  0.00     0.049 A 
ATOM     63  C   UNL A   1      43.158  31.166  36.608  1.00  0.00     0.074 A 
ATOM     64  C   UNL A   1      43.517  28.403  31.353  1.00  0.00     0.029 A 
ATOM     65  N   UNL A   1      42.049  27.986  32.955  1.00  0.00    -0.354 N 
ATOM     66  N   UNL A   1      42.832  30.268  35.708  1.00  0.00    -0.248 NA
ATOM     67  C   UNL A   1      44.025  30.576  37.626  1.00  0.00     0.031 C 
ATOM     68  C   UNL A   1      44.156  28.553  32.622  1.00  0.00     0.029 A 
ATOM     69  C   UNL A   1      43.227  28.287  33.619  1.00  0.00     0.049 A 
ATOM     70  H   UNL A   1      41.228  27.673  33.401  1.00  0.00     0.167 HD
ATOM     71  C   UNL A   1      43.466  29.088  35.918  1.00  0.00     0.074 A 
ATOM     72  C   UNL A   1      44.155  29.305  37.180  1.00  0.00     0.031 C 
ATOM     73  C   UNL A   1      43.379  28.030  35.054  1.00  0.00     0.034 A 
BRANCH  60  74
ATOM     74  C   UNL A   1      40.926  27.567  29.309  1.00  0.00     0.023 A 
ATOM     75  C   UNL A   1      40.020  26.497  29.092  1.00  0.00     0.012 A 
ATOM     76  C   UNL A   1      41.765  27.873  28.201  1.00  0.00     0.148 A 
ATOM     77  C   UNL A   1      39.953  25.772  27.891  1.00  0.00     0.002 A 
ATOM     78  C   UNL A   1      41.644  27.197  26.968  1.00  0.00     0.091 A 
ATOM     79  F   UNL A   1      42.746  28.771  28.338  1.00  0.00    -0.205 F 
ATOM     80  C   UNL A   1      40.753  26.133  26.820  1.00  0.00     0.022 A 
BRANCH  78  81
ATOM     81  S   UNL A   1      42.571  27.646  25.481  1.00  0.00     0.127 S 
ATOM     82  O   UNL A   1      42.177  26.599  24.538  1.00  0.00    -0.237 OA
ATOM     83  O   UNL A   1      42.036  28.972  25.167  1.00  0.00    -0.237 OA
ATOM     84  O   UNL A   1      43.978  27.635  25.860  1.00  0.00    -0.744 OA
ENDBRANCH  78  81
ENDBRANCH  60  74
BRANCH  61  85
ATOM     85  C   UNL A   1      42.439  33.681  37.490  1.00  0.00     0.023 A 
ATOM     86  C   UNL A   1      41.306  33.414  38.310  1.00  0.00     0.012 A 
ATOM     87  C   UNL A   1      43.525  34.361  38.040  1.00  0.00     0.148 A 
ATOM     88  C   UNL A   1      41.355  33.606  39.693  1.00  0.00     0.002 A 
ATOM     89  C   UNL A   1      43.617  34.419  39.425  1.00  0.00     0.091 A 
ATOM     90  F   UNL A   1      44.546  34.688  37.237  1.00  0.00    -0.205 F 
ATOM     91  C   UNL A   1      42.538  34.053  40.257  1.00  0.00     0.022 A 
BRANCH  89  92
ATOM     92  S   UNL A   1      45.223  34.116  40.172  1.00  0.00     0.127 S 
ATOM     93  O   UNL A   1      45.872  33.200  39.244  1.00  0.00    -0.237 OA
ATOM     94  O   UNL A   1      45.704  35.492  40.135  1.00  0.00    -0.237 OA
ATOM     95  O   UNL A   1      44.960  33.592  41.504  1.00  0.00    -0.744 OA
ENDBRANCH  89  92
ENDBRANCH  61  85
BRANCH  73  96
ATOM     96  C   UNL A   1      43.393  26.590  35.515  1.00  0.00     0.023 A 
ATOM     97  C   UNL A   1      42.222  25.991  36.014  1.00  0.00     0.012 A 
ATOM     98  C   UNL A   1      44.477  25.730  35.194  1.00  0.00     0.148 A 
ATOM     99  C   UNL A   1      42.132  24.612  36.208  1.00  0.00     0.002 A 
ATOM    100  C   UNL A   1      44.340  24.350  35.282  1.00  0.00     0.091 A 
ATOM    101  F   UNL A   1      45.649  26.240  34.793  1.00  0.00    -0.205 F 
ATOM    102  C   UNL A   1      43.178  23.788  35.814  1.00  0.00     0.022 A 
BRANCH 100 103
ATOM    103  S   UNL A   1      45.559  23.242  34.556  1.00  0.00     0.127 S 
ATOM    104  O   UNL A   1      45.526  23.643  33.152  1.00  0.00    -0.237 OA
ATOM    105  O   UNL A   1      46.781  23.618  35.271  1.00  0.00    -0.237 OA
ATOM    106  O   UNL A   1      45.087  21.896  34.851  1.00  0.00    -0.744 OA
ENDBRANCH 100 103
ENDBRANCH  73  96
ENDBRANCH  47  48
ENDBRANCH  40  42
ENDBRANCH  39  40
ENDBRANCH  38  39
ENDBRANCH  37  38
ENDBRANCH  36  37
ENDBRANCH  35  36
ENDBRANCH  34  35
ENDBRANCH  33  34
ENDBRANCH  32  33
ENDBRANCH   1  32
TORSDOF 29
ENDMDL
MODEL 2
REMARK VINA RESULT:      -8.0      5.928     10.391
REMARK SMILES Cc1c(NC(=S)NC(=O)CSc2ccc(Cl)cc2)cccc1C(=O)OCCOCCOCCOCCOC(=O)c1ccc(-c2c3nc(c(-c4cccc(S(=O)(=O)[O-])c4F)c4ccc([nH]4)c(-c4cccc(S(=O)(=O)[O-])c4F)c4nc(c(-c5cccc(S(=O)(=O)[O-])c5F)c5ccc2[nH]5)C=C4)C=C3)cc1
REMARK SMILES IDX 29 1 28 2 27 3 26 4 25 5 23 6 24 7 22 8 1 9 2 10 3 11 19 12
REMARK SMILES IDX 21 13 20 14 4 15 5 17 6 18 7 19 8 20 9 22 10 23 11 24 12 25
REMARK SMILES IDX 13 26 18 27 14 28 17 29 15 30 16 31 30 32 31 33 32 34 33 35
REMARK SMILES IDX 34 36 35 37 36 38 37 39 38 40 39 41 40 42 41 43 102 44 42 45
REMARK SMILES IDX 101 46 43 47 44 48 45 49 95 50 46 51 100 52 94 53 96 54
REMARK SMILES IDX 47 55 99 56 93 57 92 58 48 60 80 61 60 62 79 63 61 64 64 65
REMARK SMILES IDX 78 66 97 67 62 68 63 69 77 71 98 72 65 73 49 74 50 75 58 76
REMARK SMILES IDX 51 77 53 78 59 79 52 80 54 81 55 82 56 83 57 84 81 85 82 86
REMARK SMILES IDX 90 87 83 88 85 89 91 90 84 91 86 92 87 93 88 94 89 95 66 96
REMARK SMILES IDX 67 97 75 98 68 99 70 100 76 101 69 102 71 103 72 104 73 105
REMARK SMILES IDX 74 106
REMARK H PARENT 4 16 7 21 96 59 64 70
REMARK Flexibility Score: inf
ROOT
ATOM      1  C   UNL A   1      39.455  34.254  32.633  1.00  0.00     0.188 C 
ENDROOT
BRANCH   1   2
ATOM      2  O   UNL A   1      38.283  34.739  31.990  1.00  0.00    -0.376 OA
BRANCH   2   3
ATOM      3  C   UNL A   1      37.049  34.123  32.345  1.00  0.00     0.202 C 
BRANCH   3   4
ATOM      4  C   UNL A   1      36.570  33.035  31.416  1.00  0.00     0.261 C 
BRANCH   4   5
ATOM      5  O   UNL A   1      36.333  33.647  30.152  1.00  0.00    -0.460 OA
BRANCH   5   6
ATOM      6  C   UNL A   1      37.072  33.131  29.157  1.00  0.00     0.338 C 
ATOM      7  O   UNL A   1      38.215  33.336  28.891  1.00  0.00    -0.246 OA
BRANCH   6   8
ATOM      8  C   UNL A   1      36.324  31.936  28.712  1.00  0.00     0.065 A 
ATOM      9  C   UNL A   1      34.050  33.074  28.391  1.00  0.00     0.047 C 
ATOM     10  C   UNL A   1      34.998  31.915  28.254  1.00  0.00    -0.013 A 
ATOM     11  C   UNL A   1      34.625  30.755  27.571  1.00  0.00     0.044 A 
ATOM     12  C   UNL A   1      35.326  29.553  27.748  1.00  0.00     0.026 A 
ATOM     13  C   UNL A   1      37.080  30.753  28.811  1.00  0.00     0.016 A 
ATOM     14  C   UNL A   1      36.534  29.540  28.430  1.00  0.00     0.003 A 
BRANCH  11  15
ATOM     15  N   UNL A   1      33.639  30.868  26.585  1.00  0.00    -0.332 N 
ATOM     16  H   UNL A   1      33.950  31.176  25.703  1.00  0.00     0.169 HD
BRANCH  15  17
ATOM     17  C   UNL A   1      32.319  30.613  26.684  1.00  0.00     0.177 C 
ATOM     18  S   UNL A   1      31.240  31.859  26.391  1.00  0.00    -0.040 S 
BRANCH  17  19
ATOM     19  N   UNL A   1      31.802  29.379  26.996  1.00  0.00    -0.302 N 
ATOM     20  C   UNL A   1      31.745  28.072  26.532  1.00  0.00     0.236 C 
ATOM     21  H   UNL A   1      31.299  29.445  27.838  1.00  0.00     0.172 HD
ATOM     22  O   UNL A   1      31.593  27.199  27.400  1.00  0.00    -0.274 OA
BRANCH  20  23
ATOM     23  C   UNL A   1      31.839  27.653  25.076  1.00  0.00     0.175 C 
BRANCH  23  24
ATOM     24  S   UNL A   1      33.479  27.756  24.311  1.00  0.00    -0.116 SA
BRANCH  24  25
ATOM     25  C   UNL A   1      33.874  26.024  24.334  1.00  0.00     0.008 A 
ATOM     26  C   UNL A   1      33.886  25.215  23.194  1.00  0.00     0.016 A 
ATOM     27  C   UNL A   1      34.251  25.487  25.565  1.00  0.00     0.016 A 
ATOM     28  C   UNL A   1      34.313  23.884  23.281  1.00  0.00     0.021 A 
ATOM     29  C   UNL A   1      34.674  24.164  25.655  1.00  0.00     0.021 A 
ATOM     30  C   UNL A   1      34.713  23.370  24.512  1.00  0.00     0.041 A 
ATOM     31  Cl  UNL A   1      35.276  21.750  24.636  1.00  0.00    -0.084 Cl
ENDBRANCH  24  25
ENDBRANCH  23  24
ENDBRANCH  20  23
ENDBRANCH  17  19
ENDBRANCH  15  17
ENDBRANCH  11  15
ENDBRANCH   6   8
ENDBRANCH   5   6
ENDBRANCH   4   5
ENDBRANCH   3   4
ENDBRANCH   2   3
ENDBRANCH   1   2
BRANCH   1  32
ATOM     32  C   UNL A   1      40.164  33.050  31.995  1.00  0.00     0.188 C 
BRANCH  32  33
ATOM     33  O   UNL A   1      39.829  31.772  32.484  1.00  0.00    -0.377 OA
BRANCH  33  34
ATOM     34  C   UNL A   1      39.579  30.790  31.503  1.00  0.00     0.188 C 
BRANCH  34  35
ATOM     35  C   UNL A   1      40.843  30.429  30.703  1.00  0.00     0.188 C 
BRANCH  35  36
ATOM     36  O   UNL A   1      40.648  30.136  29.340  1.00  0.00    -0.376 OA
BRANCH  36  37
ATOM     37  C   UNL A   1      40.251  28.794  29.105  1.00  0.00     0.202 C 
BRANCH  37  38
ATOM     38  C   UNL A   1      40.096  28.203  27.643  1.00  0.00     0.261 C 
BRANCH  38  39
ATOM     39  O   UNL A   1      41.200  28.397  26.611  1.00  0.00    -0.460 OA
BRANCH  39  40
ATOM     40  C   UNL A   1      42.138  27.769  25.806  1.00  0.00     0.338 C 
ATOM     41  O   UNL A   1      42.357  28.264  24.696  1.00  0.00    -0.246 OA
BRANCH  40  42
ATOM     42  C   UNL A   1      43.143  26.696  26.220  1.00  0.00     0.060 A 
ATOM     43  C   UNL A   1      42.837  25.782  27.230  1.00  0.00     0.016 A 
ATOM     44  C   UNL A   1      44.343  26.420  25.589  1.00  0.00     0.016 A 
ATOM     45  C   UNL A   1      43.856  25.088  27.927  1.00  0.00     0.010 A 
ATOM     46  C   UNL A   1      45.393  25.856  26.326  1.00  0.00     0.010 A 
ATOM     47  C   UNL A   1      45.174  25.336  27.604  1.00  0.00    -0.014 A 
BRANCH  47  48
ATOM     48  C   UNL A   1      46.312  25.297  28.560  1.00  0.00     0.031 A 
ATOM     49  C   UNL A   1      47.741  25.217  28.028  1.00  0.00     0.074 A 
ATOM     50  C   UNL A   1      46.096  25.809  29.813  1.00  0.00     0.049 A 
ATOM     51  N   UNL A   1      48.821  25.427  28.715  1.00  0.00    -0.248 NA
ATOM     52  C   UNL A   1      48.063  24.967  26.623  1.00  0.00     0.031 C 
ATOM     53  C   UNL A   1      47.136  26.463  30.588  1.00  0.00     0.029 A 
ATOM     54  N   UNL A   1      44.979  25.973  30.658  1.00  0.00    -0.354 N 
ATOM     55  C   UNL A   1      49.872  25.689  27.855  1.00  0.00     0.074 A 
ATOM     56  C   UNL A   1      49.362  25.296  26.564  1.00  0.00     0.031 C 
ATOM     57  C   UNL A   1      46.667  26.994  31.716  1.00  0.00     0.029 A 
ATOM     58  C   UNL A   1      45.424  26.318  31.955  1.00  0.00     0.049 A 
ATOM     59  H   UNL A   1      44.038  25.864  30.388  1.00  0.00     0.167 HD
ATOM     60  C   UNL A   1      51.005  26.312  28.318  1.00  0.00     0.034 A 
ATOM     61  C   UNL A   1      45.306  25.600  33.116  1.00  0.00     0.034 A 
ATOM     62  C   UNL A   1      51.014  26.443  29.806  1.00  0.00     0.049 A 
ATOM     63  C   UNL A   1      46.664  25.063  33.606  1.00  0.00     0.074 A 
ATOM     64  C   UNL A   1      51.259  27.477  30.700  1.00  0.00     0.029 A 
ATOM     65  N   UNL A   1      50.613  25.363  30.605  1.00  0.00    -0.354 N 
ATOM     66  N   UNL A   1      47.725  25.053  32.832  1.00  0.00    -0.248 NA
ATOM     67  C   UNL A   1      47.011  24.611  34.952  1.00  0.00     0.031 C 
ATOM     68  C   UNL A   1      50.795  27.072  31.990  1.00  0.00     0.029 A 
ATOM     69  C   UNL A   1      50.395  25.744  31.919  1.00  0.00     0.049 A 
ATOM     70  H   UNL A   1      50.499  24.443  30.271  1.00  0.00     0.167 HD
ATOM     71  C   UNL A   1      48.848  24.727  33.517  1.00  0.00     0.074 A 
ATOM     72  C   UNL A   1      48.341  24.387  34.837  1.00  0.00     0.031 C 
ATOM     73  C   UNL A   1      50.098  24.756  32.959  1.00  0.00     0.034 A 
BRANCH  60  74
ATOM     74  C   UNL A   1      52.121  26.945  27.450  1.00  0.00     0.023 A 
ATOM     75  C   UNL A   1      51.956  28.304  27.076  1.00  0.00     0.012 A 
ATOM     76  C   UNL A   1      53.278  26.314  26.912  1.00  0.00     0.148 A 
ATOM     77  C   UNL A   1      52.845  28.987  26.230  1.00  0.00     0.002 A 
ATOM     78  C   UNL A   1      54.212  27.021  26.126  1.00  0.00     0.091 A 
ATOM     79  F   UNL A   1      53.461  25.002  27.088  1.00  0.00    -0.205 F 
ATOM     80  C   UNL A   1      53.985  28.352  25.768  1.00  0.00     0.022 A 
BRANCH  78  81
ATOM     81  S   UNL A   1      55.776  26.319  25.548  1.00  0.00     0.127 S 
ATOM     82  O   UNL A   1      56.409  25.891  26.796  1.00  0.00    -0.237 OA
ATOM     83  O   UNL A   1      55.327  25.219  24.693  1.00  0.00    -0.237 OA
ATOM     84  O   UNL A   1      56.467  27.391  24.843  1.00  0.00    -0.744 OA
ENDBRANCH  78  81
ENDBRANCH  60  74
BRANCH  61  85
ATOM     85  C   UNL A   1      43.913  25.238  33.476  1.00  0.00     0.023 A 
ATOM     86  C   UNL A   1      43.716  23.869  33.814  1.00  0.00     0.012 A 
ATOM     87  C   UNL A   1      43.150  26.210  34.121  1.00  0.00     0.148 A 
ATOM     88  C   UNL A   1      42.956  23.504  34.929  1.00  0.00     0.002 A 
ATOM     89  C   UNL A   1      42.513  25.853  35.303  1.00  0.00     0.091 A 
ATOM     90  F   UNL A   1      43.277  27.485  33.729  1.00  0.00    -0.205 F 
ATOM     91  C   UNL A   1      42.404  24.506  35.709  1.00  0.00     0.022 A 
BRANCH  89  92
ATOM     92  S   UNL A   1      42.592  27.005  36.680  1.00  0.00     0.127 S 
ATOM     93  O   UNL A   1      43.858  27.697  36.482  1.00  0.00    -0.237 OA
ATOM     94  O   UNL A   1      41.398  27.773  36.344  1.00  0.00    -0.237 OA
ATOM     95  O   UNL A   1      42.487  26.202  37.888  1.00  0.00    -0.744 OA
ENDBRANCH  89  92
ENDBRANCH  61  85
BRANCH  73  96
ATOM     96  C   UNL A   1      51.190  23.782  33.339  1.00  0.00     0.023 A 
ATOM     97  C   UNL A   1      51.050  22.410  33.055  1.00  0.00     0.012 A 
ATOM     98  C   UNL A   1      52.481  24.239  33.714  1.00  0.00     0.148 A 
ATOM     99  C   UNL A   1      52.128  21.530  33.159  1.00  0.00     0.002 A 
ATOM    100  C   UNL A   1      53.572  23.380  33.704  1.00  0.00     0.091 A 
ATOM    101  F   UNL A   1      52.666  25.516  34.078  1.00  0.00    -0.205 F 
ATOM    102  C   UNL A   1      53.394  22.018  33.452  1.00  0.00     0.022 A 
BRANCH 100 103
ATOM    103  S   UNL A   1      55.255  24.004  33.830  1.00  0.00     0.127 S 
ATOM    104  O   UNL A   1      55.961  23.150  32.877  1.00  0.00    -0.237 OA
ATOM    105  O   UNL A   1      55.100  25.397  33.404  1.00  0.00    -0.237 OA
ATOM    106  O   UNL A   1      55.626  23.845  35.229  1.00  0.00    -0.744 OA
ENDBRANCH 100 103
ENDBRANCH  73  96
ENDBRANCH  47  48
ENDBRANCH  40  42
ENDBRANCH  39  40
ENDBRANCH  38  39
ENDBRANCH  37  38
ENDBRANCH  36  37
ENDBRANCH  35  36
ENDBRANCH  34  35
ENDBRANCH  33  34
ENDBRANCH  32  33
ENDBRANCH   1  32
TORSDOF 29
ENDMDL
MODEL 3
REMARK VINA RESULT:      -7.9      5.838     10.618
REMARK SMILES Cc1c(NC(=S)NC(=O)CSc2ccc(Cl)cc2)cccc1C(=O)OCCOCCOCCOCCOC(=O)c1ccc(-c2c3nc(c(-c4cccc(S(=O)(=O)[O-])c4F)c4ccc([nH]4)c(-c4cccc(S(=O)(=O)[O-])c4F)c4nc(c(-c5cccc(S(=O)(=O)[O-])c5F)c5ccc2[nH]5)C=C4)C=C3)cc1
REMARK SMILES IDX 29 1 28 2 27 3 26 4 25 5 23 6 24 7 22 8 1 9 2 10 3 11 19 12
REMARK SMILES IDX 21 13 20 14 4 15 5 17 6 18 7 19 8 20 9 22 10 23 11 24 12 25
REMARK SMILES IDX 13 26 18 27 14 28 17 29 15 30 16 31 30 32 31 33 32 34 33 35
REMARK SMILES IDX 34 36 35 37 36 38 37 39 38 40 39 41 40 42 41 43 102 44 42 45
REMARK SMILES IDX 101 46 43 47 44 48 45 49 95 50 46 51 100 52 94 53 96 54
REMARK SMILES IDX 47 55 99 56 93 57 92 58 48 60 80 61 60 62 79 63 61 64 64 65
REMARK SMILES IDX 78 66 97 67 62 68 63 69 77 71 98 72 65 73 49 74 50 75 58 76
REMARK SMILES IDX 51 77 53 78 59 79 52 80 54 81 55 82 56 83 57 84 81 85 82 86
REMARK SMILES IDX 90 87 83 88 85 89 91 90 84 91 86 92 87 93 88 94 89 95 66 96
REMARK SMILES IDX 67 97 75 98 68 99 70 100 76 101 69 102 71 103 72 104 73 105
REMARK SMILES IDX 74 106
REMARK H PARENT 4 16 7 21 96 59 64 70
REMARK Flexibility Score: inf
ROOT
ATOM      1  C   UNL A   1      38.971  34.170  32.430  1.00  0.00     0.188 C 
ENDROOT
BRANCH   1   2
ATOM      2  O   UNL A   1      37.870  34.710  31.709  1.00  0.00    -0.376 OA
BRANCH   2   3
ATOM      3  C   UNL A   1      36.581  34.186  32.014  1.00  0.00     0.202 C 
BRANCH   3   4
ATOM      4  C   UNL A   1      36.121  33.037  31.153  1.00  0.00     0.261 C 
BRANCH   4   5
ATOM      5  O   UNL A   1      35.744  33.588  29.895  1.00  0.00    -0.460 OA
BRANCH   5   6
ATOM      6  C   UNL A   1      36.592  33.288  28.899  1.00  0.00     0.338 C 
ATOM      7  O   UNL A   1      37.574  33.866  28.553  1.00  0.00    -0.246 OA
BRANCH   6   8
ATOM      8  C   UNL A   1      36.318  31.868  28.585  1.00  0.00     0.065 A 
ATOM      9  C   UNL A   1      33.842  32.139  27.981  1.00  0.00     0.047 C 
ATOM     10  C   UNL A   1      35.122  31.355  28.062  1.00  0.00    -0.013 A 
ATOM     11  C   UNL A   1      35.214  30.067  27.530  1.00  0.00     0.044 A 
ATOM     12  C   UNL A   1      36.244  29.196  27.914  1.00  0.00     0.026 A 
ATOM     13  C   UNL A   1      37.402  31.025  28.892  1.00  0.00     0.016 A 
ATOM     14  C   UNL A   1      37.317  29.664  28.657  1.00  0.00     0.003 A 
BRANCH  11  15
ATOM     15  N   UNL A   1      34.347  29.731  26.484  1.00  0.00    -0.332 N 
ATOM     16  H   UNL A   1      34.442  30.264  25.663  1.00  0.00     0.169 HD
BRANCH  15  17
ATOM     17  C   UNL A   1      33.398  28.774  26.455  1.00  0.00     0.177 C 
ATOM     18  S   UNL A   1      31.923  29.088  27.180  1.00  0.00    -0.040 S 
BRANCH  17  19
ATOM     19  N   UNL A   1      33.564  27.554  25.845  1.00  0.00    -0.302 N 
ATOM     20  C   UNL A   1      33.584  26.955  24.593  1.00  0.00     0.236 C 
ATOM     21  H   UNL A   1      33.723  26.869  26.533  1.00  0.00     0.172 HD
ATOM     22  O   UNL A   1      34.269  25.925  24.500  1.00  0.00    -0.274 OA
BRANCH  20  23
ATOM     23  C   UNL A   1      32.834  27.452  23.370  1.00  0.00     0.175 C 
BRANCH  23  24
ATOM     24  S   UNL A   1      31.240  26.660  23.026  1.00  0.00    -0.116 SA
BRANCH  24  25
ATOM     25  C   UNL A   1      30.200  28.082  23.259  1.00  0.00     0.008 A 
ATOM     26  C   UNL A   1      30.680  29.346  23.618  1.00  0.00     0.016 A 
ATOM     27  C   UNL A   1      28.840  27.909  23.002  1.00  0.00     0.016 A 
ATOM     28  C   UNL A   1      29.807  30.439  23.678  1.00  0.00     0.021 A 
ATOM     29  C   UNL A   1      27.969  28.993  23.062  1.00  0.00     0.021 A 
ATOM     30  C   UNL A   1      28.457  30.256  23.389  1.00  0.00     0.041 A 
ATOM     31  Cl  UNL A   1      27.373  31.591  23.420  1.00  0.00    -0.084 Cl
ENDBRANCH  24  25
ENDBRANCH  23  24
ENDBRANCH  20  23
ENDBRANCH  17  19
ENDBRANCH  15  17
ENDBRANCH  11  15
ENDBRANCH   6   8
ENDBRANCH   5   6
ENDBRANCH   4   5
ENDBRANCH   3   4
ENDBRANCH   2   3
ENDBRANCH   1   2
BRANCH   1  32
ATOM     32  C   UNL A   1      39.684  32.952  31.823  1.00  0.00     0.188 C 
BRANCH  32  33
ATOM     33  O   UNL A   1      39.489  31.710  32.458  1.00  0.00    -0.377 OA
BRANCH  33  34
ATOM     34  C   UNL A   1      39.638  30.575  31.634  1.00  0.00     0.188 C 
BRANCH  34  35
ATOM     35  C   UNL A   1      40.978  30.573  30.877  1.00  0.00     0.188 C 
BRANCH  35  36
ATOM     36  O   UNL A   1      40.924  30.174  29.529  1.00  0.00    -0.376 OA
BRANCH  36  37
ATOM     37  C   UNL A   1      40.891  28.766  29.359  1.00  0.00     0.202 C 
BRANCH  37  38
ATOM     38  C   UNL A   1      40.640  28.090  27.948  1.00  0.00     0.261 C 
BRANCH  38  39
ATOM     39  O   UNL A   1      41.661  28.245  26.827  1.00  0.00    -0.460 OA
BRANCH  39  40
ATOM     40  C   UNL A   1      42.533  27.586  25.974  1.00  0.00     0.338 C 
ATOM     41  O   UNL A   1      42.597  27.985  24.807  1.00  0.00    -0.246 OA
BRANCH  40  42
ATOM     42  C   UNL A   1      43.635  26.601  26.358  1.00  0.00     0.060 A 
ATOM     43  C   UNL A   1      43.367  25.522  27.202  1.00  0.00     0.016 A 
ATOM     44  C   UNL A   1      44.916  26.571  25.835  1.00  0.00     0.016 A 
ATOM     45  C   UNL A   1      44.404  24.871  27.914  1.00  0.00     0.010 A 
ATOM     46  C   UNL A   1      45.961  26.045  26.607  1.00  0.00     0.010 A 
ATOM     47  C   UNL A   1      45.698  25.327  27.776  1.00  0.00    -0.014 A 
BRANCH  47  48
ATOM     48  C   UNL A   1      46.735  25.296  28.841  1.00  0.00     0.031 A 
ATOM     49  C   UNL A   1      48.208  25.196  28.455  1.00  0.00     0.074 A 
ATOM     50  C   UNL A   1      46.401  25.833  30.057  1.00  0.00     0.049 A 
ATOM     51  N   UNL A   1      49.217  25.411  29.242  1.00  0.00    -0.248 NA
ATOM     52  C   UNL A   1      48.666  24.918  27.094  1.00  0.00     0.031 C 
ATOM     53  C   UNL A   1      47.365  26.494  30.921  1.00  0.00     0.029 A 
ATOM     54  N   UNL A   1      45.207  26.020  30.784  1.00  0.00    -0.354 N 
ATOM     55  C   UNL A   1      50.351  25.650  28.486  1.00  0.00     0.074 A 
ATOM     56  C   UNL A   1      49.968  25.237  27.158  1.00  0.00     0.031 C 
ATOM     57  C   UNL A   1      46.791  27.047  31.987  1.00  0.00     0.029 A 
ATOM     58  C   UNL A   1      45.524  26.385  32.112  1.00  0.00     0.049 A 
ATOM     59  H   UNL A   1      44.296  25.913  30.424  1.00  0.00     0.167 HD
ATOM     60  C   UNL A   1      51.438  26.272  29.049  1.00  0.00     0.034 A 
ATOM     61  C   UNL A   1      45.285  25.689  33.269  1.00  0.00     0.034 A 
ATOM     62  C   UNL A   1      51.301  26.430  30.527  1.00  0.00     0.049 A 
ATOM     63  C   UNL A   1      46.583  25.152  33.900  1.00  0.00     0.074 A 
ATOM     64  C   UNL A   1      51.465  27.479  31.423  1.00  0.00     0.029 A 
ATOM     65  N   UNL A   1      50.813  25.368  31.301  1.00  0.00    -0.354 N 
ATOM     66  N   UNL A   1      47.715  25.119  33.235  1.00  0.00    -0.248 NA
ATOM     67  C   UNL A   1      46.791  24.721  35.281  1.00  0.00     0.031 C 
ATOM     68  C   UNL A   1      50.872  27.101  32.667  1.00  0.00     0.029 A 
ATOM     69  C   UNL A   1      50.468  25.775  32.580  1.00  0.00     0.049 A 
ATOM     70  H   UNL A   1      50.724  24.443  30.974  1.00  0.00     0.167 HD
ATOM     71  C   UNL A   1      48.762  24.798  34.035  1.00  0.00     0.074 A 
ATOM     72  C   UNL A   1      48.123  24.486  35.304  1.00  0.00     0.031 C 
ATOM     73  C   UNL A   1      50.061  24.808  33.603  1.00  0.00     0.034 A 
BRANCH  60  74
ATOM     74  C   UNL A   1      52.640  26.882  28.284  1.00  0.00     0.023 A 
ATOM     75  C   UNL A   1      53.925  26.358  28.579  1.00  0.00     0.012 A 
ATOM     76  C   UNL A   1      52.633  27.963  27.358  1.00  0.00     0.148 A 
ATOM     77  C   UNL A   1      55.112  26.863  28.022  1.00  0.00     0.002 A 
ATOM     78  C   UNL A   1      53.816  28.418  26.739  1.00  0.00     0.091 A 
ATOM     79  F   UNL A   1      51.495  28.619  27.111  1.00  0.00    -0.205 F 
ATOM     80  C   UNL A   1      55.058  27.882  27.087  1.00  0.00     0.022 A 
BRANCH  78  81
ATOM     81  S   UNL A   1      53.851  29.677  25.441  1.00  0.00     0.127 S 
ATOM     82  O   UNL A   1      55.285  29.899  25.256  1.00  0.00    -0.237 OA
ATOM     83  O   UNL A   1      53.198  28.993  24.324  1.00  0.00    -0.237 OA
ATOM     84  O   UNL A   1      53.114  30.821  25.963  1.00  0.00    -0.744 OA
ENDBRANCH  78  81
ENDBRANCH  60  74
BRANCH  61  85
ATOM     85  C   UNL A   1      43.860  25.344  33.495  1.00  0.00     0.023 A 
ATOM     86  C   UNL A   1      43.612  23.971  33.777  1.00  0.00     0.012 A 
ATOM     87  C   UNL A   1      43.058  26.314  34.096  1.00  0.00     0.148 A 
ATOM     88  C   UNL A   1      42.750  23.592  34.811  1.00  0.00     0.002 A 
ATOM     89  C   UNL A   1      42.314  25.938  35.207  1.00  0.00     0.091 A 
ATOM     90  F   UNL A   1      43.241  27.595  33.752  1.00  0.00    -0.205 F 
ATOM     91  C   UNL A   1      42.148  24.584  35.566  1.00  0.00     0.022 A 
BRANCH  89  92
ATOM     92  S   UNL A   1      42.289  27.053  36.616  1.00  0.00     0.127 S 
ATOM     93  O   UNL A   1      42.005  26.180  37.746  1.00  0.00    -0.237 OA
ATOM     94  O   UNL A   1      43.670  27.513  36.510  1.00  0.00    -0.237 OA
ATOM     95  O   UNL A   1      41.282  28.060  36.320  1.00  0.00    -0.744 OA
ENDBRANCH  89  92
ENDBRANCH  61  85
BRANCH  73  96
ATOM     96  C   UNL A   1      51.101  23.833  34.106  1.00  0.00     0.023 A 
ATOM     97  C   UNL A   1      52.230  24.296  34.808  1.00  0.00     0.012 A 
ATOM     98  C   UNL A   1      50.837  22.438  34.149  1.00  0.00     0.148 A 
ATOM     99  C   UNL A   1      53.069  23.421  35.500  1.00  0.00     0.002 A 
ATOM    100  C   UNL A   1      51.610  21.591  34.932  1.00  0.00     0.091 A 
ATOM    101  F   UNL A   1      49.828  21.920  33.436  1.00  0.00    -0.205 F 
ATOM    102  C   UNL A   1      52.744  22.075  35.588  1.00  0.00     0.022 A 
BRANCH 100 103
ATOM    103  S   UNL A   1      51.089  19.903  35.279  1.00  0.00     0.127 S 
ATOM    104  O   UNL A   1      50.339  19.569  34.070  1.00  0.00    -0.237 OA
ATOM    105  O   UNL A   1      52.370  19.207  35.415  1.00  0.00    -0.237 OA
ATOM    106  O   UNL A   1      50.317  19.979  36.511  1.00  0.00    -0.744 OA
ENDBRANCH 100 103
ENDBRANCH  73  96
ENDBRANCH  47  48
ENDBRANCH  40  42
ENDBRANCH  39  40
ENDBRANCH  38  39
ENDBRANCH  37  38
ENDBRANCH  36  37
ENDBRANCH  35  36
ENDBRANCH  34  35
ENDBRANCH  33  34
ENDBRANCH  32  33
ENDBRANCH   1  32
TORSDOF 29
ENDMDL
