MODEL 1
REMARK VINA RESULT:     -10.9      0.000      0.000
REMARK SMILES Cc1ccc(C)c(N2C(=O)S[C@H](CC(=O)Nc3ccc(C(=O)OCCOCCOCCOCCOC(=O)c4ccc(-c5c6nc(c(-c7cccc(S(=O)(=O)[O-])c7F)c7ccc([nH]7)c(-c7cccc(S(=O)(=O)[O-])c7F)c7nc(c(-c8cccc(S(=O)(=O)[O-])c8F)c8ccc5[nH]8)C=C7)C=C6)cc4)c(O)c3)C2=O)c1
REMARK SMILES IDX 28 1 27 2 26 3 25 4 24 5 23 6 21 7 22 8 20 9 17 10 18 11
REMARK SMILES IDX 103 12 19 13 101 14 16 15 14 16 15 17 13 19 12 20 8 21 9 22
REMARK SMILES IDX 104 23 10 24 11 25 105 26 7 27 1 28 2 29 3 30 106 31 4 32
REMARK SMILES IDX 5 33 6 34 102 35 29 37 30 38 31 39 32 40 33 41 34 42 35 43
REMARK SMILES IDX 36 44 37 45 38 46 39 47 100 48 40 49 99 50 41 51 42 52 43 53
REMARK SMILES IDX 93 54 44 55 98 56 92 57 94 58 45 59 97 60 91 61 90 62 46 64
REMARK SMILES IDX 78 65 58 66 77 67 59 68 62 69 76 70 95 71 60 72 61 73 75 75
REMARK SMILES IDX 96 76 63 77 47 78 48 79 56 80 49 81 51 82 57 83 50 84 52 85
REMARK SMILES IDX 53 86 54 87 55 88 79 89 80 90 88 91 81 92 83 93 89 94 82 95
REMARK SMILES IDX 84 96 85 97 86 98 87 99 64 100 65 101 73 102 66 103 68 104
REMARK SMILES IDX 74 105 67 106 69 107 70 108 71 109 72 110
REMARK H PARENT 16 18 102 36 94 63 62 74
REMARK Flexibility Score: inf
ROOT
ATOM      1  C   UNL A   1      41.236  21.341  27.802  1.00  0.00     0.188 C 
ENDROOT
BRANCH   1   2
ATOM      2  C   UNL A   1      41.117  22.888  27.699  1.00  0.00     0.188 C 
BRANCH   2   3
ATOM      3  O   UNL A   1      39.793  23.339  27.501  1.00  0.00    -0.376 OA
BRANCH   3   4
ATOM      4  C   UNL A   1      39.132  23.156  26.270  1.00  0.00     0.202 C 
BRANCH   4   5
ATOM      5  C   UNL A   1      38.606  21.758  25.933  1.00  0.00     0.261 C 
BRANCH   5   6
ATOM      6  O   UNL A   1      37.605  21.743  24.891  1.00  0.00    -0.460 OA
BRANCH   6   7
ATOM      7  C   UNL A   1      37.011  20.532  24.772  1.00  0.00     0.341 C 
ATOM      8  O   UNL A   1      37.592  19.466  24.868  1.00  0.00    -0.246 OA
BRANCH   7   9
ATOM      9  C   UNL A   1      35.534  20.589  24.723  1.00  0.00     0.101 A 
ATOM     10  C   UNL A   1      32.765  21.096  25.094  1.00  0.00     0.044 A 
ATOM     11  C   UNL A   1      33.591  22.025  24.557  1.00  0.00     0.027 A 
ATOM     12  C   UNL A   1      33.300  19.793  25.216  1.00  0.00     0.073 A 
ATOM     13  C   UNL A   1      34.955  21.835  24.584  1.00  0.00     0.022 A 
ATOM     14  C   UNL A   1      34.671  19.531  24.926  1.00  0.00     0.132 A 
BRANCH  10  15
ATOM     15  N   UNL A   1      31.540  21.529  25.655  1.00  0.00    -0.326 N 
ATOM     16  C   UNL A   1      30.912  22.775  25.677  1.00  0.00     0.226 C 
ATOM     17  O   UNL A   1      30.197  22.982  26.670  1.00  0.00    -0.275 OA
ATOM     18  H   UNL A   1      31.037  20.818  26.116  1.00  0.00     0.169 HD
BRANCH  16  19
ATOM     19  C   UNL A   1      30.907  23.828  24.503  1.00  0.00     0.125 C 
BRANCH  19  20
ATOM     20  C   UNL A   1      31.595  25.201  24.714  1.00  0.00     0.156 C 
ATOM     21  N   UNL A   1      31.539  27.624  24.348  1.00  0.00    -0.240 N 
ATOM     22  C   UNL A   1      32.398  27.256  23.368  1.00  0.00     0.293 C 
ATOM     23  C   UNL A   1      30.775  26.542  24.807  1.00  0.00     0.248 C 
ATOM     24  O   UNL A   1      32.770  27.966  22.435  1.00  0.00    -0.261 OA
ATOM     25  S   UNL A   1      32.646  25.557  23.354  1.00  0.00    -0.050 SA
ATOM     26  O   UNL A   1      29.585  26.583  25.110  1.00  0.00    -0.273 OA
BRANCH  21  27
ATOM     27  C   UNL A   1      31.207  29.026  24.303  1.00  0.00     0.056 A 
ATOM     28  C   UNL A   1      31.365  32.024  26.725  1.00  0.00     0.044 C 
ATOM     29  C   UNL A   1      31.004  31.128  25.578  1.00  0.00    -0.049 A 
ATOM     30  C   UNL A   1      29.945  31.533  24.765  1.00  0.00     0.004 A 
ATOM     31  C   UNL A   1      31.638  29.884  25.341  1.00  0.00     0.030 A 
ATOM     32  C   UNL A   1      29.485  30.698  23.762  1.00  0.00     0.006 A 
ATOM     33  C   UNL A   1      30.072  29.437  23.551  1.00  0.00    -0.027 A 
ATOM     34  C   UNL A   1      29.375  28.569  22.539  1.00  0.00     0.046 C 
ENDBRANCH  21  27
ENDBRANCH  19  20
ENDBRANCH  16  19
ENDBRANCH  10  15
BRANCH  14  35
ATOM     35  O   UNL A   1      35.112  18.239  24.879  1.00  0.00    -0.507 OA
ATOM     36  H   UNL A   1      34.616  17.560  25.292  1.00  0.00     0.293 HD
ENDBRANCH  14  35
ENDBRANCH   7   9
ENDBRANCH   6   7
ENDBRANCH   5   6
ENDBRANCH   4   5
ENDBRANCH   3   4
ENDBRANCH   2   3
ENDBRANCH   1   2
BRANCH   1  37
ATOM     37  O   UNL A   1      42.354  20.684  27.215  1.00  0.00    -0.377 OA
BRANCH  37  38
ATOM     38  C   UNL A   1      42.063  19.762  26.176  1.00  0.00     0.188 C 
BRANCH  38  39
ATOM     39  C   UNL A   1      42.796  18.411  26.217  1.00  0.00     0.188 C 
BRANCH  39  40
ATOM     40  O   UNL A   1      44.196  18.501  26.001  1.00  0.00    -0.376 OA
BRANCH  40  41
ATOM     41  C   UNL A   1      44.629  18.815  24.687  1.00  0.00     0.202 C 
BRANCH  41  42
ATOM     42  C   UNL A   1      45.763  19.826  24.746  1.00  0.00     0.261 C 
BRANCH  42  43
ATOM     43  O   UNL A   1      45.407  21.085  25.384  1.00  0.00    -0.460 OA
BRANCH  43  44
ATOM     44  C   UNL A   1      44.830  22.065  24.622  1.00  0.00     0.338 C 
ATOM     45  O   UNL A   1      44.480  21.896  23.464  1.00  0.00    -0.246 OA
BRANCH  44  46
ATOM     46  C   UNL A   1      44.675  23.348  25.399  1.00  0.00     0.060 A 
ATOM     47  C   UNL A   1      44.918  23.443  26.766  1.00  0.00     0.016 A 
ATOM     48  C   UNL A   1      44.131  24.466  24.776  1.00  0.00     0.016 A 
ATOM     49  C   UNL A   1      44.469  24.590  27.484  1.00  0.00     0.010 A 
ATOM     50  C   UNL A   1      43.577  25.531  25.501  1.00  0.00     0.010 A 
ATOM     51  C   UNL A   1      43.657  25.596  26.898  1.00  0.00    -0.014 A 
BRANCH  51  52
ATOM     52  C   UNL A   1      43.412  26.960  27.509  1.00  0.00     0.031 A 
ATOM     53  C   UNL A   1      44.642  27.675  27.211  1.00  0.00     0.074 A 
ATOM     54  C   UNL A   1      42.507  27.601  28.332  1.00  0.00     0.049 A 
ATOM     55  N   UNL A   1      45.599  27.723  28.088  1.00  0.00    -0.248 NA
ATOM     56  C   UNL A   1      45.076  27.970  25.839  1.00  0.00     0.031 C 
ATOM     57  C   UNL A   1      41.654  26.989  29.316  1.00  0.00     0.029 A 
ATOM     58  N   UNL A   1      42.072  28.949  28.459  1.00  0.00    -0.354 N 
ATOM     59  C   UNL A   1      46.467  28.607  27.506  1.00  0.00     0.074 A 
ATOM     60  C   UNL A   1      46.308  28.432  26.079  1.00  0.00     0.031 C 
ATOM     61  C   UNL A   1      40.686  27.822  29.757  1.00  0.00     0.029 A 
ATOM     62  C   UNL A   1      40.750  29.091  29.018  1.00  0.00     0.049 A 
ATOM     63  H   UNL A   1      42.625  29.718  28.190  1.00  0.00     0.167 HD
ATOM     64  C   UNL A   1      46.628  29.756  28.211  1.00  0.00     0.034 A 
ATOM     65  C   UNL A   1      40.016  30.157  29.500  1.00  0.00     0.034 A 
ATOM     66  C   UNL A   1      46.400  29.570  29.633  1.00  0.00     0.049 A 
ATOM     67  C   UNL A   1      40.928  30.845  30.430  1.00  0.00     0.074 A 
ATOM     68  C   UNL A   1      46.945  28.773  30.623  1.00  0.00     0.029 A 
ATOM     69  N   UNL A   1      45.160  29.948  30.081  1.00  0.00    -0.354 N 
ATOM     70  N   UNL A   1      41.335  30.341  31.564  1.00  0.00    -0.248 NA
ATOM     71  C   UNL A   1      41.770  31.879  29.846  1.00  0.00     0.031 C 
ATOM     72  C   UNL A   1      45.988  28.692  31.675  1.00  0.00     0.029 A 
ATOM     73  C   UNL A   1      44.898  29.489  31.348  1.00  0.00     0.049 A 
ATOM     74  H   UNL A   1      44.529  30.490  29.554  1.00  0.00     0.167 HD
ATOM     75  C   UNL A   1      42.697  30.587  31.522  1.00  0.00     0.074 A 
ATOM     76  C   UNL A   1      42.881  31.654  30.545  1.00  0.00     0.031 C 
ATOM     77  C   UNL A   1      43.605  29.679  31.975  1.00  0.00     0.034 A 
BRANCH  64  78
ATOM     78  C   UNL A   1      46.430  31.081  27.533  1.00  0.00     0.023 A 
ATOM     79  C   UNL A   1      45.149  31.380  27.060  1.00  0.00     0.012 A 
ATOM     80  C   UNL A   1      47.481  31.959  27.159  1.00  0.00     0.148 A 
ATOM     81  C   UNL A   1      44.920  32.535  26.307  1.00  0.00     0.002 A 
ATOM     82  C   UNL A   1      47.232  33.166  26.537  1.00  0.00     0.091 A 
ATOM     83  F   UNL A   1      48.751  31.558  27.237  1.00  0.00    -0.205 F 
ATOM     84  C   UNL A   1      45.949  33.449  26.082  1.00  0.00     0.022 A 
BRANCH  82  85
ATOM     85  S   UNL A   1      48.528  34.393  26.329  1.00  0.00     0.127 S 
ATOM     86  O   UNL A   1      49.087  34.464  27.674  1.00  0.00    -0.237 OA
ATOM     87  O   UNL A   1      49.385  33.752  25.331  1.00  0.00    -0.237 OA
ATOM     88  O   UNL A   1      47.861  35.597  25.845  1.00  0.00    -0.744 OA
ENDBRANCH  82  85
ENDBRANCH  64  78
BRANCH  65  89
ATOM     89  C   UNL A   1      38.527  30.510  29.424  1.00  0.00     0.023 A 
ATOM     90  C   UNL A   1      37.628  29.883  28.531  1.00  0.00     0.012 A 
ATOM     91  C   UNL A   1      37.908  31.340  30.397  1.00  0.00     0.148 A 
ATOM     92  C   UNL A   1      36.225  30.096  28.597  1.00  0.00     0.002 A 
ATOM     93  C   UNL A   1      36.516  31.573  30.457  1.00  0.00     0.091 A 
ATOM     94  F   UNL A   1      38.690  31.888  31.323  1.00  0.00    -0.205 F 
ATOM     95  C   UNL A   1      35.669  30.943  29.552  1.00  0.00     0.022 A 
BRANCH  93  96
ATOM     96  S   UNL A   1      35.780  32.599  31.768  1.00  0.00     0.127 S 
ATOM     97  O   UNL A   1      34.357  32.633  31.425  1.00  0.00    -0.237 OA
ATOM     98  O   UNL A   1      36.093  31.857  32.982  1.00  0.00    -0.237 OA
ATOM     99  O   UNL A   1      36.442  33.892  31.634  1.00  0.00    -0.744 OA
ENDBRANCH  93  96
ENDBRANCH  65  89
BRANCH  77 100
ATOM    100  C   UNL A   1      43.248  28.820  33.154  1.00  0.00     0.023 A 
ATOM    101  C   UNL A   1      42.610  27.573  33.059  1.00  0.00     0.012 A 
ATOM    102  C   UNL A   1      43.718  29.238  34.411  1.00  0.00     0.148 A 
ATOM    103  C   UNL A   1      42.446  26.760  34.189  1.00  0.00     0.002 A 
ATOM    104  C   UNL A   1      43.592  28.413  35.523  1.00  0.00     0.091 A 
ATOM    105  F   UNL A   1      44.316  30.437  34.491  1.00  0.00    -0.205 F 
ATOM    106  C   UNL A   1      42.948  27.173  35.419  1.00  0.00     0.022 A 
BRANCH 104 107
ATOM    107  S   UNL A   1      44.350  28.836  37.093  1.00  0.00     0.127 S 
ATOM    108  O   UNL A   1      44.142  27.617  37.873  1.00  0.00    -0.237 OA
ATOM    109  O   UNL A   1      45.741  29.088  36.713  1.00  0.00    -0.237 OA
ATOM    110  O   UNL A   1      43.644  30.017  37.573  1.00  0.00    -0.744 OA
ENDBRANCH 104 107
ENDBRANCH  77 100
ENDBRANCH  51  52
ENDBRANCH  44  46
ENDBRANCH  43  44
ENDBRANCH  42  43
ENDBRANCH  41  42
ENDBRANCH  40  41
ENDBRANCH  39  40
ENDBRANCH  38  39
ENDBRANCH  37  38
ENDBRANCH   1  37
TORSDOF 28
ENDMDL
MODEL 2
REMARK VINA RESULT:      -9.8      1.861      5.972
REMARK SMILES Cc1ccc(C)c(N2C(=O)S[C@H](CC(=O)Nc3ccc(C(=O)OCCOCCOCCOCCOC(=O)c4ccc(-c5c6nc(c(-c7cccc(S(=O)(=O)[O-])c7F)c7ccc([nH]7)c(-c7cccc(S(=O)(=O)[O-])c7F)c7nc(c(-c8cccc(S(=O)(=O)[O-])c8F)c8ccc5[nH]8)C=C7)C=C6)cc4)c(O)c3)C2=O)c1
REMARK SMILES IDX 28 1 27 2 26 3 25 4 24 5 23 6 21 7 22 8 20 9 17 10 18 11
REMARK SMILES IDX 103 12 19 13 101 14 16 15 14 16 15 17 13 19 12 20 8 21 9 22
REMARK SMILES IDX 104 23 10 24 11 25 105 26 7 27 1 28 2 29 3 30 106 31 4 32
REMARK SMILES IDX 5 33 6 34 102 35 29 37 30 38 31 39 32 40 33 41 34 42 35 43
REMARK SMILES IDX 36 44 37 45 38 46 39 47 100 48 40 49 99 50 41 51 42 52 43 53
REMARK SMILES IDX 93 54 44 55 98 56 92 57 94 58 45 59 97 60 91 61 90 62 46 64
REMARK SMILES IDX 78 65 58 66 77 67 59 68 62 69 76 70 95 71 60 72 61 73 75 75
REMARK SMILES IDX 96 76 63 77 47 78 48 79 56 80 49 81 51 82 57 83 50 84 52 85
REMARK SMILES IDX 53 86 54 87 55 88 79 89 80 90 88 91 81 92 83 93 89 94 82 95
REMARK SMILES IDX 84 96 85 97 86 98 87 99 64 100 65 101 73 102 66 103 68 104
REMARK SMILES IDX 74 105 67 106 69 107 70 108 71 109 72 110
REMARK H PARENT 16 18 102 36 94 63 62 74
REMARK Flexibility Score: inf
ROOT
ATOM      1  C   UNL A   1      41.231  21.436  27.939  1.00  0.00     0.188 C 
ENDROOT
BRANCH   1   2
ATOM      2  C   UNL A   1      41.035  22.979  27.924  1.00  0.00     0.188 C 
BRANCH   2   3
ATOM      3  O   UNL A   1      39.704  23.374  27.660  1.00  0.00    -0.376 OA
BRANCH   3   4
ATOM      4  C   UNL A   1      39.120  23.184  26.392  1.00  0.00     0.202 C 
BRANCH   4   5
ATOM      5  C   UNL A   1      38.701  21.766  25.995  1.00  0.00     0.261 C 
BRANCH   5   6
ATOM      6  O   UNL A   1      37.780  21.716  24.883  1.00  0.00    -0.460 OA
BRANCH   6   7
ATOM      7  C   UNL A   1      37.157  20.517  24.790  1.00  0.00     0.341 C 
ATOM      8  O   UNL A   1      37.719  19.440  24.871  1.00  0.00    -0.246 OA
BRANCH   7   9
ATOM      9  C   UNL A   1      35.681  20.605  24.793  1.00  0.00     0.101 A 
ATOM     10  C   UNL A   1      32.935  21.113  25.303  1.00  0.00     0.044 A 
ATOM     11  C   UNL A   1      33.764  22.084  24.853  1.00  0.00     0.027 A 
ATOM     12  C   UNL A   1      33.446  19.797  25.257  1.00  0.00     0.073 A 
ATOM     13  C   UNL A   1      35.123  21.868  24.816  1.00  0.00     0.022 A 
ATOM     14  C   UNL A   1      34.802  19.546  24.898  1.00  0.00     0.132 A 
BRANCH  10  15
ATOM     15  N   UNL A   1      31.734  21.499  25.947  1.00  0.00    -0.326 N 
ATOM     16  C   UNL A   1      31.063  22.721  26.015  1.00  0.00     0.226 C 
ATOM     17  O   UNL A   1      30.409  22.900  27.054  1.00  0.00    -0.275 OA
ATOM     18  H   UNL A   1      31.291  20.770  26.438  1.00  0.00     0.169 HD
BRANCH  16  19
ATOM     19  C   UNL A   1      30.940  23.774  24.848  1.00  0.00     0.125 C 
BRANCH  19  20
ATOM     20  C   UNL A   1      31.603  25.165  25.009  1.00  0.00     0.156 C 
ATOM     21  N   UNL A   1      31.539  27.563  24.499  1.00  0.00    -0.240 N 
ATOM     22  C   UNL A   1      32.446  27.149  23.583  1.00  0.00     0.293 C 
ATOM     23  C   UNL A   1      30.766  26.499  24.986  1.00  0.00     0.248 C 
ATOM     24  O   UNL A   1      32.853  27.809  22.627  1.00  0.00    -0.261 OA
ATOM     25  S   UNL A   1      32.712  25.455  23.679  1.00  0.00    -0.050 SA
ATOM     26  O   UNL A   1      29.563  26.543  25.232  1.00  0.00    -0.273 OA
BRANCH  21  27
ATOM     27  C   UNL A   1      31.195  28.955  24.358  1.00  0.00     0.056 A 
ATOM     28  C   UNL A   1      31.318  32.112  26.570  1.00  0.00     0.044 C 
ATOM     29  C   UNL A   1      30.969  31.137  25.486  1.00  0.00    -0.049 A 
ATOM     30  C   UNL A   1      29.910  31.476  24.643  1.00  0.00     0.004 A 
ATOM     31  C   UNL A   1      31.615  29.886  25.336  1.00  0.00     0.030 A 
ATOM     32  C   UNL A   1      29.461  30.571  23.698  1.00  0.00     0.006 A 
ATOM     33  C   UNL A   1      30.060  29.303  23.576  1.00  0.00    -0.027 A 
ATOM     34  C   UNL A   1      29.374  28.362  22.623  1.00  0.00     0.046 C 
ENDBRANCH  21  27
ENDBRANCH  19  20
ENDBRANCH  16  19
ENDBRANCH  10  15
BRANCH  14  35
ATOM     35  O   UNL A   1      35.215  18.261  24.690  1.00  0.00    -0.507 OA
ATOM     36  H   UNL A   1      34.629  17.548  24.854  1.00  0.00     0.293 HD
ENDBRANCH  14  35
ENDBRANCH   7   9
ENDBRANCH   6   7
ENDBRANCH   5   6
ENDBRANCH   4   5
ENDBRANCH   3   4
ENDBRANCH   2   3
ENDBRANCH   1   2
BRANCH   1  37
ATOM     37  O   UNL A   1      42.354  20.867  27.278  1.00  0.00    -0.377 OA
BRANCH  37  38
ATOM     38  C   UNL A   1      42.070  20.053  26.150  1.00  0.00     0.188 C 
BRANCH  38  39
ATOM     39  C   UNL A   1      42.883  18.757  26.002  1.00  0.00     0.188 C 
BRANCH  39  40
ATOM     40  O   UNL A   1      44.268  18.960  25.774  1.00  0.00    -0.376 OA
BRANCH  40  41
ATOM     41  C   UNL A   1      44.634  19.649  24.588  1.00  0.00     0.202 C 
BRANCH  41  42
ATOM     42  C   UNL A   1      45.602  20.773  24.924  1.00  0.00     0.261 C 
BRANCH  42  43
ATOM     43  O   UNL A   1      45.038  21.812  25.773  1.00  0.00    -0.460 OA
BRANCH  43  44
ATOM     44  C   UNL A   1      44.394  22.865  25.178  1.00  0.00     0.338 C 
ATOM     45  O   UNL A   1      43.804  22.774  24.113  1.00  0.00    -0.246 OA
BRANCH  44  46
ATOM     46  C   UNL A   1      44.500  24.116  26.012  1.00  0.00     0.060 A 
ATOM     47  C   UNL A   1      45.615  24.423  26.786  1.00  0.00     0.016 A 
ATOM     48  C   UNL A   1      43.393  24.948  26.143  1.00  0.00     0.016 A 
ATOM     49  C   UNL A   1      45.530  25.452  27.769  1.00  0.00     0.010 A 
ATOM     50  C   UNL A   1      43.270  25.869  27.194  1.00  0.00     0.010 A 
ATOM     51  C   UNL A   1      44.311  26.101  28.101  1.00  0.00    -0.014 A 
BRANCH  51  52
ATOM     52  C   UNL A   1      44.217  27.386  28.897  1.00  0.00     0.031 A 
ATOM     53  C   UNL A   1      44.364  26.929  30.270  1.00  0.00     0.074 A 
ATOM     54  C   UNL A   1      43.896  28.717  28.720  1.00  0.00     0.049 A 
ATOM     55  N   UNL A   1      43.314  26.688  30.995  1.00  0.00    -0.248 NA
ATOM     56  C   UNL A   1      45.590  26.289  30.765  1.00  0.00     0.031 C 
ATOM     57  C   UNL A   1      43.046  29.270  27.698  1.00  0.00     0.029 A 
ATOM     58  N   UNL A   1      44.292  29.922  29.363  1.00  0.00    -0.354 N 
ATOM     59  C   UNL A   1      43.870  26.461  32.225  1.00  0.00     0.074 A 
ATOM     60  C   UNL A   1      45.170  25.883  31.968  1.00  0.00     0.031 C 
ATOM     61  C   UNL A   1      43.149  30.614  27.605  1.00  0.00     0.029 A 
ATOM     62  C   UNL A   1      44.180  31.096  28.534  1.00  0.00     0.049 A 
ATOM     63  H   UNL A   1      44.613  29.951  30.293  1.00  0.00     0.167 HD
ATOM     64  C   UNL A   1      43.516  27.381  33.159  1.00  0.00     0.034 A 
ATOM     65  C   UNL A   1      44.251  32.455  28.772  1.00  0.00     0.034 A 
ATOM     66  C   UNL A   1      42.220  27.977  32.887  1.00  0.00     0.049 A 
ATOM     67  C   UNL A   1      43.351  32.678  29.917  1.00  0.00     0.074 A 
ATOM     68  C   UNL A   1      40.931  27.502  32.726  1.00  0.00     0.029 A 
ATOM     69  N   UNL A   1      42.257  29.207  32.281  1.00  0.00    -0.354 N 
ATOM     70  N   UNL A   1      42.053  32.541  29.866  1.00  0.00    -0.248 NA
ATOM     71  C   UNL A   1      43.960  32.565  31.234  1.00  0.00     0.031 C 
ATOM     72  C   UNL A   1      40.204  28.492  32.006  1.00  0.00     0.029 A 
ATOM     73  C   UNL A   1      41.032  29.586  31.790  1.00  0.00     0.049 A 
ATOM     74  H   UNL A   1      43.071  29.756  32.207  1.00  0.00     0.167 HD
ATOM     75  C   UNL A   1      41.793  31.797  31.006  1.00  0.00     0.074 A 
ATOM     76  C   UNL A   1      42.951  31.976  31.874  1.00  0.00     0.031 C 
ATOM     77  C   UNL A   1      40.865  30.800  31.016  1.00  0.00     0.034 A 
BRANCH  64  78
ATOM     78  C   UNL A   1      44.580  28.095  33.943  1.00  0.00     0.023 A 
ATOM     79  C   UNL A   1      45.372  29.022  33.261  1.00  0.00     0.012 A 
ATOM     80  C   UNL A   1      44.970  27.756  35.264  1.00  0.00     0.148 A 
ATOM     81  C   UNL A   1      46.462  29.629  33.892  1.00  0.00     0.002 A 
ATOM     82  C   UNL A   1      45.957  28.453  35.932  1.00  0.00     0.091 A 
ATOM     83  F   UNL A   1      44.518  26.636  35.832  1.00  0.00    -0.205 F 
ATOM     84  C   UNL A   1      46.729  29.378  35.238  1.00  0.00     0.022 A 
BRANCH  82  85
ATOM     85  S   UNL A   1      46.245  28.211  37.689  1.00  0.00     0.127 S 
ATOM     86  O   UNL A   1      44.921  28.470  38.244  1.00  0.00    -0.237 OA
ATOM     87  O   UNL A   1      46.674  26.812  37.728  1.00  0.00    -0.237 OA
ATOM     88  O   UNL A   1      47.293  29.158  38.054  1.00  0.00    -0.744 OA
ENDBRANCH  82  85
ENDBRANCH  64  78
BRANCH  65  89
ATOM     89  C   UNL A   1      44.828  33.622  27.963  1.00  0.00     0.023 A 
ATOM     90  C   UNL A   1      45.439  33.459  26.698  1.00  0.00     0.012 A 
ATOM     91  C   UNL A   1      44.596  34.973  28.335  1.00  0.00     0.148 A 
ATOM     92  C   UNL A   1      45.808  34.565  25.889  1.00  0.00     0.002 A 
ATOM     93  C   UNL A   1      44.978  36.080  27.545  1.00  0.00     0.091 A 
ATOM     94  F   UNL A   1      43.944  35.193  29.473  1.00  0.00    -0.205 F 
ATOM     95  C   UNL A   1      45.585  35.874  26.311  1.00  0.00     0.022 A 
BRANCH  93  96
ATOM     96  S   UNL A   1      44.595  37.786  28.051  1.00  0.00     0.127 S 
ATOM     97  O   UNL A   1      45.420  38.606  27.163  1.00  0.00    -0.237 OA
ATOM     98  O   UNL A   1      43.162  37.887  27.811  1.00  0.00    -0.237 OA
ATOM     99  O   UNL A   1      45.004  37.851  29.450  1.00  0.00    -0.744 OA
ENDBRANCH  93  96
ENDBRANCH  65  89
BRANCH  77 100
ATOM    100  C   UNL A   1      39.630  30.948  30.174  1.00  0.00     0.023 A 
ATOM    101  C   UNL A   1      39.402  30.253  28.977  1.00  0.00     0.012 A 
ATOM    102  C   UNL A   1      38.587  31.725  30.707  1.00  0.00     0.148 A 
ATOM    103  C   UNL A   1      38.163  30.326  28.326  1.00  0.00     0.002 A 
ATOM    104  C   UNL A   1      37.345  31.765  30.083  1.00  0.00     0.091 A 
ATOM    105  F   UNL A   1      38.821  32.395  31.846  1.00  0.00    -0.205 F 
ATOM    106  C   UNL A   1      37.129  31.072  28.885  1.00  0.00     0.022 A 
BRANCH 104 107
ATOM    107  S   UNL A   1      35.943  32.590  30.839  1.00  0.00     0.127 S 
ATOM    108  O   UNL A   1      36.472  33.931  31.084  1.00  0.00    -0.237 OA
ATOM    109  O   UNL A   1      34.930  32.516  29.785  1.00  0.00    -0.237 OA
ATOM    110  O   UNL A   1      35.617  31.817  32.030  1.00  0.00    -0.744 OA
ENDBRANCH 104 107
ENDBRANCH  77 100
ENDBRANCH  51  52
ENDBRANCH  44  46
ENDBRANCH  43  44
ENDBRANCH  42  43
ENDBRANCH  41  42
ENDBRANCH  40  41
ENDBRANCH  39  40
ENDBRANCH  38  39
ENDBRANCH  37  38
ENDBRANCH   1  37
TORSDOF 28
ENDMDL
MODEL 3
REMARK VINA RESULT:      -9.5      2.765      6.066
REMARK SMILES Cc1ccc(C)c(N2C(=O)S[C@H](CC(=O)Nc3ccc(C(=O)OCCOCCOCCOCCOC(=O)c4ccc(-c5c6nc(c(-c7cccc(S(=O)(=O)[O-])c7F)c7ccc([nH]7)c(-c7cccc(S(=O)(=O)[O-])c7F)c7nc(c(-c8cccc(S(=O)(=O)[O-])c8F)c8ccc5[nH]8)C=C7)C=C6)cc4)c(O)c3)C2=O)c1
REMARK SMILES IDX 28 1 27 2 26 3 25 4 24 5 23 6 21 7 22 8 20 9 17 10 18 11
REMARK SMILES IDX 103 12 19 13 101 14 16 15 14 16 15 17 13 19 12 20 8 21 9 22
REMARK SMILES IDX 104 23 10 24 11 25 105 26 7 27 1 28 2 29 3 30 106 31 4 32
REMARK SMILES IDX 5 33 6 34 102 35 29 37 30 38 31 39 32 40 33 41 34 42 35 43
REMARK SMILES IDX 36 44 37 45 38 46 39 47 100 48 40 49 99 50 41 51 42 52 43 53
REMARK SMILES IDX 93 54 44 55 98 56 92 57 94 58 45 59 97 60 91 61 90 62 46 64
REMARK SMILES IDX 78 65 58 66 77 67 59 68 62 69 76 70 95 71 60 72 61 73 75 75
REMARK SMILES IDX 96 76 63 77 47 78 48 79 56 80 49 81 51 82 57 83 50 84 52 85
REMARK SMILES IDX 53 86 54 87 55 88 79 89 80 90 88 91 81 92 83 93 89 94 82 95
REMARK SMILES IDX 84 96 85 97 86 98 87 99 64 100 65 101 73 102 66 103 68 104
REMARK SMILES IDX 74 105 67 106 69 107 70 108 71 109 72 110
REMARK H PARENT 16 18 102 36 94 63 62 74
REMARK Flexibility Score: inf
ROOT
ATOM      1  C   UNL A   1      35.828  23.340  23.939  1.00  0.00     0.188 C 
ENDROOT
BRANCH   1   2
ATOM      2  C   UNL A   1      34.574  23.407  23.020  1.00  0.00     0.188 C 
BRANCH   2   3
ATOM      3  O   UNL A   1      34.406  24.660  22.389  1.00  0.00    -0.376 OA
BRANCH   3   4
ATOM      4  C   UNL A   1      33.152  25.071  21.895  1.00  0.00     0.202 C 
BRANCH   4   5
ATOM      5  C   UNL A   1      32.915  26.568  21.680  1.00  0.00     0.261 C 
BRANCH   5   6
ATOM      6  O   UNL A   1      34.080  27.388  21.921  1.00  0.00    -0.460 OA
BRANCH   6   7
ATOM      7  C   UNL A   1      33.830  28.383  22.803  1.00  0.00     0.341 C 
ATOM      8  O   UNL A   1      34.009  29.567  22.577  1.00  0.00    -0.246 OA
BRANCH   7   9
ATOM      9  C   UNL A   1      33.110  27.944  24.018  1.00  0.00     0.101 A 
ATOM     10  C   UNL A   1      31.791  26.540  26.104  1.00  0.00     0.044 A 
ATOM     11  C   UNL A   1      33.131  26.456  25.928  1.00  0.00     0.027 A 
ATOM     12  C   UNL A   1      31.136  27.550  25.364  1.00  0.00     0.073 A 
ATOM     13  C   UNL A   1      33.713  26.972  24.792  1.00  0.00     0.022 A 
ATOM     14  C   UNL A   1      31.835  28.321  24.391  1.00  0.00     0.132 A 
BRANCH  10  15
ATOM     15  N   UNL A   1      31.143  25.517  26.837  1.00  0.00    -0.326 N 
ATOM     16  C   UNL A   1      30.435  24.384  26.433  1.00  0.00     0.226 C 
ATOM     17  O   UNL A   1      29.542  24.021  27.214  1.00  0.00    -0.275 OA
ATOM     18  H   UNL A   1      31.203  25.626  27.814  1.00  0.00     0.169 HD
BRANCH  16  19
ATOM     19  C   UNL A   1      30.783  23.470  25.197  1.00  0.00     0.125 C 
BRANCH  19  20
ATOM     20  C   UNL A   1      32.114  22.676  25.192  1.00  0.00     0.156 C 
ATOM     21  N   UNL A   1      33.224  20.492  25.094  1.00  0.00    -0.240 N 
ATOM     22  C   UNL A   1      33.276  20.725  26.427  1.00  0.00     0.293 C 
ATOM     23  C   UNL A   1      32.259  21.288  24.462  1.00  0.00     0.248 C 
ATOM     24  O   UNL A   1      33.560  19.896  27.290  1.00  0.00    -0.261 OA
ATOM     25  S   UNL A   1      32.545  22.225  26.834  1.00  0.00    -0.050 SA
ATOM     26  O   UNL A   1      31.516  20.927  23.552  1.00  0.00    -0.273 OA
BRANCH  21  27
ATOM     27  C   UNL A   1      33.709  19.184  24.735  1.00  0.00     0.056 A 
ATOM     28  C   UNL A   1      32.550  15.536  25.207  1.00  0.00     0.044 C 
ATOM     29  C   UNL A   1      33.397  16.747  24.960  1.00  0.00    -0.049 A 
ATOM     30  C   UNL A   1      34.777  16.551  24.877  1.00  0.00     0.004 A 
ATOM     31  C   UNL A   1      32.866  18.057  24.878  1.00  0.00     0.030 A 
ATOM     32  C   UNL A   1      35.624  17.640  24.767  1.00  0.00     0.006 A 
ATOM     33  C   UNL A   1      35.112  18.950  24.739  1.00  0.00    -0.027 A 
ATOM     34  C   UNL A   1      36.146  20.041  24.779  1.00  0.00     0.046 C 
ENDBRANCH  21  27
ENDBRANCH  19  20
ENDBRANCH  16  19
ENDBRANCH  10  15
BRANCH  14  35
ATOM     35  O   UNL A   1      31.225  29.403  23.825  1.00  0.00    -0.507 OA
ATOM     36  H   UNL A   1      30.290  29.435  23.764  1.00  0.00     0.293 HD
ENDBRANCH  14  35
ENDBRANCH   7   9
ENDBRANCH   6   7
ENDBRANCH   5   6
ENDBRANCH   4   5
ENDBRANCH   3   4
ENDBRANCH   2   3
ENDBRANCH   1   2
BRANCH   1  37
ATOM     37  O   UNL A   1      35.682  23.553  25.338  1.00  0.00    -0.377 OA
BRANCH  37  38
ATOM     38  C   UNL A   1      36.878  23.794  26.062  1.00  0.00     0.188 C 
BRANCH  38  39
ATOM     39  C   UNL A   1      38.086  22.902  25.730  1.00  0.00     0.188 C 
BRANCH  39  40
ATOM     40  O   UNL A   1      39.200  23.086  26.589  1.00  0.00    -0.376 OA
BRANCH  40  41
ATOM     41  C   UNL A   1      40.081  21.985  26.751  1.00  0.00     0.202 C 
BRANCH  41  42
ATOM     42  C   UNL A   1      41.515  22.434  26.520  1.00  0.00     0.261 C 
BRANCH  42  43
ATOM     43  O   UNL A   1      41.648  23.832  26.139  1.00  0.00    -0.460 OA
BRANCH  43  44
ATOM     44  C   UNL A   1      42.869  24.436  26.284  1.00  0.00     0.338 C 
ATOM     45  O   UNL A   1      43.926  23.880  26.035  1.00  0.00    -0.246 OA
BRANCH  44  46
ATOM     46  C   UNL A   1      42.725  25.857  26.768  1.00  0.00     0.060 A 
ATOM     47  C   UNL A   1      43.781  26.764  26.789  1.00  0.00     0.016 A 
ATOM     48  C   UNL A   1      41.533  26.263  27.357  1.00  0.00     0.016 A 
ATOM     49  C   UNL A   1      43.653  27.977  27.527  1.00  0.00     0.010 A 
ATOM     50  C   UNL A   1      41.454  27.392  28.186  1.00  0.00     0.010 A 
ATOM     51  C   UNL A   1      42.542  28.255  28.367  1.00  0.00    -0.014 A 
BRANCH  51  52
ATOM     52  C   UNL A   1      42.211  29.625  28.921  1.00  0.00     0.031 A 
ATOM     53  C   UNL A   1      43.322  30.441  28.455  1.00  0.00     0.074 A 
ATOM     54  C   UNL A   1      41.327  30.225  29.796  1.00  0.00     0.049 A 
ATOM     55  N   UNL A   1      44.349  30.646  29.223  1.00  0.00    -0.248 NA
ATOM     56  C   UNL A   1      43.584  30.684  27.031  1.00  0.00     0.031 C 
ATOM     57  C   UNL A   1      40.647  29.597  30.898  1.00  0.00     0.029 A 
ATOM     58  N   UNL A   1      40.763  31.526  29.890  1.00  0.00    -0.354 N 
ATOM     59  C   UNL A   1      45.054  31.572  28.503  1.00  0.00     0.074 A 
ATOM     60  C   UNL A   1      44.775  31.285  27.114  1.00  0.00     0.031 C 
ATOM     61  C   UNL A   1      39.642  30.355  31.389  1.00  0.00     0.029 A 
ATOM     62  C   UNL A   1      39.495  31.570  30.576  1.00  0.00     0.049 A 
ATOM     63  H   UNL A   1      41.200  32.327  29.521  1.00  0.00     0.167 HD
ATOM     64  C   UNL A   1      45.157  32.777  29.121  1.00  0.00     0.034 A 
ATOM     65  C   UNL A   1      38.700  32.586  31.070  1.00  0.00     0.034 A 
ATOM     66  C   UNL A   1      45.092  32.666  30.567  1.00  0.00     0.049 A 
ATOM     67  C   UNL A   1      39.618  33.425  31.859  1.00  0.00     0.074 A 
ATOM     68  C   UNL A   1      45.815  31.998  31.538  1.00  0.00     0.029 A 
ATOM     69  N   UNL A   1      43.868  32.945  31.120  1.00  0.00    -0.354 N 
ATOM     70  N   UNL A   1      40.187  33.043  32.971  1.00  0.00    -0.248 NA
ATOM     71  C   UNL A   1      40.281  34.498  31.131  1.00  0.00     0.031 C 
ATOM     72  C   UNL A   1      44.980  31.891  32.687  1.00  0.00     0.029 A 
ATOM     73  C   UNL A   1      43.783  32.548  32.432  1.00  0.00     0.049 A 
ATOM     74  H   UNL A   1      43.133  33.381  30.631  1.00  0.00     0.167 HD
ATOM     75  C   UNL A   1      41.503  33.425  32.772  1.00  0.00     0.074 A 
ATOM     76  C   UNL A   1      41.474  34.435  31.722  1.00  0.00     0.031 C 
ATOM     77  C   UNL A   1      42.545  32.647  33.179  1.00  0.00     0.034 A 
BRANCH  64  78
ATOM     78  C   UNL A   1      44.751  34.026  28.392  1.00  0.00     0.023 A 
ATOM     79  C   UNL A   1      43.403  34.163  28.048  1.00  0.00     0.012 A 
ATOM     80  C   UNL A   1      45.658  34.974  27.852  1.00  0.00     0.148 A 
ATOM     81  C   UNL A   1      42.975  35.234  27.259  1.00  0.00     0.002 A 
ATOM     82  C   UNL A   1      45.220  36.105  27.192  1.00  0.00     0.091 A 
ATOM     83  F   UNL A   1      46.965  34.707  27.811  1.00  0.00    -0.205 F 
ATOM     84  C   UNL A   1      43.873  36.228  26.867  1.00  0.00     0.022 A 
BRANCH  82  85
ATOM     85  S   UNL A   1      46.350  37.436  26.769  1.00  0.00     0.127 S 
ATOM     86  O   UNL A   1      45.426  38.518  26.450  1.00  0.00    -0.237 OA
ATOM     87  O   UNL A   1      47.094  37.600  28.019  1.00  0.00    -0.237 OA
ATOM     88  O   UNL A   1      47.161  36.933  25.665  1.00  0.00    -0.744 OA
ENDBRANCH  82  85
ENDBRANCH  64  78
BRANCH  65  89
ATOM     89  C   UNL A   1      37.181  32.777  31.131  1.00  0.00     0.023 A 
ATOM     90  C   UNL A   1      36.438  32.694  32.331  1.00  0.00     0.012 A 
ATOM     91  C   UNL A   1      36.446  33.264  30.017  1.00  0.00     0.148 A 
ATOM     92  C   UNL A   1      35.064  33.046  32.396  1.00  0.00     0.002 A 
ATOM     93  C   UNL A   1      35.074  33.597  30.068  1.00  0.00     0.091 A 
ATOM     94  F   UNL A   1      37.109  33.451  28.879  1.00  0.00    -0.205 F 
ATOM     95  C   UNL A   1      34.380  33.492  31.268  1.00  0.00     0.022 A 
BRANCH  93  96
ATOM     96  S   UNL A   1      34.207  34.275  28.618  1.00  0.00     0.127 S 
ATOM     97  O   UNL A   1      34.477  33.297  27.562  1.00  0.00    -0.237 OA
ATOM     98  O   UNL A   1      32.819  34.324  29.057  1.00  0.00    -0.237 OA
ATOM     99  O   UNL A   1      34.840  35.569  28.388  1.00  0.00    -0.744 OA
ENDBRANCH  93  96
ENDBRANCH  65  89
BRANCH  77 100
ATOM    100  C   UNL A   1      42.401  31.838  34.436  1.00  0.00     0.023 A 
ATOM    101  C   UNL A   1      42.109  30.466  34.464  1.00  0.00     0.012 A 
ATOM    102  C   UNL A   1      42.724  32.479  35.645  1.00  0.00     0.148 A 
ATOM    103  C   UNL A   1      42.141  29.746  35.666  1.00  0.00     0.002 A 
ATOM    104  C   UNL A   1      42.796  31.757  36.830  1.00  0.00     0.091 A 
ATOM    105  F   UNL A   1      42.990  33.794  35.608  1.00  0.00    -0.205 F 
ATOM    106  C   UNL A   1      42.497  30.388  36.849  1.00  0.00     0.022 A 
BRANCH 104 107
ATOM    107  S   UNL A   1      43.390  32.506  38.349  1.00  0.00     0.127 S 
ATOM    108  O   UNL A   1      42.502  33.658  38.491  1.00  0.00    -0.237 OA
ATOM    109  O   UNL A   1      43.172  31.442  39.330  1.00  0.00    -0.237 OA
ATOM    110  O   UNL A   1      44.794  32.820  38.117  1.00  0.00    -0.744 OA
ENDBRANCH 104 107
ENDBRANCH  77 100
ENDBRANCH  51  52
ENDBRANCH  44  46
ENDBRANCH  43  44
ENDBRANCH  42  43
ENDBRANCH  41  42
ENDBRANCH  40  41
ENDBRANCH  39  40
ENDBRANCH  38  39
ENDBRANCH  37  38
ENDBRANCH   1  37
TORSDOF 28
ENDMDL
