MODEL 1
REMARK VINA RESULT:      -7.8      0.000      0.000
REMARK SMILES COc1ccc(S(=O)(=O)N2CCC[C@H](C(=O)N3CCC[C@H](C(=O)OCCOCCOCCOCCOC(=O)c4ccc(-c5c6nc(c(-c7cccc(S(=O)(=O)[O-])c7F)c7ccc([nH]7)c(-c7cccc(S(=O)(=O)[O-])c7F)c7nc(c(-c8cccc(S(=O)(=O)[O-])c8F)c8ccc5[nH]8)C=C7)C=C6)cc4)C3)C2)cc1
REMARK SMILES IDX 29 1 28 2 27 3 26 4 25 5 24 6 22 7 23 8 21 9 17 10 18 11
REMARK SMILES IDX 102 12 19 13 20 14 15 15 16 16 14 17 10 18 11 19 103 20
REMARK SMILES IDX 12 21 13 22 7 23 8 24 9 25 6 26 3 27 4 28 105 29 5 30 104 31
REMARK SMILES IDX 2 32 1 33 30 34 31 35 32 36 33 37 34 38 35 39 36 40 37 41
REMARK SMILES IDX 38 42 39 43 40 44 101 45 41 46 100 47 42 48 43 49 44 50
REMARK SMILES IDX 94 51 45 52 99 53 93 54 95 55 46 56 98 57 92 58 91 59 47 61
REMARK SMILES IDX 79 62 59 63 78 64 60 65 63 66 77 67 96 68 61 69 62 70 76 72
REMARK SMILES IDX 97 73 64 74 48 75 49 76 57 77 50 78 52 79 58 80 51 81 53 82
REMARK SMILES IDX 54 83 55 84 56 85 80 86 81 87 89 88 82 89 84 90 90 91 83 92
REMARK SMILES IDX 85 93 86 94 87 95 88 96 65 97 66 98 74 99 67 100 69 101
REMARK SMILES IDX 75 102 68 103 70 104 71 105 72 106 73 107
REMARK H PARENT 95 60 63 71
REMARK Flexibility Score: inf
ROOT
ATOM      1  C   UNL A   1      40.748  22.596  26.245  1.00  0.00     0.188 C 
ENDROOT
BRANCH   1   2
ATOM      2  C   UNL A   1      40.680  24.108  26.504  1.00  0.00     0.188 C 
BRANCH   2   3
ATOM      3  O   UNL A   1      41.432  24.682  27.563  1.00  0.00    -0.376 OA
BRANCH   3   4
ATOM      4  C   UNL A   1      40.858  25.709  28.373  1.00  0.00     0.202 C 
BRANCH   4   5
ATOM      5  C   UNL A   1      41.719  26.874  28.880  1.00  0.00     0.261 C 
BRANCH   5   6
ATOM      6  O   UNL A   1      40.975  27.874  29.599  1.00  0.00    -0.463 OA
BRANCH   6   7
ATOM      7  C   UNL A   1      39.814  28.295  29.063  1.00  0.00     0.310 C 
ATOM      8  O   UNL A   1      39.727  29.066  28.108  1.00  0.00    -0.252 OA
BRANCH   7   9
ATOM      9  C   UNL A   1      38.567  27.810  29.785  1.00  0.00     0.119 C 
ATOM     10  N   UNL A   1      38.075  29.893  30.968  1.00  0.00    -0.342 N 
ATOM     11  C   UNL A   1      38.132  29.294  32.292  1.00  0.00     0.119 C 
ATOM     12  C   UNL A   1      37.650  29.016  29.893  1.00  0.00     0.134 C 
ATOM     13  C   UNL A   1      38.987  28.036  32.309  1.00  0.00     0.022 C 
ATOM     14  C   UNL A   1      38.649  27.107  31.144  1.00  0.00     0.019 C 
BRANCH  10  15
ATOM     15  C   UNL A   1      38.753  31.072  30.736  1.00  0.00     0.227 C 
ATOM     16  O   UNL A   1      38.668  31.676  29.668  1.00  0.00    -0.275 OA
BRANCH  15  17
ATOM     17  C   UNL A   1      39.720  31.544  31.819  1.00  0.00     0.094 C 
ATOM     18  N   UNL A   1      38.422  33.305  33.002  1.00  0.00    -0.197 NA
ATOM     19  C   UNL A   1      39.235  34.407  32.466  1.00  0.00     0.102 C 
ATOM     20  C   UNL A   1      38.966  31.934  33.078  1.00  0.00     0.116 C 
ATOM     21  C   UNL A   1      40.532  34.014  31.774  1.00  0.00     0.018 C 
ATOM     22  C   UNL A   1      40.781  32.552  31.413  1.00  0.00     0.016 C 
BRANCH  18  23
ATOM     23  S   UNL A   1      37.201  33.724  34.109  1.00  0.00     0.243 S 
ATOM     24  O   UNL A   1      37.568  34.937  34.790  1.00  0.00    -0.207 OA
ATOM     25  O   UNL A   1      36.868  32.511  34.841  1.00  0.00    -0.207 OA
BRANCH  23  26
ATOM     26  C   UNL A   1      35.776  34.092  33.106  1.00  0.00     0.082 A 
ATOM     27  C   UNL A   1      33.772  34.857  31.325  1.00  0.00     0.118 A 
ATOM     28  C   UNL A   1      34.651  33.823  30.989  1.00  0.00     0.048 A 
ATOM     29  C   UNL A   1      33.842  35.445  32.584  1.00  0.00     0.048 A 
ATOM     30  C   UNL A   1      35.664  33.446  31.873  1.00  0.00     0.025 A 
ATOM     31  C   UNL A   1      34.844  35.066  33.472  1.00  0.00     0.025 A 
BRANCH  27  32
ATOM     32  O   UNL A   1      32.864  35.227  30.371  1.00  0.00    -0.497 OA
ATOM     33  C   UNL A   1      33.469  35.712  29.172  1.00  0.00     0.278 C 
ENDBRANCH  27  32
ENDBRANCH  23  26
ENDBRANCH  18  23
ENDBRANCH  15  17
ENDBRANCH  10  15
ENDBRANCH   7   9
ENDBRANCH   6   7
ENDBRANCH   5   6
ENDBRANCH   4   5
ENDBRANCH   3   4
ENDBRANCH   2   3
ENDBRANCH   1   2
BRANCH   1  34
ATOM     34  O   UNL A   1      41.359  21.854  27.278  1.00  0.00    -0.377 OA
BRANCH  34  35
ATOM     35  C   UNL A   1      42.506  21.067  26.983  1.00  0.00     0.188 C 
BRANCH  35  36
ATOM     36  C   UNL A   1      42.336  19.831  26.086  1.00  0.00     0.188 C 
BRANCH  36  37
ATOM     37  O   UNL A   1      43.297  19.750  25.036  1.00  0.00    -0.376 OA
BRANCH  37  38
ATOM     38  C   UNL A   1      44.666  19.639  25.409  1.00  0.00     0.202 C 
BRANCH  38  39
ATOM     39  C   UNL A   1      45.622  20.684  24.805  1.00  0.00     0.261 C 
BRANCH  39  40
ATOM     40  O   UNL A   1      45.589  21.986  25.417  1.00  0.00    -0.460 OA
BRANCH  40  41
ATOM     41  C   UNL A   1      46.123  23.024  24.743  1.00  0.00     0.338 C 
ATOM     42  O   UNL A   1      46.548  23.022  23.603  1.00  0.00    -0.246 OA
BRANCH  41  43
ATOM     43  C   UNL A   1      45.929  24.240  25.556  1.00  0.00     0.060 A 
ATOM     44  C   UNL A   1      47.057  24.865  26.102  1.00  0.00     0.016 A 
ATOM     45  C   UNL A   1      44.647  24.733  25.809  1.00  0.00     0.016 A 
ATOM     46  C   UNL A   1      46.900  25.957  26.955  1.00  0.00     0.010 A 
ATOM     47  C   UNL A   1      44.491  25.814  26.677  1.00  0.00     0.010 A 
ATOM     48  C   UNL A   1      45.614  26.401  27.287  1.00  0.00    -0.014 A 
BRANCH  48  49
ATOM     49  C   UNL A   1      45.430  27.322  28.433  1.00  0.00     0.031 A 
ATOM     50  C   UNL A   1      45.252  26.722  29.803  1.00  0.00     0.074 A 
ATOM     51  C   UNL A   1      45.397  28.656  28.263  1.00  0.00     0.049 A 
ATOM     52  N   UNL A   1      45.056  27.316  30.949  1.00  0.00    -0.248 NA
ATOM     53  C   UNL A   1      45.301  25.250  29.888  1.00  0.00     0.031 C 
ATOM     54  C   UNL A   1      45.553  29.351  26.988  1.00  0.00     0.029 A 
ATOM     55  N   UNL A   1      45.193  29.660  29.175  1.00  0.00    -0.354 N 
ATOM     56  C   UNL A   1      44.926  26.297  31.884  1.00  0.00     0.074 A 
ATOM     57  C   UNL A   1      45.065  25.045  31.175  1.00  0.00     0.031 C 
ATOM     58  C   UNL A   1      45.408  30.673  27.194  1.00  0.00     0.029 A 
ATOM     59  C   UNL A   1      45.133  30.912  28.610  1.00  0.00     0.049 A 
ATOM     60  H   UNL A   1      45.100  29.501  30.142  1.00  0.00     0.167 HD
ATOM     61  C   UNL A   1      44.723  26.394  33.219  1.00  0.00     0.034 A 
ATOM     62  C   UNL A   1      44.870  32.108  29.174  1.00  0.00     0.034 A 
ATOM     63  C   UNL A   1      44.610  27.638  33.927  1.00  0.00     0.049 A 
ATOM     64  C   UNL A   1      44.628  32.182  30.662  1.00  0.00     0.074 A 
ATOM     65  C   UNL A   1      44.473  27.842  35.287  1.00  0.00     0.029 A 
ATOM     66  N   UNL A   1      44.601  28.888  33.329  1.00  0.00    -0.354 N 
ATOM     67  N   UNL A   1      44.666  31.225  31.557  1.00  0.00    -0.248 NA
ATOM     68  C   UNL A   1      44.335  33.511  31.223  1.00  0.00     0.031 C 
ATOM     69  C   UNL A   1      44.357  29.218  35.510  1.00  0.00     0.029 A 
ATOM     70  C   UNL A   1      44.441  29.869  34.290  1.00  0.00     0.049 A 
ATOM     71  H   UNL A   1      44.696  29.052  32.362  1.00  0.00     0.167 HD
ATOM     72  C   UNL A   1      44.441  31.838  32.785  1.00  0.00     0.074 A 
ATOM     73  C   UNL A   1      44.287  33.254  32.523  1.00  0.00     0.031 C 
ATOM     74  C   UNL A   1      44.354  31.280  34.018  1.00  0.00     0.034 A 
BRANCH  61  75
ATOM     75  C   UNL A   1      44.636  25.117  34.007  1.00  0.00     0.023 A 
ATOM     76  C   UNL A   1      43.383  24.498  34.195  1.00  0.00     0.012 A 
ATOM     77  C   UNL A   1      45.797  24.498  34.507  1.00  0.00     0.148 A 
ATOM     78  C   UNL A   1      43.286  23.294  34.890  1.00  0.00     0.002 A 
ATOM     79  C   UNL A   1      45.696  23.280  35.165  1.00  0.00     0.091 A 
ATOM     80  F   UNL A   1      46.974  25.119  34.340  1.00  0.00    -0.205 F 
ATOM     81  C   UNL A   1      44.442  22.679  35.364  1.00  0.00     0.022 A 
BRANCH  79  82
ATOM     82  S   UNL A   1      47.134  22.376  35.753  1.00  0.00     0.127 S 
ATOM     83  O   UNL A   1      46.525  21.141  36.244  1.00  0.00    -0.237 OA
ATOM     84  O   UNL A   1      47.924  22.223  34.531  1.00  0.00    -0.237 OA
ATOM     85  O   UNL A   1      47.748  23.218  36.771  1.00  0.00    -0.744 OA
ENDBRANCH  79  82
ENDBRANCH  61  75
BRANCH  62  86
ATOM     86  C   UNL A   1      44.858  33.346  28.344  1.00  0.00     0.023 A 
ATOM     87  C   UNL A   1      43.634  33.829  27.843  1.00  0.00     0.012 A 
ATOM     88  C   UNL A   1      46.045  34.039  28.038  1.00  0.00     0.148 A 
ATOM     89  C   UNL A   1      43.595  34.959  27.025  1.00  0.00     0.002 A 
ATOM     90  C   UNL A   1      45.994  35.193  27.262  1.00  0.00     0.091 A 
ATOM     91  F   UNL A   1      47.204  33.551  28.501  1.00  0.00    -0.205 F 
ATOM     92  C   UNL A   1      44.772  35.646  26.741  1.00  0.00     0.022 A 
BRANCH  90  93
ATOM     93  S   UNL A   1      47.450  36.195  26.939  1.00  0.00     0.127 S 
ATOM     94  O   UNL A   1      48.291  35.265  26.191  1.00  0.00    -0.237 OA
ATOM     95  O   UNL A   1      46.896  37.295  26.147  1.00  0.00    -0.237 OA
ATOM     96  O   UNL A   1      47.945  36.590  28.250  1.00  0.00    -0.744 OA
ENDBRANCH  90  93
ENDBRANCH  62  86
BRANCH  74  97
ATOM     97  C   UNL A   1      44.113  32.195  35.190  1.00  0.00     0.023 A 
ATOM     98  C   UNL A   1      45.209  32.686  35.928  1.00  0.00     0.012 A 
ATOM     99  C   UNL A   1      42.814  32.642  35.502  1.00  0.00     0.148 A 
ATOM    100  C   UNL A   1      45.013  33.585  36.975  1.00  0.00     0.002 A 
ATOM    101  C   UNL A   1      42.631  33.575  36.516  1.00  0.00     0.091 A 
ATOM    102  F   UNL A   1      41.783  32.151  34.800  1.00  0.00    -0.205 F 
ATOM    103  C   UNL A   1      43.727  34.039  37.260  1.00  0.00     0.022 A 
BRANCH 101 104
ATOM    104  S   UNL A   1      41.022  34.288  36.883  1.00  0.00     0.127 S 
ATOM    105  O   UNL A   1      40.240  33.101  37.220  1.00  0.00    -0.237 OA
ATOM    106  O   UNL A   1      41.319  35.164  38.017  1.00  0.00    -0.237 OA
ATOM    107  O   UNL A   1      40.612  34.989  35.673  1.00  0.00    -0.744 OA
ENDBRANCH 101 104
ENDBRANCH  74  97
ENDBRANCH  48  49
ENDBRANCH  41  43
ENDBRANCH  40  41
ENDBRANCH  39  40
ENDBRANCH  38  39
ENDBRANCH  37  38
ENDBRANCH  36  37
ENDBRANCH  35  36
ENDBRANCH  34  35
ENDBRANCH   1  34
TORSDOF 28
ENDMDL
MODEL 2
REMARK VINA RESULT:      -7.7      1.672      2.138
REMARK SMILES COc1ccc(S(=O)(=O)N2CCC[C@H](C(=O)N3CCC[C@H](C(=O)OCCOCCOCCOCCOC(=O)c4ccc(-c5c6nc(c(-c7cccc(S(=O)(=O)[O-])c7F)c7ccc([nH]7)c(-c7cccc(S(=O)(=O)[O-])c7F)c7nc(c(-c8cccc(S(=O)(=O)[O-])c8F)c8ccc5[nH]8)C=C7)C=C6)cc4)C3)C2)cc1
REMARK SMILES IDX 29 1 28 2 27 3 26 4 25 5 24 6 22 7 23 8 21 9 17 10 18 11
REMARK SMILES IDX 102 12 19 13 20 14 15 15 16 16 14 17 10 18 11 19 103 20
REMARK SMILES IDX 12 21 13 22 7 23 8 24 9 25 6 26 3 27 4 28 105 29 5 30 104 31
REMARK SMILES IDX 2 32 1 33 30 34 31 35 32 36 33 37 34 38 35 39 36 40 37 41
REMARK SMILES IDX 38 42 39 43 40 44 101 45 41 46 100 47 42 48 43 49 44 50
REMARK SMILES IDX 94 51 45 52 99 53 93 54 95 55 46 56 98 57 92 58 91 59 47 61
REMARK SMILES IDX 79 62 59 63 78 64 60 65 63 66 77 67 96 68 61 69 62 70 76 72
REMARK SMILES IDX 97 73 64 74 48 75 49 76 57 77 50 78 52 79 58 80 51 81 53 82
REMARK SMILES IDX 54 83 55 84 56 85 80 86 81 87 89 88 82 89 84 90 90 91 83 92
REMARK SMILES IDX 85 93 86 94 87 95 88 96 65 97 66 98 74 99 67 100 69 101
REMARK SMILES IDX 75 102 68 103 70 104 71 105 72 106 73 107
REMARK H PARENT 95 60 63 71
REMARK Flexibility Score: inf
ROOT
ATOM      1  C   UNL A   1      39.471  22.305  26.492  1.00  0.00     0.188 C 
ENDROOT
BRANCH   1   2
ATOM      2  C   UNL A   1      38.883  23.723  26.490  1.00  0.00     0.188 C 
BRANCH   2   3
ATOM      3  O   UNL A   1      39.672  24.819  26.931  1.00  0.00    -0.376 OA
BRANCH   3   4
ATOM      4  C   UNL A   1      39.372  25.464  28.171  1.00  0.00     0.202 C 
BRANCH   4   5
ATOM      5  C   UNL A   1      40.290  26.565  28.717  1.00  0.00     0.261 C 
BRANCH   5   6
ATOM      6  O   UNL A   1      39.582  27.648  29.348  1.00  0.00    -0.463 OA
BRANCH   6   7
ATOM      7  C   UNL A   1      39.865  28.900  28.943  1.00  0.00     0.310 C 
ATOM      8  O   UNL A   1      40.937  29.471  29.141  1.00  0.00    -0.252 OA
BRANCH   7   9
ATOM      9  C   UNL A   1      38.710  29.629  28.273  1.00  0.00     0.119 C 
ATOM     10  N   UNL A   1      38.113  31.054  30.169  1.00  0.00    -0.342 N 
ATOM     11  C   UNL A   1      36.744  30.573  30.251  1.00  0.00     0.119 C 
ATOM     12  C   UNL A   1      38.713  31.035  28.848  1.00  0.00     0.134 C 
ATOM     13  C   UNL A   1      36.594  29.180  29.658  1.00  0.00     0.022 C 
ATOM     14  C   UNL A   1      37.284  29.068  28.300  1.00  0.00     0.019 C 
BRANCH  10  15
ATOM     15  C   UNL A   1      38.867  31.132  31.322  1.00  0.00     0.227 C 
ATOM     16  O   UNL A   1      39.956  31.704  31.354  1.00  0.00    -0.275 OA
BRANCH  15  17
ATOM     17  C   UNL A   1      38.354  30.373  32.543  1.00  0.00     0.094 C 
ATOM     18  N   UNL A   1      38.132  32.157  34.261  1.00  0.00    -0.197 NA
ATOM     19  C   UNL A   1      39.282  31.685  35.045  1.00  0.00     0.102 C 
ATOM     20  C   UNL A   1      37.410  31.239  33.355  1.00  0.00     0.116 C 
ATOM     21  C   UNL A   1      39.830  30.312  34.683  1.00  0.00     0.018 C 
ATOM     22  C   UNL A   1      39.382  29.640  33.388  1.00  0.00     0.016 C 
BRANCH  18  23
ATOM     23  S   UNL A   1      37.263  33.474  34.894  1.00  0.00     0.243 S 
ATOM     24  O   UNL A   1      38.112  34.635  34.931  1.00  0.00    -0.207 OA
ATOM     25  O   UNL A   1      36.581  32.991  36.085  1.00  0.00    -0.207 OA
BRANCH  23  26
ATOM     26  C   UNL A   1      35.981  33.797  33.699  1.00  0.00     0.082 A 
ATOM     27  C   UNL A   1      33.942  34.627  31.989  1.00  0.00     0.118 A 
ATOM     28  C   UNL A   1      35.248  35.083  31.794  1.00  0.00     0.048 A 
ATOM     29  C   UNL A   1      33.674  33.690  32.984  1.00  0.00     0.048 A 
ATOM     30  C   UNL A   1      36.270  34.680  32.656  1.00  0.00     0.025 A 
ATOM     31  C   UNL A   1      34.691  33.279  33.839  1.00  0.00     0.025 A 
BRANCH  27  32
ATOM     32  O   UNL A   1      32.982  35.136  31.158  1.00  0.00    -0.497 OA
ATOM     33  C   UNL A   1      32.261  36.228  31.728  1.00  0.00     0.278 C 
ENDBRANCH  27  32
ENDBRANCH  23  26
ENDBRANCH  18  23
ENDBRANCH  15  17
ENDBRANCH  10  15
ENDBRANCH   7   9
ENDBRANCH   6   7
ENDBRANCH   5   6
ENDBRANCH   4   5
ENDBRANCH   3   4
ENDBRANCH   2   3
ENDBRANCH   1   2
BRANCH   1  34
ATOM     34  O   UNL A   1      40.062  21.919  27.714  1.00  0.00    -0.377 OA
BRANCH  34  35
ATOM     35  C   UNL A   1      41.426  21.518  27.729  1.00  0.00     0.188 C 
BRANCH  35  36
ATOM     36  C   UNL A   1      41.868  20.388  26.786  1.00  0.00     0.188 C 
BRANCH  36  37
ATOM     37  O   UNL A   1      42.412  20.854  25.553  1.00  0.00    -0.376 OA
BRANCH  37  38
ATOM     38  C   UNL A   1      43.759  21.316  25.564  1.00  0.00     0.202 C 
BRANCH  38  39
ATOM     39  C   UNL A   1      44.032  22.632  24.817  1.00  0.00     0.261 C 
BRANCH  39  40
ATOM     40  O   UNL A   1      44.261  23.785  25.649  1.00  0.00    -0.460 OA
BRANCH  40  41
ATOM     41  C   UNL A   1      45.172  24.694  25.246  1.00  0.00     0.338 C 
ATOM     42  O   UNL A   1      45.933  24.607  24.301  1.00  0.00    -0.246 OA
BRANCH  41  43
ATOM     43  C   UNL A   1      44.961  25.925  26.034  1.00  0.00     0.060 A 
ATOM     44  C   UNL A   1      46.084  26.633  26.478  1.00  0.00     0.016 A 
ATOM     45  C   UNL A   1      43.673  26.350  26.362  1.00  0.00     0.016 A 
ATOM     46  C   UNL A   1      45.922  27.743  27.306  1.00  0.00     0.010 A 
ATOM     47  C   UNL A   1      43.512  27.450  27.207  1.00  0.00     0.010 A 
ATOM     48  C   UNL A   1      44.637  28.122  27.716  1.00  0.00    -0.014 A 
BRANCH  48  49
ATOM     49  C   UNL A   1      44.478  29.071  28.843  1.00  0.00     0.031 A 
ATOM     50  C   UNL A   1      44.291  28.502  30.225  1.00  0.00     0.074 A 
ATOM     51  C   UNL A   1      44.475  30.401  28.647  1.00  0.00     0.049 A 
ATOM     52  N   UNL A   1      44.112  29.123  31.360  1.00  0.00    -0.248 NA
ATOM     53  C   UNL A   1      44.306  27.032  30.340  1.00  0.00     0.031 C 
ATOM     54  C   UNL A   1      44.642  31.066  27.357  1.00  0.00     0.029 A 
ATOM     55  N   UNL A   1      44.297  31.428  29.539  1.00  0.00    -0.354 N 
ATOM     56  C   UNL A   1      43.963  28.127  32.316  1.00  0.00     0.074 A 
ATOM     57  C   UNL A   1      44.070  26.858  31.632  1.00  0.00     0.031 C 
ATOM     58  C   UNL A   1      44.529  32.395  27.536  1.00  0.00     0.029 A 
ATOM     59  C   UNL A   1      44.264  32.669  28.948  1.00  0.00     0.049 A 
ATOM     60  H   UNL A   1      44.203  31.290  30.508  1.00  0.00     0.167 HD
ATOM     61  C   UNL A   1      43.766  28.256  33.649  1.00  0.00     0.034 A 
ATOM     62  C   UNL A   1      44.030  33.882  29.488  1.00  0.00     0.034 A 
ATOM     63  C   UNL A   1      43.683  29.516  34.332  1.00  0.00     0.049 A 
ATOM     64  C   UNL A   1      43.794  33.992  30.975  1.00  0.00     0.074 A 
ATOM     65  C   UNL A   1      43.556  29.751  35.688  1.00  0.00     0.029 A 
ATOM     66  N   UNL A   1      43.701  30.753  33.708  1.00  0.00    -0.354 N 
ATOM     67  N   UNL A   1      43.814  33.052  31.889  1.00  0.00    -0.248 NA
ATOM     68  C   UNL A   1      43.533  35.338  31.510  1.00  0.00     0.031 C 
ATOM     69  C   UNL A   1      43.472  31.133  35.884  1.00  0.00     0.029 A 
ATOM     70  C   UNL A   1      43.567  31.757  34.650  1.00  0.00     0.049 A 
ATOM     71  H   UNL A   1      43.796  30.896  32.739  1.00  0.00     0.167 HD
ATOM     72  C   UNL A   1      43.607  33.695  33.105  1.00  0.00     0.074 A 
ATOM     73  C   UNL A   1      43.484  35.108  32.815  1.00  0.00     0.031 C 
ATOM     74  C   UNL A   1      43.511  33.164  34.350  1.00  0.00     0.034 A 
BRANCH  61  75
ATOM     75  C   UNL A   1      43.652  26.997  34.463  1.00  0.00     0.023 A 
ATOM     76  C   UNL A   1      42.384  26.426  34.690  1.00  0.00     0.012 A 
ATOM     77  C   UNL A   1      44.802  26.348  34.950  1.00  0.00     0.148 A 
ATOM     78  C   UNL A   1      42.260  25.239  35.410  1.00  0.00     0.002 A 
ATOM     79  C   UNL A   1      44.674  25.146  35.633  1.00  0.00     0.091 A 
ATOM     80  F   UNL A   1      45.996  26.924  34.746  1.00  0.00    -0.205 F 
ATOM     81  C   UNL A   1      43.405  24.593  35.871  1.00  0.00     0.022 A 
BRANCH  79  82
ATOM     82  S   UNL A   1      46.093  24.204  36.207  1.00  0.00     0.127 S 
ATOM     83  O   UNL A   1      45.452  23.004  36.745  1.00  0.00    -0.237 OA
ATOM     84  O   UNL A   1      46.844  23.991  34.970  1.00  0.00    -0.237 OA
ATOM     85  O   UNL A   1      46.764  25.046  37.188  1.00  0.00    -0.744 OA
ENDBRANCH  79  82
ENDBRANCH  61  75
BRANCH  62  86
ATOM     86  C   UNL A   1      44.043  35.103  28.634  1.00  0.00     0.023 A 
ATOM     87  C   UNL A   1      42.843  35.545  28.043  1.00  0.00     0.012 A 
ATOM     88  C   UNL A   1      45.231  35.819  28.392  1.00  0.00     0.148 A 
ATOM     89  C   UNL A   1      42.832  36.657  27.200  1.00  0.00     0.002 A 
ATOM     90  C   UNL A   1      45.204  36.956  27.590  1.00  0.00     0.091 A 
ATOM     91  F   UNL A   1      46.368  35.370  28.940  1.00  0.00    -0.205 F 
ATOM     92  C   UNL A   1      44.009  37.368  26.980  1.00  0.00     0.022 A 
BRANCH  90  93
ATOM     93  S   UNL A   1      46.654  37.988  27.342  1.00  0.00     0.127 S 
ATOM     94  O   UNL A   1      46.674  38.775  28.572  1.00  0.00    -0.237 OA
ATOM     95  O   UNL A   1      47.723  36.994  27.232  1.00  0.00    -0.237 OA
ATOM     96  O   UNL A   1      46.395  38.728  26.115  1.00  0.00    -0.744 OA
ENDBRANCH  90  93
ENDBRANCH  62  86
BRANCH  74  97
ATOM     97  C   UNL A   1      43.295  34.108  35.504  1.00  0.00     0.023 A 
ATOM     98  C   UNL A   1      44.406  34.624  36.199  1.00  0.00     0.012 A 
ATOM     99  C   UNL A   1      42.001  34.555  35.838  1.00  0.00     0.148 A 
ATOM    100  C   UNL A   1      44.232  35.549  37.228  1.00  0.00     0.002 A 
ATOM    101  C   UNL A   1      41.839  35.513  36.832  1.00  0.00     0.091 A 
ATOM    102  F   UNL A   1      40.955  34.040  35.176  1.00  0.00    -0.205 F 
ATOM    103  C   UNL A   1      42.951  36.003  37.535  1.00  0.00     0.022 A 
BRANCH 101 104
ATOM    104  S   UNL A   1      40.236  36.226  37.222  1.00  0.00     0.127 S 
ATOM    105  O   UNL A   1      39.511  35.066  37.737  1.00  0.00    -0.237 OA
ATOM    106  O   UNL A   1      40.576  37.229  38.232  1.00  0.00    -0.237 OA
ATOM    107  O   UNL A   1      39.731  36.779  35.973  1.00  0.00    -0.744 OA
ENDBRANCH 101 104
ENDBRANCH  74  97
ENDBRANCH  48  49
ENDBRANCH  41  43
ENDBRANCH  40  41
ENDBRANCH  39  40
ENDBRANCH  38  39
ENDBRANCH  37  38
ENDBRANCH  36  37
ENDBRANCH  35  36
ENDBRANCH  34  35
ENDBRANCH   1  34
TORSDOF 28
ENDMDL
MODEL 3
REMARK VINA RESULT:      -7.6      1.509      2.250
REMARK SMILES COc1ccc(S(=O)(=O)N2CCC[C@H](C(=O)N3CCC[C@H](C(=O)OCCOCCOCCOCCOC(=O)c4ccc(-c5c6nc(c(-c7cccc(S(=O)(=O)[O-])c7F)c7ccc([nH]7)c(-c7cccc(S(=O)(=O)[O-])c7F)c7nc(c(-c8cccc(S(=O)(=O)[O-])c8F)c8ccc5[nH]8)C=C7)C=C6)cc4)C3)C2)cc1
REMARK SMILES IDX 29 1 28 2 27 3 26 4 25 5 24 6 22 7 23 8 21 9 17 10 18 11
REMARK SMILES IDX 102 12 19 13 20 14 15 15 16 16 14 17 10 18 11 19 103 20
REMARK SMILES IDX 12 21 13 22 7 23 8 24 9 25 6 26 3 27 4 28 105 29 5 30 104 31
REMARK SMILES IDX 2 32 1 33 30 34 31 35 32 36 33 37 34 38 35 39 36 40 37 41
REMARK SMILES IDX 38 42 39 43 40 44 101 45 41 46 100 47 42 48 43 49 44 50
REMARK SMILES IDX 94 51 45 52 99 53 93 54 95 55 46 56 98 57 92 58 91 59 47 61
REMARK SMILES IDX 79 62 59 63 78 64 60 65 63 66 77 67 96 68 61 69 62 70 76 72
REMARK SMILES IDX 97 73 64 74 48 75 49 76 57 77 50 78 52 79 58 80 51 81 53 82
REMARK SMILES IDX 54 83 55 84 56 85 80 86 81 87 89 88 82 89 84 90 90 91 83 92
REMARK SMILES IDX 85 93 86 94 87 95 88 96 65 97 66 98 74 99 67 100 69 101
REMARK SMILES IDX 75 102 68 103 70 104 71 105 72 106 73 107
REMARK H PARENT 95 60 63 71
REMARK Flexibility Score: inf
ROOT
ATOM      1  C   UNL A   1      39.761  22.550  26.633  1.00  0.00     0.188 C 
ENDROOT
BRANCH   1   2
ATOM      2  C   UNL A   1      39.808  24.084  26.613  1.00  0.00     0.188 C 
BRANCH   2   3
ATOM      3  O   UNL A   1      40.898  24.770  27.213  1.00  0.00    -0.376 OA
BRANCH   3   4
ATOM      4  C   UNL A   1      40.689  25.559  28.386  1.00  0.00     0.202 C 
BRANCH   4   5
ATOM      5  C   UNL A   1      41.757  26.556  28.854  1.00  0.00     0.261 C 
BRANCH   5   6
ATOM      6  O   UNL A   1      41.221  27.684  29.571  1.00  0.00    -0.463 OA
BRANCH   6   7
ATOM      7  C   UNL A   1      41.434  28.909  29.056  1.00  0.00     0.310 C 
ATOM      8  O   UNL A   1      42.508  29.508  29.101  1.00  0.00    -0.252 OA
BRANCH   7   9
ATOM      9  C   UNL A   1      40.201  29.573  28.463  1.00  0.00     0.119 C 
ATOM     10  N   UNL A   1      39.253  30.378  30.570  1.00  0.00    -0.342 N 
ATOM     11  C   UNL A   1      37.993  29.668  30.411  1.00  0.00     0.119 C 
ATOM     12  C   UNL A   1      39.913  30.779  29.342  1.00  0.00     0.134 C 
ATOM     13  C   UNL A   1      38.135  28.455  29.504  1.00  0.00     0.022 C 
ATOM     14  C   UNL A   1      38.904  28.791  28.227  1.00  0.00     0.019 C 
BRANCH  10  15
ATOM     15  C   UNL A   1      39.918  30.302  31.776  1.00  0.00     0.227 C 
ATOM     16  O   UNL A   1      40.835  31.068  32.067  1.00  0.00    -0.275 OA
BRANCH  15  17
ATOM     17  C   UNL A   1      39.554  29.142  32.700  1.00  0.00     0.094 C 
ATOM     18  N   UNL A   1      39.698  30.163  34.963  1.00  0.00    -0.197 NA
ATOM     19  C   UNL A   1      40.926  29.438  35.323  1.00  0.00     0.102 C 
ATOM     20  C   UNL A   1      38.796  29.644  33.915  1.00  0.00     0.116 C 
ATOM     21  C   UNL A   1      41.332  28.298  34.400  1.00  0.00     0.018 C 
ATOM     22  C   UNL A   1      40.655  28.152  33.040  1.00  0.00     0.016 C 
BRANCH  18  23
ATOM     23  S   UNL A   1      39.012  31.150  36.166  1.00  0.00     0.243 S 
ATOM     24  O   UNL A   1      40.055  31.680  37.003  1.00  0.00    -0.207 OA
ATOM     25  O   UNL A   1      37.891  30.409  36.724  1.00  0.00    -0.207 OA
BRANCH  23  26
ATOM     26  C   UNL A   1      38.295  32.521  35.283  1.00  0.00     0.082 A 
ATOM     27  C   UNL A   1      36.949  34.423  33.753  1.00  0.00     0.118 A 
ATOM     28  C   UNL A   1      36.371  33.933  34.927  1.00  0.00     0.048 A 
ATOM     29  C   UNL A   1      38.234  34.027  33.393  1.00  0.00     0.048 A 
ATOM     30  C   UNL A   1      37.037  32.970  35.690  1.00  0.00     0.025 A 
ATOM     31  C   UNL A   1      38.904  33.076  34.155  1.00  0.00     0.025 A 
BRANCH  27  32
ATOM     32  O   UNL A   1      36.197  35.296  33.016  1.00  0.00    -0.497 OA
ATOM     33  C   UNL A   1      35.057  34.689  32.407  1.00  0.00     0.278 C 
ENDBRANCH  27  32
ENDBRANCH  23  26
ENDBRANCH  18  23
ENDBRANCH  15  17
ENDBRANCH  10  15
ENDBRANCH   7   9
ENDBRANCH   6   7
ENDBRANCH   5   6
ENDBRANCH   4   5
ENDBRANCH   3   4
ENDBRANCH   2   3
ENDBRANCH   1   2
BRANCH   1  34
ATOM     34  O   UNL A   1      40.273  21.966  27.811  1.00  0.00    -0.377 OA
BRANCH  34  35
ATOM     35  C   UNL A   1      41.469  21.199  27.743  1.00  0.00     0.188 C 
BRANCH  35  36
ATOM     36  C   UNL A   1      41.363  19.706  27.397  1.00  0.00     0.188 C 
BRANCH  36  37
ATOM     37  O   UNL A   1      41.799  19.393  26.077  1.00  0.00    -0.376 OA
BRANCH  37  38
ATOM     38  C   UNL A   1      43.203  19.348  25.845  1.00  0.00     0.202 C 
BRANCH  38  39
ATOM     39  C   UNL A   1      43.812  20.562  25.121  1.00  0.00     0.261 C 
BRANCH  39  40
ATOM     40  O   UNL A   1      44.805  21.296  25.861  1.00  0.00    -0.460 OA
BRANCH  40  41
ATOM     41  C   UNL A   1      45.651  22.095  25.179  1.00  0.00     0.338 C 
ATOM     42  O   UNL A   1      46.213  21.848  24.129  1.00  0.00    -0.246 OA
BRANCH  41  43
ATOM     43  C   UNL A   1      45.636  23.423  25.823  1.00  0.00     0.060 A 
ATOM     44  C   UNL A   1      46.836  23.929  26.334  1.00  0.00     0.016 A 
ATOM     45  C   UNL A   1      44.445  24.139  25.953  1.00  0.00     0.016 A 
ATOM     46  C   UNL A   1      46.838  25.135  27.035  1.00  0.00     0.010 A 
ATOM     47  C   UNL A   1      44.445  25.337  26.670  1.00  0.00     0.010 A 
ATOM     48  C   UNL A   1      45.633  25.816  27.250  1.00  0.00    -0.014 A 
BRANCH  48  49
ATOM     49  C   UNL A   1      45.572  26.897  28.261  1.00  0.00     0.031 A 
ATOM     50  C   UNL A   1      45.339  26.511  29.698  1.00  0.00     0.074 A 
ATOM     51  C   UNL A   1      45.698  28.190  27.914  1.00  0.00     0.049 A 
ATOM     52  N   UNL A   1      45.227  27.273  30.753  1.00  0.00    -0.248 NA
ATOM     53  C   UNL A   1      45.212  25.069  29.980  1.00  0.00     0.031 C 
ATOM     54  C   UNL A   1      45.921  28.685  26.557  1.00  0.00     0.029 A 
ATOM     55  N   UNL A   1      45.625  29.325  28.681  1.00  0.00    -0.354 N 
ATOM     56  C   UNL A   1      44.987  26.412  31.816  1.00  0.00     0.074 A 
ATOM     57  C   UNL A   1      44.967  25.068  31.282  1.00  0.00     0.031 C 
ATOM     58  C   UNL A   1      45.938  30.030  26.583  1.00  0.00     0.029 A 
ATOM     59  C   UNL A   1      45.709  30.488  27.953  1.00  0.00     0.049 A 
ATOM     60  H   UNL A   1      45.524  29.309  29.660  1.00  0.00     0.167 HD
ATOM     61  C   UNL A   1      44.811  26.710  33.124  1.00  0.00     0.034 A 
ATOM     62  C   UNL A   1      45.597  31.772  28.349  1.00  0.00     0.034 A 
ATOM     63  C   UNL A   1      44.855  28.042  33.658  1.00  0.00     0.049 A 
ATOM     64  C   UNL A   1      45.381  32.073  29.813  1.00  0.00     0.074 A 
ATOM     65  C   UNL A   1      44.759  28.442  34.978  1.00  0.00     0.029 A 
ATOM     66  N   UNL A   1      44.990  29.193  32.898  1.00  0.00    -0.354 N 
ATOM     67  N   UNL A   1      45.315  31.246  30.828  1.00  0.00    -0.248 NA
ATOM     68  C   UNL A   1      45.255  33.490  30.188  1.00  0.00     0.031 C 
ATOM     69  C   UNL A   1      44.810  29.839  35.014  1.00  0.00     0.029 A 
ATOM     70  C   UNL A   1      44.959  30.306  33.718  1.00  0.00     0.049 A 
ATOM     71  H   UNL A   1      45.093  29.213  31.918  1.00  0.00     0.167 HD
ATOM     72  C   UNL A   1      45.178  32.041  31.961  1.00  0.00     0.074 A 
ATOM     73  C   UNL A   1      45.191  33.417  31.511  1.00  0.00     0.031 C 
ATOM     74  C   UNL A   1      45.038  31.668  33.258  1.00  0.00     0.034 A 
BRANCH  61  75
ATOM     75  C   UNL A   1      44.581  25.570  34.076  1.00  0.00     0.023 A 
ATOM     76  C   UNL A   1      43.263  25.197  34.410  1.00  0.00     0.012 A 
ATOM     77  C   UNL A   1      45.663  24.831  34.590  1.00  0.00     0.148 A 
ATOM     78  C   UNL A   1      43.027  24.118  35.261  1.00  0.00     0.002 A 
ATOM     79  C   UNL A   1      45.418  23.734  35.407  1.00  0.00     0.091 A 
ATOM     80  F   UNL A   1      46.907  25.221  34.281  1.00  0.00    -0.205 F 
ATOM     81  C   UNL A   1      44.103  23.380  35.749  1.00  0.00     0.022 A 
BRANCH  79  82
ATOM     82  S   UNL A   1      46.733  22.680  36.030  1.00  0.00     0.127 S 
ATOM     83  O   UNL A   1      47.357  22.221  34.790  1.00  0.00    -0.237 OA
ATOM     84  O   UNL A   1      47.541  23.621  36.807  1.00  0.00    -0.237 OA
ATOM     85  O   UNL A   1      46.079  21.647  36.821  1.00  0.00    -0.744 OA
ENDBRANCH  79  82
ENDBRANCH  61  75
BRANCH  62  86
ATOM     86  C   UNL A   1      45.724  32.880  27.361  1.00  0.00     0.023 A 
ATOM     87  C   UNL A   1      44.601  33.257  26.598  1.00  0.00     0.012 A 
ATOM     88  C   UNL A   1      46.945  33.552  27.162  1.00  0.00     0.148 A 
ATOM     89  C   UNL A   1      44.700  34.259  25.632  1.00  0.00     0.002 A 
ATOM     90  C   UNL A   1      47.025  34.584  26.231  1.00  0.00     0.091 A 
ATOM     91  F   UNL A   1      48.010  33.163  27.877  1.00  0.00    -0.205 F 
ATOM     92  C   UNL A   1      45.908  34.928  25.454  1.00  0.00     0.022 A 
BRANCH  90  93
ATOM     93  S   UNL A   1      48.514  35.566  26.015  1.00  0.00     0.127 S 
ATOM     94  O   UNL A   1      49.348  35.086  27.113  1.00  0.00    -0.237 OA
ATOM     95  O   UNL A   1      48.960  35.159  24.682  1.00  0.00    -0.237 OA
ATOM     96  O   UNL A   1      48.077  36.952  26.104  1.00  0.00    -0.744 OA
ENDBRANCH  90  93
ENDBRANCH  62  86
BRANCH  74  97
ATOM     97  C   UNL A   1      44.921  32.754  34.295  1.00  0.00     0.023 A 
ATOM     98  C   UNL A   1      46.056  33.132  35.039  1.00  0.00     0.012 A 
ATOM     99  C   UNL A   1      43.714  33.461  34.466  1.00  0.00     0.148 A 
ATOM    100  C   UNL A   1      45.985  34.178  35.958  1.00  0.00     0.002 A 
ATOM    101  C   UNL A   1      43.664  34.534  35.349  1.00  0.00     0.091 A 
ATOM    102  F   UNL A   1      42.641  33.076  33.762  1.00  0.00    -0.205 F 
ATOM    103  C   UNL A   1      44.795  34.888  36.103  1.00  0.00     0.022 A 
BRANCH 101 104
ATOM    104  S   UNL A   1      42.201  35.563  35.523  1.00  0.00     0.127 S 
ATOM    105  O   UNL A   1      41.931  35.936  34.137  1.00  0.00    -0.237 OA
ATOM    106  O   UNL A   1      41.231  34.633  36.104  1.00  0.00    -0.237 OA
ATOM    107  O   UNL A   1      42.585  36.657  36.405  1.00  0.00    -0.744 OA
ENDBRANCH 101 104
ENDBRANCH  74  97
ENDBRANCH  48  49
ENDBRANCH  41  43
ENDBRANCH  40  41
ENDBRANCH  39  40
ENDBRANCH  38  39
ENDBRANCH  37  38
ENDBRANCH  36  37
ENDBRANCH  35  36
ENDBRANCH  34  35
ENDBRANCH   1  34
TORSDOF 28
ENDMDL
