MODEL 1
REMARK VINA RESULT:      -9.1      0.000      0.000
REMARK SMILES O=C(OCCOCCOCCOCCOC(=O)c1cc2n[nH]cc2cc1[N+](=O)[O-])c1ccc(-c2c3nc(c(-c4cccc(S(=O)(=O)[O-])c4F)c4ccc([nH]4)c(-c4cccc(S(=O)(=O)[O-])c4F)c4nc(c(-c5cccc(S(=O)(=O)[O-])c5F)c5ccc2[nH]5)C=C4)C=C3)cc1
REMARK SMILES IDX 8 1 7 2 6 3 5 4 4 5 3 6 2 7 1 8 30 9 31 10 92 11 32 12 91 13
REMARK SMILES IDX 33 14 34 15 35 16 85 17 36 18 90 19 84 20 86 21 37 22 89 23
REMARK SMILES IDX 83 24 82 25 38 27 70 28 50 29 69 30 51 31 54 32 68 33 87 34
REMARK SMILES IDX 52 35 53 36 67 38 88 39 55 40 39 41 40 42 48 43 41 44 43 45
REMARK SMILES IDX 49 46 42 47 44 48 45 49 46 50 47 51 71 52 72 53 80 54 73 55
REMARK SMILES IDX 75 56 81 57 74 58 76 59 77 60 78 61 79 62 56 63 57 64 65 65
REMARK SMILES IDX 58 66 60 67 66 68 59 69 61 70 62 71 63 72 64 73 9 74 10 75
REMARK SMILES IDX 11 76 12 77 13 78 14 79 15 80 16 81 17 82 18 83 19 84 26 85
REMARK SMILES IDX 20 86 25 87 21 88 24 89 22 90 23 91 27 93 28 94 29 95
REMARK H PARENT 86 26 54 37 22 92
REMARK Flexibility Score: inf
ROOT
ATOM      1  C   UNL A   1      40.410  21.609  26.245  1.00  0.00     0.188 C 
ENDROOT
BRANCH   1   2
ATOM      2  C   UNL A   1      41.064  20.970  27.475  1.00  0.00     0.188 C 
BRANCH   2   3
ATOM      3  O   UNL A   1      42.241  20.271  27.103  1.00  0.00    -0.376 OA
BRANCH   3   4
ATOM      4  C   UNL A   1      42.177  19.159  26.226  1.00  0.00     0.202 C 
BRANCH   4   5
ATOM      5  C   UNL A   1      43.350  18.185  26.251  1.00  0.00     0.261 C 
BRANCH   5   6
ATOM      6  O   UNL A   1      44.440  18.514  25.375  1.00  0.00    -0.460 OA
BRANCH   6   7
ATOM      7  C   UNL A   1      44.552  19.512  24.466  1.00  0.00     0.338 C 
ATOM      8  O   UNL A   1      44.464  19.226  23.273  1.00  0.00    -0.246 OA
BRANCH   7   9
ATOM      9  C   UNL A   1      44.777  20.939  24.827  1.00  0.00     0.060 A 
ATOM     10  C   UNL A   1      45.273  21.371  26.052  1.00  0.00     0.016 A 
ATOM     11  C   UNL A   1      44.603  21.903  23.825  1.00  0.00     0.016 A 
ATOM     12  C   UNL A   1      45.470  22.701  26.348  1.00  0.00     0.010 A 
ATOM     13  C   UNL A   1      44.882  23.249  24.078  1.00  0.00     0.010 A 
ATOM     14  C   UNL A   1      45.290  23.648  25.356  1.00  0.00    -0.014 A 
BRANCH  14  15
ATOM     15  C   UNL A   1      45.431  25.051  25.759  1.00  0.00     0.031 A 
ATOM     16  C   UNL A   1      46.783  25.670  25.630  1.00  0.00     0.074 A 
ATOM     17  C   UNL A   1      44.335  25.765  26.077  1.00  0.00     0.049 A 
ATOM     18  N   UNL A   1      47.178  26.858  25.983  1.00  0.00    -0.248 NA
ATOM     19  C   UNL A   1      47.833  24.845  25.000  1.00  0.00     0.031 C 
ATOM     20  C   UNL A   1      42.958  25.256  26.068  1.00  0.00     0.029 A 
ATOM     21  N   UNL A   1      44.201  27.072  26.454  1.00  0.00    -0.354 N 
ATOM     22  C   UNL A   1      48.534  26.896  25.697  1.00  0.00     0.074 A 
ATOM     23  C   UNL A   1      48.893  25.633  25.099  1.00  0.00     0.031 C 
ATOM     24  C   UNL A   1      42.122  26.237  26.441  1.00  0.00     0.029 A 
ATOM     25  C   UNL A   1      42.911  27.407  26.798  1.00  0.00     0.049 A 
ATOM     26  H   UNL A   1      44.951  27.709  26.478  1.00  0.00     0.167 HD
ATOM     27  C   UNL A   1      49.397  27.902  25.943  1.00  0.00     0.034 A 
ATOM     28  C   UNL A   1      42.447  28.515  27.403  1.00  0.00     0.034 A 
ATOM     29  C   UNL A   1      48.991  29.147  26.528  1.00  0.00     0.049 A 
ATOM     30  C   UNL A   1      43.452  29.585  27.738  1.00  0.00     0.074 A 
ATOM     31  C   UNL A   1      49.768  30.239  26.855  1.00  0.00     0.029 A 
ATOM     32  N   UNL A   1      47.685  29.451  26.889  1.00  0.00    -0.354 N 
ATOM     33  N   UNL A   1      44.734  29.626  27.459  1.00  0.00    -0.248 NA
ATOM     34  C   UNL A   1      42.953  30.760  28.461  1.00  0.00     0.031 C 
ATOM     35  C   UNL A   1      48.938  31.186  27.459  1.00  0.00     0.029 A 
ATOM     36  C   UNL A   1      47.635  30.706  27.461  1.00  0.00     0.049 A 
ATOM     37  H   UNL A   1      46.910  28.858  26.758  1.00  0.00     0.167 HD
ATOM     38  C   UNL A   1      45.192  30.841  27.950  1.00  0.00     0.074 A 
ATOM     39  C   UNL A   1      44.039  31.518  28.513  1.00  0.00     0.031 C 
ATOM     40  C   UNL A   1      46.448  31.350  27.961  1.00  0.00     0.034 A 
BRANCH  27  41
ATOM     41  C   UNL A   1      50.849  27.659  25.660  1.00  0.00     0.023 A 
ATOM     42  C   UNL A   1      51.725  27.248  26.683  1.00  0.00     0.012 A 
ATOM     43  C   UNL A   1      51.338  27.829  24.350  1.00  0.00     0.148 A 
ATOM     44  C   UNL A   1      53.075  27.026  26.407  1.00  0.00     0.002 A 
ATOM     45  C   UNL A   1      52.670  27.560  24.074  1.00  0.00     0.091 A 
ATOM     46  F   UNL A   1      50.491  28.259  23.405  1.00  0.00    -0.205 F 
ATOM     47  C   UNL A   1      53.544  27.171  25.102  1.00  0.00     0.022 A 
BRANCH  45  48
ATOM     48  S   UNL A   1      53.351  27.652  22.416  1.00  0.00     0.127 S 
ATOM     49  O   UNL A   1      53.956  26.329  22.269  1.00  0.00    -0.237 OA
ATOM     50  O   UNL A   1      52.150  27.867  21.610  1.00  0.00    -0.237 OA
ATOM     51  O   UNL A   1      54.294  28.761  22.424  1.00  0.00    -0.744 OA
ENDBRANCH  45  48
ENDBRANCH  27  41
BRANCH  28  52
ATOM     52  C   UNL A   1      41.013  28.638  27.794  1.00  0.00     0.023 A 
ATOM     53  C   UNL A   1      40.053  29.021  26.838  1.00  0.00     0.012 A 
ATOM     54  C   UNL A   1      40.597  28.411  29.122  1.00  0.00     0.148 A 
ATOM     55  C   UNL A   1      38.721  29.223  27.207  1.00  0.00     0.002 A 
ATOM     56  C   UNL A   1      39.260  28.556  29.471  1.00  0.00     0.091 A 
ATOM     57  F   UNL A   1      41.523  28.067  30.029  1.00  0.00    -0.205 F 
ATOM     58  C   UNL A   1      38.323  28.985  28.520  1.00  0.00     0.022 A 
BRANCH  56  59
ATOM     59  S   UNL A   1      38.646  28.151  31.110  1.00  0.00     0.127 S 
ATOM     60  O   UNL A   1      37.361  28.846  31.127  1.00  0.00    -0.237 OA
ATOM     61  O   UNL A   1      38.557  26.691  31.048  1.00  0.00    -0.237 OA
ATOM     62  O   UNL A   1      39.651  28.649  32.038  1.00  0.00    -0.744 OA
ENDBRANCH  56  59
ENDBRANCH  28  52
BRANCH  40  63
ATOM     63  C   UNL A   1      46.625  32.716  28.558  1.00  0.00     0.023 A 
ATOM     64  C   UNL A   1      46.993  32.849  29.910  1.00  0.00     0.012 A 
ATOM     65  C   UNL A   1      46.511  33.860  27.746  1.00  0.00     0.148 A 
ATOM     66  C   UNL A   1      47.215  34.111  30.455  1.00  0.00     0.002 A 
ATOM     67  C   UNL A   1      46.794  35.107  28.281  1.00  0.00     0.091 A 
ATOM     68  F   UNL A   1      46.144  33.701  26.466  1.00  0.00    -0.205 F 
ATOM     69  C   UNL A   1      47.130  35.237  29.638  1.00  0.00     0.022 A 
BRANCH  67  70
ATOM     70  S   UNL A   1      46.825  36.593  27.276  1.00  0.00     0.127 S 
ATOM     71  O   UNL A   1      47.733  36.204  26.198  1.00  0.00    -0.237 OA
ATOM     72  O   UNL A   1      45.423  36.723  26.877  1.00  0.00    -0.237 OA
ATOM     73  O   UNL A   1      47.308  37.660  28.143  1.00  0.00    -0.744 OA
ENDBRANCH  67  70
ENDBRANCH  40  63
ENDBRANCH  14  15
ENDBRANCH   7   9
ENDBRANCH   6   7
ENDBRANCH   5   6
ENDBRANCH   4   5
ENDBRANCH   3   4
ENDBRANCH   2   3
ENDBRANCH   1   2
BRANCH   1  74
ATOM     74  O   UNL A   1      39.210  20.981  25.785  1.00  0.00    -0.377 OA
BRANCH  74  75
ATOM     75  C   UNL A   1      38.084  21.837  25.585  1.00  0.00     0.188 C 
BRANCH  75  76
ATOM     76  C   UNL A   1      38.103  23.275  26.170  1.00  0.00     0.188 C 
BRANCH  76  77
ATOM     77  O   UNL A   1      36.856  23.936  26.095  1.00  0.00    -0.376 OA
BRANCH  77  78
ATOM     78  C   UNL A   1      36.063  23.730  24.934  1.00  0.00     0.202 C 
BRANCH  78  79
ATOM     79  C   UNL A   1      34.522  23.845  24.989  1.00  0.00     0.261 C 
BRANCH  79  80
ATOM     80  O   UNL A   1      33.951  25.147  24.757  1.00  0.00    -0.459 OA
BRANCH  80  81
ATOM     81  C   UNL A   1      32.633  25.228  24.483  1.00  0.00     0.345 C 
ATOM     82  O   UNL A   1      31.841  24.308  24.344  1.00  0.00    -0.246 OA
BRANCH  81  83
ATOM     83  C   UNL A   1      32.211  26.642  24.635  1.00  0.00     0.139 A 
ATOM     84  C   UNL A   1      32.113  27.074  25.993  1.00  0.00     0.053 A 
ATOM     85  C   UNL A   1      32.014  27.531  23.521  1.00  0.00     0.284 A 
ATOM     86  C   UNL A   1      31.867  28.446  26.150  1.00  0.00     0.093 A 
ATOM     87  C   UNL A   1      31.699  28.916  23.668  1.00  0.00     0.098 A 
ATOM     88  N   UNL A   1      31.797  29.192  27.263  1.00  0.00    -0.176 NA
ATOM     89  C   UNL A   1      31.662  29.291  25.005  1.00  0.00     0.026 A 
ATOM     90  N   UNL A   1      31.525  30.439  26.832  1.00  0.00    -0.285 N 
ATOM     91  C   UNL A   1      31.410  30.549  25.475  1.00  0.00     0.114 A 
ATOM     92  H   UNL A   1      31.417  31.204  27.442  1.00  0.00     0.189 HD
BRANCH  85  93
ATOM     93  N   UNL A   1      32.094  27.032  22.139  1.00  0.00     0.063 N 
ATOM     94  O   UNL A   1      31.028  26.704  21.595  1.00  0.00    -0.258 OA
ATOM     95  O   UNL A   1      33.207  26.893  21.624  1.00  0.00    -0.258 OA
ENDBRANCH  85  93
ENDBRANCH  81  83
ENDBRANCH  80  81
ENDBRANCH  79  80
ENDBRANCH  78  79
ENDBRANCH  77  78
ENDBRANCH  76  77
ENDBRANCH  75  76
ENDBRANCH  74  75
ENDBRANCH   1  74
TORSDOF 24
ENDMDL
MODEL 2
REMARK VINA RESULT:      -9.0      5.558      8.752
REMARK SMILES O=C(OCCOCCOCCOCCOC(=O)c1cc2n[nH]cc2cc1[N+](=O)[O-])c1ccc(-c2c3nc(c(-c4cccc(S(=O)(=O)[O-])c4F)c4ccc([nH]4)c(-c4cccc(S(=O)(=O)[O-])c4F)c4nc(c(-c5cccc(S(=O)(=O)[O-])c5F)c5ccc2[nH]5)C=C4)C=C3)cc1
REMARK SMILES IDX 8 1 7 2 6 3 5 4 4 5 3 6 2 7 1 8 30 9 31 10 92 11 32 12 91 13
REMARK SMILES IDX 33 14 34 15 35 16 85 17 36 18 90 19 84 20 86 21 37 22 89 23
REMARK SMILES IDX 83 24 82 25 38 27 70 28 50 29 69 30 51 31 54 32 68 33 87 34
REMARK SMILES IDX 52 35 53 36 67 38 88 39 55 40 39 41 40 42 48 43 41 44 43 45
REMARK SMILES IDX 49 46 42 47 44 48 45 49 46 50 47 51 71 52 72 53 80 54 73 55
REMARK SMILES IDX 75 56 81 57 74 58 76 59 77 60 78 61 79 62 56 63 57 64 65 65
REMARK SMILES IDX 58 66 60 67 66 68 59 69 61 70 62 71 63 72 64 73 9 74 10 75
REMARK SMILES IDX 11 76 12 77 13 78 14 79 15 80 16 81 17 82 18 83 19 84 26 85
REMARK SMILES IDX 20 86 25 87 21 88 24 89 22 90 23 91 27 93 28 94 29 95
REMARK H PARENT 86 26 54 37 22 92
REMARK Flexibility Score: inf
ROOT
ATOM      1  C   UNL A   1      41.383  21.110  26.845  1.00  0.00     0.188 C 
ENDROOT
BRANCH   1   2
ATOM      2  C   UNL A   1      42.484  20.328  26.123  1.00  0.00     0.188 C 
BRANCH   2   3
ATOM      3  O   UNL A   1      43.071  21.122  25.104  1.00  0.00    -0.376 OA
BRANCH   3   4
ATOM      4  C   UNL A   1      43.223  22.521  25.274  1.00  0.00     0.202 C 
BRANCH   4   5
ATOM      5  C   UNL A   1      44.427  22.997  26.081  1.00  0.00     0.261 C 
BRANCH   5   6
ATOM      6  O   UNL A   1      45.267  23.957  25.421  1.00  0.00    -0.460 OA
BRANCH   6   7
ATOM      7  C   UNL A   1      45.217  25.311  25.438  1.00  0.00     0.338 C 
ATOM      8  O   UNL A   1      45.796  25.927  24.544  1.00  0.00    -0.246 OA
BRANCH   7   9
ATOM      9  C   UNL A   1      44.502  26.099  26.479  1.00  0.00     0.060 A 
ATOM     10  C   UNL A   1      44.228  27.459  26.387  1.00  0.00     0.016 A 
ATOM     11  C   UNL A   1      43.953  25.403  27.565  1.00  0.00     0.016 A 
ATOM     12  C   UNL A   1      43.561  28.153  27.371  1.00  0.00     0.010 A 
ATOM     13  C   UNL A   1      43.197  26.075  28.530  1.00  0.00     0.010 A 
ATOM     14  C   UNL A   1      43.028  27.461  28.442  1.00  0.00    -0.014 A 
BRANCH  14  15
ATOM     15  C   UNL A   1      42.407  28.269  29.497  1.00  0.00     0.031 A 
ATOM     16  C   UNL A   1      43.226  28.565  30.709  1.00  0.00     0.074 A 
ATOM     17  C   UNL A   1      41.204  28.834  29.280  1.00  0.00     0.049 A 
ATOM     18  N   UNL A   1      42.884  29.188  31.798  1.00  0.00    -0.248 NA
ATOM     19  C   UNL A   1      44.632  28.113  30.686  1.00  0.00     0.031 C 
ATOM     20  C   UNL A   1      40.418  28.712  28.046  1.00  0.00     0.029 A 
ATOM     21  N   UNL A   1      40.439  29.636  30.080  1.00  0.00    -0.354 N 
ATOM     22  C   UNL A   1      43.999  29.133  32.621  1.00  0.00     0.074 A 
ATOM     23  C   UNL A   1      45.047  28.455  31.896  1.00  0.00     0.031 C 
ATOM     24  C   UNL A   1      39.275  29.400  28.181  1.00  0.00     0.029 A 
ATOM     25  C   UNL A   1      39.210  29.932  29.534  1.00  0.00     0.049 A 
ATOM     26  H   UNL A   1      40.736  29.969  30.958  1.00  0.00     0.167 HD
ATOM     27  C   UNL A   1      44.111  29.592  33.883  1.00  0.00     0.034 A 
ATOM     28  C   UNL A   1      38.136  30.505  30.106  1.00  0.00     0.034 A 
ATOM     29  C   UNL A   1      43.045  30.271  34.559  1.00  0.00     0.049 A 
ATOM     30  C   UNL A   1      38.270  30.932  31.543  1.00  0.00     0.074 A 
ATOM     31  C   UNL A   1      43.017  30.763  35.848  1.00  0.00     0.029 A 
ATOM     32  N   UNL A   1      41.804  30.535  33.994  1.00  0.00    -0.354 N 
ATOM     33  N   UNL A   1      39.327  30.888  32.320  1.00  0.00    -0.248 NA
ATOM     34  C   UNL A   1      37.073  31.492  32.182  1.00  0.00     0.031 C 
ATOM     35  C   UNL A   1      41.741  31.283  36.077  1.00  0.00     0.029 A 
ATOM     36  C   UNL A   1      40.991  31.162  34.915  1.00  0.00     0.049 A 
ATOM     37  H   UNL A   1      41.543  30.307  33.072  1.00  0.00     0.167 HD
ATOM     38  C   UNL A   1      38.932  31.436  33.531  1.00  0.00     0.074 A 
ATOM     39  C   UNL A   1      37.547  31.835  33.372  1.00  0.00     0.031 C 
ATOM     40  C   UNL A   1      39.632  31.581  34.683  1.00  0.00     0.034 A 
BRANCH  27  41
ATOM     41  C   UNL A   1      45.383  29.298  34.620  1.00  0.00     0.023 A 
ATOM     42  C   UNL A   1      46.485  30.171  34.536  1.00  0.00     0.012 A 
ATOM     43  C   UNL A   1      45.471  28.142  35.419  1.00  0.00     0.148 A 
ATOM     44  C   UNL A   1      47.665  29.885  35.225  1.00  0.00     0.002 A 
ATOM     45  C   UNL A   1      46.629  27.890  36.139  1.00  0.00     0.091 A 
ATOM     46  F   UNL A   1      44.421  27.308  35.450  1.00  0.00    -0.205 F 
ATOM     47  C   UNL A   1      47.731  28.753  36.034  1.00  0.00     0.022 A 
BRANCH  45  48
ATOM     48  S   UNL A   1      46.787  26.496  37.259  1.00  0.00     0.127 S 
ATOM     49  O   UNL A   1      46.806  25.368  36.328  1.00  0.00    -0.237 OA
ATOM     50  O   UNL A   1      48.068  26.776  37.907  1.00  0.00    -0.237 OA
ATOM     51  O   UNL A   1      45.628  26.547  38.139  1.00  0.00    -0.744 OA
ENDBRANCH  45  48
ENDBRANCH  27  41
BRANCH  28  52
ATOM     52  C   UNL A   1      36.847  30.637  29.366  1.00  0.00     0.023 A 
ATOM     53  C   UNL A   1      36.212  29.492  28.848  1.00  0.00     0.012 A 
ATOM     54  C   UNL A   1      36.262  31.900  29.141  1.00  0.00     0.148 A 
ATOM     55  C   UNL A   1      35.051  29.607  28.080  1.00  0.00     0.002 A 
ATOM     56  C   UNL A   1      35.074  32.003  28.427  1.00  0.00     0.091 A 
ATOM     57  F   UNL A   1      36.885  32.986  29.621  1.00  0.00    -0.205 F 
ATOM     58  C   UNL A   1      34.479  30.860  27.875  1.00  0.00     0.022 A 
BRANCH  56  59
ATOM     59  S   UNL A   1      34.209  33.564  28.223  1.00  0.00     0.127 S 
ATOM     60  O   UNL A   1      34.092  34.023  29.604  1.00  0.00    -0.237 OA
ATOM     61  O   UNL A   1      35.147  34.325  27.397  1.00  0.00    -0.237 OA
ATOM     62  O   UNL A   1      32.958  33.234  27.554  1.00  0.00    -0.744 OA
ENDBRANCH  56  59
ENDBRANCH  28  52
BRANCH  40  63
ATOM     63  C   UNL A   1      38.924  32.235  35.835  1.00  0.00     0.023 A 
ATOM     64  C   UNL A   1      38.782  33.635  35.869  1.00  0.00     0.012 A 
ATOM     65  C   UNL A   1      38.324  31.444  36.832  1.00  0.00     0.148 A 
ATOM     66  C   UNL A   1      38.077  34.243  36.904  1.00  0.00     0.002 A 
ATOM     67  C   UNL A   1      37.571  32.053  37.824  1.00  0.00     0.091 A 
ATOM     68  F   UNL A   1      38.489  30.114  36.780  1.00  0.00    -0.205 F 
ATOM     69  C   UNL A   1      37.460  33.452  37.872  1.00  0.00     0.022 A 
BRANCH  67  70
ATOM     70  S   UNL A   1      36.647  31.109  39.038  1.00  0.00     0.127 S 
ATOM     71  O   UNL A   1      37.556  31.127  40.183  1.00  0.00    -0.237 OA
ATOM     72  O   UNL A   1      35.439  31.919  39.203  1.00  0.00    -0.237 OA
ATOM     73  O   UNL A   1      36.419  29.798  38.444  1.00  0.00    -0.744 OA
ENDBRANCH  67  70
ENDBRANCH  40  63
ENDBRANCH  14  15
ENDBRANCH   7   9
ENDBRANCH   6   7
ENDBRANCH   5   6
ENDBRANCH   4   5
ENDBRANCH   3   4
ENDBRANCH   2   3
ENDBRANCH   1   2
BRANCH   1  74
ATOM     74  O   UNL A   1      40.057  20.919  26.344  1.00  0.00    -0.377 OA
BRANCH  74  75
ATOM     75  C   UNL A   1      39.271  22.099  26.167  1.00  0.00     0.188 C 
BRANCH  75  76
ATOM     76  C   UNL A   1      37.811  21.975  25.653  1.00  0.00     0.188 C 
BRANCH  76  77
ATOM     77  O   UNL A   1      37.035  23.139  25.859  1.00  0.00    -0.376 OA
BRANCH  77  78
ATOM     78  C   UNL A   1      35.622  23.021  25.759  1.00  0.00     0.202 C 
BRANCH  78  79
ATOM     79  C   UNL A   1      34.947  21.643  25.570  1.00  0.00     0.261 C 
BRANCH  79  80
ATOM     80  O   UNL A   1      33.524  21.574  25.779  1.00  0.00    -0.459 OA
BRANCH  80  81
ATOM     81  C   UNL A   1      32.722  21.471  24.700  1.00  0.00     0.345 C 
ATOM     82  O   UNL A   1      32.117  20.484  24.310  1.00  0.00    -0.246 OA
BRANCH  81  83
ATOM     83  C   UNL A   1      32.461  22.836  24.181  1.00  0.00     0.139 A 
ATOM     84  C   UNL A   1      33.071  23.101  22.916  1.00  0.00     0.053 A 
ATOM     85  C   UNL A   1      31.593  23.778  24.835  1.00  0.00     0.284 A 
ATOM     86  C   UNL A   1      32.708  24.327  22.340  1.00  0.00     0.093 A 
ATOM     87  C   UNL A   1      31.267  25.057  24.290  1.00  0.00     0.098 A 
ATOM     88  N   UNL A   1      33.022  24.852  21.146  1.00  0.00    -0.176 NA
ATOM     89  C   UNL A   1      31.848  25.242  23.042  1.00  0.00     0.026 A 
ATOM     90  N   UNL A   1      32.416  26.054  21.120  1.00  0.00    -0.285 N 
ATOM     91  C   UNL A   1      31.711  26.349  22.253  1.00  0.00     0.114 A 
ATOM     92  H   UNL A   1      32.475  26.668  20.353  1.00  0.00     0.189 HD
BRANCH  85  93
ATOM     93  N   UNL A   1      31.014  23.473  26.153  1.00  0.00     0.063 N 
ATOM     94  O   UNL A   1      30.275  22.480  26.228  1.00  0.00    -0.258 OA
ATOM     95  O   UNL A   1      31.225  24.252  27.087  1.00  0.00    -0.258 OA
ENDBRANCH  85  93
ENDBRANCH  81  83
ENDBRANCH  80  81
ENDBRANCH  79  80
ENDBRANCH  78  79
ENDBRANCH  77  78
ENDBRANCH  76  77
ENDBRANCH  75  76
ENDBRANCH  74  75
ENDBRANCH   1  74
TORSDOF 24
ENDMDL
MODEL 3
REMARK VINA RESULT:      -8.9      6.736     11.376
REMARK SMILES O=C(OCCOCCOCCOCCOC(=O)c1cc2n[nH]cc2cc1[N+](=O)[O-])c1ccc(-c2c3nc(c(-c4cccc(S(=O)(=O)[O-])c4F)c4ccc([nH]4)c(-c4cccc(S(=O)(=O)[O-])c4F)c4nc(c(-c5cccc(S(=O)(=O)[O-])c5F)c5ccc2[nH]5)C=C4)C=C3)cc1
REMARK SMILES IDX 8 1 7 2 6 3 5 4 4 5 3 6 2 7 1 8 30 9 31 10 92 11 32 12 91 13
REMARK SMILES IDX 33 14 34 15 35 16 85 17 36 18 90 19 84 20 86 21 37 22 89 23
REMARK SMILES IDX 83 24 82 25 38 27 70 28 50 29 69 30 51 31 54 32 68 33 87 34
REMARK SMILES IDX 52 35 53 36 67 38 88 39 55 40 39 41 40 42 48 43 41 44 43 45
REMARK SMILES IDX 49 46 42 47 44 48 45 49 46 50 47 51 71 52 72 53 80 54 73 55
REMARK SMILES IDX 75 56 81 57 74 58 76 59 77 60 78 61 79 62 56 63 57 64 65 65
REMARK SMILES IDX 58 66 60 67 66 68 59 69 61 70 62 71 63 72 64 73 9 74 10 75
REMARK SMILES IDX 11 76 12 77 13 78 14 79 15 80 16 81 17 82 18 83 19 84 26 85
REMARK SMILES IDX 20 86 25 87 21 88 24 89 22 90 23 91 27 93 28 94 29 95
REMARK H PARENT 86 26 54 37 22 92
REMARK Flexibility Score: inf
ROOT
ATOM      1  C   UNL A   1      34.031  34.241  29.852  1.00  0.00     0.188 C 
ENDROOT
BRANCH   1   2
ATOM      2  C   UNL A   1      34.416  34.636  31.281  1.00  0.00     0.188 C 
BRANCH   2   3
ATOM      3  O   UNL A   1      33.922  33.683  32.209  1.00  0.00    -0.376 OA
BRANCH   3   4
ATOM      4  C   UNL A   1      34.811  32.938  33.024  1.00  0.00     0.202 C 
BRANCH   4   5
ATOM      5  C   UNL A   1      36.227  32.727  32.498  1.00  0.00     0.261 C 
BRANCH   5   6
ATOM      6  O   UNL A   1      36.944  31.632  33.088  1.00  0.00    -0.460 OA
BRANCH   6   7
ATOM      7  C   UNL A   1      37.260  30.420  32.570  1.00  0.00     0.338 C 
ATOM      8  O   UNL A   1      36.379  29.789  31.986  1.00  0.00    -0.246 OA
BRANCH   7   9
ATOM      9  C   UNL A   1      38.613  29.806  32.667  1.00  0.00     0.060 A 
ATOM     10  C   UNL A   1      39.782  30.513  32.918  1.00  0.00     0.016 A 
ATOM     11  C   UNL A   1      38.699  28.407  32.632  1.00  0.00     0.016 A 
ATOM     12  C   UNL A   1      41.016  29.908  33.003  1.00  0.00     0.010 A 
ATOM     13  C   UNL A   1      39.931  27.767  32.805  1.00  0.00     0.010 A 
ATOM     14  C   UNL A   1      41.095  28.528  32.962  1.00  0.00    -0.014 A 
BRANCH  14  15
ATOM     15  C   UNL A   1      42.443  27.951  32.970  1.00  0.00     0.031 A 
ATOM     16  C   UNL A   1      43.056  27.656  34.299  1.00  0.00     0.074 A 
ATOM     17  C   UNL A   1      43.010  27.570  31.810  1.00  0.00     0.049 A 
ATOM     18  N   UNL A   1      44.250  27.217  34.570  1.00  0.00    -0.248 NA
ATOM     19  C   UNL A   1      42.203  27.866  35.484  1.00  0.00     0.031 C 
ATOM     20  C   UNL A   1      42.391  27.687  30.483  1.00  0.00     0.029 A 
ATOM     21  N   UNL A   1      44.224  26.995  31.557  1.00  0.00    -0.354 N 
ATOM     22  C   UNL A   1      44.321  27.177  35.955  1.00  0.00     0.074 A 
ATOM     23  C   UNL A   1      43.040  27.591  36.473  1.00  0.00     0.031 C 
ATOM     24  C   UNL A   1      43.239  27.214  29.558  1.00  0.00     0.029 A 
ATOM     25  C   UNL A   1      44.485  26.848  30.214  1.00  0.00     0.049 A 
ATOM     26  H   UNL A   1      44.848  26.714  32.264  1.00  0.00     0.167 HD
ATOM     27  C   UNL A   1      45.385  26.843  36.713  1.00  0.00     0.034 A 
ATOM     28  C   UNL A   1      45.635  26.523  29.597  1.00  0.00     0.034 A 
ATOM     29  C   UNL A   1      46.636  26.424  36.152  1.00  0.00     0.049 A 
ATOM     30  C   UNL A   1      46.826  26.236  30.472  1.00  0.00     0.074 A 
ATOM     31  C   UNL A   1      47.802  26.083  36.806  1.00  0.00     0.029 A 
ATOM     32  N   UNL A   1      46.882  26.308  34.790  1.00  0.00    -0.354 N 
ATOM     33  N   UNL A   1      46.892  26.189  31.782  1.00  0.00    -0.248 NA
ATOM     34  C   UNL A   1      48.095  25.952  29.792  1.00  0.00     0.031 C 
ATOM     35  C   UNL A   1      48.769  25.807  35.836  1.00  0.00     0.029 A 
ATOM     36  C   UNL A   1      48.190  25.925  34.580  1.00  0.00     0.049 A 
ATOM     37  H   UNL A   1      46.220  26.476  34.081  1.00  0.00     0.167 HD
ATOM     38  C   UNL A   1      48.202  25.845  32.085  1.00  0.00     0.074 A 
ATOM     39  C   UNL A   1      48.884  25.664  30.818  1.00  0.00     0.031 C 
ATOM     40  C   UNL A   1      48.803  25.712  33.293  1.00  0.00     0.034 A 
BRANCH  27  41
ATOM     41  C   UNL A   1      45.258  27.001  38.198  1.00  0.00     0.023 A 
ATOM     42  C   UNL A   1      44.844  25.925  39.007  1.00  0.00     0.012 A 
ATOM     43  C   UNL A   1      45.573  28.238  38.793  1.00  0.00     0.148 A 
ATOM     44  C   UNL A   1      44.728  26.086  40.388  1.00  0.00     0.002 A 
ATOM     45  C   UNL A   1      45.502  28.376  40.172  1.00  0.00     0.091 A 
ATOM     46  F   UNL A   1      45.926  29.256  37.997  1.00  0.00    -0.205 F 
ATOM     47  C   UNL A   1      45.068  27.306  40.970  1.00  0.00     0.022 A 
BRANCH  45  48
ATOM     48  S   UNL A   1      45.982  29.884  41.018  1.00  0.00     0.127 S 
ATOM     49  O   UNL A   1      47.428  29.897  40.803  1.00  0.00    -0.237 OA
ATOM     50  O   UNL A   1      45.244  30.898  40.267  1.00  0.00    -0.237 OA
ATOM     51  O   UNL A   1      45.568  29.722  42.405  1.00  0.00    -0.744 OA
ENDBRANCH  45  48
ENDBRANCH  27  41
BRANCH  28  52
ATOM     52  C   UNL A   1      45.740  26.526  28.109  1.00  0.00     0.023 A 
ATOM     53  C   UNL A   1      45.872  27.744  27.414  1.00  0.00     0.012 A 
ATOM     54  C   UNL A   1      45.672  25.326  27.371  1.00  0.00     0.148 A 
ATOM     55  C   UNL A   1      45.885  27.770  26.018  1.00  0.00     0.002 A 
ATOM     56  C   UNL A   1      45.745  25.354  25.983  1.00  0.00     0.091 A 
ATOM     57  F   UNL A   1      45.525  24.174  28.041  1.00  0.00    -0.205 F 
ATOM     58  C   UNL A   1      45.828  26.576  25.303  1.00  0.00     0.022 A 
BRANCH  56  59
ATOM     59  S   UNL A   1      45.801  23.854  24.995  1.00  0.00     0.127 S 
ATOM     60  O   UNL A   1      46.689  24.249  23.905  1.00  0.00    -0.237 OA
ATOM     61  O   UNL A   1      46.372  22.891  25.938  1.00  0.00    -0.237 OA
ATOM     62  O   UNL A   1      44.420  23.579  24.623  1.00  0.00    -0.744 OA
ENDBRANCH  56  59
ENDBRANCH  28  52
BRANCH  40  63
ATOM     63  C   UNL A   1      50.249  25.310  33.295  1.00  0.00     0.023 A 
ATOM     64  C   UNL A   1      51.250  26.286  33.460  1.00  0.00     0.012 A 
ATOM     65  C   UNL A   1      50.602  23.950  33.222  1.00  0.00     0.148 A 
ATOM     66  C   UNL A   1      52.590  25.914  33.520  1.00  0.00     0.002 A 
ATOM     67  C   UNL A   1      51.933  23.582  33.345  1.00  0.00     0.091 A 
ATOM     68  F   UNL A   1      49.627  23.044  33.051  1.00  0.00    -0.205 F 
ATOM     69  C   UNL A   1      52.929  24.562  33.477  1.00  0.00     0.022 A 
BRANCH  67  70
ATOM     70  S   UNL A   1      52.448  21.866  33.420  1.00  0.00     0.127 S 
ATOM     71  O   UNL A   1      53.898  21.995  33.547  1.00  0.00    -0.237 OA
ATOM     72  O   UNL A   1      51.768  21.393  34.627  1.00  0.00    -0.237 OA
ATOM     73  O   UNL A   1      51.984  21.248  32.184  1.00  0.00    -0.744 OA
ENDBRANCH  67  70
ENDBRANCH  40  63
ENDBRANCH  14  15
ENDBRANCH   7   9
ENDBRANCH   6   7
ENDBRANCH   5   6
ENDBRANCH   4   5
ENDBRANCH   3   4
ENDBRANCH   2   3
ENDBRANCH   1   2
BRANCH   1  74
ATOM     74  O   UNL A   1      34.850  33.239  29.243  1.00  0.00    -0.377 OA
BRANCH  74  75
ATOM     75  C   UNL A   1      34.432  32.772  27.960  1.00  0.00     0.188 C 
BRANCH  75  76
ATOM     76  C   UNL A   1      34.378  31.245  27.682  1.00  0.00     0.188 C 
BRANCH  76  77
ATOM     77  O   UNL A   1      33.065  30.735  27.562  1.00  0.00    -0.376 OA
BRANCH  77  78
ATOM     78  C   UNL A   1      32.607  30.376  26.266  1.00  0.00     0.202 C 
BRANCH  78  79
ATOM     79  C   UNL A   1      33.336  29.297  25.432  1.00  0.00     0.261 C 
BRANCH  79  80
ATOM     80  O   UNL A   1      32.636  28.061  25.201  1.00  0.00    -0.459 OA
BRANCH  80  81
ATOM     81  C   UNL A   1      33.116  27.219  24.262  1.00  0.00     0.345 C 
ATOM     82  O   UNL A   1      34.010  27.430  23.457  1.00  0.00    -0.246 OA
BRANCH  81  83
ATOM     83  C   UNL A   1      32.566  25.866  24.523  1.00  0.00     0.139 A 
ATOM     84  C   UNL A   1      32.466  25.540  25.911  1.00  0.00     0.053 A 
ATOM     85  C   UNL A   1      32.082  24.996  23.485  1.00  0.00     0.284 A 
ATOM     86  C   UNL A   1      31.807  24.331  26.178  1.00  0.00     0.093 A 
ATOM     87  C   UNL A   1      31.467  23.734  23.741  1.00  0.00     0.098 A 
ATOM     88  N   UNL A   1      31.470  23.767  27.348  1.00  0.00    -0.176 NA
ATOM     89  C   UNL A   1      31.355  23.489  25.104  1.00  0.00     0.026 A 
ATOM     90  N   UNL A   1      30.869  22.608  27.018  1.00  0.00    -0.285 N 
ATOM     91  C   UNL A   1      30.793  22.380  25.673  1.00  0.00     0.114 A 
ATOM     92  H   UNL A   1      30.515  21.979  27.687  1.00  0.00     0.189 HD
BRANCH  85  93
ATOM     93  N   UNL A   1      32.237  25.361  22.068  1.00  0.00     0.063 N 
ATOM     94  O   UNL A   1      33.231  24.916  21.475  1.00  0.00    -0.258 OA
ATOM     95  O   UNL A   1      31.424  26.144  21.566  1.00  0.00    -0.258 OA
ENDBRANCH  85  93
ENDBRANCH  81  83
ENDBRANCH  80  81
ENDBRANCH  79  80
ENDBRANCH  78  79
ENDBRANCH  77  78
ENDBRANCH  76  77
ENDBRANCH  75  76
ENDBRANCH  74  75
ENDBRANCH   1  74
TORSDOF 24
ENDMDL
