MODEL 1
REMARK VINA RESULT:      -7.9      0.000      0.000
REMARK SMILES O=C(C[NH+]1CCN(c2cc(-c3ccccc3)nc(-c3ccccc3F)n2)CC1)OCCOCCOCCOCCOC(=O)c1ccc(-c2c3nc(c(-c4cccc(S(=O)(=O)[O-])c4F)c4ccc([nH]4)c(-c4cccc(S(=O)(=O)[O-])c4F)c4nc(c(-c5cccc(S(=O)(=O)[O-])c5F)c5ccc2[nH]5)C=C4)C=C3)cc1
REMARK SMILES IDX 35 1 34 2 33 3 32 4 31 5 30 6 29 7 2 8 1 9 3 10 4 11 5 12
REMARK SMILES IDX 28 13 6 15 27 16 7 17 8 18 9 19 26 20 10 21 18 22 17 23
REMARK SMILES IDX 11 24 12 25 16 26 13 27 15 28 14 29 19 30 20 31 24 32 21 33
REMARK SMILES IDX 23 34 25 35 22 36 36 37 37 38 38 39 39 40 40 41 41 42 42 43
REMARK SMILES IDX 43 44 44 45 45 46 106 47 46 48 105 49 47 50 48 51 49 52
REMARK SMILES IDX 99 53 50 54 104 55 98 56 100 57 51 58 103 59 97 60 96 61
REMARK SMILES IDX 52 63 84 64 64 65 83 66 65 67 68 68 82 69 101 70 66 71 67 72
REMARK SMILES IDX 81 74 102 75 69 76 53 77 54 78 62 79 55 80 57 81 63 82 56 83
REMARK SMILES IDX 58 84 59 85 60 86 61 87 85 88 86 89 94 90 87 91 89 92 95 93
REMARK SMILES IDX 88 94 90 95 91 96 92 97 93 98 70 99 71 100 79 101 72 102
REMARK SMILES IDX 74 103 80 104 73 105 75 106 76 107 77 108 78 109
REMARK H PARENT 4 14 100 62 68 73
REMARK Flexibility Score: inf
ROOT
ATOM      1  O   UNL A   1      48.409  27.852  24.223  1.00  0.00    -0.377 OA
ENDROOT
BRANCH   1   2
ATOM      2  C   UNL A   1      47.008  27.680  24.368  1.00  0.00     0.188 C 
BRANCH   2   3
ATOM      3  C   UNL A   1      46.615  26.503  25.265  1.00  0.00     0.188 C 
BRANCH   3   4
ATOM      4  O   UNL A   1      45.237  26.342  25.568  1.00  0.00    -0.376 OA
BRANCH   4   5
ATOM      5  C   UNL A   1      44.628  26.665  26.803  1.00  0.00     0.202 C 
BRANCH   5   6
ATOM      6  C   UNL A   1      43.222  27.237  26.868  1.00  0.00     0.261 C 
BRANCH   6   7
ATOM      7  O   UNL A   1      42.654  27.529  28.165  1.00  0.00    -0.459 OA
BRANCH   7   8
ATOM      8  C   UNL A   1      42.050  28.615  28.681  1.00  0.00     0.361 C 
ATOM      9  O   UNL A   1      42.465  29.732  28.371  1.00  0.00    -0.245 OA
BRANCH   8  10
ATOM     10  C   UNL A   1      40.921  28.470  29.683  1.00  0.00     0.386 C 
BRANCH  10  11
ATOM     11  N   UNL A   1      39.693  27.812  29.234  1.00  0.00    -0.323 N 
ATOM     12  C   UNL A   1      38.590  27.959  30.209  1.00  0.00     0.284 C 
ATOM     13  C   UNL A   1      39.241  28.164  27.880  1.00  0.00     0.284 C 
ATOM     14  H   UNL A   1      39.960  26.829  29.179  1.00  0.00     0.348 HD
ATOM     15  C   UNL A   1      37.784  29.277  30.138  1.00  0.00     0.179 C 
ATOM     16  C   UNL A   1      38.478  29.493  27.758  1.00  0.00     0.179 C 
ATOM     17  N   UNL A   1      37.417  29.513  28.750  1.00  0.00    -0.345 N 
BRANCH  17  18
ATOM     18  C   UNL A   1      36.251  30.171  28.452  1.00  0.00     0.133 A 
ATOM     19  C   UNL A   1      35.360  29.555  27.616  1.00  0.00     0.076 A 
ATOM     20  N   UNL A   1      35.951  31.320  29.051  1.00  0.00    -0.211 NA
ATOM     21  C   UNL A   1      34.122  30.123  27.442  1.00  0.00     0.076 A 
ATOM     22  C   UNL A   1      34.744  31.852  28.781  1.00  0.00     0.165 A 
ATOM     23  N   UNL A   1      33.788  31.298  28.002  1.00  0.00    -0.228 NA
BRANCH  21  24
ATOM     24  C   UNL A   1      33.145  29.356  26.660  1.00  0.00     0.000 A 
ATOM     25  C   UNL A   1      32.758  29.748  25.377  1.00  0.00     0.010 A 
ATOM     26  C   UNL A   1      32.718  28.092  27.132  1.00  0.00     0.010 A 
ATOM     27  C   UNL A   1      32.004  28.885  24.575  1.00  0.00     0.001 A 
ATOM     28  C   UNL A   1      31.977  27.229  26.331  1.00  0.00     0.001 A 
ATOM     29  C   UNL A   1      31.626  27.625  25.047  1.00  0.00     0.000 A 
ENDBRANCH  21  24
BRANCH  22  30
ATOM     30  C   UNL A   1      34.460  33.085  29.498  1.00  0.00     0.055 A 
ATOM     31  C   UNL A   1      34.776  33.227  30.863  1.00  0.00     0.015 A 
ATOM     32  C   UNL A   1      33.742  34.112  28.881  1.00  0.00     0.134 A 
ATOM     33  C   UNL A   1      34.387  34.367  31.574  1.00  0.00     0.001 A 
ATOM     34  C   UNL A   1      33.346  35.248  29.586  1.00  0.00     0.040 A 
ATOM     35  F   UNL A   1      33.360  33.999  27.599  1.00  0.00    -0.206 F 
ATOM     36  C   UNL A   1      33.669  35.377  30.935  1.00  0.00     0.003 A 
ENDBRANCH  22  30
ENDBRANCH  17  18
ENDBRANCH  10  11
ENDBRANCH   8  10
ENDBRANCH   7   8
ENDBRANCH   6   7
ENDBRANCH   5   6
ENDBRANCH   4   5
ENDBRANCH   3   4
ENDBRANCH   2   3
ENDBRANCH   1   2
BRANCH   1  37
ATOM     37  C   UNL A   1      49.196  26.743  24.618  1.00  0.00     0.188 C 
BRANCH  37  38
ATOM     38  C   UNL A   1      50.457  27.069  25.455  1.00  0.00     0.188 C 
BRANCH  38  39
ATOM     39  O   UNL A   1      50.922  26.217  26.493  1.00  0.00    -0.376 OA
BRANCH  39  40
ATOM     40  C   UNL A   1      50.139  25.121  26.929  1.00  0.00     0.202 C 
BRANCH  40  41
ATOM     41  C   UNL A   1      49.910  24.901  28.430  1.00  0.00     0.261 C 
BRANCH  41  42
ATOM     42  O   UNL A   1      48.640  25.327  28.939  1.00  0.00    -0.460 OA
BRANCH  42  43
ATOM     43  C   UNL A   1      48.671  26.110  30.046  1.00  0.00     0.338 C 
ATOM     44  O   UNL A   1      49.028  25.783  31.167  1.00  0.00    -0.246 OA
BRANCH  43  45
ATOM     45  C   UNL A   1      48.415  27.513  29.643  1.00  0.00     0.060 A 
ATOM     46  C   UNL A   1      48.803  28.543  30.516  1.00  0.00     0.016 A 
ATOM     47  C   UNL A   1      47.872  27.820  28.394  1.00  0.00     0.016 A 
ATOM     48  C   UNL A   1      48.651  29.879  30.143  1.00  0.00     0.010 A 
ATOM     49  C   UNL A   1      47.675  29.159  28.042  1.00  0.00     0.010 A 
ATOM     50  C   UNL A   1      48.043  30.191  28.923  1.00  0.00    -0.014 A 
BRANCH  50  51
ATOM     51  C   UNL A   1      47.578  31.573  28.662  1.00  0.00     0.031 A 
ATOM     52  C   UNL A   1      48.489  32.475  27.876  1.00  0.00     0.074 A 
ATOM     53  C   UNL A   1      46.411  32.035  29.147  1.00  0.00     0.049 A 
ATOM     54  N   UNL A   1      48.369  33.748  27.616  1.00  0.00    -0.248 NA
ATOM     55  C   UNL A   1      49.702  31.854  27.312  1.00  0.00     0.031 C 
ATOM     56  C   UNL A   1      45.438  31.252  29.908  1.00  0.00     0.029 A 
ATOM     57  N   UNL A   1      45.872  33.298  29.107  1.00  0.00    -0.354 N 
ATOM     58  C   UNL A   1      49.507  34.093  26.899  1.00  0.00     0.074 A 
ATOM     59  C   UNL A   1      50.299  32.893  26.746  1.00  0.00     0.031 C 
ATOM     60  C   UNL A   1      44.447  32.067  30.312  1.00  0.00     0.029 A 
ATOM     61  C   UNL A   1      44.733  33.431  29.867  1.00  0.00     0.049 A 
ATOM     62  H   UNL A   1      46.262  34.035  28.584  1.00  0.00     0.167 HD
ATOM     63  C   UNL A   1      49.863  35.302  26.413  1.00  0.00     0.034 A 
ATOM     64  C   UNL A   1      44.036  34.535  30.205  1.00  0.00     0.034 A 
ATOM     65  C   UNL A   1      49.073  36.491  26.553  1.00  0.00     0.049 A 
ATOM     66  C   UNL A   1      44.484  35.881  29.683  1.00  0.00     0.074 A 
ATOM     67  C   UNL A   1      49.317  37.749  26.032  1.00  0.00     0.029 A 
ATOM     68  N   UNL A   1      47.904  36.579  27.290  1.00  0.00    -0.354 N 
ATOM     69  N   UNL A   1      45.479  36.167  28.878  1.00  0.00    -0.248 NA
ATOM     70  C   UNL A   1      43.700  37.054  30.101  1.00  0.00     0.031 C 
ATOM     71  C   UNL A   1      48.314  38.609  26.487  1.00  0.00     0.029 A 
ATOM     72  C   UNL A   1      47.430  37.878  27.264  1.00  0.00     0.049 A 
ATOM     73  H   UNL A   1      47.474  35.830  27.762  1.00  0.00     0.167 HD
ATOM     74  C   UNL A   1      45.424  37.543  28.676  1.00  0.00     0.074 A 
ATOM     75  C   UNL A   1      44.280  38.030  29.415  1.00  0.00     0.031 C 
ATOM     76  C   UNL A   1      46.257  38.338  27.960  1.00  0.00     0.034 A 
BRANCH  63  77
ATOM     77  C   UNL A   1      51.168  35.409  25.676  1.00  0.00     0.023 A 
ATOM     78  C   UNL A   1      51.188  35.312  24.271  1.00  0.00     0.012 A 
ATOM     79  C   UNL A   1      52.357  35.698  26.372  1.00  0.00     0.148 A 
ATOM     80  C   UNL A   1      52.379  35.491  23.569  1.00  0.00     0.002 A 
ATOM     81  C   UNL A   1      53.530  35.917  25.664  1.00  0.00     0.091 A 
ATOM     82  F   UNL A   1      52.313  35.756  27.711  1.00  0.00    -0.205 F 
ATOM     83  C   UNL A   1      53.545  35.807  24.263  1.00  0.00     0.022 A 
BRANCH  81  84
ATOM     84  S   UNL A   1      55.065  36.402  26.457  1.00  0.00     0.127 S 
ATOM     85  O   UNL A   1      54.576  37.112  27.637  1.00  0.00    -0.237 OA
ATOM     86  O   UNL A   1      55.685  35.107  26.737  1.00  0.00    -0.237 OA
ATOM     87  O   UNL A   1      55.778  37.226  25.491  1.00  0.00    -0.744 OA
ENDBRANCH  81  84
ENDBRANCH  63  77
BRANCH  64  88
ATOM     88  C   UNL A   1      42.850  34.439  31.103  1.00  0.00     0.023 A 
ATOM     89  C   UNL A   1      43.018  34.534  32.499  1.00  0.00     0.012 A 
ATOM     90  C   UNL A   1      41.558  34.220  30.585  1.00  0.00     0.148 A 
ATOM     91  C   UNL A   1      41.932  34.369  33.362  1.00  0.00     0.002 A 
ATOM     92  C   UNL A   1      40.472  34.117  31.446  1.00  0.00     0.091 A 
ATOM     93  F   UNL A   1      41.418  34.104  29.256  1.00  0.00    -0.205 F 
ATOM     94  C   UNL A   1      40.659  34.170  32.834  1.00  0.00     0.022 A 
BRANCH  92  95
ATOM     95  S   UNL A   1      38.784  33.995  30.844  1.00  0.00     0.127 S 
ATOM     96  O   UNL A   1      38.714  32.595  30.431  1.00  0.00    -0.237 OA
ATOM     97  O   UNL A   1      38.012  34.325  32.043  1.00  0.00    -0.237 OA
ATOM     98  O   UNL A   1      38.681  34.981  29.778  1.00  0.00    -0.744 OA
ENDBRANCH  92  95
ENDBRANCH  64  88
BRANCH  76  99
ATOM     99  C   UNL A   1      45.959  39.815  27.913  1.00  0.00     0.023 A 
ATOM    100  C   UNL A   1      46.452  40.659  28.927  1.00  0.00     0.012 A 
ATOM    101  C   UNL A   1      45.277  40.376  26.815  1.00  0.00     0.148 A 
ATOM    102  C   UNL A   1      46.243  42.036  28.865  1.00  0.00     0.002 A 
ATOM    103  C   UNL A   1      45.117  41.754  26.735  1.00  0.00     0.091 A 
ATOM    104  F   UNL A   1      44.807  39.553  25.866  1.00  0.00    -0.205 F 
ATOM    105  C   UNL A   1      45.589  42.585  27.764  1.00  0.00     0.022 A 
BRANCH 103 106
ATOM    106  S   UNL A   1      44.374  42.560  25.311  1.00  0.00     0.127 S 
ATOM    107  O   UNL A   1      45.150  41.990  24.210  1.00  0.00    -0.237 OA
ATOM    108  O   UNL A   1      42.988  42.100  25.382  1.00  0.00    -0.237 OA
ATOM    109  O   UNL A   1      44.551  43.990  25.519  1.00  0.00    -0.744 OA
ENDBRANCH 103 106
ENDBRANCH  76  99
ENDBRANCH  50  51
ENDBRANCH  43  45
ENDBRANCH  42  43
ENDBRANCH  41  42
ENDBRANCH  40  41
ENDBRANCH  39  40
ENDBRANCH  38  39
ENDBRANCH  37  38
ENDBRANCH   1  37
TORSDOF 27
ENDMDL
MODEL 2
REMARK VINA RESULT:      -7.9      4.810      9.914
REMARK SMILES O=C(C[NH+]1CCN(c2cc(-c3ccccc3)nc(-c3ccccc3F)n2)CC1)OCCOCCOCCOCCOC(=O)c1ccc(-c2c3nc(c(-c4cccc(S(=O)(=O)[O-])c4F)c4ccc([nH]4)c(-c4cccc(S(=O)(=O)[O-])c4F)c4nc(c(-c5cccc(S(=O)(=O)[O-])c5F)c5ccc2[nH]5)C=C4)C=C3)cc1
REMARK SMILES IDX 35 1 34 2 33 3 32 4 31 5 30 6 29 7 2 8 1 9 3 10 4 11 5 12
REMARK SMILES IDX 28 13 6 15 27 16 7 17 8 18 9 19 26 20 10 21 18 22 17 23
REMARK SMILES IDX 11 24 12 25 16 26 13 27 15 28 14 29 19 30 20 31 24 32 21 33
REMARK SMILES IDX 23 34 25 35 22 36 36 37 37 38 38 39 39 40 40 41 41 42 42 43
REMARK SMILES IDX 43 44 44 45 45 46 106 47 46 48 105 49 47 50 48 51 49 52
REMARK SMILES IDX 99 53 50 54 104 55 98 56 100 57 51 58 103 59 97 60 96 61
REMARK SMILES IDX 52 63 84 64 64 65 83 66 65 67 68 68 82 69 101 70 66 71 67 72
REMARK SMILES IDX 81 74 102 75 69 76 53 77 54 78 62 79 55 80 57 81 63 82 56 83
REMARK SMILES IDX 58 84 59 85 60 86 61 87 85 88 86 89 94 90 87 91 89 92 95 93
REMARK SMILES IDX 88 94 90 95 91 96 92 97 93 98 70 99 71 100 79 101 72 102
REMARK SMILES IDX 74 103 80 104 73 105 75 106 76 107 77 108 78 109
REMARK H PARENT 4 14 100 62 68 73
REMARK Flexibility Score: inf
ROOT
ATOM      1  O   UNL A   1      40.243  24.641  26.255  1.00  0.00    -0.377 OA
ENDROOT
BRANCH   1   2
ATOM      2  C   UNL A   1      39.225  23.840  26.836  1.00  0.00     0.188 C 
BRANCH   2   3
ATOM      3  C   UNL A   1      39.158  22.415  26.278  1.00  0.00     0.188 C 
BRANCH   3   4
ATOM      4  O   UNL A   1      38.128  22.125  25.347  1.00  0.00    -0.376 OA
BRANCH   4   5
ATOM      5  C   UNL A   1      36.830  21.670  25.678  1.00  0.00     0.202 C 
BRANCH   5   6
ATOM      6  C   UNL A   1      35.798  21.367  24.605  1.00  0.00     0.261 C 
BRANCH   6   7
ATOM      7  O   UNL A   1      34.407  21.278  24.989  1.00  0.00    -0.459 OA
BRANCH   7   8
ATOM      8  C   UNL A   1      33.266  21.146  24.288  1.00  0.00     0.361 C 
ATOM      9  O   UNL A   1      32.769  20.027  24.162  1.00  0.00    -0.245 OA
BRANCH   8  10
ATOM     10  C   UNL A   1      32.635  22.344  23.605  1.00  0.00     0.386 C 
BRANCH  10  11
ATOM     11  N   UNL A   1      31.489  22.976  24.260  1.00  0.00    -0.323 N 
ATOM     12  C   UNL A   1      31.859  23.619  25.540  1.00  0.00     0.284 C 
ATOM     13  C   UNL A   1      30.707  23.899  23.422  1.00  0.00     0.284 C 
ATOM     14  H   UNL A   1      30.864  22.192  24.448  1.00  0.00     0.348 HD
ATOM     15  C   UNL A   1      32.456  25.041  25.445  1.00  0.00     0.179 C 
ATOM     16  C   UNL A   1      31.293  25.311  23.261  1.00  0.00     0.179 C 
ATOM     17  N   UNL A   1      31.601  25.839  24.579  1.00  0.00    -0.345 N 
BRANCH  17  18
ATOM     18  C   UNL A   1      31.479  27.189  24.791  1.00  0.00     0.133 A 
ATOM     19  C   UNL A   1      32.375  27.791  25.632  1.00  0.00     0.076 A 
ATOM     20  N   UNL A   1      30.588  27.903  24.109  1.00  0.00    -0.211 NA
ATOM     21  C   UNL A   1      32.371  29.161  25.724  1.00  0.00     0.076 A 
ATOM     22  C   UNL A   1      30.600  29.235  24.300  1.00  0.00     0.165 A 
ATOM     23  N   UNL A   1      31.469  29.919  25.078  1.00  0.00    -0.228 NA
BRANCH  21  24
ATOM     24  C   UNL A   1      33.442  29.775  26.517  1.00  0.00     0.000 A 
ATOM     25  C   UNL A   1      33.266  30.997  27.170  1.00  0.00     0.010 A 
ATOM     26  C   UNL A   1      34.618  29.036  26.785  1.00  0.00     0.010 A 
ATOM     27  C   UNL A   1      34.216  31.444  28.094  1.00  0.00     0.001 A 
ATOM     28  C   UNL A   1      35.559  29.475  27.712  1.00  0.00     0.001 A 
ATOM     29  C   UNL A   1      35.352  30.679  28.372  1.00  0.00     0.000 A 
ENDBRANCH  21  24
BRANCH  22  30
ATOM     30  C   UNL A   1      29.631  29.963  23.495  1.00  0.00     0.055 A 
ATOM     31  C   UNL A   1      29.101  29.412  22.313  1.00  0.00     0.015 A 
ATOM     32  C   UNL A   1      29.305  31.285  23.805  1.00  0.00     0.134 A 
ATOM     33  C   UNL A   1      28.267  30.166  21.481  1.00  0.00     0.001 A 
ATOM     34  C   UNL A   1      28.480  32.045  22.977  1.00  0.00     0.040 A 
ATOM     35  F   UNL A   1      29.835  31.879  24.887  1.00  0.00    -0.206 F 
ATOM     36  C   UNL A   1      27.959  31.484  21.812  1.00  0.00     0.003 A 
ENDBRANCH  22  30
ENDBRANCH  17  18
ENDBRANCH  10  11
ENDBRANCH   8  10
ENDBRANCH   7   8
ENDBRANCH   6   7
ENDBRANCH   5   6
ENDBRANCH   4   5
ENDBRANCH   3   4
ENDBRANCH   2   3
ENDBRANCH   1   2
BRANCH   1  37
ATOM     37  C   UNL A   1      41.460  24.685  26.979  1.00  0.00     0.188 C 
BRANCH  37  38
ATOM     38  C   UNL A   1      42.661  23.957  26.330  1.00  0.00     0.188 C 
BRANCH  38  39
ATOM     39  O   UNL A   1      43.986  24.079  26.830  1.00  0.00    -0.376 OA
BRANCH  39  40
ATOM     40  C   UNL A   1      44.277  24.981  27.883  1.00  0.00     0.202 C 
BRANCH  40  41
ATOM     41  C   UNL A   1      44.529  24.441  29.297  1.00  0.00     0.261 C 
BRANCH  41  42
ATOM     42  O   UNL A   1      43.772  25.057  30.346  1.00  0.00    -0.460 OA
BRANCH  42  43
ATOM     43  C   UNL A   1      44.359  25.089  31.569  1.00  0.00     0.338 C 
ATOM     44  O   UNL A   1      45.013  24.201  32.093  1.00  0.00    -0.246 OA
BRANCH  43  45
ATOM     45  C   UNL A   1      44.278  26.471  32.098  1.00  0.00     0.060 A 
ATOM     46  C   UNL A   1      43.808  27.488  31.249  1.00  0.00     0.016 A 
ATOM     47  C   UNL A   1      44.586  26.757  33.429  1.00  0.00     0.016 A 
ATOM     48  C   UNL A   1      43.644  28.788  31.727  1.00  0.00     0.010 A 
ATOM     49  C   UNL A   1      44.467  28.070  33.894  1.00  0.00     0.010 A 
ATOM     50  C   UNL A   1      44.017  29.093  33.040  1.00  0.00    -0.014 A 
BRANCH  50  51
ATOM     51  C   UNL A   1      44.162  30.507  33.457  1.00  0.00     0.031 A 
ATOM     52  C   UNL A   1      42.929  31.217  33.943  1.00  0.00     0.074 A 
ATOM     53  C   UNL A   1      45.334  31.160  33.360  1.00  0.00     0.049 A 
ATOM     54  N   UNL A   1      42.767  32.475  34.250  1.00  0.00    -0.248 NA
ATOM     55  C   UNL A   1      41.715  30.395  34.097  1.00  0.00     0.031 C 
ATOM     56  C   UNL A   1      46.599  30.576  32.919  1.00  0.00     0.029 A 
ATOM     57  N   UNL A   1      45.633  32.482  33.587  1.00  0.00    -0.354 N 
ATOM     58  C   UNL A   1      41.427  32.607  34.592  1.00  0.00     0.074 A 
ATOM     59  C   UNL A   1      40.822  31.299  34.473  1.00  0.00     0.031 C 
ATOM     60  C   UNL A   1      47.527  31.547  32.853  1.00  0.00     0.029 A 
ATOM     61  C   UNL A   1      46.913  32.825  33.214  1.00  0.00     0.049 A 
ATOM     62  H   UNL A   1      44.995  33.120  33.980  1.00  0.00     0.167 HD
ATOM     63  C   UNL A   1      40.758  33.719  34.968  1.00  0.00     0.034 A 
ATOM     64  C   UNL A   1      47.499  34.037  33.127  1.00  0.00     0.034 A 
ATOM     65  C   UNL A   1      41.360  35.015  35.098  1.00  0.00     0.049 A 
ATOM     66  C   UNL A   1      46.712  35.268  33.511  1.00  0.00     0.074 A 
ATOM     67  C   UNL A   1      40.779  36.188  35.543  1.00  0.00     0.029 A 
ATOM     68  N   UNL A   1      42.667  35.316  34.756  1.00  0.00    -0.354 N 
ATOM     69  N   UNL A   1      45.489  35.357  33.979  1.00  0.00    -0.248 NA
ATOM     70  C   UNL A   1      47.393  36.566  33.375  1.00  0.00     0.031 C 
ATOM     71  C   UNL A   1      41.725  37.210  35.433  1.00  0.00     0.029 A 
ATOM     72  C   UNL A   1      42.904  36.665  34.951  1.00  0.00     0.049 A 
ATOM     73  H   UNL A   1      43.329  34.667  34.425  1.00  0.00     0.167 HD
ATOM     74  C   UNL A   1      45.267  36.710  34.214  1.00  0.00     0.074 A 
ATOM     75  C   UNL A   1      46.490  37.402  33.869  1.00  0.00     0.031 C 
ATOM     76  C   UNL A   1      44.145  37.331  34.654  1.00  0.00     0.034 A 
BRANCH  63  77
ATOM     77  C   UNL A   1      39.293  33.591  35.273  1.00  0.00     0.023 A 
ATOM     78  C   UNL A   1      38.866  33.443  36.607  1.00  0.00     0.012 A 
ATOM     79  C   UNL A   1      38.340  33.710  34.244  1.00  0.00     0.148 A 
ATOM     80  C   UNL A   1      37.506  33.406  36.911  1.00  0.00     0.002 A 
ATOM     81  C   UNL A   1      36.988  33.715  34.559  1.00  0.00     0.091 A 
ATOM     82  F   UNL A   1      38.776  33.822  32.981  1.00  0.00    -0.205 F 
ATOM     83  C   UNL A   1      36.569  33.556  35.891  1.00  0.00     0.022 A 
BRANCH  81  84
ATOM     84  S   UNL A   1      35.706  33.978  33.331  1.00  0.00     0.127 S 
ATOM     85  O   UNL A   1      36.065  35.295  32.808  1.00  0.00    -0.237 OA
ATOM     86  O   UNL A   1      35.941  32.869  32.405  1.00  0.00    -0.237 OA
ATOM     87  O   UNL A   1      34.440  33.920  34.047  1.00  0.00    -0.744 OA
ENDBRANCH  81  84
ENDBRANCH  63  77
BRANCH  64  88
ATOM     88  C   UNL A   1      48.899  34.169  32.632  1.00  0.00     0.023 A 
ATOM     89  C   UNL A   1      49.971  34.136  33.546  1.00  0.00     0.012 A 
ATOM     90  C   UNL A   1      49.174  34.363  31.263  1.00  0.00     0.148 A 
ATOM     91  C   UNL A   1      51.284  34.336  33.113  1.00  0.00     0.002 A 
ATOM     92  C   UNL A   1      50.488  34.501  30.832  1.00  0.00     0.091 A 
ATOM     93  F   UNL A   1      48.142  34.420  30.410  1.00  0.00    -0.205 F 
ATOM     94  C   UNL A   1      51.542  34.509  31.755  1.00  0.00     0.022 A 
BRANCH  92  95
ATOM     95  S   UNL A   1      50.916  34.593  29.090  1.00  0.00     0.127 S 
ATOM     96  O   UNL A   1      51.239  36.009  28.936  1.00  0.00    -0.237 OA
ATOM     97  O   UNL A   1      52.062  33.686  29.013  1.00  0.00    -0.237 OA
ATOM     98  O   UNL A   1      49.736  34.125  28.376  1.00  0.00    -0.744 OA
ENDBRANCH  92  95
ENDBRANCH  64  88
BRANCH  76  99
ATOM     99  C   UNL A   1      44.182  38.829  34.819  1.00  0.00     0.023 A 
ATOM    100  C   UNL A   1      44.691  39.387  36.008  1.00  0.00     0.012 A 
ATOM    101  C   UNL A   1      43.805  39.678  33.760  1.00  0.00     0.148 A 
ATOM    102  C   UNL A   1      44.796  40.770  36.151  1.00  0.00     0.002 A 
ATOM    103  C   UNL A   1      43.960  41.053  33.891  1.00  0.00     0.091 A 
ATOM    104  F   UNL A   1      43.314  39.126  32.641  1.00  0.00    -0.205 F 
ATOM    105  C   UNL A   1      44.443  41.602  35.091  1.00  0.00     0.022 A 
BRANCH 103 106
ATOM    106  S   UNL A   1      43.626  42.196  32.546  1.00  0.00     0.127 S 
ATOM    107  O   UNL A   1      42.164  42.204  32.519  1.00  0.00    -0.237 OA
ATOM    108  O   UNL A   1      44.233  43.435  33.033  1.00  0.00    -0.237 OA
ATOM    109  O   UNL A   1      44.266  41.630  31.367  1.00  0.00    -0.744 OA
ENDBRANCH 103 106
ENDBRANCH  76  99
ENDBRANCH  50  51
ENDBRANCH  43  45
ENDBRANCH  42  43
ENDBRANCH  41  42
ENDBRANCH  40  41
ENDBRANCH  39  40
ENDBRANCH  38  39
ENDBRANCH  37  38
ENDBRANCH   1  37
TORSDOF 27
ENDMDL
MODEL 3
REMARK VINA RESULT:      -7.4      5.914      9.786
REMARK SMILES O=C(C[NH+]1CCN(c2cc(-c3ccccc3)nc(-c3ccccc3F)n2)CC1)OCCOCCOCCOCCOC(=O)c1ccc(-c2c3nc(c(-c4cccc(S(=O)(=O)[O-])c4F)c4ccc([nH]4)c(-c4cccc(S(=O)(=O)[O-])c4F)c4nc(c(-c5cccc(S(=O)(=O)[O-])c5F)c5ccc2[nH]5)C=C4)C=C3)cc1
REMARK SMILES IDX 35 1 34 2 33 3 32 4 31 5 30 6 29 7 2 8 1 9 3 10 4 11 5 12
REMARK SMILES IDX 28 13 6 15 27 16 7 17 8 18 9 19 26 20 10 21 18 22 17 23
REMARK SMILES IDX 11 24 12 25 16 26 13 27 15 28 14 29 19 30 20 31 24 32 21 33
REMARK SMILES IDX 23 34 25 35 22 36 36 37 37 38 38 39 39 40 40 41 41 42 42 43
REMARK SMILES IDX 43 44 44 45 45 46 106 47 46 48 105 49 47 50 48 51 49 52
REMARK SMILES IDX 99 53 50 54 104 55 98 56 100 57 51 58 103 59 97 60 96 61
REMARK SMILES IDX 52 63 84 64 64 65 83 66 65 67 68 68 82 69 101 70 66 71 67 72
REMARK SMILES IDX 81 74 102 75 69 76 53 77 54 78 62 79 55 80 57 81 63 82 56 83
REMARK SMILES IDX 58 84 59 85 60 86 61 87 85 88 86 89 94 90 87 91 89 92 95 93
REMARK SMILES IDX 88 94 90 95 91 96 92 97 93 98 70 99 71 100 79 101 72 102
REMARK SMILES IDX 74 103 80 104 73 105 75 106 76 107 77 108 78 109
REMARK H PARENT 4 14 100 62 68 73
REMARK Flexibility Score: inf
ROOT
ATOM      1  O   UNL A   1      43.018  32.014  42.865  1.00  0.00    -0.377 OA
ENDROOT
BRANCH   1   2
ATOM      2  C   UNL A   1      41.759  31.361  42.803  1.00  0.00     0.188 C 
BRANCH   2   3
ATOM      3  C   UNL A   1      40.562  32.314  42.807  1.00  0.00     0.188 C 
BRANCH   3   4
ATOM      4  O   UNL A   1      40.774  33.635  42.332  1.00  0.00    -0.376 OA
BRANCH   4   5
ATOM      5  C   UNL A   1      40.440  34.103  41.040  1.00  0.00     0.202 C 
BRANCH   5   6
ATOM      6  C   UNL A   1      40.723  33.274  39.799  1.00  0.00     0.261 C 
BRANCH   6   7
ATOM      7  O   UNL A   1      39.612  32.645  39.120  1.00  0.00    -0.459 OA
BRANCH   7   8
ATOM      8  C   UNL A   1      38.363  33.052  38.828  1.00  0.00     0.361 C 
ATOM      9  O   UNL A   1      37.464  32.851  39.645  1.00  0.00    -0.245 OA
BRANCH   8  10
ATOM     10  C   UNL A   1      38.049  33.687  37.488  1.00  0.00     0.386 C 
BRANCH  10  11
ATOM     11  N   UNL A   1      38.994  33.468  36.392  1.00  0.00    -0.323 N 
ATOM     12  C   UNL A   1      38.926  32.089  35.860  1.00  0.00     0.284 C 
ATOM     13  C   UNL A   1      38.939  34.450  35.298  1.00  0.00     0.284 C 
ATOM     14  H   UNL A   1      39.903  33.610  36.833  1.00  0.00     0.348 HD
ATOM     15  C   UNL A   1      37.817  31.810  34.820  1.00  0.00     0.179 C 
ATOM     16  C   UNL A   1      37.818  34.237  34.268  1.00  0.00     0.179 C 
ATOM     17  N   UNL A   1      37.862  32.859  33.812  1.00  0.00    -0.345 N 
BRANCH  17  18
ATOM     18  C   UNL A   1      37.497  32.582  32.519  1.00  0.00     0.133 A 
ATOM     19  C   UNL A   1      37.975  31.436  31.946  1.00  0.00     0.076 A 
ATOM     20  N   UNL A   1      36.613  33.350  31.887  1.00  0.00    -0.211 NA
ATOM     21  C   UNL A   1      37.488  31.062  30.718  1.00  0.00     0.076 A 
ATOM     22  C   UNL A   1      36.231  32.955  30.658  1.00  0.00     0.165 A 
ATOM     23  N   UNL A   1      36.619  31.822  30.031  1.00  0.00    -0.228 NA
BRANCH  21  24
ATOM     24  C   UNL A   1      37.912  29.753  30.207  1.00  0.00     0.000 A 
ATOM     25  C   UNL A   1      38.239  29.558  28.864  1.00  0.00     0.010 A 
ATOM     26  C   UNL A   1      38.175  28.704  31.120  1.00  0.00     0.010 A 
ATOM     27  C   UNL A   1      38.851  28.368  28.454  1.00  0.00     0.001 A 
ATOM     28  C   UNL A   1      38.793  27.525  30.715  1.00  0.00     0.001 A 
ATOM     29  C   UNL A   1      39.137  27.362  29.379  1.00  0.00     0.000 A 
ENDBRANCH  21  24
BRANCH  22  30
ATOM     30  C   UNL A   1      35.233  33.813  30.039  1.00  0.00     0.055 A 
ATOM     31  C   UNL A   1      35.346  34.213  28.693  1.00  0.00     0.015 A 
ATOM     32  C   UNL A   1      34.208  34.373  30.805  1.00  0.00     0.134 A 
ATOM     33  C   UNL A   1      34.452  35.137  28.142  1.00  0.00     0.001 A 
ATOM     34  C   UNL A   1      33.318  35.300  30.264  1.00  0.00     0.040 A 
ATOM     35  F   UNL A   1      34.095  34.075  32.109  1.00  0.00    -0.206 F 
ATOM     36  C   UNL A   1      33.440  35.683  28.929  1.00  0.00     0.003 A 
ENDBRANCH  22  30
ENDBRANCH  17  18
ENDBRANCH  10  11
ENDBRANCH   8  10
ENDBRANCH   7   8
ENDBRANCH   6   7
ENDBRANCH   5   6
ENDBRANCH   4   5
ENDBRANCH   3   4
ENDBRANCH   2   3
ENDBRANCH   1   2
BRANCH   1  37
ATOM     37  C   UNL A   1      44.121  31.168  43.139  1.00  0.00     0.188 C 
BRANCH  37  38
ATOM     38  C   UNL A   1      44.493  30.158  42.026  1.00  0.00     0.188 C 
BRANCH  38  39
ATOM     39  O   UNL A   1      43.843  28.901  41.890  1.00  0.00    -0.376 OA
BRANCH  39  40
ATOM     40  C   UNL A   1      44.544  27.698  42.145  1.00  0.00     0.202 C 
BRANCH  40  41
ATOM     41  C   UNL A   1      44.293  26.471  41.258  1.00  0.00     0.261 C 
BRANCH  41  42
ATOM     42  O   UNL A   1      45.451  25.899  40.638  1.00  0.00    -0.460 OA
BRANCH  42  43
ATOM     43  C   UNL A   1      45.228  25.140  39.536  1.00  0.00     0.338 C 
ATOM     44  O   UNL A   1      45.159  23.922  39.484  1.00  0.00    -0.246 OA
BRANCH  43  45
ATOM     45  C   UNL A   1      44.849  26.032  38.415  1.00  0.00     0.060 A 
ATOM     46  C   UNL A   1      45.862  26.750  37.757  1.00  0.00     0.016 A 
ATOM     47  C   UNL A   1      43.530  26.107  37.963  1.00  0.00     0.016 A 
ATOM     48  C   UNL A   1      45.560  27.542  36.649  1.00  0.00     0.010 A 
ATOM     49  C   UNL A   1      43.222  26.939  36.882  1.00  0.00     0.010 A 
ATOM     50  C   UNL A   1      44.231  27.675  36.236  1.00  0.00    -0.014 A 
BRANCH  50  51
ATOM     51  C   UNL A   1      43.856  28.751  35.290  1.00  0.00     0.031 A 
ATOM     52  C   UNL A   1      43.812  28.405  33.827  1.00  0.00     0.074 A 
ATOM     53  C   UNL A   1      43.613  30.009  35.702  1.00  0.00     0.049 A 
ATOM     54  N   UNL A   1      43.629  29.186  32.797  1.00  0.00    -0.248 NA
ATOM     55  C   UNL A   1      44.005  26.985  33.482  1.00  0.00     0.031 C 
ATOM     56  C   UNL A   1      43.610  30.461  37.092  1.00  0.00     0.029 A 
ATOM     57  N   UNL A   1      43.366  31.147  34.975  1.00  0.00    -0.354 N 
ATOM     58  C   UNL A   1      43.729  28.364  31.682  1.00  0.00     0.074 A 
ATOM     59  C   UNL A   1      43.969  27.020  32.158  1.00  0.00     0.031 C 
ATOM     60  C   UNL A   1      43.429  31.794  37.114  1.00  0.00     0.029 A 
ATOM     61  C   UNL A   1      43.337  32.290  35.741  1.00  0.00     0.049 A 
ATOM     62  H   UNL A   1      43.222  31.146  34.001  1.00  0.00     0.167 HD
ATOM     63  C   UNL A   1      43.632  28.699  30.377  1.00  0.00     0.034 A 
ATOM     64  C   UNL A   1      43.294  33.587  35.369  1.00  0.00     0.034 A 
ATOM     65  C   UNL A   1      43.381  30.030  29.904  1.00  0.00     0.049 A 
ATOM     66  C   UNL A   1      43.231  33.933  33.900  1.00  0.00     0.074 A 
ATOM     67  C   UNL A   1      43.194  30.455  28.601  1.00  0.00     0.029 A 
ATOM     68  N   UNL A   1      43.312  31.154  30.709  1.00  0.00    -0.354 N 
ATOM     69  N   UNL A   1      43.173  33.133  32.863  1.00  0.00    -0.248 NA
ATOM     70  C   UNL A   1      43.209  35.363  33.551  1.00  0.00     0.031 C 
ATOM     71  C   UNL A   1      43.052  31.845  28.615  1.00  0.00     0.029 A 
ATOM     72  C   UNL A   1      43.116  32.279  29.929  1.00  0.00     0.049 A 
ATOM     73  H   UNL A   1      43.390  31.153  31.690  1.00  0.00     0.167 HD
ATOM     74  C   UNL A   1      43.082  33.959  31.747  1.00  0.00     0.074 A 
ATOM     75  C   UNL A   1      43.060  35.321  32.234  1.00  0.00     0.031 C 
ATOM     76  C   UNL A   1      43.042  33.625  30.433  1.00  0.00     0.034 A 
BRANCH  63  77
ATOM     77  C   UNL A   1      43.793  27.610  29.356  1.00  0.00     0.023 A 
ATOM     78  C   UNL A   1      42.692  26.800  29.015  1.00  0.00     0.012 A 
ATOM     79  C   UNL A   1      45.012  27.453  28.670  1.00  0.00     0.148 A 
ATOM     80  C   UNL A   1      42.806  25.840  28.011  1.00  0.00     0.002 A 
ATOM     81  C   UNL A   1      45.106  26.524  27.642  1.00  0.00     0.091 A 
ATOM     82  F   UNL A   1      46.052  28.218  29.034  1.00  0.00    -0.205 F 
ATOM     83  C   UNL A   1      44.007  25.712  27.316  1.00  0.00     0.022 A 
BRANCH  81  84
ATOM     84  S   UNL A   1      46.582  26.335  26.638  1.00  0.00     0.127 S 
ATOM     85  O   UNL A   1      47.298  25.286  27.360  1.00  0.00    -0.237 OA
ATOM     86  O   UNL A   1      46.022  25.918  25.352  1.00  0.00    -0.237 OA
ATOM     87  O   UNL A   1      47.235  27.636  26.628  1.00  0.00    -0.744 OA
ENDBRANCH  81  84
ENDBRANCH  63  77
BRANCH  64  88
ATOM     88  C   UNL A   1      43.333  34.671  36.392  1.00  0.00     0.023 A 
ATOM     89  C   UNL A   1      42.129  35.203  36.896  1.00  0.00     0.012 A 
ATOM     90  C   UNL A   1      44.557  35.204  36.843  1.00  0.00     0.148 A 
ATOM     91  C   UNL A   1      42.143  36.271  37.796  1.00  0.00     0.002 A 
ATOM     92  C   UNL A   1      44.564  36.227  37.784  1.00  0.00     0.091 A 
ATOM     93  F   UNL A   1      45.693  34.707  36.334  1.00  0.00    -0.205 F 
ATOM     94  C   UNL A   1      43.360  36.776  38.247  1.00  0.00     0.022 A 
BRANCH  92  95
ATOM     95  S   UNL A   1      46.085  36.841  38.516  1.00  0.00     0.127 S 
ATOM     96  O   UNL A   1      45.588  37.542  39.696  1.00  0.00    -0.237 OA
ATOM     97  O   UNL A   1      46.809  35.600  38.793  1.00  0.00    -0.237 OA
ATOM     98  O   UNL A   1      46.700  37.673  37.490  1.00  0.00    -0.744 OA
ENDBRANCH  92  95
ENDBRANCH  64  88
BRANCH  76  99
ATOM     99  C   UNL A   1      42.944  34.738  29.422  1.00  0.00     0.023 A 
ATOM    100  C   UNL A   1      41.681  35.131  28.937  1.00  0.00     0.012 A 
ATOM    101  C   UNL A   1      44.091  35.456  29.029  1.00  0.00     0.148 A 
ATOM    102  C   UNL A   1      41.565  36.202  28.052  1.00  0.00     0.002 A 
ATOM    103  C   UNL A   1      43.961  36.555  28.187  1.00  0.00     0.091 A 
ATOM    104  F   UNL A   1      45.284  35.060  29.494  1.00  0.00    -0.205 F 
ATOM    105  C   UNL A   1      42.700  36.922  27.688  1.00  0.00     0.022 A 
BRANCH 103 106
ATOM    106  S   UNL A   1      45.352  37.600  27.741  1.00  0.00     0.127 S 
ATOM    107  O   UNL A   1      45.750  38.135  29.043  1.00  0.00    -0.237 OA
ATOM    108  O   UNL A   1      46.291  36.639  27.164  1.00  0.00    -0.237 OA
ATOM    109  O   UNL A   1      44.833  38.583  26.799  1.00  0.00    -0.744 OA
ENDBRANCH 103 106
ENDBRANCH  76  99
ENDBRANCH  50  51
ENDBRANCH  43  45
ENDBRANCH  42  43
ENDBRANCH  41  42
ENDBRANCH  40  41
ENDBRANCH  39  40
ENDBRANCH  38  39
ENDBRANCH  37  38
ENDBRANCH   1  37
TORSDOF 27
ENDMDL
