MODEL 1
REMARK VINA RESULT:      -8.5      0.000      0.000
REMARK SMILES O=C(OCCOCCOCCOCCOC(=O)[C@H]1CC2(CC[NH+](C(=O)C3CC3)CC2)CN1C(=O)CCn1cccn1)c1ccc(-c2c3nc(c(-c4cccc(S(=O)(=O)[O-])c4F)c4ccc([nH]4)c(-c4cccc(S(=O)(=O)[O-])c4F)c4nc(c(-c5cccc(S(=O)(=O)[O-])c5F)c5ccc2[nH]5)C=C4)C=C3)cc1
REMARK SMILES IDX 10 1 9 2 8 3 7 4 6 5 5 6 4 7 3 8 2 9 1 10 42 11 43 12 104 13
REMARK SMILES IDX 44 14 103 15 45 16 46 17 47 18 97 19 48 20 102 21 96 22
REMARK SMILES IDX 98 23 49 24 101 25 95 26 94 27 50 29 82 30 62 31 81 32 63 33
REMARK SMILES IDX 66 34 80 35 99 36 64 37 65 38 79 40 100 41 67 42 51 43 52 44
REMARK SMILES IDX 60 45 53 46 55 47 61 48 54 49 56 50 57 51 58 52 59 53 83 54
REMARK SMILES IDX 84 55 92 56 85 57 87 58 93 59 86 60 88 61 89 62 90 63 91 64
REMARK SMILES IDX 68 65 69 66 77 67 70 68 72 69 78 70 71 71 73 72 74 73 75 74
REMARK SMILES IDX 76 75 11 76 12 77 13 78 14 79 15 80 16 81 17 82 18 83 19 84
REMARK SMILES IDX 32 85 20 86 31 87 21 88 30 89 22 90 29 91 23 92 33 94 34 95
REMARK SMILES IDX 35 96 36 97 37 98 38 99 41 100 39 101 40 102 24 103 25 104
REMARK SMILES IDX 26 105 27 106 28 107
REMARK H PARENT 98 28 66 39 23 93
REMARK Flexibility Score: inf
ROOT
ATOM      1  C   UNL A   1      42.329  41.084  31.464  1.00  0.00     0.188 C 
ENDROOT
BRANCH   1   2
ATOM      2  O   UNL A   1      41.822  41.349  32.755  1.00  0.00    -0.377 OA
BRANCH   2   3
ATOM      3  C   UNL A   1      42.630  42.243  33.468  1.00  0.00     0.188 C 
BRANCH   3   4
ATOM      4  C   UNL A   1      44.123  42.058  33.181  1.00  0.00     0.188 C 
BRANCH   4   5
ATOM      5  O   UNL A   1      45.132  41.772  34.145  1.00  0.00    -0.376 OA
BRANCH   5   6
ATOM      6  C   UNL A   1      45.296  40.687  35.042  1.00  0.00     0.202 C 
BRANCH   6   7
ATOM      7  C   UNL A   1      45.401  39.226  34.586  1.00  0.00     0.261 C 
BRANCH   7   8
ATOM      8  O   UNL A   1      44.539  38.750  33.554  1.00  0.00    -0.460 OA
BRANCH   8   9
ATOM      9  C   UNL A   1      44.863  38.356  32.306  1.00  0.00     0.338 C 
ATOM     10  O   UNL A   1      45.454  39.130  31.556  1.00  0.00    -0.246 OA
BRANCH   9  11
ATOM     11  C   UNL A   1      44.350  37.093  31.735  1.00  0.00     0.060 A 
ATOM     12  C   UNL A   1      44.166  36.873  30.371  1.00  0.00     0.016 A 
ATOM     13  C   UNL A   1      44.045  36.074  32.665  1.00  0.00     0.016 A 
ATOM     14  C   UNL A   1      43.675  35.664  29.939  1.00  0.00     0.010 A 
ATOM     15  C   UNL A   1      43.511  34.872  32.239  1.00  0.00     0.010 A 
ATOM     16  C   UNL A   1      43.285  34.712  30.881  1.00  0.00    -0.014 A 
BRANCH  16  17
ATOM     17  C   UNL A   1      42.509  33.619  30.349  1.00  0.00     0.031 A 
ATOM     18  C   UNL A   1      41.048  33.834  30.371  1.00  0.00     0.074 A 
ATOM     19  C   UNL A   1      43.128  32.450  30.101  1.00  0.00     0.049 A 
ATOM     20  N   UNL A   1      40.217  33.379  31.250  1.00  0.00    -0.248 NA
ATOM     21  C   UNL A   1      40.471  34.813  29.444  1.00  0.00     0.031 C 
ATOM     22  C   UNL A   1      44.559  32.207  29.899  1.00  0.00     0.029 A 
ATOM     23  N   UNL A   1      42.576  31.230  29.885  1.00  0.00    -0.354 N 
ATOM     24  C   UNL A   1      38.964  33.810  30.835  1.00  0.00     0.074 A 
ATOM     25  C   UNL A   1      39.200  34.837  29.853  1.00  0.00     0.031 C 
ATOM     26  C   UNL A   1      44.722  30.992  29.330  1.00  0.00     0.029 A 
ATOM     27  C   UNL A   1      43.433  30.328  29.273  1.00  0.00     0.049 A 
ATOM     28  H   UNL A   1      41.653  31.007  30.141  1.00  0.00     0.167 HD
ATOM     29  C   UNL A   1      37.851  33.087  31.138  1.00  0.00     0.034 A 
ATOM     30  C   UNL A   1      43.067  29.168  28.677  1.00  0.00     0.034 A 
ATOM     31  C   UNL A   1      38.097  32.187  32.238  1.00  0.00     0.049 A 
ATOM     32  C   UNL A   1      41.760  28.770  29.254  1.00  0.00     0.074 A 
ATOM     33  C   UNL A   1      38.495  32.339  33.551  1.00  0.00     0.029 A 
ATOM     34  N   UNL A   1      38.310  30.866  31.925  1.00  0.00    -0.354 N 
ATOM     35  N   UNL A   1      41.617  28.389  30.494  1.00  0.00    -0.248 NA
ATOM     36  C   UNL A   1      40.548  29.247  28.603  1.00  0.00     0.031 C 
ATOM     37  C   UNL A   1      39.357  31.231  33.804  1.00  0.00     0.029 A 
ATOM     38  C   UNL A   1      39.376  30.428  32.661  1.00  0.00     0.049 A 
ATOM     39  H   UNL A   1      37.788  30.330  31.285  1.00  0.00     0.167 HD
ATOM     40  C   UNL A   1      40.451  29.016  30.912  1.00  0.00     0.074 A 
ATOM     41  C   UNL A   1      39.784  29.441  29.682  1.00  0.00     0.031 C 
ATOM     42  C   UNL A   1      40.283  29.396  32.214  1.00  0.00     0.034 A 
BRANCH  29  43
ATOM     43  C   UNL A   1      36.692  32.870  30.190  1.00  0.00     0.023 A 
ATOM     44  C   UNL A   1      36.884  31.941  29.140  1.00  0.00     0.012 A 
ATOM     45  C   UNL A   1      35.575  33.730  30.085  1.00  0.00     0.148 A 
ATOM     46  C   UNL A   1      36.059  31.930  28.011  1.00  0.00     0.002 A 
ATOM     47  C   UNL A   1      34.716  33.667  28.995  1.00  0.00     0.091 A 
ATOM     48  F   UNL A   1      35.394  34.711  30.970  1.00  0.00    -0.205 F 
ATOM     49  C   UNL A   1      34.974  32.795  27.938  1.00  0.00     0.022 A 
BRANCH  47  50
ATOM     50  S   UNL A   1      33.276  34.739  28.880  1.00  0.00     0.127 S 
ATOM     51  O   UNL A   1      33.874  35.961  28.322  1.00  0.00    -0.237 OA
ATOM     52  O   UNL A   1      32.431  33.990  27.939  1.00  0.00    -0.237 OA
ATOM     53  O   UNL A   1      32.742  34.844  30.213  1.00  0.00    -0.744 OA
ENDBRANCH  47  50
ENDBRANCH  29  43
BRANCH  30  54
ATOM     54  C   UNL A   1      43.596  28.575  27.427  1.00  0.00     0.023 A 
ATOM     55  C   UNL A   1      44.582  29.265  26.697  1.00  0.00     0.012 A 
ATOM     56  C   UNL A   1      43.351  27.220  27.107  1.00  0.00     0.148 A 
ATOM     57  C   UNL A   1      45.327  28.615  25.705  1.00  0.00     0.002 A 
ATOM     58  C   UNL A   1      44.090  26.581  26.116  1.00  0.00     0.091 A 
ATOM     59  F   UNL A   1      42.467  26.529  27.837  1.00  0.00    -0.205 F 
ATOM     60  C   UNL A   1      45.088  27.273  25.421  1.00  0.00     0.022 A 
BRANCH  58  61
ATOM     61  S   UNL A   1      43.858  24.842  25.722  1.00  0.00     0.127 S 
ATOM     62  O   UNL A   1      44.157  24.201  27.002  1.00  0.00    -0.237 OA
ATOM     63  O   UNL A   1      42.451  24.805  25.331  1.00  0.00    -0.237 OA
ATOM     64  O   UNL A   1      44.814  24.540  24.664  1.00  0.00    -0.744 OA
ENDBRANCH  58  61
ENDBRANCH  30  54
BRANCH  42  65
ATOM     65  C   UNL A   1      41.257  28.873  33.237  1.00  0.00     0.023 A 
ATOM     66  C   UNL A   1      41.100  27.629  33.882  1.00  0.00     0.012 A 
ATOM     67  C   UNL A   1      42.445  29.595  33.434  1.00  0.00     0.148 A 
ATOM     68  C   UNL A   1      42.097  27.133  34.730  1.00  0.00     0.002 A 
ATOM     69  C   UNL A   1      43.453  29.078  34.237  1.00  0.00     0.091 A 
ATOM     70  F   UNL A   1      42.581  30.777  32.812  1.00  0.00    -0.205 F 
ATOM     71  C   UNL A   1      43.279  27.852  34.896  1.00  0.00     0.022 A 
BRANCH  69  72
ATOM     72  S   UNL A   1      45.037  29.906  34.380  1.00  0.00     0.127 S 
ATOM     73  O   UNL A   1      45.327  30.255  32.992  1.00  0.00    -0.237 OA
ATOM     74  O   UNL A   1      44.723  31.044  35.246  1.00  0.00    -0.237 OA
ATOM     75  O   UNL A   1      45.938  28.934  34.989  1.00  0.00    -0.744 OA
ENDBRANCH  69  72
ENDBRANCH  42  65
ENDBRANCH  16  17
ENDBRANCH   9  11
ENDBRANCH   8   9
ENDBRANCH   7   8
ENDBRANCH   6   7
ENDBRANCH   5   6
ENDBRANCH   4   5
ENDBRANCH   3   4
ENDBRANCH   2   3
ENDBRANCH   1   2
BRANCH   1  76
ATOM     76  C   UNL A   1      41.383  41.421  30.285  1.00  0.00     0.188 C 
BRANCH  76  77
ATOM     77  O   UNL A   1      41.382  40.412  29.246  1.00  0.00    -0.376 OA
BRANCH  77  78
ATOM     78  C   UNL A   1      42.614  39.731  28.970  1.00  0.00     0.202 C 
BRANCH  78  79
ATOM     79  C   UNL A   1      43.220  39.926  27.461  1.00  0.00     0.261 C 
BRANCH  79  80
ATOM     80  O   UNL A   1      42.656  41.002  26.494  1.00  0.00    -0.462 OA
BRANCH  80  81
ATOM     81  C   UNL A   1      42.946  41.605  25.274  1.00  0.00     0.328 C 
ATOM     82  O   UNL A   1      42.434  41.207  24.230  1.00  0.00    -0.250 OA
BRANCH  81  83
ATOM     83  C   UNL A   1      43.847  43.099  25.336  1.00  0.00     0.195 C 
ATOM     84  C   UNL A   1      45.056  43.263  26.327  1.00  0.00     0.046 C 
ATOM     85  N   UNL A   1      44.357  43.966  24.249  1.00  0.00    -0.328 N 
ATOM     86  C   UNL A   1      45.927  44.524  25.955  1.00  0.00     0.001 C 
ATOM     87  C   UNL A   1      45.115  45.108  24.779  1.00  0.00     0.128 C 
ATOM     88  C   UNL A   1      47.426  44.304  25.470  1.00  0.00     0.071 C 
ATOM     89  C   UNL A   1      46.038  45.415  27.194  1.00  0.00     0.071 C 
ATOM     90  C   UNL A   1      48.504  43.950  26.527  1.00  0.00     0.270 C 
ATOM     91  C   UNL A   1      46.970  44.777  28.241  1.00  0.00     0.270 C 
ATOM     92  N   UNL A   1      48.353  44.699  27.772  1.00  0.00    -0.272 N 
ATOM     93  H   UNL A   1      47.579  45.306  27.789  1.00  0.00     0.356 HD
BRANCH  85  94
ATOM     94  C   UNL A   1      44.651  43.598  22.965  1.00  0.00     0.225 C 
ATOM     95  O   UNL A   1      45.176  42.531  22.657  1.00  0.00    -0.275 OA
BRANCH  94  96
ATOM     96  C   UNL A   1      44.267  44.588  21.947  1.00  0.00     0.124 C 
BRANCH  96  97
ATOM     97  C   UNL A   1      43.582  43.873  20.720  1.00  0.00     0.154 C 
BRANCH  97  98
ATOM     98  N   UNL A   1      42.979  44.213  19.378  1.00  0.00    -0.272 N 
ATOM     99  C   UNL A   1      41.816  43.913  18.663  1.00  0.00     0.108 A 
ATOM    100  N   UNL A   1      43.616  45.205  18.649  1.00  0.00    -0.182 NA
ATOM    101  C   UNL A   1      41.760  44.618  17.490  1.00  0.00     0.042 A 
ATOM    102  C   UNL A   1      42.886  45.417  17.551  1.00  0.00     0.135 A 
ENDBRANCH  97  98
ENDBRANCH  96  97
ENDBRANCH  94  96
ENDBRANCH  85  94
BRANCH  92 103
ATOM    103  C   UNL A   1      49.348  45.095  28.684  1.00  0.00     0.315 C 
ATOM    104  O   UNL A   1      49.601  46.294  28.829  1.00  0.00    -0.231 OA
BRANCH 103 105
ATOM    105  C   UNL A   1      50.215  44.195  29.510  1.00  0.00     0.119 C 
ATOM    106  C   UNL A   1      50.054  43.670  30.904  1.00  0.00     0.019 C 
ATOM    107  C   UNL A   1      49.893  42.739  29.731  1.00  0.00     0.019 C 
ENDBRANCH 103 105
ENDBRANCH  92 103
ENDBRANCH  81  83
ENDBRANCH  80  81
ENDBRANCH  79  80
ENDBRANCH  78  79
ENDBRANCH  77  78
ENDBRANCH  76  77
ENDBRANCH   1  76
TORSDOF 29
ENDMDL
MODEL 2
REMARK VINA RESULT:      -8.2      1.649      4.167
REMARK SMILES O=C(OCCOCCOCCOCCOC(=O)[C@H]1CC2(CC[NH+](C(=O)C3CC3)CC2)CN1C(=O)CCn1cccn1)c1ccc(-c2c3nc(c(-c4cccc(S(=O)(=O)[O-])c4F)c4ccc([nH]4)c(-c4cccc(S(=O)(=O)[O-])c4F)c4nc(c(-c5cccc(S(=O)(=O)[O-])c5F)c5ccc2[nH]5)C=C4)C=C3)cc1
REMARK SMILES IDX 10 1 9 2 8 3 7 4 6 5 5 6 4 7 3 8 2 9 1 10 42 11 43 12 104 13
REMARK SMILES IDX 44 14 103 15 45 16 46 17 47 18 97 19 48 20 102 21 96 22
REMARK SMILES IDX 98 23 49 24 101 25 95 26 94 27 50 29 82 30 62 31 81 32 63 33
REMARK SMILES IDX 66 34 80 35 99 36 64 37 65 38 79 40 100 41 67 42 51 43 52 44
REMARK SMILES IDX 60 45 53 46 55 47 61 48 54 49 56 50 57 51 58 52 59 53 83 54
REMARK SMILES IDX 84 55 92 56 85 57 87 58 93 59 86 60 88 61 89 62 90 63 91 64
REMARK SMILES IDX 68 65 69 66 77 67 70 68 72 69 78 70 71 71 73 72 74 73 75 74
REMARK SMILES IDX 76 75 11 76 12 77 13 78 14 79 15 80 16 81 17 82 18 83 19 84
REMARK SMILES IDX 32 85 20 86 31 87 21 88 30 89 22 90 29 91 23 92 33 94 34 95
REMARK SMILES IDX 35 96 36 97 37 98 38 99 41 100 39 101 40 102 24 103 25 104
REMARK SMILES IDX 26 105 27 106 28 107
REMARK H PARENT 98 28 66 39 23 93
REMARK Flexibility Score: inf
ROOT
ATOM      1  C   UNL A   1      42.430  41.016  31.285  1.00  0.00     0.188 C 
ENDROOT
BRANCH   1   2
ATOM      2  O   UNL A   1      41.896  41.275  32.566  1.00  0.00    -0.377 OA
BRANCH   2   3
ATOM      3  C   UNL A   1      42.713  42.130  33.316  1.00  0.00     0.188 C 
BRANCH   3   4
ATOM      4  C   UNL A   1      44.193  42.029  32.935  1.00  0.00     0.188 C 
BRANCH   4   5
ATOM      5  O   UNL A   1      45.250  41.596  33.786  1.00  0.00    -0.376 OA
BRANCH   5   6
ATOM      6  C   UNL A   1      45.405  40.428  34.574  1.00  0.00     0.202 C 
BRANCH   6   7
ATOM      7  C   UNL A   1      45.473  39.015  33.981  1.00  0.00     0.261 C 
BRANCH   7   8
ATOM      8  O   UNL A   1      44.529  38.627  32.984  1.00  0.00    -0.460 OA
BRANCH   8   9
ATOM      9  C   UNL A   1      44.766  38.114  31.760  1.00  0.00     0.338 C 
ATOM     10  O   UNL A   1      45.346  38.793  30.915  1.00  0.00    -0.246 OA
BRANCH   9  11
ATOM     11  C   UNL A   1      44.168  36.833  31.329  1.00  0.00     0.060 A 
ATOM     12  C   UNL A   1      43.925  36.496  29.998  1.00  0.00     0.016 A 
ATOM     13  C   UNL A   1      43.842  35.925  32.360  1.00  0.00     0.016 A 
ATOM     14  C   UNL A   1      43.357  35.281  29.699  1.00  0.00     0.010 A 
ATOM     15  C   UNL A   1      43.232  34.720  32.067  1.00  0.00     0.010 A 
ATOM     16  C   UNL A   1      42.950  34.446  30.738  1.00  0.00    -0.014 A 
BRANCH  16  17
ATOM     17  C   UNL A   1      42.100  33.352  30.338  1.00  0.00     0.031 A 
ATOM     18  C   UNL A   1      40.654  33.614  30.477  1.00  0.00     0.074 A 
ATOM     19  C   UNL A   1      42.662  32.153  30.098  1.00  0.00     0.049 A 
ATOM     20  N   UNL A   1      39.893  33.232  31.450  1.00  0.00    -0.248 NA
ATOM     21  C   UNL A   1      40.022  34.562  29.554  1.00  0.00     0.031 C 
ATOM     22  C   UNL A   1      44.063  31.854  29.784  1.00  0.00     0.029 A 
ATOM     23  N   UNL A   1      42.061  30.942  29.999  1.00  0.00    -0.354 N 
ATOM     24  C   UNL A   1      38.619  33.680  31.124  1.00  0.00     0.074 A 
ATOM     25  C   UNL A   1      38.794  34.647  30.071  1.00  0.00     0.031 C 
ATOM     26  C   UNL A   1      44.140  30.607  29.269  1.00  0.00     0.029 A 
ATOM     27  C   UNL A   1      42.833  29.982  29.362  1.00  0.00     0.049 A 
ATOM     28  H   UNL A   1      41.158  30.761  30.347  1.00  0.00     0.167 HD
ATOM     29  C   UNL A   1      37.520  33.009  31.563  1.00  0.00     0.034 A 
ATOM     30  C   UNL A   1      42.384  28.806  28.864  1.00  0.00     0.034 A 
ATOM     31  C   UNL A   1      37.840  32.159  32.684  1.00  0.00     0.049 A 
ATOM     32  C   UNL A   1      41.124  28.479  29.576  1.00  0.00     0.074 A 
ATOM     33  C   UNL A   1      38.359  32.366  33.947  1.00  0.00     0.029 A 
ATOM     34  N   UNL A   1      37.987  30.818  32.426  1.00  0.00    -0.354 N 
ATOM     35  N   UNL A   1      41.083  28.167  30.842  1.00  0.00    -0.248 NA
ATOM     36  C   UNL A   1      39.872  28.961  29.010  1.00  0.00     0.031 C 
ATOM     37  C   UNL A   1      39.209  31.246  34.181  1.00  0.00     0.029 A 
ATOM     38  C   UNL A   1      39.103  30.385  33.086  1.00  0.00     0.049 A 
ATOM     39  H   UNL A   1      37.396  30.267  31.864  1.00  0.00     0.167 HD
ATOM     40  C   UNL A   1      39.977  28.852  31.328  1.00  0.00     0.074 A 
ATOM     41  C   UNL A   1      39.214  29.234  30.140  1.00  0.00     0.031 C 
ATOM     42  C   UNL A   1      39.938  29.302  32.617  1.00  0.00     0.034 A 
BRANCH  29  43
ATOM     43  C   UNL A   1      36.275  32.781  30.735  1.00  0.00     0.023 A 
ATOM     44  C   UNL A   1      36.227  31.602  29.955  1.00  0.00     0.012 A 
ATOM     45  C   UNL A   1      35.317  33.779  30.442  1.00  0.00     0.148 A 
ATOM     46  C   UNL A   1      35.331  31.463  28.890  1.00  0.00     0.002 A 
ATOM     47  C   UNL A   1      34.382  33.607  29.429  1.00  0.00     0.091 A 
ATOM     48  F   UNL A   1      35.372  34.965  31.050  1.00  0.00    -0.205 F 
ATOM     49  C   UNL A   1      34.408  32.467  28.626  1.00  0.00     0.022 A 
BRANCH  47  50
ATOM     50  S   UNL A   1      33.143  34.863  29.081  1.00  0.00     0.127 S 
ATOM     51  O   UNL A   1      33.979  35.948  28.548  1.00  0.00    -0.237 OA
ATOM     52  O   UNL A   1      32.315  34.182  28.075  1.00  0.00    -0.237 OA
ATOM     53  O   UNL A   1      32.474  35.129  30.328  1.00  0.00    -0.744 OA
ENDBRANCH  47  50
ENDBRANCH  29  43
BRANCH  30  54
ATOM     54  C   UNL A   1      42.782  28.133  27.606  1.00  0.00     0.023 A 
ATOM     55  C   UNL A   1      42.104  28.443  26.411  1.00  0.00     0.012 A 
ATOM     56  C   UNL A   1      43.996  27.415  27.520  1.00  0.00     0.148 A 
ATOM     57  C   UNL A   1      42.639  28.083  25.168  1.00  0.00     0.002 A 
ATOM     58  C   UNL A   1      44.519  27.053  26.283  1.00  0.00     0.091 A 
ATOM     59  F   UNL A   1      44.689  27.171  28.640  1.00  0.00    -0.205 F 
ATOM     60  C   UNL A   1      43.849  27.396  25.103  1.00  0.00     0.022 A 
BRANCH  58  61
ATOM     61  S   UNL A   1      46.093  26.197  26.123  1.00  0.00     0.127 S 
ATOM     62  O   UNL A   1      46.084  25.811  24.712  1.00  0.00    -0.237 OA
ATOM     63  O   UNL A   1      47.046  27.250  26.465  1.00  0.00    -0.237 OA
ATOM     64  O   UNL A   1      46.034  25.074  27.050  1.00  0.00    -0.744 OA
ENDBRANCH  58  61
ENDBRANCH  30  54
BRANCH  42  65
ATOM     65  C   UNL A   1      40.986  28.802  33.576  1.00  0.00     0.023 A 
ATOM     66  C   UNL A   1      40.884  27.567  34.250  1.00  0.00     0.012 A 
ATOM     67  C   UNL A   1      42.180  29.535  33.677  1.00  0.00     0.148 A 
ATOM     68  C   UNL A   1      41.942  27.092  35.032  1.00  0.00     0.002 A 
ATOM     69  C   UNL A   1      43.245  29.036  34.414  1.00  0.00     0.091 A 
ATOM     70  F   UNL A   1      42.262  30.707  33.029  1.00  0.00    -0.205 F 
ATOM     71  C   UNL A   1      43.127  27.820  35.103  1.00  0.00     0.022 A 
BRANCH  69  72
ATOM     72  S   UNL A   1      44.829  29.876  34.432  1.00  0.00     0.127 S 
ATOM     73  O   UNL A   1      45.385  29.511  33.132  1.00  0.00    -0.237 OA
ATOM     74  O   UNL A   1      44.441  31.282  34.560  1.00  0.00    -0.237 OA
ATOM     75  O   UNL A   1      45.541  29.354  35.593  1.00  0.00    -0.744 OA
ENDBRANCH  69  72
ENDBRANCH  42  65
ENDBRANCH  16  17
ENDBRANCH   9  11
ENDBRANCH   8   9
ENDBRANCH   7   8
ENDBRANCH   6   7
ENDBRANCH   5   6
ENDBRANCH   4   5
ENDBRANCH   3   4
ENDBRANCH   2   3
ENDBRANCH   1   2
BRANCH   1  76
ATOM     76  C   UNL A   1      41.475  41.273  30.092  1.00  0.00     0.188 C 
BRANCH  76  77
ATOM     77  O   UNL A   1      41.752  40.431  28.947  1.00  0.00    -0.376 OA
BRANCH  77  78
ATOM     78  C   UNL A   1      43.107  40.009  28.734  1.00  0.00     0.202 C 
BRANCH  78  79
ATOM     79  C   UNL A   1      43.714  40.275  27.237  1.00  0.00     0.261 C 
BRANCH  79  80
ATOM     80  O   UNL A   1      43.202  41.442  26.349  1.00  0.00    -0.462 OA
BRANCH  80  81
ATOM     81  C   UNL A   1      42.964  41.747  25.013  1.00  0.00     0.328 C 
ATOM     82  O   UNL A   1      41.819  41.869  24.582  1.00  0.00    -0.250 OA
BRANCH  81  83
ATOM     83  C   UNL A   1      44.351  42.207  24.057  1.00  0.00     0.195 C 
ATOM     84  C   UNL A   1      44.201  43.229  22.873  1.00  0.00     0.046 C 
ATOM     85  N   UNL A   1      45.728  42.568  24.465  1.00  0.00    -0.328 N 
ATOM     86  C   UNL A   1      45.610  43.764  22.405  1.00  0.00     0.001 C 
ATOM     87  C   UNL A   1      46.553  42.940  23.307  1.00  0.00     0.128 C 
ATOM     88  C   UNL A   1      45.947  45.306  22.599  1.00  0.00     0.071 C 
ATOM     89  C   UNL A   1      45.743  43.516  20.900  1.00  0.00     0.071 C 
ATOM     90  C   UNL A   1      45.306  46.334  21.632  1.00  0.00     0.270 C 
ATOM     91  C   UNL A   1      44.842  44.480  20.108  1.00  0.00     0.270 C 
ATOM     92  N   UNL A   1      45.269  45.873  20.247  1.00  0.00    -0.272 N 
ATOM     93  H   UNL A   1      45.629  44.966  20.112  1.00  0.00     0.356 HD
BRANCH  85  94
ATOM     94  C   UNL A   1      46.130  43.069  25.671  1.00  0.00     0.225 C 
ATOM     95  O   UNL A   1      46.836  42.459  26.470  1.00  0.00    -0.275 OA
BRANCH  94  96
ATOM     96  C   UNL A   1      45.663  44.436  25.948  1.00  0.00     0.124 C 
BRANCH  96  97
ATOM     97  C   UNL A   1      46.521  45.086  27.100  1.00  0.00     0.154 C 
BRANCH  97  98
ATOM     98  N   UNL A   1      47.448  46.256  27.327  1.00  0.00    -0.272 N 
ATOM     99  C   UNL A   1      48.633  46.754  26.779  1.00  0.00     0.108 A 
ATOM    100  N   UNL A   1      47.002  47.236  28.200  1.00  0.00    -0.182 NA
ATOM    101  C   UNL A   1      48.972  47.956  27.343  1.00  0.00     0.042 A 
ATOM    102  C   UNL A   1      47.913  48.212  28.193  1.00  0.00     0.135 A 
ENDBRANCH  97  98
ENDBRANCH  96  97
ENDBRANCH  94  96
ENDBRANCH  85  94
BRANCH  92 103
ATOM    103  C   UNL A   1      45.316  46.634  19.066  1.00  0.00     0.315 C 
ATOM    104  O   UNL A   1      44.283  47.149  18.629  1.00  0.00    -0.231 OA
BRANCH 103 105
ATOM    105  C   UNL A   1      46.517  46.872  18.201  1.00  0.00     0.119 C 
ATOM    106  C   UNL A   1      47.776  47.645  18.445  1.00  0.00     0.019 C 
ATOM    107  C   UNL A   1      47.818  46.140  18.403  1.00  0.00     0.019 C 
ENDBRANCH 103 105
ENDBRANCH  92 103
ENDBRANCH  81  83
ENDBRANCH  80  81
ENDBRANCH  79  80
ENDBRANCH  78  79
ENDBRANCH  77  78
ENDBRANCH  76  77
ENDBRANCH   1  76
TORSDOF 29
ENDMDL
MODEL 3
REMARK VINA RESULT:      -8.0      6.724     13.236
REMARK SMILES O=C(OCCOCCOCCOCCOC(=O)[C@H]1CC2(CC[NH+](C(=O)C3CC3)CC2)CN1C(=O)CCn1cccn1)c1ccc(-c2c3nc(c(-c4cccc(S(=O)(=O)[O-])c4F)c4ccc([nH]4)c(-c4cccc(S(=O)(=O)[O-])c4F)c4nc(c(-c5cccc(S(=O)(=O)[O-])c5F)c5ccc2[nH]5)C=C4)C=C3)cc1
REMARK SMILES IDX 10 1 9 2 8 3 7 4 6 5 5 6 4 7 3 8 2 9 1 10 42 11 43 12 104 13
REMARK SMILES IDX 44 14 103 15 45 16 46 17 47 18 97 19 48 20 102 21 96 22
REMARK SMILES IDX 98 23 49 24 101 25 95 26 94 27 50 29 82 30 62 31 81 32 63 33
REMARK SMILES IDX 66 34 80 35 99 36 64 37 65 38 79 40 100 41 67 42 51 43 52 44
REMARK SMILES IDX 60 45 53 46 55 47 61 48 54 49 56 50 57 51 58 52 59 53 83 54
REMARK SMILES IDX 84 55 92 56 85 57 87 58 93 59 86 60 88 61 89 62 90 63 91 64
REMARK SMILES IDX 68 65 69 66 77 67 70 68 72 69 78 70 71 71 73 72 74 73 75 74
REMARK SMILES IDX 76 75 11 76 12 77 13 78 14 79 15 80 16 81 17 82 18 83 19 84
REMARK SMILES IDX 32 85 20 86 31 87 21 88 30 89 22 90 29 91 23 92 33 94 34 95
REMARK SMILES IDX 35 96 36 97 37 98 38 99 41 100 39 101 40 102 24 103 25 104
REMARK SMILES IDX 26 105 27 106 28 107
REMARK H PARENT 98 28 66 39 23 93
REMARK Flexibility Score: inf
ROOT
ATOM      1  C   UNL A   1      43.553  22.706  26.552  1.00  0.00     0.188 C 
ENDROOT
BRANCH   1   2
ATOM      2  O   UNL A   1      44.292  23.857  26.900  1.00  0.00    -0.377 OA
BRANCH   2   3
ATOM      3  C   UNL A   1      45.052  23.668  28.061  1.00  0.00     0.188 C 
BRANCH   3   4
ATOM      4  C   UNL A   1      44.387  24.253  29.311  1.00  0.00     0.188 C 
BRANCH   4   5
ATOM      5  O   UNL A   1      44.686  23.906  30.659  1.00  0.00    -0.376 OA
BRANCH   5   6
ATOM      6  C   UNL A   1      44.343  24.523  31.888  1.00  0.00     0.202 C 
BRANCH   6   7
ATOM      7  C   UNL A   1      45.370  24.867  32.974  1.00  0.00     0.261 C 
BRANCH   7   8
ATOM      8  O   UNL A   1      44.917  25.248  34.272  1.00  0.00    -0.460 OA
BRANCH   8   9
ATOM      9  C   UNL A   1      43.650  25.365  34.717  1.00  0.00     0.338 C 
ATOM     10  O   UNL A   1      43.016  24.358  35.026  1.00  0.00    -0.246 OA
BRANCH   9  11
ATOM     11  C   UNL A   1      42.922  26.649  34.653  1.00  0.00     0.060 A 
ATOM     12  C   UNL A   1      42.736  27.382  33.481  1.00  0.00     0.016 A 
ATOM     13  C   UNL A   1      42.398  27.124  35.875  1.00  0.00     0.016 A 
ATOM     14  C   UNL A   1      42.050  28.571  33.526  1.00  0.00     0.010 A 
ATOM     15  C   UNL A   1      41.744  28.341  35.933  1.00  0.00     0.010 A 
ATOM     16  C   UNL A   1      41.632  29.069  34.760  1.00  0.00    -0.014 A 
BRANCH  16  17
ATOM     17  C   UNL A   1      41.202  30.446  34.742  1.00  0.00     0.031 A 
ATOM     18  C   UNL A   1      42.214  31.412  35.215  1.00  0.00     0.074 A 
ATOM     19  C   UNL A   1      39.901  30.712  34.526  1.00  0.00     0.049 A 
ATOM     20  N   UNL A   1      42.282  31.939  36.393  1.00  0.00    -0.248 NA
ATOM     21  C   UNL A   1      43.383  31.671  34.369  1.00  0.00     0.031 C 
ATOM     22  C   UNL A   1      38.890  29.853  33.903  1.00  0.00     0.029 A 
ATOM     23  N   UNL A   1      39.226  31.867  34.748  1.00  0.00    -0.354 N 
ATOM     24  C   UNL A   1      43.369  32.803  36.352  1.00  0.00     0.074 A 
ATOM     25  C   UNL A   1      44.114  32.450  35.171  1.00  0.00     0.031 C 
ATOM     26  C   UNL A   1      37.825  30.609  33.556  1.00  0.00     0.029 A 
ATOM     27  C   UNL A   1      38.022  31.953  34.066  1.00  0.00     0.049 A 
ATOM     28  H   UNL A   1      39.562  32.579  35.339  1.00  0.00     0.167 HD
ATOM     29  C   UNL A   1      43.401  33.907  37.146  1.00  0.00     0.034 A 
ATOM     30  C   UNL A   1      37.305  33.084  33.862  1.00  0.00     0.034 A 
ATOM     31  C   UNL A   1      42.479  33.785  38.248  1.00  0.00     0.049 A 
ATOM     32  C   UNL A   1      37.704  34.052  34.913  1.00  0.00     0.074 A 
ATOM     33  C   UNL A   1      42.322  32.898  39.295  1.00  0.00     0.029 A 
ATOM     34  N   UNL A   1      41.288  34.462  38.141  1.00  0.00    -0.354 N 
ATOM     35  N   UNL A   1      37.424  33.887  36.176  1.00  0.00    -0.248 NA
ATOM     36  C   UNL A   1      38.815  34.951  34.632  1.00  0.00     0.031 C 
ATOM     37  C   UNL A   1      40.912  32.756  39.447  1.00  0.00     0.029 A 
ATOM     38  C   UNL A   1      40.289  33.619  38.542  1.00  0.00     0.049 A 
ATOM     39  H   UNL A   1      41.174  35.389  37.830  1.00  0.00     0.167 HD
ATOM     40  C   UNL A   1      38.589  34.256  36.837  1.00  0.00     0.074 A 
ATOM     41  C   UNL A   1      39.368  35.000  35.847  1.00  0.00     0.031 C 
ATOM     42  C   UNL A   1      38.943  33.673  38.020  1.00  0.00     0.034 A 
BRANCH  29  43
ATOM     43  C   UNL A   1      43.925  35.257  36.706  1.00  0.00     0.023 A 
ATOM     44  C   UNL A   1      43.395  35.795  35.510  1.00  0.00     0.012 A 
ATOM     45  C   UNL A   1      45.099  35.861  37.213  1.00  0.00     0.148 A 
ATOM     46  C   UNL A   1      44.046  36.820  34.815  1.00  0.00     0.002 A 
ATOM     47  C   UNL A   1      45.703  36.927  36.556  1.00  0.00     0.091 A 
ATOM     48  F   UNL A   1      45.726  35.336  38.266  1.00  0.00    -0.205 F 
ATOM     49  C   UNL A   1      45.201  37.385  35.338  1.00  0.00     0.022 A 
BRANCH  47  50
ATOM     50  S   UNL A   1      47.176  37.715  37.221  1.00  0.00     0.127 S 
ATOM     51  O   UNL A   1      47.917  36.552  37.731  1.00  0.00    -0.237 OA
ATOM     52  O   UNL A   1      47.752  38.320  36.011  1.00  0.00    -0.237 OA
ATOM     53  O   UNL A   1      46.720  38.661  38.206  1.00  0.00    -0.744 OA
ENDBRANCH  47  50
ENDBRANCH  29  43
BRANCH  30  54
ATOM     54  C   UNL A   1      36.568  33.493  32.645  1.00  0.00     0.023 A 
ATOM     55  C   UNL A   1      36.698  32.732  31.468  1.00  0.00     0.012 A 
ATOM     56  C   UNL A   1      35.524  34.445  32.715  1.00  0.00     0.148 A 
ATOM     57  C   UNL A   1      35.795  32.888  30.409  1.00  0.00     0.002 A 
ATOM     58  C   UNL A   1      34.635  34.600  31.657  1.00  0.00     0.091 A 
ATOM     59  F   UNL A   1      35.343  35.128  33.852  1.00  0.00    -0.205 F 
ATOM     60  C   UNL A   1      34.759  33.814  30.506  1.00  0.00     0.022 A 
BRANCH  58  61
ATOM     61  S   UNL A   1      33.255  35.751  31.729  1.00  0.00     0.127 S 
ATOM     62  O   UNL A   1      32.903  35.889  30.315  1.00  0.00    -0.237 OA
ATOM     63  O   UNL A   1      32.285  35.011  32.532  1.00  0.00    -0.237 OA
ATOM     64  O   UNL A   1      33.779  36.968  32.336  1.00  0.00    -0.744 OA
ENDBRANCH  58  61
ENDBRANCH  30  54
BRANCH  42  65
ATOM     65  C   UNL A   1      37.916  32.832  38.733  1.00  0.00     0.023 A 
ATOM     66  C   UNL A   1      37.532  31.549  38.292  1.00  0.00     0.012 A 
ATOM     67  C   UNL A   1      37.442  33.295  39.972  1.00  0.00     0.148 A 
ATOM     68  C   UNL A   1      36.670  30.759  39.058  1.00  0.00     0.002 A 
ATOM     69  C   UNL A   1      36.625  32.488  40.753  1.00  0.00     0.091 A 
ATOM     70  F   UNL A   1      37.817  34.517  40.379  1.00  0.00    -0.205 F 
ATOM     71  C   UNL A   1      36.227  31.223  40.295  1.00  0.00     0.022 A 
BRANCH  69  72
ATOM     72  S   UNL A   1      36.134  32.992  42.402  1.00  0.00     0.127 S 
ATOM     73  O   UNL A   1      35.560  34.313  42.161  1.00  0.00    -0.237 OA
ATOM     74  O   UNL A   1      35.164  31.960  42.773  1.00  0.00    -0.237 OA
ATOM     75  O   UNL A   1      37.354  32.970  43.202  1.00  0.00    -0.744 OA
ENDBRANCH  69  72
ENDBRANCH  42  65
ENDBRANCH  16  17
ENDBRANCH   9  11
ENDBRANCH   8   9
ENDBRANCH   7   8
ENDBRANCH   6   7
ENDBRANCH   5   6
ENDBRANCH   4   5
ENDBRANCH   3   4
ENDBRANCH   2   3
ENDBRANCH   1   2
BRANCH   1  76
ATOM     76  C   UNL A   1      42.012  22.853  26.600  1.00  0.00     0.188 C 
BRANCH  76  77
ATOM     77  O   UNL A   1      41.574  24.074  27.242  1.00  0.00    -0.376 OA
BRANCH  77  78
ATOM     78  C   UNL A   1      40.238  24.117  27.764  1.00  0.00     0.202 C 
BRANCH  78  79
ATOM     79  C   UNL A   1      39.584  25.608  27.938  1.00  0.00     0.261 C 
BRANCH  79  80
ATOM     80  O   UNL A   1      39.151  26.147  29.329  1.00  0.00    -0.462 OA
BRANCH  80  81
ATOM     81  C   UNL A   1      39.273  27.281  30.125  1.00  0.00     0.328 C 
ATOM     82  O   UNL A   1      38.427  27.558  30.973  1.00  0.00    -0.250 OA
BRANCH  81  83
ATOM     83  C   UNL A   1      40.798  28.129  30.047  1.00  0.00     0.195 C 
ATOM     84  C   UNL A   1      41.804  27.857  28.871  1.00  0.00     0.046 C 
ATOM     85  N   UNL A   1      41.121  29.557  30.265  1.00  0.00    -0.328 N 
ATOM     86  C   UNL A   1      42.915  28.975  28.806  1.00  0.00     0.001 C 
ATOM     87  C   UNL A   1      42.548  29.829  30.038  1.00  0.00     0.128 C 
ATOM     88  C   UNL A   1      42.972  29.926  27.533  1.00  0.00     0.071 C 
ATOM     89  C   UNL A   1      44.285  28.294  28.853  1.00  0.00     0.071 C 
ATOM     90  C   UNL A   1      43.550  29.363  26.210  1.00  0.00     0.270 C 
ATOM     91  C   UNL A   1      44.583  27.579  27.523  1.00  0.00     0.270 C 
ATOM     92  N   UNL A   1      44.725  28.519  26.411  1.00  0.00    -0.272 N 
ATOM     93  H   UNL A   1      44.980  28.397  27.354  1.00  0.00     0.356 HD
BRANCH  85  94
ATOM     94  C   UNL A   1      40.280  30.627  30.129  1.00  0.00     0.225 C 
ATOM     95  O   UNL A   1      39.407  30.712  29.271  1.00  0.00    -0.275 OA
BRANCH  94  96
ATOM     96  C   UNL A   1      40.488  31.692  31.123  1.00  0.00     0.124 C 
BRANCH  96  97
ATOM     97  C   UNL A   1      40.867  33.044  30.405  1.00  0.00     0.154 C 
BRANCH  97  98
ATOM     98  N   UNL A   1      42.072  33.739  29.819  1.00  0.00    -0.272 N 
ATOM     99  C   UNL A   1      43.262  33.379  29.180  1.00  0.00     0.108 A 
ATOM    100  N   UNL A   1      41.995  35.118  29.707  1.00  0.00    -0.182 NA
ATOM    101  C   UNL A   1      43.953  34.484  28.759  1.00  0.00     0.042 A 
ATOM    102  C   UNL A   1      43.108  35.526  29.090  1.00  0.00     0.135 A 
ENDBRANCH  97  98
ENDBRANCH  96  97
ENDBRANCH  94  96
ENDBRANCH  85  94
BRANCH  92 103
ATOM    103  C   UNL A   1      45.813  28.306  25.545  1.00  0.00     0.315 C 
ATOM    104  O   UNL A   1      46.434  29.272  25.096  1.00  0.00    -0.231 OA
BRANCH 103 105
ATOM    105  C   UNL A   1      46.307  26.986  25.037  1.00  0.00     0.119 C 
ATOM    106  C   UNL A   1      47.613  26.589  24.419  1.00  0.00     0.019 C 
ATOM    107  C   UNL A   1      47.274  26.130  25.813  1.00  0.00     0.019 C 
ENDBRANCH 103 105
ENDBRANCH  92 103
ENDBRANCH  81  83
ENDBRANCH  80  81
ENDBRANCH  79  80
ENDBRANCH  78  79
ENDBRANCH  77  78
ENDBRANCH  76  77
ENDBRANCH   1  76
TORSDOF 29
ENDMDL
