MODEL 1
REMARK VINA RESULT:      -8.1      0.000      0.000
REMARK SMILES CC(C)[C@@H](C)[N@@H+]1[C@@H](C(=O)OCCOCCOCCOCCOC(=O)c2ccc(-c3c4nc(c(-c5cccc(S(=O)(=O)[O-])c5F)c5ccc([nH]5)c(-c5cccc(S(=O)(=O)[O-])c5F)c5nc(c(-c6cccc(S(=O)(=O)[O-])c6F)c6ccc3[nH]6)C=C5)C=C4)cc2)C[C@H]2CCCC[C@H]21
REMARK SMILES IDX 17 1 16 2 15 3 14 4 13 5 12 6 11 7 10 8 8 9 9 10 7 11 6 12
REMARK SMILES IDX 94 13 88 15 89 16 93 17 90 18 92 19 91 20 4 21 5 22 2 23
REMARK SMILES IDX 1 24 3 25 18 26 19 27 20 28 21 29 22 30 23 31 24 32 25 33
REMARK SMILES IDX 26 34 87 35 27 36 86 37 28 38 29 39 30 40 80 41 31 42 85 43
REMARK SMILES IDX 79 44 81 45 32 46 84 47 78 48 77 49 33 51 65 52 45 53 64 54
REMARK SMILES IDX 46 55 49 56 63 57 82 58 47 59 48 60 62 62 83 63 50 64 34 65
REMARK SMILES IDX 35 66 43 67 36 68 38 69 44 70 37 71 39 72 40 73 41 74 42 75
REMARK SMILES IDX 66 76 67 77 75 78 68 79 70 80 76 81 69 82 71 83 72 84 73 85
REMARK SMILES IDX 74 86 51 87 52 88 60 89 53 90 55 91 61 92 54 93 56 94 57 95
REMARK SMILES IDX 58 96 59 97
REMARK H PARENT 6 14 81 50 49 61
REMARK Flexibility Score: inf
ROOT
ATOM      1  C   UNL A   1      41.935  23.396  27.430  1.00  0.00     0.188 C 
ENDROOT
BRANCH   1   2
ATOM      2  O   UNL A   1      40.830  24.221  27.706  1.00  0.00    -0.377 OA
BRANCH   2   3
ATOM      3  C   UNL A   1      39.906  24.364  26.649  1.00  0.00     0.188 C 
BRANCH   3   4
ATOM      4  C   UNL A   1      38.719  23.410  26.528  1.00  0.00     0.188 C 
BRANCH   4   5
ATOM      5  O   UNL A   1      39.010  22.103  26.100  1.00  0.00    -0.376 OA
BRANCH   5   6
ATOM      6  C   UNL A   1      38.088  21.273  25.426  1.00  0.00     0.202 C 
BRANCH   6   7
ATOM      7  C   UNL A   1      36.553  21.425  25.311  1.00  0.00     0.261 C 
BRANCH   7   8
ATOM      8  O   UNL A   1      35.933  21.734  24.058  1.00  0.00    -0.459 OA
BRANCH   8   9
ATOM      9  C   UNL A   1      35.949  23.044  23.674  1.00  0.00     0.365 C 
ATOM     10  O   UNL A   1      36.972  23.721  23.689  1.00  0.00    -0.245 OA
BRANCH   9  11
ATOM     11  C   UNL A   1      34.524  23.565  23.285  1.00  0.00     0.296 C 
ATOM     12  N   UNL A   1      33.974  24.659  24.184  1.00  0.00    -0.318 N 
ATOM     13  C   UNL A   1      33.158  23.951  25.209  1.00  0.00     0.188 C 
ATOM     14  H   UNL A   1      34.762  25.181  24.568  1.00  0.00     0.349 HD
ATOM     15  C   UNL A   1      33.588  22.352  23.434  1.00  0.00     0.087 C 
ATOM     16  C   UNL A   1      32.570  22.731  24.501  1.00  0.00     0.054 C 
ATOM     17  C   UNL A   1      33.996  23.647  26.461  1.00  0.00     0.065 C 
ATOM     18  C   UNL A   1      32.120  21.596  25.417  1.00  0.00     0.010 C 
ATOM     19  C   UNL A   1      33.341  22.606  27.360  1.00  0.00     0.006 C 
ATOM     20  C   UNL A   1      33.061  21.327  26.581  1.00  0.00     0.001 C 
BRANCH  12  21
ATOM     21  C   UNL A   1      33.160  25.748  23.504  1.00  0.00     0.184 C 
ATOM     22  C   UNL A   1      32.910  25.562  22.000  1.00  0.00     0.075 C 
BRANCH  21  23
ATOM     23  C   UNL A   1      33.627  27.212  23.865  1.00  0.00     0.041 C 
ATOM     24  C   UNL A   1      32.873  28.344  23.145  1.00  0.00     0.013 C 
ATOM     25  C   UNL A   1      33.460  27.503  25.374  1.00  0.00     0.013 C 
ENDBRANCH  21  23
ENDBRANCH  12  21
ENDBRANCH   9  11
ENDBRANCH   8   9
ENDBRANCH   7   8
ENDBRANCH   6   7
ENDBRANCH   5   6
ENDBRANCH   4   5
ENDBRANCH   3   4
ENDBRANCH   2   3
ENDBRANCH   1   2
BRANCH   1  26
ATOM     26  C   UNL A   1      42.552  23.696  26.056  1.00  0.00     0.188 C 
BRANCH  26  27
ATOM     27  O   UNL A   1      42.916  22.642  25.165  1.00  0.00    -0.376 OA
BRANCH  27  28
ATOM     28  C   UNL A   1      44.254  22.164  25.097  1.00  0.00     0.202 C 
BRANCH  28  29
ATOM     29  C   UNL A   1      45.234  22.447  26.246  1.00  0.00     0.261 C 
BRANCH  29  30
ATOM     30  O   UNL A   1      46.555  22.849  25.856  1.00  0.00    -0.460 OA
BRANCH  30  31
ATOM     31  C   UNL A   1      46.610  23.947  25.070  1.00  0.00     0.338 C 
ATOM     32  O   UNL A   1      46.868  23.985  23.872  1.00  0.00    -0.246 OA
BRANCH  31  33
ATOM     33  C   UNL A   1      46.130  25.129  25.806  1.00  0.00     0.060 A 
ATOM     34  C   UNL A   1      45.300  26.025  25.117  1.00  0.00     0.016 A 
ATOM     35  C   UNL A   1      46.527  25.396  27.119  1.00  0.00     0.016 A 
ATOM     36  C   UNL A   1      44.897  27.209  25.718  1.00  0.00     0.010 A 
ATOM     37  C   UNL A   1      46.151  26.608  27.709  1.00  0.00     0.010 A 
ATOM     38  C   UNL A   1      45.371  27.534  26.992  1.00  0.00    -0.014 A 
BRANCH  38  39
ATOM     39  C   UNL A   1      45.238  28.937  27.447  1.00  0.00     0.031 A 
ATOM     40  C   UNL A   1      43.957  29.346  28.120  1.00  0.00     0.074 A 
ATOM     41  C   UNL A   1      46.260  29.803  27.334  1.00  0.00     0.049 A 
ATOM     42  N   UNL A   1      43.622  30.498  28.636  1.00  0.00    -0.248 NA
ATOM     43  C   UNL A   1      42.916  28.310  28.230  1.00  0.00     0.031 C 
ATOM     44  C   UNL A   1      47.561  29.502  26.744  1.00  0.00     0.029 A 
ATOM     45  N   UNL A   1      46.352  31.118  27.711  1.00  0.00    -0.354 N 
ATOM     46  C   UNL A   1      42.326  30.335  29.110  1.00  0.00     0.074 A 
ATOM     47  C   UNL A   1      41.928  28.979  28.804  1.00  0.00     0.031 C 
ATOM     48  C   UNL A   1      48.322  30.611  26.783  1.00  0.00     0.029 A 
ATOM     49  C   UNL A   1      47.550  31.700  27.377  1.00  0.00     0.049 A 
ATOM     50  H   UNL A   1      45.629  31.598  28.178  1.00  0.00     0.167 HD
ATOM     51  C   UNL A   1      41.540  31.229  29.757  1.00  0.00     0.034 A 
ATOM     52  C   UNL A   1      47.964  32.975  27.521  1.00  0.00     0.034 A 
ATOM     53  C   UNL A   1      41.942  32.577  30.055  1.00  0.00     0.049 A 
ATOM     54  C   UNL A   1      47.047  33.971  28.182  1.00  0.00     0.074 A 
ATOM     55  C   UNL A   1      41.232  33.560  30.718  1.00  0.00     0.029 A 
ATOM     56  N   UNL A   1      43.158  33.137  29.690  1.00  0.00    -0.354 N 
ATOM     57  N   UNL A   1      45.857  33.784  28.702  1.00  0.00    -0.248 NA
ATOM     58  C   UNL A   1      47.544  35.349  28.306  1.00  0.00     0.031 C 
ATOM     59  C   UNL A   1      42.003  34.729  30.718  1.00  0.00     0.029 A 
ATOM     60  C   UNL A   1      43.213  34.459  30.097  1.00  0.00     0.049 A 
ATOM     61  H   UNL A   1      43.875  32.663  29.211  1.00  0.00     0.167 HD
ATOM     62  C   UNL A   1      45.481  35.006  29.250  1.00  0.00     0.074 A 
ATOM     63  C   UNL A   1      46.579  35.922  29.011  1.00  0.00     0.031 C 
ATOM     64  C   UNL A   1      44.330  35.344  29.886  1.00  0.00     0.034 A 
BRANCH  51  65
ATOM     65  C   UNL A   1      40.167  30.768  30.174  1.00  0.00     0.023 A 
ATOM     66  C   UNL A   1      39.059  31.000  29.332  1.00  0.00     0.012 A 
ATOM     67  C   UNL A   1      39.973  30.099  31.398  1.00  0.00     0.148 A 
ATOM     68  C   UNL A   1      37.776  30.618  29.723  1.00  0.00     0.002 A 
ATOM     69  C   UNL A   1      38.699  29.676  31.758  1.00  0.00     0.091 A 
ATOM     70  F   UNL A   1      41.032  29.909  32.198  1.00  0.00    -0.205 F 
ATOM     71  C   UNL A   1      37.598  29.948  30.931  1.00  0.00     0.022 A 
BRANCH  69  72
ATOM     72  S   UNL A   1      38.381  28.736  33.256  1.00  0.00     0.127 S 
ATOM     73  O   UNL A   1      36.920  28.688  33.269  1.00  0.00    -0.237 OA
ATOM     74  O   UNL A   1      39.030  27.459  32.959  1.00  0.00    -0.237 OA
ATOM     75  O   UNL A   1      38.991  29.490  34.340  1.00  0.00    -0.744 OA
ENDBRANCH  69  72
ENDBRANCH  51  65
BRANCH  52  76
ATOM     76  C   UNL A   1      49.325  33.372  27.063  1.00  0.00     0.023 A 
ATOM     77  C   UNL A   1      49.504  33.853  25.751  1.00  0.00     0.012 A 
ATOM     78  C   UNL A   1      50.437  33.293  27.924  1.00  0.00     0.148 A 
ATOM     79  C   UNL A   1      50.770  34.222  25.296  1.00  0.00     0.002 A 
ATOM     80  C   UNL A   1      51.686  33.714  27.482  1.00  0.00     0.091 A 
ATOM     81  F   UNL A   1      50.248  32.821  29.163  1.00  0.00    -0.205 F 
ATOM     82  C   UNL A   1      51.858  34.162  26.163  1.00  0.00     0.022 A 
BRANCH  80  83
ATOM     83  S   UNL A   1      53.119  33.790  28.561  1.00  0.00     0.127 S 
ATOM     84  O   UNL A   1      52.744  34.860  29.483  1.00  0.00    -0.237 OA
ATOM     85  O   UNL A   1      53.125  32.448  29.143  1.00  0.00    -0.237 OA
ATOM     86  O   UNL A   1      54.254  34.077  27.695  1.00  0.00    -0.744 OA
ENDBRANCH  80  83
ENDBRANCH  52  76
BRANCH  64  87
ATOM     87  C   UNL A   1      44.212  36.753  30.414  1.00  0.00     0.023 A 
ATOM     88  C   UNL A   1      44.686  37.068  31.703  1.00  0.00     0.012 A 
ATOM     89  C   UNL A   1      43.686  37.778  29.602  1.00  0.00     0.148 A 
ATOM     90  C   UNL A   1      44.600  38.371  32.192  1.00  0.00     0.002 A 
ATOM     91  C   UNL A   1      43.654  39.084  30.074  1.00  0.00     0.091 A 
ATOM     92  F   UNL A   1      43.225  37.456  28.385  1.00  0.00    -0.205 F 
ATOM     93  C   UNL A   1      44.095  39.381  31.373  1.00  0.00     0.022 A 
BRANCH  91  94
ATOM     94  S   UNL A   1      43.116  40.464  29.057  1.00  0.00     0.127 S 
ATOM     95  O   UNL A   1      43.300  41.594  29.967  1.00  0.00    -0.237 OA
ATOM     96  O   UNL A   1      44.065  40.416  27.945  1.00  0.00    -0.237 OA
ATOM     97  O   UNL A   1      41.736  40.178  28.688  1.00  0.00    -0.744 OA
ENDBRANCH  91  94
ENDBRANCH  64  87
ENDBRANCH  38  39
ENDBRANCH  31  33
ENDBRANCH  30  31
ENDBRANCH  29  30
ENDBRANCH  28  29
ENDBRANCH  27  28
ENDBRANCH  26  27
ENDBRANCH   1  26
TORSDOF 25
ENDMDL
MODEL 2
REMARK VINA RESULT:      -8.1      6.141      9.226
REMARK SMILES CC(C)[C@@H](C)[N@@H+]1[C@@H](C(=O)OCCOCCOCCOCCOC(=O)c2ccc(-c3c4nc(c(-c5cccc(S(=O)(=O)[O-])c5F)c5ccc([nH]5)c(-c5cccc(S(=O)(=O)[O-])c5F)c5nc(c(-c6cccc(S(=O)(=O)[O-])c6F)c6ccc3[nH]6)C=C5)C=C4)cc2)C[C@H]2CCCC[C@H]21
REMARK SMILES IDX 17 1 16 2 15 3 14 4 13 5 12 6 11 7 10 8 8 9 9 10 7 11 6 12
REMARK SMILES IDX 94 13 88 15 89 16 93 17 90 18 92 19 91 20 4 21 5 22 2 23
REMARK SMILES IDX 1 24 3 25 18 26 19 27 20 28 21 29 22 30 23 31 24 32 25 33
REMARK SMILES IDX 26 34 87 35 27 36 86 37 28 38 29 39 30 40 80 41 31 42 85 43
REMARK SMILES IDX 79 44 81 45 32 46 84 47 78 48 77 49 33 51 65 52 45 53 64 54
REMARK SMILES IDX 46 55 49 56 63 57 82 58 47 59 48 60 62 62 83 63 50 64 34 65
REMARK SMILES IDX 35 66 43 67 36 68 38 69 44 70 37 71 39 72 40 73 41 74 42 75
REMARK SMILES IDX 66 76 67 77 75 78 68 79 70 80 76 81 69 82 71 83 72 84 73 85
REMARK SMILES IDX 74 86 51 87 52 88 60 89 53 90 55 91 61 92 54 93 56 94 57 95
REMARK SMILES IDX 58 96 59 97
REMARK H PARENT 6 14 81 50 49 61
REMARK Flexibility Score: inf
ROOT
ATOM      1  C   UNL A   1      40.770  26.788  29.176  1.00  0.00     0.188 C 
ENDROOT
BRANCH   1   2
ATOM      2  O   UNL A   1      39.683  25.955  28.858  1.00  0.00    -0.377 OA
BRANCH   2   3
ATOM      3  C   UNL A   1      39.773  25.294  27.613  1.00  0.00     0.188 C 
BRANCH   3   4
ATOM      4  C   UNL A   1      40.145  23.814  27.551  1.00  0.00     0.188 C 
BRANCH   4   5
ATOM      5  O   UNL A   1      39.276  22.983  26.823  1.00  0.00    -0.376 OA
BRANCH   5   6
ATOM      6  C   UNL A   1      38.338  23.459  25.881  1.00  0.00     0.202 C 
BRANCH   6   7
ATOM      7  C   UNL A   1      36.803  23.581  26.019  1.00  0.00     0.261 C 
BRANCH   7   8
ATOM      8  O   UNL A   1      36.028  24.295  25.050  1.00  0.00    -0.459 OA
BRANCH   8   9
ATOM      9  C   UNL A   1      35.518  23.566  24.015  1.00  0.00     0.365 C 
ATOM     10  O   UNL A   1      36.100  22.591  23.549  1.00  0.00    -0.245 OA
BRANCH   9  11
ATOM     11  C   UNL A   1      34.170  24.158  23.481  1.00  0.00     0.296 C 
ATOM     12  N   UNL A   1      33.073  24.294  24.522  1.00  0.00    -0.318 N 
ATOM     13  C   UNL A   1      32.273  23.042  24.415  1.00  0.00     0.188 C 
ATOM     14  H   UNL A   1      33.513  24.429  25.433  1.00  0.00     0.349 HD
ATOM     15  C   UNL A   1      33.667  23.150  22.431  1.00  0.00     0.087 C 
ATOM     16  C   UNL A   1      32.326  22.640  22.942  1.00  0.00     0.054 C 
ATOM     17  C   UNL A   1      32.779  21.983  25.407  1.00  0.00     0.065 C 
ATOM     18  C   UNL A   1      32.024  21.172  22.652  1.00  0.00     0.010 C 
ATOM     19  C   UNL A   1      32.266  20.587  25.078  1.00  0.00     0.006 C 
ATOM     20  C   UNL A   1      32.638  20.203  23.651  1.00  0.00     0.001 C 
BRANCH  12  21
ATOM     21  C   UNL A   1      32.178  25.518  24.405  1.00  0.00     0.184 C 
ATOM     22  C   UNL A   1      32.859  26.807  23.924  1.00  0.00     0.075 C 
BRANCH  21  23
ATOM     23  C   UNL A   1      31.253  25.753  25.663  1.00  0.00     0.041 C 
ATOM     24  C   UNL A   1      31.631  26.954  26.547  1.00  0.00     0.013 C 
ATOM     25  C   UNL A   1      29.784  25.995  25.247  1.00  0.00     0.013 C 
ENDBRANCH  21  23
ENDBRANCH  12  21
ENDBRANCH   9  11
ENDBRANCH   8   9
ENDBRANCH   7   8
ENDBRANCH   6   7
ENDBRANCH   5   6
ENDBRANCH   4   5
ENDBRANCH   3   4
ENDBRANCH   2   3
ENDBRANCH   1   2
BRANCH   1  26
ATOM     26  C   UNL A   1      40.327  28.062  29.910  1.00  0.00     0.188 C 
BRANCH  26  27
ATOM     27  O   UNL A   1      40.013  29.255  29.192  1.00  0.00    -0.376 OA
BRANCH  27  28
ATOM     28  C   UNL A   1      39.289  29.210  27.968  1.00  0.00     0.202 C 
BRANCH  28  29
ATOM     29  C   UNL A   1      40.037  29.073  26.634  1.00  0.00     0.261 C 
BRANCH  29  30
ATOM     30  O   UNL A   1      41.423  29.444  26.654  1.00  0.00    -0.460 OA
BRANCH  30  31
ATOM     31  C   UNL A   1      42.228  28.690  25.873  1.00  0.00     0.338 C 
ATOM     32  O   UNL A   1      42.040  28.375  24.703  1.00  0.00    -0.246 OA
BRANCH  31  33
ATOM     33  C   UNL A   1      43.504  28.423  26.561  1.00  0.00     0.060 A 
ATOM     34  C   UNL A   1      44.078  27.156  26.385  1.00  0.00     0.016 A 
ATOM     35  C   UNL A   1      44.098  29.360  27.410  1.00  0.00     0.016 A 
ATOM     36  C   UNL A   1      45.223  26.802  27.085  1.00  0.00     0.010 A 
ATOM     37  C   UNL A   1      45.231  28.988  28.144  1.00  0.00     0.010 A 
ATOM     38  C   UNL A   1      45.768  27.695  28.014  1.00  0.00    -0.014 A 
BRANCH  38  39
ATOM     39  C   UNL A   1      46.739  27.166  28.998  1.00  0.00     0.031 A 
ATOM     40  C   UNL A   1      46.208  26.602  30.287  1.00  0.00     0.074 A 
ATOM     41  C   UNL A   1      48.053  27.117  28.720  1.00  0.00     0.049 A 
ATOM     42  N   UNL A   1      46.852  26.049  31.279  1.00  0.00    -0.248 NA
ATOM     43  C   UNL A   1      44.749  26.668  30.477  1.00  0.00     0.031 C 
ATOM     44  C   UNL A   1      48.673  27.589  27.484  1.00  0.00     0.029 A 
ATOM     45  N   UNL A   1      49.101  26.647  29.469  1.00  0.00    -0.354 N 
ATOM     46  C   UNL A   1      45.883  25.722  32.221  1.00  0.00     0.074 A 
ATOM     47  C   UNL A   1      44.610  26.155  31.689  1.00  0.00     0.031 C 
ATOM     48  C   UNL A   1      50.002  27.400  27.567  1.00  0.00     0.029 A 
ATOM     49  C   UNL A   1      50.324  26.819  28.869  1.00  0.00     0.049 A 
ATOM     50  H   UNL A   1      48.986  26.226  30.353  1.00  0.00     0.167 HD
ATOM     51  C   UNL A   1      46.036  25.103  33.415  1.00  0.00     0.034 A 
ATOM     52  C   UNL A   1      51.561  26.550  29.330  1.00  0.00     0.034 A 
ATOM     53  C   UNL A   1      47.306  24.677  33.938  1.00  0.00     0.049 A 
ATOM     54  C   UNL A   1      51.714  25.923  30.692  1.00  0.00     0.074 A 
ATOM     55  C   UNL A   1      47.574  24.028  35.129  1.00  0.00     0.029 A 
ATOM     56  N   UNL A   1      48.526  24.878  33.308  1.00  0.00    -0.354 N 
ATOM     57  N   UNL A   1      50.785  25.541  31.536  1.00  0.00    -0.248 NA
ATOM     58  C   UNL A   1      53.085  25.659  31.150  1.00  0.00     0.031 C 
ATOM     59  C   UNL A   1      48.961  23.873  35.238  1.00  0.00     0.029 A 
ATOM     60  C   UNL A   1      49.553  24.383  34.092  1.00  0.00     0.049 A 
ATOM     61  H   UNL A   1      48.643  25.311  32.432  1.00  0.00     0.167 HD
ATOM     62  C   UNL A   1      51.456  24.956  32.606  1.00  0.00     0.074 A 
ATOM     63  C   UNL A   1      52.870  25.020  32.292  1.00  0.00     0.031 C 
ATOM     64  C   UNL A   1      50.951  24.420  33.746  1.00  0.00     0.034 A 
BRANCH  51  65
ATOM     65  C   UNL A   1      44.793  24.860  34.232  1.00  0.00     0.023 A 
ATOM     66  C   UNL A   1      44.032  23.690  34.027  1.00  0.00     0.012 A 
ATOM     67  C   UNL A   1      44.379  25.788  35.208  1.00  0.00     0.148 A 
ATOM     68  C   UNL A   1      42.855  23.471  34.745  1.00  0.00     0.002 A 
ATOM     69  C   UNL A   1      43.234  25.538  35.954  1.00  0.00     0.091 A 
ATOM     70  F   UNL A   1      45.100  26.907  35.372  1.00  0.00    -0.205 F 
ATOM     71  C   UNL A   1      42.462  24.390  35.713  1.00  0.00     0.022 A 
BRANCH  69  72
ATOM     72  S   UNL A   1      42.689  26.623  37.279  1.00  0.00     0.127 S 
ATOM     73  O   UNL A   1      43.771  26.468  38.250  1.00  0.00    -0.237 OA
ATOM     74  O   UNL A   1      42.651  27.925  36.612  1.00  0.00    -0.237 OA
ATOM     75  O   UNL A   1      41.391  26.119  37.703  1.00  0.00    -0.744 OA
ENDBRANCH  69  72
ENDBRANCH  51  65
BRANCH  52  76
ATOM     76  C   UNL A   1      52.752  26.840  28.482  1.00  0.00     0.023 A 
ATOM     77  C   UNL A   1      53.544  27.971  28.759  1.00  0.00     0.012 A 
ATOM     78  C   UNL A   1      53.112  25.992  27.416  1.00  0.00     0.148 A 
ATOM     79  C   UNL A   1      54.658  28.268  27.973  1.00  0.00     0.002 A 
ATOM     80  C   UNL A   1      54.254  26.263  26.672  1.00  0.00     0.091 A 
ATOM     81  F   UNL A   1      52.338  24.929  27.161  1.00  0.00    -0.205 F 
ATOM     82  C   UNL A   1      55.019  27.410  26.937  1.00  0.00     0.022 A 
BRANCH  80  83
ATOM     83  S   UNL A   1      54.866  25.153  25.400  1.00  0.00     0.127 S 
ATOM     84  O   UNL A   1      55.584  26.073  24.520  1.00  0.00    -0.237 OA
ATOM     85  O   UNL A   1      55.717  24.252  26.177  1.00  0.00    -0.237 OA
ATOM     86  O   UNL A   1      53.688  24.522  24.822  1.00  0.00    -0.744 OA
ENDBRANCH  80  83
ENDBRANCH  52  76
BRANCH  64  87
ATOM     87  C   UNL A   1      51.928  23.816  34.725  1.00  0.00     0.023 A 
ATOM     88  C   UNL A   1      52.282  22.456  34.625  1.00  0.00     0.012 A 
ATOM     89  C   UNL A   1      52.541  24.619  35.709  1.00  0.00     0.148 A 
ATOM     90  C   UNL A   1      53.199  21.895  35.513  1.00  0.00     0.002 A 
ATOM     91  C   UNL A   1      53.495  24.066  36.554  1.00  0.00     0.091 A 
ATOM     92  F   UNL A   1      52.180  25.907  35.800  1.00  0.00    -0.205 F 
ATOM     93  C   UNL A   1      53.814  22.702  36.469  1.00  0.00     0.022 A 
BRANCH  91  94
ATOM     94  S   UNL A   1      54.411  25.048  37.747  1.00  0.00     0.127 S 
ATOM     95  O   UNL A   1      55.414  24.091  38.213  1.00  0.00    -0.237 OA
ATOM     96  O   UNL A   1      54.940  26.129  36.916  1.00  0.00    -0.237 OA
ATOM     97  O   UNL A   1      53.442  25.473  38.748  1.00  0.00    -0.744 OA
ENDBRANCH  91  94
ENDBRANCH  64  87
ENDBRANCH  38  39
ENDBRANCH  31  33
ENDBRANCH  30  31
ENDBRANCH  29  30
ENDBRANCH  28  29
ENDBRANCH  27  28
ENDBRANCH  26  27
ENDBRANCH   1  26
TORSDOF 25
ENDMDL
MODEL 3
REMARK VINA RESULT:      -8.0      5.448      7.343
REMARK SMILES CC(C)[C@@H](C)[N@@H+]1[C@@H](C(=O)OCCOCCOCCOCCOC(=O)c2ccc(-c3c4nc(c(-c5cccc(S(=O)(=O)[O-])c5F)c5ccc([nH]5)c(-c5cccc(S(=O)(=O)[O-])c5F)c5nc(c(-c6cccc(S(=O)(=O)[O-])c6F)c6ccc3[nH]6)C=C5)C=C4)cc2)C[C@H]2CCCC[C@H]21
REMARK SMILES IDX 17 1 16 2 15 3 14 4 13 5 12 6 11 7 10 8 8 9 9 10 7 11 6 12
REMARK SMILES IDX 94 13 88 15 89 16 93 17 90 18 92 19 91 20 4 21 5 22 2 23
REMARK SMILES IDX 1 24 3 25 18 26 19 27 20 28 21 29 22 30 23 31 24 32 25 33
REMARK SMILES IDX 26 34 87 35 27 36 86 37 28 38 29 39 30 40 80 41 31 42 85 43
REMARK SMILES IDX 79 44 81 45 32 46 84 47 78 48 77 49 33 51 65 52 45 53 64 54
REMARK SMILES IDX 46 55 49 56 63 57 82 58 47 59 48 60 62 62 83 63 50 64 34 65
REMARK SMILES IDX 35 66 43 67 36 68 38 69 44 70 37 71 39 72 40 73 41 74 42 75
REMARK SMILES IDX 66 76 67 77 75 78 68 79 70 80 76 81 69 82 71 83 72 84 73 85
REMARK SMILES IDX 74 86 51 87 52 88 60 89 53 90 55 91 61 92 54 93 56 94 57 95
REMARK SMILES IDX 58 96 59 97
REMARK H PARENT 6 14 81 50 49 61
REMARK Flexibility Score: inf
ROOT
ATOM      1  C   UNL A   1      42.101  22.892  27.630  1.00  0.00     0.188 C 
ENDROOT
BRANCH   1   2
ATOM      2  O   UNL A   1      40.759  22.512  27.807  1.00  0.00    -0.377 OA
BRANCH   2   3
ATOM      3  C   UNL A   1      40.313  21.464  26.972  1.00  0.00     0.188 C 
BRANCH   3   4
ATOM      4  C   UNL A   1      39.141  21.684  26.018  1.00  0.00     0.188 C 
BRANCH   4   5
ATOM      5  O   UNL A   1      38.640  20.541  25.371  1.00  0.00    -0.376 OA
BRANCH   5   6
ATOM      6  C   UNL A   1      37.284  20.372  25.013  1.00  0.00     0.202 C 
BRANCH   6   7
ATOM      7  C   UNL A   1      36.095  21.335  25.239  1.00  0.00     0.261 C 
BRANCH   7   8
ATOM      8  O   UNL A   1      35.704  22.275  24.233  1.00  0.00    -0.459 OA
BRANCH   8   9
ATOM      9  C   UNL A   1      35.519  23.565  24.639  1.00  0.00     0.365 C 
ATOM     10  O   UNL A   1      36.196  24.080  25.524  1.00  0.00    -0.245 OA
BRANCH   9  11
ATOM     11  C   UNL A   1      34.327  24.256  23.893  1.00  0.00     0.296 C 
ATOM     12  N   UNL A   1      33.079  24.461  24.734  1.00  0.00    -0.318 N 
ATOM     13  C   UNL A   1      32.225  23.271  24.466  1.00  0.00     0.188 C 
ATOM     14  H   UNL A   1      33.364  24.557  25.709  1.00  0.00     0.349 HD
ATOM     15  C   UNL A   1      33.944  23.296  22.753  1.00  0.00     0.087 C 
ATOM     16  C   UNL A   1      32.503  22.879  23.015  1.00  0.00     0.054 C 
ATOM     17  C   UNL A   1      32.479  22.170  25.507  1.00  0.00     0.065 C 
ATOM     18  C   UNL A   1      32.155  21.439  22.648  1.00  0.00     0.010 C 
ATOM     19  C   UNL A   1      31.935  20.817  25.067  1.00  0.00     0.006 C 
ATOM     20  C   UNL A   1      32.519  20.420  23.716  1.00  0.00     0.001 C 
BRANCH  12  21
ATOM     21  C   UNL A   1      32.304  25.747  24.492  1.00  0.00     0.184 C 
ATOM     22  C   UNL A   1      30.804  25.587  24.207  1.00  0.00     0.075 C 
BRANCH  21  23
ATOM     23  C   UNL A   1      33.011  26.737  23.484  1.00  0.00     0.041 C 
ATOM     24  C   UNL A   1      32.095  27.359  22.415  1.00  0.00     0.013 C 
ATOM     25  C   UNL A   1      33.653  27.933  24.223  1.00  0.00     0.013 C 
ENDBRANCH  21  23
ENDBRANCH  12  21
ENDBRANCH   9  11
ENDBRANCH   8   9
ENDBRANCH   7   8
ENDBRANCH   6   7
ENDBRANCH   5   6
ENDBRANCH   4   5
ENDBRANCH   3   4
ENDBRANCH   2   3
ENDBRANCH   1   2
BRANCH   1  26
ATOM     26  C   UNL A   1      42.383  23.370  26.198  1.00  0.00     0.188 C 
BRANCH  26  27
ATOM     27  O   UNL A   1      43.564  22.967  25.506  1.00  0.00    -0.376 OA
BRANCH  27  28
ATOM     28  C   UNL A   1      44.391  23.918  24.845  1.00  0.00     0.202 C 
BRANCH  28  29
ATOM     29  C   UNL A   1      44.475  25.361  25.365  1.00  0.00     0.261 C 
BRANCH  29  30
ATOM     30  O   UNL A   1      45.571  25.645  26.247  1.00  0.00    -0.460 OA
BRANCH  30  31
ATOM     31  C   UNL A   1      45.443  25.146  27.496  1.00  0.00     0.338 C 
ATOM     32  O   UNL A   1      45.964  24.130  27.943  1.00  0.00    -0.246 OA
BRANCH  31  33
ATOM     33  C   UNL A   1      44.718  26.098  28.356  1.00  0.00     0.060 A 
ATOM     34  C   UNL A   1      45.270  27.377  28.512  1.00  0.00     0.016 A 
ATOM     35  C   UNL A   1      43.559  25.736  29.047  1.00  0.00     0.016 A 
ATOM     36  C   UNL A   1      44.695  28.287  29.387  1.00  0.00     0.010 A 
ATOM     37  C   UNL A   1      43.002  26.641  29.959  1.00  0.00     0.010 A 
ATOM     38  C   UNL A   1      43.595  27.901  30.160  1.00  0.00    -0.014 A 
BRANCH  38  39
ATOM     39  C   UNL A   1      43.241  28.735  31.331  1.00  0.00     0.031 A 
ATOM     40  C   UNL A   1      42.154  29.762  31.169  1.00  0.00     0.074 A 
ATOM     41  C   UNL A   1      43.817  28.531  32.528  1.00  0.00     0.049 A 
ATOM     42  N   UNL A   1      41.644  30.577  32.051  1.00  0.00    -0.248 NA
ATOM     43  C   UNL A   1      41.559  29.877  29.826  1.00  0.00     0.031 C 
ATOM     44  C   UNL A   1      44.845  27.533  32.812  1.00  0.00     0.029 A 
ATOM     45  N   UNL A   1      43.616  29.165  33.727  1.00  0.00    -0.354 N 
ATOM     46  C   UNL A   1      40.686  31.319  31.370  1.00  0.00     0.074 A 
ATOM     47  C   UNL A   1      40.699  30.869  29.995  1.00  0.00     0.031 C 
ATOM     48  C   UNL A   1      45.199  27.632  34.106  1.00  0.00     0.029 A 
ATOM     49  C   UNL A   1      44.441  28.715  34.729  1.00  0.00     0.049 A 
ATOM     50  H   UNL A   1      42.943  29.872  33.858  1.00  0.00     0.167 HD
ATOM     51  C   UNL A   1      39.859  32.279  31.847  1.00  0.00     0.034 A 
ATOM     52  C   UNL A   1      44.577  29.146  35.999  1.00  0.00     0.034 A 
ATOM     53  C   UNL A   1      39.854  32.722  33.215  1.00  0.00     0.049 A 
ATOM     54  C   UNL A   1      43.692  30.262  36.491  1.00  0.00     0.074 A 
ATOM     55  C   UNL A   1      39.048  33.675  33.808  1.00  0.00     0.029 A 
ATOM     56  N   UNL A   1      40.712  32.254  34.199  1.00  0.00    -0.354 N 
ATOM     57  N   UNL A   1      42.732  30.897  35.860  1.00  0.00    -0.248 NA
ATOM     58  C   UNL A   1      43.887  30.699  37.880  1.00  0.00     0.031 C 
ATOM     59  C   UNL A   1      39.447  33.813  35.143  1.00  0.00     0.029 A 
ATOM     60  C   UNL A   1      40.470  32.911  35.393  1.00  0.00     0.049 A 
ATOM     61  H   UNL A   1      41.394  31.557  34.067  1.00  0.00     0.167 HD
ATOM     62  C   UNL A   1      42.183  31.778  36.787  1.00  0.00     0.074 A 
ATOM     63  C   UNL A   1      42.908  31.581  38.026  1.00  0.00     0.031 C 
ATOM     64  C   UNL A   1      41.175  32.673  36.627  1.00  0.00     0.034 A 
BRANCH  51  65
ATOM     65  C   UNL A   1      38.899  32.911  30.872  1.00  0.00     0.023 A 
ATOM     66  C   UNL A   1      39.334  33.958  30.032  1.00  0.00     0.012 A 
ATOM     67  C   UNL A   1      37.565  32.465  30.782  1.00  0.00     0.148 A 
ATOM     68  C   UNL A   1      38.446  34.582  29.155  1.00  0.00     0.002 A 
ATOM     69  C   UNL A   1      36.701  33.058  29.870  1.00  0.00     0.091 A 
ATOM     70  F   UNL A   1      37.162  31.486  31.605  1.00  0.00    -0.205 F 
ATOM     71  C   UNL A   1      37.134  34.126  29.068  1.00  0.00     0.022 A 
BRANCH  69  72
ATOM     72  S   UNL A   1      35.014  32.488  29.627  1.00  0.00     0.127 S 
ATOM     73  O   UNL A   1      34.501  33.478  28.682  1.00  0.00    -0.237 OA
ATOM     74  O   UNL A   1      35.221  31.154  29.061  1.00  0.00    -0.237 OA
ATOM     75  O   UNL A   1      34.393  32.500  30.943  1.00  0.00    -0.744 OA
ENDBRANCH  69  72
ENDBRANCH  51  65
BRANCH  52  76
ATOM     76  C   UNL A   1      45.565  28.494  36.905  1.00  0.00     0.023 A 
ATOM     77  C   UNL A   1      46.814  29.106  37.126  1.00  0.00     0.012 A 
ATOM     78  C   UNL A   1      45.266  27.284  37.561  1.00  0.00     0.148 A 
ATOM     79  C   UNL A   1      47.759  28.511  37.962  1.00  0.00     0.002 A 
ATOM     80  C   UNL A   1      46.189  26.725  38.436  1.00  0.00     0.091 A 
ATOM     81  F   UNL A   1      44.077  26.712  37.327  1.00  0.00    -0.205 F 
ATOM     82  C   UNL A   1      47.444  27.327  38.624  1.00  0.00     0.022 A 
BRANCH  80  83
ATOM     83  S   UNL A   1      45.828  25.271  39.426  1.00  0.00     0.127 S 
ATOM     84  O   UNL A   1      44.862  25.796  40.388  1.00  0.00    -0.237 OA
ATOM     85  O   UNL A   1      45.270  24.361  38.425  1.00  0.00    -0.237 OA
ATOM     86  O   UNL A   1      47.103  24.844  39.985  1.00  0.00    -0.744 OA
ENDBRANCH  80  83
ENDBRANCH  52  76
BRANCH  64  87
ATOM     87  C   UNL A   1      40.761  33.480  37.832  1.00  0.00     0.023 A 
ATOM     88  C   UNL A   1      39.682  33.055  38.633  1.00  0.00     0.012 A 
ATOM     89  C   UNL A   1      41.486  34.630  38.206  1.00  0.00     0.148 A 
ATOM     90  C   UNL A   1      39.304  33.784  39.760  1.00  0.00     0.002 A 
ATOM     91  C   UNL A   1      41.139  35.320  39.361  1.00  0.00     0.091 A 
ATOM     92  F   UNL A   1      42.499  35.029  37.423  1.00  0.00    -0.205 F 
ATOM     93  C   UNL A   1      40.040  34.909  40.131  1.00  0.00     0.022 A 
BRANCH  91  94
ATOM     94  S   UNL A   1      42.089  36.718  39.971  1.00  0.00     0.127 S 
ATOM     95  O   UNL A   1      42.177  37.560  38.778  1.00  0.00    -0.237 OA
ATOM     96  O   UNL A   1      41.222  37.243  41.025  1.00  0.00    -0.237 OA
ATOM     97  O   UNL A   1      43.353  36.170  40.444  1.00  0.00    -0.744 OA
ENDBRANCH  91  94
ENDBRANCH  64  87
ENDBRANCH  38  39
ENDBRANCH  31  33
ENDBRANCH  30  31
ENDBRANCH  29  30
ENDBRANCH  28  29
ENDBRANCH  27  28
ENDBRANCH  26  27
ENDBRANCH   1  26
TORSDOF 25
ENDMDL
