MODEL 1
REMARK VINA RESULT:      -7.8      0.000      0.000
REMARK SMILES COCc1cccc(C(=O)N2C[C@@H](O)C[C@@H]2C(=O)OCCOCCOCCOCCOC(=O)c2ccc(-c3c4nc(c(-c5cccc(S(=O)(=O)[O-])c5F)c5ccc([nH]5)c(-c5cccc(S(=O)(=O)[O-])c5F)c5nc(c(-c6cccc(S(=O)(=O)[O-])c6F)c6ccc3[nH]6)C=C5)C=C4)cc2)c1
REMARK SMILES IDX 24 1 23 2 22 3 21 4 20 5 19 6 17 7 18 8 16 9 11 10 12 11
REMARK SMILES IDX 13 12 15 13 9 14 10 15 8 16 4 17 5 18 97 19 6 20 7 21 3 22
REMARK SMILES IDX 2 23 1 24 14 25 25 27 26 28 27 29 28 30 29 31 30 32 31 33
REMARK SMILES IDX 32 34 33 35 34 36 35 37 96 38 36 39 95 40 37 41 38 42 39 43
REMARK SMILES IDX 89 44 40 45 94 46 88 47 90 48 41 49 93 50 87 51 86 52 42 54
REMARK SMILES IDX 74 55 54 56 73 57 55 58 58 59 72 60 91 61 56 62 57 63 71 65
REMARK SMILES IDX 92 66 59 67 43 68 44 69 52 70 45 71 47 72 53 73 46 74 48 75
REMARK SMILES IDX 49 76 50 77 51 78 75 79 76 80 84 81 77 82 79 83 85 84 78 85
REMARK SMILES IDX 80 86 81 87 82 88 83 89 60 90 61 91 69 92 62 93 64 94 70 95
REMARK SMILES IDX 63 96 65 97 66 98 67 99 68 100
REMARK H PARENT 14 26 90 53 58 64
REMARK Flexibility Score: inf
ROOT
ATOM      1  C   UNL A   1      39.784  21.827  25.943  1.00  0.00     0.188 C 
ENDROOT
BRANCH   1   2
ATOM      2  C   UNL A   1      38.609  20.860  25.714  1.00  0.00     0.188 C 
BRANCH   2   3
ATOM      3  O   UNL A   1      37.506  21.292  24.939  1.00  0.00    -0.376 OA
BRANCH   3   4
ATOM      4  C   UNL A   1      36.168  21.003  25.317  1.00  0.00     0.202 C 
BRANCH   4   5
ATOM      5  C   UNL A   1      34.883  21.493  24.609  1.00  0.00     0.261 C 
BRANCH   5   6
ATOM      6  O   UNL A   1      33.963  22.287  25.361  1.00  0.00    -0.462 OA
BRANCH   6   7
ATOM      7  C   UNL A   1      33.487  23.404  24.766  1.00  0.00     0.329 C 
ATOM      8  O   UNL A   1      34.177  24.342  24.389  1.00  0.00    -0.250 OA
BRANCH   7   9
ATOM      9  C   UNL A   1      31.962  23.329  24.594  1.00  0.00     0.198 C 
ATOM     10  N   UNL A   1      31.330  24.648  24.811  1.00  0.00    -0.322 N 
ATOM     11  C   UNL A   1      30.381  24.576  25.898  1.00  0.00     0.152 C 
ATOM     12  C   UNL A   1      30.921  23.434  26.749  1.00  0.00     0.136 C 
ATOM     13  C   UNL A   1      31.386  22.433  25.691  1.00  0.00     0.071 C 
BRANCH  10  14
ATOM     14  C   UNL A   1      31.319  25.684  23.896  1.00  0.00     0.254 C 
ATOM     15  O   UNL A   1      31.376  25.509  22.685  1.00  0.00    -0.269 OA
BRANCH  14  16
ATOM     16  C   UNL A   1      31.410  27.073  24.470  1.00  0.00     0.040 A 
ATOM     17  C   UNL A   1      32.565  28.677  25.923  1.00  0.00    -0.022 A 
ATOM     18  C   UNL A   1      31.790  29.704  25.375  1.00  0.00     0.006 A 
ATOM     19  C   UNL A   1      32.357  27.375  25.455  1.00  0.00     0.020 A 
ATOM     20  C   UNL A   1      30.836  29.426  24.388  1.00  0.00     0.001 A 
ATOM     21  C   UNL A   1      30.643  28.115  23.937  1.00  0.00     0.014 A 
BRANCH  17  22
ATOM     22  C   UNL A   1      33.550  28.938  27.043  1.00  0.00     0.195 C 
BRANCH  22  23
ATOM     23  O   UNL A   1      34.363  30.099  26.877  1.00  0.00    -0.380 OA
ATOM     24  C   UNL A   1      34.207  31.091  27.883  1.00  0.00     0.195 C 
ENDBRANCH  22  23
ENDBRANCH  17  22
ENDBRANCH  14  16
ENDBRANCH  10  14
BRANCH  12  25
ATOM     25  O   UNL A   1      29.948  22.899  27.623  1.00  0.00    -0.391 OA
ATOM     26  H   UNL A   1      29.725  21.996  27.345  1.00  0.00     0.211 HD
ENDBRANCH  12  25
ENDBRANCH   7   9
ENDBRANCH   6   7
ENDBRANCH   5   6
ENDBRANCH   4   5
ENDBRANCH   3   4
ENDBRANCH   2   3
ENDBRANCH   1   2
BRANCH   1  27
ATOM     27  O   UNL A   1      40.420  21.630  27.188  1.00  0.00    -0.377 OA
BRANCH  27  28
ATOM     28  C   UNL A   1      40.755  22.803  27.913  1.00  0.00     0.188 C 
BRANCH  28  29
ATOM     29  C   UNL A   1      41.038  24.115  27.144  1.00  0.00     0.188 C 
BRANCH  29  30
ATOM     30  O   UNL A   1      40.370  25.269  27.637  1.00  0.00    -0.376 OA
BRANCH  30  31
ATOM     31  C   UNL A   1      40.158  26.380  26.781  1.00  0.00     0.202 C 
BRANCH  31  32
ATOM     32  C   UNL A   1      40.416  27.790  27.336  1.00  0.00     0.261 C 
BRANCH  32  33
ATOM     33  O   UNL A   1      41.231  28.651  26.532  1.00  0.00    -0.460 OA
BRANCH  33  34
ATOM     34  C   UNL A   1      42.238  28.082  25.829  1.00  0.00     0.338 C 
ATOM     35  O   UNL A   1      42.364  28.052  24.625  1.00  0.00    -0.246 OA
BRANCH  34  36
ATOM     36  C   UNL A   1      43.284  27.691  26.802  1.00  0.00     0.060 A 
ATOM     37  C   UNL A   1      43.744  28.646  27.719  1.00  0.00     0.016 A 
ATOM     38  C   UNL A   1      43.779  26.385  26.831  1.00  0.00     0.016 A 
ATOM     39  C   UNL A   1      44.729  28.307  28.644  1.00  0.00     0.010 A 
ATOM     40  C   UNL A   1      44.785  26.054  27.741  1.00  0.00     0.010 A 
ATOM     41  C   UNL A   1      45.290  27.025  28.624  1.00  0.00    -0.014 A 
BRANCH  41  42
ATOM     42  C   UNL A   1      46.547  26.769  29.366  1.00  0.00     0.031 A 
ATOM     43  C   UNL A   1      47.848  27.072  28.677  1.00  0.00     0.074 A 
ATOM     44  C   UNL A   1      46.539  26.286  30.620  1.00  0.00     0.049 A 
ATOM     45  N   UNL A   1      49.072  26.893  29.097  1.00  0.00    -0.248 NA
ATOM     46  C   UNL A   1      47.753  27.652  27.325  1.00  0.00     0.031 C 
ATOM     47  C   UNL A   1      45.343  25.967  31.396  1.00  0.00     0.029 A 
ATOM     48  N   UNL A   1      47.581  25.954  31.448  1.00  0.00    -0.354 N 
ATOM     49  C   UNL A   1      49.891  27.310  28.055  1.00  0.00     0.074 A 
ATOM     50  C   UNL A   1      49.027  27.734  26.977  1.00  0.00     0.031 C 
ATOM     51  C   UNL A   1      45.719  25.448  32.578  1.00  0.00     0.029 A 
ATOM     52  C   UNL A   1      47.179  25.372  32.627  1.00  0.00     0.049 A 
ATOM     53  H   UNL A   1      48.524  26.116  31.220  1.00  0.00     0.167 HD
ATOM     54  C   UNL A   1      51.243  27.350  28.004  1.00  0.00     0.034 A 
ATOM     55  C   UNL A   1      47.907  24.816  33.615  1.00  0.00     0.034 A 
ATOM     56  C   UNL A   1      52.099  26.926  29.078  1.00  0.00     0.049 A 
ATOM     57  C   UNL A   1      49.412  24.832  33.522  1.00  0.00     0.074 A 
ATOM     58  C   UNL A   1      53.481  26.957  29.139  1.00  0.00     0.029 A 
ATOM     59  N   UNL A   1      51.657  26.376  30.271  1.00  0.00    -0.354 N 
ATOM     60  N   UNL A   1      50.176  25.323  32.577  1.00  0.00    -0.248 NA
ATOM     61  C   UNL A   1      50.155  24.246  34.648  1.00  0.00     0.031 C 
ATOM     62  C   UNL A   1      53.876  26.387  30.354  1.00  0.00     0.029 A 
ATOM     63  C   UNL A   1      52.739  26.047  31.070  1.00  0.00     0.049 A 
ATOM     64  H   UNL A   1      50.713  26.238  30.513  1.00  0.00     0.167 HD
ATOM     65  C   UNL A   1      51.487  25.139  33.008  1.00  0.00     0.074 A 
ATOM     66  C   UNL A   1      51.410  24.507  34.309  1.00  0.00     0.031 C 
ATOM     67  C   UNL A   1      52.647  25.456  32.381  1.00  0.00     0.034 A 
BRANCH  54  68
ATOM     68  C   UNL A   1      51.873  27.872  26.739  1.00  0.00     0.023 A 
ATOM     69  C   UNL A   1      52.262  29.224  26.653  1.00  0.00     0.012 A 
ATOM     70  C   UNL A   1      52.103  27.018  25.643  1.00  0.00     0.148 A 
ATOM     71  C   UNL A   1      52.830  29.729  25.485  1.00  0.00     0.002 A 
ATOM     72  C   UNL A   1      52.716  27.515  24.500  1.00  0.00     0.091 A 
ATOM     73  F   UNL A   1      51.704  25.741  25.733  1.00  0.00    -0.205 F 
ATOM     74  C   UNL A   1      53.065  28.872  24.412  1.00  0.00     0.022 A 
BRANCH  72  75
ATOM     75  S   UNL A   1      53.135  26.475  23.097  1.00  0.00     0.127 S 
ATOM     76  O   UNL A   1      53.530  25.233  23.758  1.00  0.00    -0.237 OA
ATOM     77  O   UNL A   1      51.862  26.404  22.379  1.00  0.00    -0.237 OA
ATOM     78  O   UNL A   1      54.198  27.170  22.384  1.00  0.00    -0.744 OA
ENDBRANCH  72  75
ENDBRANCH  54  68
BRANCH  55  79
ATOM     79  C   UNL A   1      47.219  24.205  34.789  1.00  0.00     0.023 A 
ATOM     80  C   UNL A   1      46.611  25.030  35.753  1.00  0.00     0.012 A 
ATOM     81  C   UNL A   1      47.148  22.806  34.937  1.00  0.00     0.148 A 
ATOM     82  C   UNL A   1      45.968  24.474  36.860  1.00  0.00     0.002 A 
ATOM     83  C   UNL A   1      46.456  22.257  36.010  1.00  0.00     0.091 A 
ATOM     84  F   UNL A   1      47.746  22.039  34.014  1.00  0.00    -0.205 F 
ATOM     85  C   UNL A   1      45.881  23.089  36.982  1.00  0.00     0.022 A 
BRANCH  83  86
ATOM     86  S   UNL A   1      46.181  20.491  36.181  1.00  0.00     0.127 S 
ATOM     87  O   UNL A   1      45.649  20.401  37.538  1.00  0.00    -0.237 OA
ATOM     88  O   UNL A   1      45.209  20.236  35.118  1.00  0.00    -0.237 OA
ATOM     89  O   UNL A   1      47.481  19.865  35.974  1.00  0.00    -0.744 OA
ENDBRANCH  83  86
ENDBRANCH  55  79
BRANCH  67  90
ATOM     90  C   UNL A   1      53.939  25.172  33.107  1.00  0.00     0.023 A 
ATOM     91  C   UNL A   1      54.619  23.957  32.894  1.00  0.00     0.012 A 
ATOM     92  C   UNL A   1      54.518  26.149  33.943  1.00  0.00     0.148 A 
ATOM     93  C   UNL A   1      55.835  23.703  33.529  1.00  0.00     0.002 A 
ATOM     94  C   UNL A   1      55.755  25.912  34.530  1.00  0.00     0.091 A 
ATOM     95  F   UNL A   1      53.849  27.294  34.145  1.00  0.00    -0.205 F 
ATOM     96  C   UNL A   1      56.408  24.684  34.337  1.00  0.00     0.022 A 
BRANCH  94  97
ATOM     97  S   UNL A   1      56.615  27.151  35.504  1.00  0.00     0.127 S 
ATOM     98  O   UNL A   1      55.718  27.309  36.646  1.00  0.00    -0.237 OA
ATOM     99  O   UNL A   1      57.879  26.481  35.809  1.00  0.00    -0.237 OA
ATOM    100  O   UNL A   1      56.742  28.322  34.646  1.00  0.00    -0.744 OA
ENDBRANCH  94  97
ENDBRANCH  67  90
ENDBRANCH  41  42
ENDBRANCH  34  36
ENDBRANCH  33  34
ENDBRANCH  32  33
ENDBRANCH  31  32
ENDBRANCH  30  31
ENDBRANCH  29  30
ENDBRANCH  28  29
ENDBRANCH  27  28
ENDBRANCH   1  27
TORSDOF 28
ENDMDL
MODEL 2
REMARK VINA RESULT:      -7.4      1.632      2.230
REMARK SMILES COCc1cccc(C(=O)N2C[C@@H](O)C[C@@H]2C(=O)OCCOCCOCCOCCOC(=O)c2ccc(-c3c4nc(c(-c5cccc(S(=O)(=O)[O-])c5F)c5ccc([nH]5)c(-c5cccc(S(=O)(=O)[O-])c5F)c5nc(c(-c6cccc(S(=O)(=O)[O-])c6F)c6ccc3[nH]6)C=C5)C=C4)cc2)c1
REMARK SMILES IDX 24 1 23 2 22 3 21 4 20 5 19 6 17 7 18 8 16 9 11 10 12 11
REMARK SMILES IDX 13 12 15 13 9 14 10 15 8 16 4 17 5 18 97 19 6 20 7 21 3 22
REMARK SMILES IDX 2 23 1 24 14 25 25 27 26 28 27 29 28 30 29 31 30 32 31 33
REMARK SMILES IDX 32 34 33 35 34 36 35 37 96 38 36 39 95 40 37 41 38 42 39 43
REMARK SMILES IDX 89 44 40 45 94 46 88 47 90 48 41 49 93 50 87 51 86 52 42 54
REMARK SMILES IDX 74 55 54 56 73 57 55 58 58 59 72 60 91 61 56 62 57 63 71 65
REMARK SMILES IDX 92 66 59 67 43 68 44 69 52 70 45 71 47 72 53 73 46 74 48 75
REMARK SMILES IDX 49 76 50 77 51 78 75 79 76 80 84 81 77 82 79 83 85 84 78 85
REMARK SMILES IDX 80 86 81 87 82 88 83 89 60 90 61 91 69 92 62 93 64 94 70 95
REMARK SMILES IDX 63 96 65 97 66 98 67 99 68 100
REMARK H PARENT 14 26 90 53 58 64
REMARK Flexibility Score: inf
ROOT
ATOM      1  C   UNL A   1      39.677  21.888  25.933  1.00  0.00     0.188 C 
ENDROOT
BRANCH   1   2
ATOM      2  C   UNL A   1      38.593  20.821  25.695  1.00  0.00     0.188 C 
BRANCH   2   3
ATOM      3  O   UNL A   1      37.476  21.145  24.889  1.00  0.00    -0.376 OA
BRANCH   3   4
ATOM      4  C   UNL A   1      36.151  21.112  25.400  1.00  0.00     0.202 C 
BRANCH   4   5
ATOM      5  C   UNL A   1      34.868  21.566  24.665  1.00  0.00     0.261 C 
BRANCH   5   6
ATOM      6  O   UNL A   1      34.017  22.508  25.322  1.00  0.00    -0.462 OA
BRANCH   6   7
ATOM      7  C   UNL A   1      33.475  23.483  24.556  1.00  0.00     0.329 C 
ATOM      8  O   UNL A   1      34.115  24.339  23.961  1.00  0.00    -0.250 OA
BRANCH   7   9
ATOM      9  C   UNL A   1      31.944  23.356  24.505  1.00  0.00     0.198 C 
ATOM     10  N   UNL A   1      31.287  24.645  24.808  1.00  0.00    -0.322 N 
ATOM     11  C   UNL A   1      30.432  24.511  25.965  1.00  0.00     0.152 C 
ATOM     12  C   UNL A   1      31.078  23.369  26.739  1.00  0.00     0.136 C 
ATOM     13  C   UNL A   1      31.491  22.413  25.620  1.00  0.00     0.071 C 
BRANCH  10  14
ATOM     14  C   UNL A   1      31.166  25.702  23.925  1.00  0.00     0.254 C 
ATOM     15  O   UNL A   1      31.149  25.560  22.709  1.00  0.00    -0.269 OA
BRANCH  14  16
ATOM     16  C   UNL A   1      31.231  27.079  24.530  1.00  0.00     0.040 A 
ATOM     17  C   UNL A   1      32.225  28.611  26.169  1.00  0.00    -0.022 A 
ATOM     18  C   UNL A   1      31.588  29.679  25.528  1.00  0.00     0.006 A 
ATOM     19  C   UNL A   1      32.031  27.325  25.652  1.00  0.00     0.020 A 
ATOM     20  C   UNL A   1      30.783  29.457  24.405  1.00  0.00     0.001 A 
ATOM     21  C   UNL A   1      30.602  28.161  23.907  1.00  0.00     0.014 A 
BRANCH  17  22
ATOM     22  C   UNL A   1      33.040  28.814  27.429  1.00  0.00     0.195 C 
BRANCH  22  23
ATOM     23  O   UNL A   1      34.454  28.842  27.239  1.00  0.00    -0.380 OA
ATOM     24  C   UNL A   1      35.051  30.126  27.357  1.00  0.00     0.195 C 
ENDBRANCH  22  23
ENDBRANCH  17  22
ENDBRANCH  14  16
ENDBRANCH  10  14
BRANCH  12  25
ATOM     25  O   UNL A   1      30.198  22.778  27.673  1.00  0.00    -0.391 OA
ATOM     26  H   UNL A   1      29.992  21.872  27.394  1.00  0.00     0.211 HD
ENDBRANCH  12  25
ENDBRANCH   7   9
ENDBRANCH   6   7
ENDBRANCH   5   6
ENDBRANCH   4   5
ENDBRANCH   3   4
ENDBRANCH   2   3
ENDBRANCH   1   2
BRANCH   1  27
ATOM     27  O   UNL A   1      40.313  21.753  27.186  1.00  0.00    -0.377 OA
BRANCH  27  28
ATOM     28  C   UNL A   1      40.482  22.947  27.934  1.00  0.00     0.188 C 
BRANCH  28  29
ATOM     29  C   UNL A   1      40.830  24.261  27.195  1.00  0.00     0.188 C 
BRANCH  29  30
ATOM     30  O   UNL A   1      40.317  25.449  27.787  1.00  0.00    -0.376 OA
BRANCH  30  31
ATOM     31  C   UNL A   1      40.319  26.660  27.049  1.00  0.00     0.202 C 
BRANCH  31  32
ATOM     32  C   UNL A   1      40.880  27.924  27.722  1.00  0.00     0.261 C 
BRANCH  32  33
ATOM     33  O   UNL A   1      41.722  28.755  26.913  1.00  0.00    -0.460 OA
BRANCH  33  34
ATOM     34  C   UNL A   1      42.554  28.142  26.040  1.00  0.00     0.338 C 
ATOM     35  O   UNL A   1      42.395  28.012  24.846  1.00  0.00    -0.246 OA
BRANCH  34  36
ATOM     36  C   UNL A   1      43.811  27.848  26.767  1.00  0.00     0.060 A 
ATOM     37  C   UNL A   1      44.384  28.854  27.557  1.00  0.00     0.016 A 
ATOM     38  C   UNL A   1      44.397  26.582  26.696  1.00  0.00     0.016 A 
ATOM     39  C   UNL A   1      45.567  28.606  28.250  1.00  0.00     0.010 A 
ATOM     40  C   UNL A   1      45.597  26.345  27.368  1.00  0.00     0.010 A 
ATOM     41  C   UNL A   1      46.205  27.369  28.116  1.00  0.00    -0.014 A 
BRANCH  41  42
ATOM     42  C   UNL A   1      47.608  27.220  28.571  1.00  0.00     0.031 A 
ATOM     43  C   UNL A   1      48.704  27.593  27.612  1.00  0.00     0.074 A 
ATOM     44  C   UNL A   1      47.905  26.772  29.803  1.00  0.00     0.049 A 
ATOM     45  N   UNL A   1      49.999  27.510  27.759  1.00  0.00    -0.248 NA
ATOM     46  C   UNL A   1      48.278  28.127  26.307  1.00  0.00     0.031 C 
ATOM     47  C   UNL A   1      46.931  26.393  30.823  1.00  0.00     0.029 A 
ATOM     48  N   UNL A   1      49.123  26.535  30.389  1.00  0.00    -0.354 N 
ATOM     49  C   UNL A   1      50.542  27.952  26.559  1.00  0.00     0.074 A 
ATOM     50  C   UNL A   1      49.438  28.287  25.689  1.00  0.00     0.031 C 
ATOM     51  C   UNL A   1      47.590  25.934  31.902  1.00  0.00     0.029 A 
ATOM     52  C   UNL A   1      49.028  25.960  31.634  1.00  0.00     0.049 A 
ATOM     53  H   UNL A   1      49.981  26.755  29.960  1.00  0.00     0.167 HD
ATOM     54  C   UNL A   1      51.845  28.083  26.215  1.00  0.00     0.034 A 
ATOM     55  C   UNL A   1      49.990  25.482  32.447  1.00  0.00     0.034 A 
ATOM     56  C   UNL A   1      52.940  27.750  27.083  1.00  0.00     0.049 A 
ATOM     57  C   UNL A   1      51.435  25.599  32.029  1.00  0.00     0.074 A 
ATOM     58  C   UNL A   1      54.298  27.877  26.843  1.00  0.00     0.029 A 
ATOM     59  N   UNL A   1      52.808  27.204  28.350  1.00  0.00    -0.354 N 
ATOM     60  N   UNL A   1      51.940  26.115  30.935  1.00  0.00    -0.248 NA
ATOM     61  C   UNL A   1      52.443  25.097  32.974  1.00  0.00     0.031 C 
ATOM     62  C   UNL A   1      54.985  27.370  27.950  1.00  0.00     0.029 A 
ATOM     63  C   UNL A   1      54.057  26.972  28.900  1.00  0.00     0.049 A 
ATOM     64  H   UNL A   1      51.951  27.008  28.794  1.00  0.00     0.167 HD
ATOM     65  C   UNL A   1      53.322  26.034  31.074  1.00  0.00     0.074 A 
ATOM     66  C   UNL A   1      53.574  25.434  32.368  1.00  0.00     0.031 C 
ATOM     67  C   UNL A   1      54.294  26.412  30.207  1.00  0.00     0.034 A 
BRANCH  54  68
ATOM     68  C   UNL A   1      52.147  28.613  24.838  1.00  0.00     0.023 A 
ATOM     69  C   UNL A   1      52.270  30.002  24.629  1.00  0.00     0.012 A 
ATOM     70  C   UNL A   1      52.336  27.734  23.754  1.00  0.00     0.148 A 
ATOM     71  C   UNL A   1      52.532  30.510  23.358  1.00  0.00     0.002 A 
ATOM     72  C   UNL A   1      52.647  28.244  22.500  1.00  0.00     0.091 A 
ATOM     73  F   UNL A   1      52.191  26.418  23.966  1.00  0.00    -0.205 F 
ATOM     74  C   UNL A   1      52.729  29.631  22.296  1.00  0.00     0.022 A 
BRANCH  72  75
ATOM     75  S   UNL A   1      52.999  27.192  21.088  1.00  0.00     0.127 S 
ATOM     76  O   UNL A   1      51.744  26.456  20.947  1.00  0.00    -0.237 OA
ATOM     77  O   UNL A   1      53.252  28.173  20.032  1.00  0.00    -0.237 OA
ATOM     78  O   UNL A   1      54.156  26.389  21.462  1.00  0.00    -0.744 OA
ENDBRANCH  72  75
ENDBRANCH  54  68
BRANCH  55  79
ATOM     79  C   UNL A   1      49.618  24.859  33.749  1.00  0.00     0.023 A 
ATOM     80  C   UNL A   1      49.218  25.670  34.827  1.00  0.00     0.012 A 
ATOM     81  C   UNL A   1      49.639  23.460  33.912  1.00  0.00     0.148 A 
ATOM     82  C   UNL A   1      48.871  25.101  36.054  1.00  0.00     0.002 A 
ATOM     83  C   UNL A   1      49.238  22.896  35.117  1.00  0.00     0.091 A 
ATOM     84  F   UNL A   1      50.037  22.706  32.877  1.00  0.00    -0.205 F 
ATOM     85  C   UNL A   1      48.870  23.716  36.195  1.00  0.00     0.022 A 
BRANCH  83  86
ATOM     86  S   UNL A   1      49.080  21.123  35.350  1.00  0.00     0.127 S 
ATOM     87  O   UNL A   1      48.439  20.712  34.104  1.00  0.00    -0.237 OA
ATOM     88  O   UNL A   1      50.479  20.715  35.489  1.00  0.00    -0.237 OA
ATOM     89  O   UNL A   1      48.279  20.950  36.555  1.00  0.00    -0.744 OA
ENDBRANCH  83  86
ENDBRANCH  55  79
BRANCH  67  90
ATOM     90  C   UNL A   1      55.729  26.238  30.638  1.00  0.00     0.023 A 
ATOM     91  C   UNL A   1      56.441  25.077  30.278  1.00  0.00     0.012 A 
ATOM     92  C   UNL A   1      56.394  27.266  31.336  1.00  0.00     0.148 A 
ATOM     93  C   UNL A   1      57.780  24.925  30.638  1.00  0.00     0.002 A 
ATOM     94  C   UNL A   1      57.743  27.132  31.644  1.00  0.00     0.091 A 
ATOM     95  F   UNL A   1      55.697  28.358  31.682  1.00  0.00    -0.205 F 
ATOM     96  C   UNL A   1      58.434  25.956  31.310  1.00  0.00     0.022 A 
BRANCH  94  97
ATOM     97  S   UNL A   1      58.692  28.446  32.419  1.00  0.00     0.127 S 
ATOM     98  O   UNL A   1      60.019  27.841  32.510  1.00  0.00    -0.237 OA
ATOM     99  O   UNL A   1      58.580  29.526  31.438  1.00  0.00    -0.237 OA
ATOM    100  O   UNL A   1      58.041  28.716  33.694  1.00  0.00    -0.744 OA
ENDBRANCH  94  97
ENDBRANCH  67  90
ENDBRANCH  41  42
ENDBRANCH  34  36
ENDBRANCH  33  34
ENDBRANCH  32  33
ENDBRANCH  31  32
ENDBRANCH  30  31
ENDBRANCH  29  30
ENDBRANCH  28  29
ENDBRANCH  27  28
ENDBRANCH   1  27
TORSDOF 28
ENDMDL
MODEL 3
REMARK VINA RESULT:      -7.2      6.419     11.001
REMARK SMILES COCc1cccc(C(=O)N2C[C@@H](O)C[C@@H]2C(=O)OCCOCCOCCOCCOC(=O)c2ccc(-c3c4nc(c(-c5cccc(S(=O)(=O)[O-])c5F)c5ccc([nH]5)c(-c5cccc(S(=O)(=O)[O-])c5F)c5nc(c(-c6cccc(S(=O)(=O)[O-])c6F)c6ccc3[nH]6)C=C5)C=C4)cc2)c1
REMARK SMILES IDX 24 1 23 2 22 3 21 4 20 5 19 6 17 7 18 8 16 9 11 10 12 11
REMARK SMILES IDX 13 12 15 13 9 14 10 15 8 16 4 17 5 18 97 19 6 20 7 21 3 22
REMARK SMILES IDX 2 23 1 24 14 25 25 27 26 28 27 29 28 30 29 31 30 32 31 33
REMARK SMILES IDX 32 34 33 35 34 36 35 37 96 38 36 39 95 40 37 41 38 42 39 43
REMARK SMILES IDX 89 44 40 45 94 46 88 47 90 48 41 49 93 50 87 51 86 52 42 54
REMARK SMILES IDX 74 55 54 56 73 57 55 58 58 59 72 60 91 61 56 62 57 63 71 65
REMARK SMILES IDX 92 66 59 67 43 68 44 69 52 70 45 71 47 72 53 73 46 74 48 75
REMARK SMILES IDX 49 76 50 77 51 78 75 79 76 80 84 81 77 82 79 83 85 84 78 85
REMARK SMILES IDX 80 86 81 87 82 88 83 89 60 90 61 91 69 92 62 93 64 94 70 95
REMARK SMILES IDX 63 96 65 97 66 98 67 99 68 100
REMARK H PARENT 14 26 90 53 58 64
REMARK Flexibility Score: inf
ROOT
ATOM      1  C   UNL A   1      43.857  23.061  33.598  1.00  0.00     0.188 C 
ENDROOT
BRANCH   1   2
ATOM      2  C   UNL A   1      44.851  24.186  33.260  1.00  0.00     0.188 C 
BRANCH   2   3
ATOM      3  O   UNL A   1      44.438  25.230  32.398  1.00  0.00    -0.376 OA
BRANCH   3   4
ATOM      4  C   UNL A   1      44.418  25.068  30.987  1.00  0.00     0.202 C 
BRANCH   4   5
ATOM      5  C   UNL A   1      45.494  25.555  29.988  1.00  0.00     0.261 C 
BRANCH   5   6
ATOM      6  O   UNL A   1      45.075  25.899  28.665  1.00  0.00    -0.462 OA
BRANCH   6   7
ATOM      7  C   UNL A   1      45.056  24.904  27.749  1.00  0.00     0.329 C 
ATOM      8  O   UNL A   1      45.718  23.878  27.819  1.00  0.00    -0.250 OA
BRANCH   7   9
ATOM      9  C   UNL A   1      44.062  25.216  26.619  1.00  0.00     0.198 C 
ATOM     10  N   UNL A   1      42.708  24.717  26.939  1.00  0.00    -0.322 N 
ATOM     11  C   UNL A   1      42.274  23.769  25.938  1.00  0.00     0.152 C 
ATOM     12  C   UNL A   1      43.587  23.203  25.411  1.00  0.00     0.136 C 
ATOM     13  C   UNL A   1      44.480  24.442  25.368  1.00  0.00     0.071 C 
BRANCH  10  14
ATOM     14  C   UNL A   1      41.820  25.328  27.803  1.00  0.00     0.254 C 
ATOM     15  O   UNL A   1      41.383  24.784  28.810  1.00  0.00    -0.269 OA
BRANCH  14  16
ATOM     16  C   UNL A   1      41.267  26.654  27.354  1.00  0.00     0.040 A 
ATOM     17  C   UNL A   1      39.573  28.415  27.586  1.00  0.00    -0.022 A 
ATOM     18  C   UNL A   1      40.335  29.233  26.745  1.00  0.00     0.006 A 
ATOM     19  C   UNL A   1      40.059  27.134  27.874  1.00  0.00     0.020 A 
ATOM     20  C   UNL A   1      41.546  28.774  26.213  1.00  0.00     0.001 A 
ATOM     21  C   UNL A   1      42.011  27.488  26.513  1.00  0.00     0.014 A 
BRANCH  17  22
ATOM     22  C   UNL A   1      38.225  28.857  28.115  1.00  0.00     0.195 C 
BRANCH  22  23
ATOM     23  O   UNL A   1      38.037  28.681  29.518  1.00  0.00    -0.380 OA
ATOM     24  C   UNL A   1      37.877  29.884  30.259  1.00  0.00     0.195 C 
ENDBRANCH  22  23
ENDBRANCH  17  22
ENDBRANCH  14  16
ENDBRANCH  10  14
BRANCH  12  25
ATOM     25  O   UNL A   1      43.444  22.583  24.149  1.00  0.00    -0.391 OA
ATOM     26  H   UNL A   1      42.559  22.190  24.080  1.00  0.00     0.211 HD
ENDBRANCH  12  25
ENDBRANCH   7   9
ENDBRANCH   6   7
ENDBRANCH   5   6
ENDBRANCH   4   5
ENDBRANCH   3   4
ENDBRANCH   2   3
ENDBRANCH   1   2
BRANCH   1  27
ATOM     27  O   UNL A   1      42.838  23.476  34.483  1.00  0.00    -0.377 OA
BRANCH  27  28
ATOM     28  C   UNL A   1      43.268  24.001  35.729  1.00  0.00     0.188 C 
BRANCH  28  29
ATOM     29  C   UNL A   1      42.803  25.412  36.159  1.00  0.00     0.188 C 
BRANCH  29  30
ATOM     30  O   UNL A   1      41.423  25.689  35.954  1.00  0.00    -0.376 OA
BRANCH  30  31
ATOM     31  C   UNL A   1      41.030  26.593  34.934  1.00  0.00     0.202 C 
BRANCH  31  32
ATOM     32  C   UNL A   1      41.569  28.032  34.986  1.00  0.00     0.261 C 
BRANCH  32  33
ATOM     33  O   UNL A   1      40.954  28.974  34.099  1.00  0.00    -0.460 OA
BRANCH  33  34
ATOM     34  C   UNL A   1      40.754  28.590  32.818  1.00  0.00     0.338 C 
ATOM     35  O   UNL A   1      39.767  28.058  32.358  1.00  0.00    -0.246 OA
BRANCH  34  36
ATOM     36  C   UNL A   1      41.875  29.137  32.017  1.00  0.00     0.060 A 
ATOM     37  C   UNL A   1      42.963  29.714  32.687  1.00  0.00     0.016 A 
ATOM     38  C   UNL A   1      41.866  29.048  30.624  1.00  0.00     0.016 A 
ATOM     39  C   UNL A   1      44.030  30.237  31.961  1.00  0.00     0.010 A 
ATOM     40  C   UNL A   1      42.923  29.599  29.896  1.00  0.00     0.010 A 
ATOM     41  C   UNL A   1      43.990  30.230  30.562  1.00  0.00    -0.014 A 
BRANCH  41  42
ATOM     42  C   UNL A   1      44.943  31.071  29.802  1.00  0.00     0.031 A 
ATOM     43  C   UNL A   1      46.296  30.495  29.485  1.00  0.00     0.074 A 
ATOM     44  C   UNL A   1      44.621  32.310  29.395  1.00  0.00     0.049 A 
ATOM     45  N   UNL A   1      47.311  31.045  28.875  1.00  0.00    -0.248 NA
ATOM     46  C   UNL A   1      46.535  29.108  29.923  1.00  0.00     0.031 C 
ATOM     47  C   UNL A   1      43.339  32.970  29.628  1.00  0.00     0.029 A 
ATOM     48  N   UNL A   1      45.367  33.244  28.720  1.00  0.00    -0.354 N 
ATOM     49  C   UNL A   1      48.317  30.087  28.881  1.00  0.00     0.074 A 
ATOM     50  C   UNL A   1      47.798  28.928  29.570  1.00  0.00     0.031 C 
ATOM     51  C   UNL A   1      43.400  34.220  29.137  1.00  0.00     0.029 A 
ATOM     52  C   UNL A   1      44.732  34.455  28.583  1.00  0.00     0.049 A 
ATOM     53  H   UNL A   1      46.268  33.063  28.370  1.00  0.00     0.167 HD
ATOM     54  C   UNL A   1      49.560  30.160  28.349  1.00  0.00     0.034 A 
ATOM     55  C   UNL A   1      45.189  35.625  28.095  1.00  0.00     0.034 A 
ATOM     56  C   UNL A   1      50.073  31.315  27.666  1.00  0.00     0.049 A 
ATOM     57  C   UNL A   1      46.591  35.699  27.543  1.00  0.00     0.074 A 
ATOM     58  C   UNL A   1      51.306  31.478  27.060  1.00  0.00     0.029 A 
ATOM     59  N   UNL A   1      49.391  32.512  27.514  1.00  0.00    -0.354 N 
ATOM     60  N   UNL A   1      47.497  34.755  27.461  1.00  0.00    -0.248 NA
ATOM     61  C   UNL A   1      47.020  36.990  26.987  1.00  0.00     0.031 C 
ATOM     62  C   UNL A   1      51.384  32.789  26.578  1.00  0.00     0.029 A 
ATOM     63  C   UNL A   1      50.182  33.426  26.839  1.00  0.00     0.049 A 
ATOM     64  H   UNL A   1      48.478  32.687  27.839  1.00  0.00     0.167 HD
ATOM     65  C   UNL A   1      48.589  35.326  26.813  1.00  0.00     0.074 A 
ATOM     66  C   UNL A   1      48.221  36.694  26.510  1.00  0.00     0.031 C 
ATOM     67  C   UNL A   1      49.788  34.772  26.506  1.00  0.00     0.034 A 
BRANCH  54  68
ATOM     68  C   UNL A   1      50.444  28.949  28.489  1.00  0.00     0.023 A 
ATOM     69  C   UNL A   1      51.302  28.828  29.602  1.00  0.00     0.012 A 
ATOM     70  C   UNL A   1      50.408  27.916  27.532  1.00  0.00     0.148 A 
ATOM     71  C   UNL A   1      52.140  27.723  29.738  1.00  0.00     0.002 A 
ATOM     72  C   UNL A   1      51.208  26.793  27.700  1.00  0.00     0.091 A 
ATOM     73  F   UNL A   1      49.604  28.059  26.468  1.00  0.00    -0.205 F 
ATOM     74  C   UNL A   1      52.086  26.702  28.793  1.00  0.00     0.022 A 
BRANCH  72  75
ATOM     75  S   UNL A   1      51.152  25.389  26.583  1.00  0.00     0.127 S 
ATOM     76  O   UNL A   1      52.498  24.839  26.732  1.00  0.00    -0.237 OA
ATOM     77  O   UNL A   1      50.091  24.571  27.172  1.00  0.00    -0.237 OA
ATOM     78  O   UNL A   1      50.842  25.933  25.268  1.00  0.00    -0.744 OA
ENDBRANCH  72  75
ENDBRANCH  54  68
BRANCH  55  79
ATOM     79  C   UNL A   1      44.302  36.824  28.094  1.00  0.00     0.023 A 
ATOM     80  C   UNL A   1      43.296  36.952  27.118  1.00  0.00     0.012 A 
ATOM     81  C   UNL A   1      44.441  37.826  29.074  1.00  0.00     0.148 A 
ATOM     82  C   UNL A   1      42.462  38.071  27.101  1.00  0.00     0.002 A 
ATOM     83  C   UNL A   1      43.571  38.909  29.087  1.00  0.00     0.091 A 
ATOM     84  F   UNL A   1      45.415  37.691  29.985  1.00  0.00    -0.205 F 
ATOM     85  C   UNL A   1      42.591  39.042  28.091  1.00  0.00     0.022 A 
BRANCH  83  86
ATOM     86  S   UNL A   1      43.578  40.139  30.394  1.00  0.00     0.127 S 
ATOM     87  O   UNL A   1      44.832  40.842  30.138  1.00  0.00    -0.237 OA
ATOM     88  O   UNL A   1      42.368  40.905  30.090  1.00  0.00    -0.237 OA
ATOM     89  O   UNL A   1      43.521  39.393  31.644  1.00  0.00    -0.744 OA
ENDBRANCH  83  86
ENDBRANCH  55  79
BRANCH  67  90
ATOM     90  C   UNL A   1      50.786  35.624  25.761  1.00  0.00     0.023 A 
ATOM     91  C   UNL A   1      50.882  35.539  24.358  1.00  0.00     0.012 A 
ATOM     92  C   UNL A   1      51.576  36.566  26.451  1.00  0.00     0.148 A 
ATOM     93  C   UNL A   1      51.773  36.352  23.657  1.00  0.00     0.002 A 
ATOM     94  C   UNL A   1      52.422  37.410  25.742  1.00  0.00     0.091 A 
ATOM     95  F   UNL A   1      51.481  36.622  27.787  1.00  0.00    -0.205 F 
ATOM     96  C   UNL A   1      52.534  37.295  24.347  1.00  0.00     0.022 A 
BRANCH  94  97
ATOM     97  S   UNL A   1      53.364  38.719  26.532  1.00  0.00     0.127 S 
ATOM     98  O   UNL A   1      54.363  37.958  27.279  1.00  0.00    -0.237 OA
ATOM     99  O   UNL A   1      53.892  39.456  25.384  1.00  0.00    -0.237 OA
ATOM    100  O   UNL A   1      52.414  39.465  27.346  1.00  0.00    -0.744 OA
ENDBRANCH  94  97
ENDBRANCH  67  90
ENDBRANCH  41  42
ENDBRANCH  34  36
ENDBRANCH  33  34
ENDBRANCH  32  33
ENDBRANCH  31  32
ENDBRANCH  30  31
ENDBRANCH  29  30
ENDBRANCH  28  29
ENDBRANCH  27  28
ENDBRANCH   1  27
TORSDOF 28
ENDMDL
