MODEL 1
REMARK VINA RESULT:     -10.8      0.000      0.000
REMARK SMILES O=C(OCCOCCOCCOCCOC(=O)[C@@H](c1cccc(O)c1)[NH+]1CC[NH+](C2CCCC2)CC1)c1ccc(-c2c3nc(c(-c4cccc(S(=O)(=O)[O-])c4F)c4ccc([nH]4)c(-c4cccc(S(=O)(=O)[O-])c4F)c4nc(c(-c5cccc(S(=O)(=O)[O-])c5F)c5ccc2[nH]5)C=C4)C=C3)cc1
REMARK SMILES IDX 8 1 7 2 6 3 5 4 4 5 3 6 2 7 1 8 37 9 38 10 99 11 39 12 98 13
REMARK SMILES IDX 40 14 41 15 42 16 92 17 43 18 97 19 91 20 93 21 44 22 96 23
REMARK SMILES IDX 90 24 89 25 45 27 77 28 57 29 76 30 58 31 61 32 75 33 94 34
REMARK SMILES IDX 59 35 60 36 74 38 95 39 62 40 46 41 47 42 55 43 48 44 50 45
REMARK SMILES IDX 56 46 49 47 51 48 52 49 53 50 54 51 78 52 79 53 87 54 80 55
REMARK SMILES IDX 82 56 88 57 81 58 83 59 84 60 85 61 86 62 63 63 64 64 72 65
REMARK SMILES IDX 65 66 67 67 73 68 66 69 68 70 69 71 70 72 71 73 9 74 10 75
REMARK SMILES IDX 11 76 12 77 13 78 14 79 15 80 16 81 17 82 18 83 19 84 20 85
REMARK SMILES IDX 25 86 21 87 23 88 22 89 24 90 26 92 27 93 36 94 28 96 35 97
REMARK SMILES IDX 29 98 30 100 31 101 34 102 32 103 33 104
REMARK H PARENT 93 26 61 37 24 91 26 95 29 99
REMARK Flexibility Score: inf
ROOT
ATOM      1  C   UNL A   1      35.252  22.554  25.607  1.00  0.00     0.188 C 
ENDROOT
BRANCH   1   2
ATOM      2  C   UNL A   1      36.438  23.257  25.006  1.00  0.00     0.188 C 
BRANCH   2   3
ATOM      3  O   UNL A   1      37.377  22.253  24.683  1.00  0.00    -0.376 OA
BRANCH   3   4
ATOM      4  C   UNL A   1      36.960  20.921  24.675  1.00  0.00     0.202 C 
BRANCH   4   5
ATOM      5  C   UNL A   1      38.139  20.002  24.954  1.00  0.00     0.261 C 
BRANCH   5   6
ATOM      6  O   UNL A   1      38.731  20.351  26.228  1.00  0.00    -0.460 OA
BRANCH   6   7
ATOM      7  C   UNL A   1      40.030  20.668  26.480  1.00  0.00     0.338 C 
ATOM      8  O   UNL A   1      40.920  19.867  26.212  1.00  0.00    -0.246 OA
BRANCH   7   9
ATOM      9  C   UNL A   1      40.399  22.005  27.003  1.00  0.00     0.060 A 
ATOM     10  C   UNL A   1      39.799  23.171  26.551  1.00  0.00     0.016 A 
ATOM     11  C   UNL A   1      41.345  22.106  28.024  1.00  0.00     0.016 A 
ATOM     12  C   UNL A   1      40.281  24.409  26.874  1.00  0.00     0.010 A 
ATOM     13  C   UNL A   1      41.738  23.369  28.486  1.00  0.00     0.010 A 
ATOM     14  C   UNL A   1      41.243  24.525  27.862  1.00  0.00    -0.014 A 
BRANCH  14  15
ATOM     15  C   UNL A   1      41.770  25.879  28.082  1.00  0.00     0.031 A 
ATOM     16  C   UNL A   1      43.064  26.237  27.422  1.00  0.00     0.074 A 
ATOM     17  C   UNL A   1      40.991  26.801  28.682  1.00  0.00     0.049 A 
ATOM     18  N   UNL A   1      43.755  27.335  27.514  1.00  0.00    -0.248 NA
ATOM     19  C   UNL A   1      43.657  25.224  26.527  1.00  0.00     0.031 C 
ATOM     20  C   UNL A   1      39.640  26.558  29.211  1.00  0.00     0.029 A 
ATOM     21  N   UNL A   1      41.194  28.133  28.911  1.00  0.00    -0.354 N 
ATOM     22  C   UNL A   1      44.896  27.120  26.755  1.00  0.00     0.074 A 
ATOM     23  C   UNL A   1      44.803  25.794  26.193  1.00  0.00     0.031 C 
ATOM     24  C   UNL A   1      39.133  27.706  29.683  1.00  0.00     0.029 A 
ATOM     25  C   UNL A   1      40.161  28.731  29.594  1.00  0.00     0.049 A 
ATOM     26  H   UNL A   1      42.001  28.616  28.619  1.00  0.00     0.167 HD
ATOM     27  C   UNL A   1      45.929  27.966  26.556  1.00  0.00     0.034 A 
ATOM     28  C   UNL A   1      40.091  29.955  30.149  1.00  0.00     0.034 A 
ATOM     29  C   UNL A   1      45.964  29.286  27.116  1.00  0.00     0.049 A 
ATOM     30  C   UNL A   1      41.288  30.846  29.979  1.00  0.00     0.074 A 
ATOM     31  C   UNL A   1      46.975  30.222  27.065  1.00  0.00     0.029 A 
ATOM     32  N   UNL A   1      44.919  29.853  27.836  1.00  0.00    -0.354 N 
ATOM     33  N   UNL A   1      42.395  30.619  29.308  1.00  0.00    -0.248 NA
ATOM     34  C   UNL A   1      41.233  32.158  30.628  1.00  0.00     0.031 C 
ATOM     35  C   UNL A   1      46.550  31.350  27.778  1.00  0.00     0.029 A 
ATOM     36  C   UNL A   1      45.258  31.131  28.235  1.00  0.00     0.049 A 
ATOM     37  H   UNL A   1      44.062  29.410  28.032  1.00  0.00     0.167 HD
ATOM     38  C   UNL A   1      43.161  31.767  29.436  1.00  0.00     0.074 A 
ATOM     39  C   UNL A   1      42.371  32.701  30.219  1.00  0.00     0.031 C 
ATOM     40  C   UNL A   1      44.410  32.029  28.979  1.00  0.00     0.034 A 
BRANCH  27  41
ATOM     41  C   UNL A   1      47.092  27.454  25.754  1.00  0.00     0.023 A 
ATOM     42  C   UNL A   1      48.085  26.662  26.364  1.00  0.00     0.012 A 
ATOM     43  C   UNL A   1      47.214  27.791  24.392  1.00  0.00     0.148 A 
ATOM     44  C   UNL A   1      49.200  26.242  25.639  1.00  0.00     0.002 A 
ATOM     45  C   UNL A   1      48.304  27.331  23.666  1.00  0.00     0.091 A 
ATOM     46  F   UNL A   1      46.277  28.576  23.844  1.00  0.00    -0.205 F 
ATOM     47  C   UNL A   1      49.305  26.569  24.289  1.00  0.00     0.022 A 
BRANCH  45  48
ATOM     48  S   UNL A   1      48.498  27.654  21.910  1.00  0.00     0.127 S 
ATOM     49  O   UNL A   1      48.735  26.303  21.387  1.00  0.00    -0.237 OA
ATOM     50  O   UNL A   1      47.185  28.212  21.563  1.00  0.00    -0.237 OA
ATOM     51  O   UNL A   1      49.608  28.570  21.781  1.00  0.00    -0.744 OA
ENDBRANCH  45  48
ENDBRANCH  27  41
BRANCH  28  52
ATOM     52  C   UNL A   1      38.903  30.365  30.953  1.00  0.00     0.023 A 
ATOM     53  C   UNL A   1      38.647  29.762  32.198  1.00  0.00     0.012 A 
ATOM     54  C   UNL A   1      38.014  31.355  30.480  1.00  0.00     0.148 A 
ATOM     55  C   UNL A   1      37.510  30.102  32.934  1.00  0.00     0.002 A 
ATOM     56  C   UNL A   1      36.918  31.735  31.246  1.00  0.00     0.091 A 
ATOM     57  F   UNL A   1      38.255  31.909  29.283  1.00  0.00    -0.205 F 
ATOM     58  C   UNL A   1      36.651  31.094  32.463  1.00  0.00     0.022 A 
BRANCH  56  59
ATOM     59  S   UNL A   1      35.841  33.092  30.772  1.00  0.00     0.127 S 
ATOM     60  O   UNL A   1      36.467  33.552  29.535  1.00  0.00    -0.237 OA
ATOM     61  O   UNL A   1      34.556  32.414  30.597  1.00  0.00    -0.237 OA
ATOM     62  O   UNL A   1      35.875  34.028  31.888  1.00  0.00    -0.744 OA
ENDBRANCH  56  59
ENDBRANCH  28  52
BRANCH  40  63
ATOM     63  C   UNL A   1      44.965  33.390  29.284  1.00  0.00     0.023 A 
ATOM     64  C   UNL A   1      45.695  33.603  30.469  1.00  0.00     0.012 A 
ATOM     65  C   UNL A   1      44.807  34.439  28.360  1.00  0.00     0.148 A 
ATOM     66  C   UNL A   1      46.226  34.859  30.751  1.00  0.00     0.002 A 
ATOM     67  C   UNL A   1      45.392  35.670  28.618  1.00  0.00     0.091 A 
ATOM     68  F   UNL A   1      44.090  34.213  27.250  1.00  0.00    -0.205 F 
ATOM     69  C   UNL A   1      46.086  35.886  29.820  1.00  0.00     0.022 A 
BRANCH  67  70
ATOM     70  S   UNL A   1      45.358  37.010  27.426  1.00  0.00     0.127 S 
ATOM     71  O   UNL A   1      46.111  38.049  28.126  1.00  0.00    -0.237 OA
ATOM     72  O   UNL A   1      46.050  36.421  26.280  1.00  0.00    -0.237 OA
ATOM     73  O   UNL A   1      43.950  37.305  27.194  1.00  0.00    -0.744 OA
ENDBRANCH  67  70
ENDBRANCH  40  63
ENDBRANCH  14  15
ENDBRANCH   7   9
ENDBRANCH   6   7
ENDBRANCH   5   6
ENDBRANCH   4   5
ENDBRANCH   3   4
ENDBRANCH   2   3
ENDBRANCH   1   2
BRANCH   1  74
ATOM     74  O   UNL A   1      34.007  22.776  24.944  1.00  0.00    -0.377 OA
BRANCH  74  75
ATOM     75  C   UNL A   1      33.385  21.820  24.092  1.00  0.00     0.188 C 
BRANCH  75  76
ATOM     76  C   UNL A   1      32.011  21.314  24.520  1.00  0.00     0.188 C 
BRANCH  76  77
ATOM     77  O   UNL A   1      31.746  21.721  25.847  1.00  0.00    -0.376 OA
BRANCH  77  78
ATOM     78  C   UNL A   1      30.685  22.653  26.042  1.00  0.00     0.202 C 
BRANCH  78  79
ATOM     79  C   UNL A   1      30.852  24.175  25.765  1.00  0.00     0.261 C 
BRANCH  79  80
ATOM     80  O   UNL A   1      30.047  24.777  24.715  1.00  0.00    -0.459 OA
BRANCH  80  81
ATOM     81  C   UNL A   1      30.707  25.118  23.559  1.00  0.00     0.369 C 
ATOM     82  O   UNL A   1      31.232  24.279  22.818  1.00  0.00    -0.245 OA
BRANCH  81  83
ATOM     83  C   UNL A   1      30.971  26.634  23.321  1.00  0.00     0.326 C 
BRANCH  83  84
ATOM     84  C   UNL A   1      29.856  27.690  22.963  1.00  0.00     0.025 A 
ATOM     85  C   UNL A   1      28.504  27.649  23.367  1.00  0.00     0.011 A 
ATOM     86  C   UNL A   1      30.209  28.842  22.218  1.00  0.00     0.056 A 
ATOM     87  C   UNL A   1      27.647  28.759  23.281  1.00  0.00     0.004 A 
ATOM     88  C   UNL A   1      29.298  29.884  21.996  1.00  0.00     0.116 A 
ATOM     89  C   UNL A   1      28.047  29.890  22.592  1.00  0.00     0.046 A 
BRANCH  88  90
ATOM     90  O   UNL A   1      29.650  30.896  21.149  1.00  0.00    -0.508 OA
ATOM     91  H   UNL A   1      30.016  30.699  20.310  1.00  0.00     0.293 HD
ENDBRANCH  88  90
ENDBRANCH  83  84
BRANCH  83  92
ATOM     92  N   UNL A   1      31.984  26.967  24.355  1.00  0.00    -0.310 N 
ATOM     93  C   UNL A   1      33.292  27.449  23.832  1.00  0.00     0.325 C 
ATOM     94  C   UNL A   1      31.555  27.798  25.439  1.00  0.00     0.325 C 
ATOM     95  H   UNL A   1      32.124  26.038  24.753  1.00  0.00     0.349 HD
ATOM     96  C   UNL A   1      33.709  28.957  24.118  1.00  0.00     0.324 C 
ATOM     97  C   UNL A   1      31.533  29.256  24.986  1.00  0.00     0.324 C 
ATOM     98  N   UNL A   1      32.908  29.753  25.090  1.00  0.00    -0.323 N 
ATOM     99  H   UNL A   1      32.982  30.737  24.836  1.00  0.00     0.348 HD
BRANCH  98 100
ATOM    100  C   UNL A   1      33.411  29.812  26.488  1.00  0.00     0.184 C 
ATOM    101  C   UNL A   1      34.689  28.962  26.756  1.00  0.00     0.065 C 
ATOM    102  C   UNL A   1      33.698  31.167  27.193  1.00  0.00     0.065 C 
ATOM    103  C   UNL A   1      35.403  29.626  27.918  1.00  0.00     0.006 C 
ATOM    104  C   UNL A   1      35.147  31.104  27.688  1.00  0.00     0.006 C 
ENDBRANCH  98 100
ENDBRANCH  83  92
ENDBRANCH  81  83
ENDBRANCH  80  81
ENDBRANCH  79  80
ENDBRANCH  78  79
ENDBRANCH  77  78
ENDBRANCH  76  77
ENDBRANCH  75  76
ENDBRANCH  74  75
ENDBRANCH   1  74
TORSDOF 27
ENDMDL
MODEL 2
REMARK VINA RESULT:     -10.0      1.206      3.022
REMARK SMILES O=C(OCCOCCOCCOCCOC(=O)[C@@H](c1cccc(O)c1)[NH+]1CC[NH+](C2CCCC2)CC1)c1ccc(-c2c3nc(c(-c4cccc(S(=O)(=O)[O-])c4F)c4ccc([nH]4)c(-c4cccc(S(=O)(=O)[O-])c4F)c4nc(c(-c5cccc(S(=O)(=O)[O-])c5F)c5ccc2[nH]5)C=C4)C=C3)cc1
REMARK SMILES IDX 8 1 7 2 6 3 5 4 4 5 3 6 2 7 1 8 37 9 38 10 99 11 39 12 98 13
REMARK SMILES IDX 40 14 41 15 42 16 92 17 43 18 97 19 91 20 93 21 44 22 96 23
REMARK SMILES IDX 90 24 89 25 45 27 77 28 57 29 76 30 58 31 61 32 75 33 94 34
REMARK SMILES IDX 59 35 60 36 74 38 95 39 62 40 46 41 47 42 55 43 48 44 50 45
REMARK SMILES IDX 56 46 49 47 51 48 52 49 53 50 54 51 78 52 79 53 87 54 80 55
REMARK SMILES IDX 82 56 88 57 81 58 83 59 84 60 85 61 86 62 63 63 64 64 72 65
REMARK SMILES IDX 65 66 67 67 73 68 66 69 68 70 69 71 70 72 71 73 9 74 10 75
REMARK SMILES IDX 11 76 12 77 13 78 14 79 15 80 16 81 17 82 18 83 19 84 20 85
REMARK SMILES IDX 25 86 21 87 23 88 22 89 24 90 26 92 27 93 36 94 28 96 35 97
REMARK SMILES IDX 29 98 30 100 31 101 34 102 32 103 33 104
REMARK H PARENT 93 26 61 37 24 91 26 95 29 99
REMARK Flexibility Score: inf
ROOT
ATOM      1  C   UNL A   1      34.462  22.514  25.848  1.00  0.00     0.188 C 
ENDROOT
BRANCH   1   2
ATOM      2  C   UNL A   1      35.674  23.247  26.353  1.00  0.00     0.188 C 
BRANCH   2   3
ATOM      3  O   UNL A   1      36.774  22.381  26.164  1.00  0.00    -0.376 OA
BRANCH   3   4
ATOM      4  C   UNL A   1      36.626  21.283  25.314  1.00  0.00     0.202 C 
BRANCH   4   5
ATOM      5  C   UNL A   1      37.989  20.733  24.926  1.00  0.00     0.261 C 
BRANCH   5   6
ATOM      6  O   UNL A   1      38.762  20.472  26.122  1.00  0.00    -0.460 OA
BRANCH   6   7
ATOM      7  C   UNL A   1      40.065  20.787  26.352  1.00  0.00     0.338 C 
ATOM      8  O   UNL A   1      40.950  19.987  26.067  1.00  0.00    -0.246 OA
BRANCH   7   9
ATOM      9  C   UNL A   1      40.444  22.123  26.874  1.00  0.00     0.060 A 
ATOM     10  C   UNL A   1      39.912  23.297  26.362  1.00  0.00     0.016 A 
ATOM     11  C   UNL A   1      41.326  22.215  27.951  1.00  0.00     0.016 A 
ATOM     12  C   UNL A   1      40.414  24.526  26.693  1.00  0.00     0.010 A 
ATOM     13  C   UNL A   1      41.730  23.474  28.414  1.00  0.00     0.010 A 
ATOM     14  C   UNL A   1      41.313  24.632  27.738  1.00  0.00    -0.014 A 
BRANCH  14  15
ATOM     15  C   UNL A   1      41.870  25.973  27.966  1.00  0.00     0.031 A 
ATOM     16  C   UNL A   1      43.174  26.304  27.314  1.00  0.00     0.074 A 
ATOM     17  C   UNL A   1      41.109  26.909  28.566  1.00  0.00     0.049 A 
ATOM     18  N   UNL A   1      43.889  27.387  27.414  1.00  0.00    -0.248 NA
ATOM     19  C   UNL A   1      43.749  25.283  26.417  1.00  0.00     0.031 C 
ATOM     20  C   UNL A   1      39.751  26.695  29.088  1.00  0.00     0.029 A 
ATOM     21  N   UNL A   1      41.341  28.235  28.803  1.00  0.00    -0.354 N 
ATOM     22  C   UNL A   1      45.030  27.149  26.659  1.00  0.00     0.074 A 
ATOM     23  C   UNL A   1      44.910  25.828  26.091  1.00  0.00     0.031 C 
ATOM     24  C   UNL A   1      39.267  27.852  29.562  1.00  0.00     0.029 A 
ATOM     25  C   UNL A   1      40.318  28.854  29.484  1.00  0.00     0.049 A 
ATOM     26  H   UNL A   1      42.159  28.701  28.516  1.00  0.00     0.167 HD
ATOM     27  C   UNL A   1      46.082  27.973  26.469  1.00  0.00     0.034 A 
ATOM     28  C   UNL A   1      40.273  30.076  30.043  1.00  0.00     0.034 A 
ATOM     29  C   UNL A   1      46.144  29.289  27.035  1.00  0.00     0.049 A 
ATOM     30  C   UNL A   1      41.490  30.941  29.883  1.00  0.00     0.074 A 
ATOM     31  C   UNL A   1      47.176  30.203  26.993  1.00  0.00     0.029 A 
ATOM     32  N   UNL A   1      45.108  29.877  27.752  1.00  0.00    -0.354 N 
ATOM     33  N   UNL A   1      42.594  30.692  29.215  1.00  0.00    -0.248 NA
ATOM     34  C   UNL A   1      41.461  32.252  30.538  1.00  0.00     0.031 C 
ATOM     35  C   UNL A   1      46.772  31.337  27.708  1.00  0.00     0.029 A 
ATOM     36  C   UNL A   1      45.474  31.144  28.159  1.00  0.00     0.049 A 
ATOM     37  H   UNL A   1      44.241  29.452  27.942  1.00  0.00     0.167 HD
ATOM     38  C   UNL A   1      43.386  31.823  29.353  1.00  0.00     0.074 A 
ATOM     39  C   UNL A   1      42.613  32.770  30.136  1.00  0.00     0.031 C 
ATOM     40  C   UNL A   1      44.643  32.059  28.903  1.00  0.00     0.034 A 
BRANCH  27  41
ATOM     41  C   UNL A   1      47.236  27.439  25.670  1.00  0.00     0.023 A 
ATOM     42  C   UNL A   1      48.209  26.622  26.282  1.00  0.00     0.012 A 
ATOM     43  C   UNL A   1      47.372  27.778  24.310  1.00  0.00     0.148 A 
ATOM     44  C   UNL A   1      49.318  26.180  25.560  1.00  0.00     0.002 A 
ATOM     45  C   UNL A   1      48.456  27.296  23.587  1.00  0.00     0.091 A 
ATOM     46  F   UNL A   1      46.455  28.585  23.760  1.00  0.00    -0.205 F 
ATOM     47  C   UNL A   1      49.436  26.510  24.212  1.00  0.00     0.022 A 
BRANCH  45  48
ATOM     48  S   UNL A   1      48.664  27.621  21.833  1.00  0.00     0.127 S 
ATOM     49  O   UNL A   1      49.501  28.826  21.855  1.00  0.00    -0.237 OA
ATOM     50  O   UNL A   1      49.363  26.410  21.386  1.00  0.00    -0.237 OA
ATOM     51  O   UNL A   1      47.336  27.800  21.289  1.00  0.00    -0.744 OA
ENDBRANCH  45  48
ENDBRANCH  27  41
BRANCH  28  52
ATOM     52  C   UNL A   1      39.091  30.510  30.843  1.00  0.00     0.023 A 
ATOM     53  C   UNL A   1      39.039  30.257  32.227  1.00  0.00     0.012 A 
ATOM     54  C   UNL A   1      38.003  31.171  30.231  1.00  0.00     0.148 A 
ATOM     55  C   UNL A   1      37.915  30.613  32.974  1.00  0.00     0.002 A 
ATOM     56  C   UNL A   1      36.914  31.579  30.992  1.00  0.00     0.091 A 
ATOM     57  F   UNL A   1      38.052  31.388  28.909  1.00  0.00    -0.205 F 
ATOM     58  C   UNL A   1      36.857  31.281  32.361  1.00  0.00     0.022 A 
BRANCH  56  59
ATOM     59  S   UNL A   1      35.575  32.558  30.302  1.00  0.00     0.127 S 
ATOM     60  O   UNL A   1      34.586  32.508  31.375  1.00  0.00    -0.237 OA
ATOM     61  O   UNL A   1      36.215  33.860  30.113  1.00  0.00    -0.237 OA
ATOM     62  O   UNL A   1      35.201  31.891  29.062  1.00  0.00    -0.744 OA
ENDBRANCH  56  59
ENDBRANCH  28  52
BRANCH  40  63
ATOM     63  C   UNL A   1      45.226  33.406  29.216  1.00  0.00     0.023 A 
ATOM     64  C   UNL A   1      46.015  33.579  30.369  1.00  0.00     0.012 A 
ATOM     65  C   UNL A   1      45.036  34.481  28.328  1.00  0.00     0.148 A 
ATOM     66  C   UNL A   1      46.572  34.822  30.658  1.00  0.00     0.002 A 
ATOM     67  C   UNL A   1      45.645  35.698  28.591  1.00  0.00     0.091 A 
ATOM     68  F   UNL A   1      44.264  34.291  27.249  1.00  0.00    -0.205 F 
ATOM     69  C   UNL A   1      46.399  35.875  29.763  1.00  0.00     0.022 A 
BRANCH  67  70
ATOM     70  S   UNL A   1      45.569  37.069  27.437  1.00  0.00     0.127 S 
ATOM     71  O   UNL A   1      46.355  38.087  28.133  1.00  0.00    -0.237 OA
ATOM     72  O   UNL A   1      46.210  36.509  26.248  1.00  0.00    -0.237 OA
ATOM     73  O   UNL A   1      44.154  37.376  27.272  1.00  0.00    -0.744 OA
ENDBRANCH  67  70
ENDBRANCH  40  63
ENDBRANCH  14  15
ENDBRANCH   7   9
ENDBRANCH   6   7
ENDBRANCH   5   6
ENDBRANCH   4   5
ENDBRANCH   3   4
ENDBRANCH   2   3
ENDBRANCH   1   2
BRANCH   1  74
ATOM     74  O   UNL A   1      33.782  23.134  24.756  1.00  0.00    -0.377 OA
BRANCH  74  75
ATOM     75  C   UNL A   1      34.039  22.826  23.391  1.00  0.00     0.188 C 
BRANCH  75  76
ATOM     76  C   UNL A   1      32.927  22.111  22.630  1.00  0.00     0.188 C 
BRANCH  76  77
ATOM     77  O   UNL A   1      31.712  22.227  23.342  1.00  0.00    -0.376 OA
BRANCH  77  78
ATOM     78  C   UNL A   1      30.778  23.200  22.880  1.00  0.00     0.202 C 
BRANCH  78  79
ATOM     79  C   UNL A   1      30.870  24.699  23.286  1.00  0.00     0.261 C 
BRANCH  79  80
ATOM     80  O   UNL A   1      30.714  25.044  24.690  1.00  0.00    -0.459 OA
BRANCH  80  81
ATOM     81  C   UNL A   1      29.853  26.077  24.973  1.00  0.00     0.369 C 
ATOM     82  O   UNL A   1      28.625  25.932  25.010  1.00  0.00    -0.245 OA
BRANCH  81  83
ATOM     83  C   UNL A   1      30.465  27.508  25.028  1.00  0.00     0.326 C 
BRANCH  83  84
ATOM     84  C   UNL A   1      31.870  27.856  25.653  1.00  0.00     0.025 A 
ATOM     85  C   UNL A   1      33.097  27.221  25.360  1.00  0.00     0.011 A 
ATOM     86  C   UNL A   1      31.976  28.944  26.553  1.00  0.00     0.056 A 
ATOM     87  C   UNL A   1      34.343  27.770  25.706  1.00  0.00     0.004 A 
ATOM     88  C   UNL A   1      33.217  29.393  27.025  1.00  0.00     0.116 A 
ATOM     89  C   UNL A   1      34.406  28.868  26.544  1.00  0.00     0.046 A 
BRANCH  88  90
ATOM     90  O   UNL A   1      33.244  30.347  28.003  1.00  0.00    -0.508 OA
ATOM     91  H   UNL A   1      32.667  31.083  27.955  1.00  0.00     0.293 HD
ENDBRANCH  88  90
ENDBRANCH  83  84
BRANCH  83  92
ATOM     92  N   UNL A   1      30.090  28.086  23.711  1.00  0.00    -0.310 N 
ATOM     93  C   UNL A   1      28.656  27.936  23.337  1.00  0.00     0.325 C 
ATOM     94  C   UNL A   1      30.529  29.421  23.440  1.00  0.00     0.325 C 
ATOM     95  H   UNL A   1      30.641  27.481  23.103  1.00  0.00     0.349 HD
ATOM     96  C   UNL A   1      27.762  29.248  23.241  1.00  0.00     0.324 C 
ATOM     97  C   UNL A   1      29.606  30.414  24.143  1.00  0.00     0.324 C 
ATOM     98  N   UNL A   1      28.430  30.579  23.285  1.00  0.00    -0.323 N 
ATOM     99  H   UNL A   1      27.769  31.257  23.664  1.00  0.00     0.348 HD
BRANCH  98 100
ATOM    100  C   UNL A   1      28.735  31.224  21.981  1.00  0.00     0.184 C 
ATOM    101  C   UNL A   1      27.963  30.628  20.765  1.00  0.00     0.065 C 
ATOM    102  C   UNL A   1      28.625  32.762  21.787  1.00  0.00     0.065 C 
ATOM    103  C   UNL A   1      27.861  31.743  19.741  1.00  0.00     0.006 C 
ATOM    104  C   UNL A   1      27.690  32.986  20.593  1.00  0.00     0.006 C 
ENDBRANCH  98 100
ENDBRANCH  83  92
ENDBRANCH  81  83
ENDBRANCH  80  81
ENDBRANCH  79  80
ENDBRANCH  78  79
ENDBRANCH  77  78
ENDBRANCH  76  77
ENDBRANCH  75  76
ENDBRANCH  74  75
ENDBRANCH   1  74
TORSDOF 27
ENDMDL
MODEL 3
REMARK VINA RESULT:      -9.7      4.936     10.103
REMARK SMILES O=C(OCCOCCOCCOCCOC(=O)[C@@H](c1cccc(O)c1)[NH+]1CC[NH+](C2CCCC2)CC1)c1ccc(-c2c3nc(c(-c4cccc(S(=O)(=O)[O-])c4F)c4ccc([nH]4)c(-c4cccc(S(=O)(=O)[O-])c4F)c4nc(c(-c5cccc(S(=O)(=O)[O-])c5F)c5ccc2[nH]5)C=C4)C=C3)cc1
REMARK SMILES IDX 8 1 7 2 6 3 5 4 4 5 3 6 2 7 1 8 37 9 38 10 99 11 39 12 98 13
REMARK SMILES IDX 40 14 41 15 42 16 92 17 43 18 97 19 91 20 93 21 44 22 96 23
REMARK SMILES IDX 90 24 89 25 45 27 77 28 57 29 76 30 58 31 61 32 75 33 94 34
REMARK SMILES IDX 59 35 60 36 74 38 95 39 62 40 46 41 47 42 55 43 48 44 50 45
REMARK SMILES IDX 56 46 49 47 51 48 52 49 53 50 54 51 78 52 79 53 87 54 80 55
REMARK SMILES IDX 82 56 88 57 81 58 83 59 84 60 85 61 86 62 63 63 64 64 72 65
REMARK SMILES IDX 65 66 67 67 73 68 66 69 68 70 69 71 70 72 71 73 9 74 10 75
REMARK SMILES IDX 11 76 12 77 13 78 14 79 15 80 16 81 17 82 18 83 19 84 20 85
REMARK SMILES IDX 25 86 21 87 23 88 22 89 24 90 26 92 27 93 36 94 28 96 35 97
REMARK SMILES IDX 29 98 30 100 31 101 34 102 32 103 33 104
REMARK H PARENT 93 26 61 37 24 91 26 95 29 99
REMARK Flexibility Score: inf
ROOT
ATOM      1  C   UNL A   1      44.537  21.808  25.961  1.00  0.00     0.188 C 
ENDROOT
BRANCH   1   2
ATOM      2  C   UNL A   1      44.600  21.850  24.459  1.00  0.00     0.188 C 
BRANCH   2   3
ATOM      3  O   UNL A   1      45.290  23.035  24.119  1.00  0.00    -0.376 OA
BRANCH   3   4
ATOM      4  C   UNL A   1      46.298  23.493  24.971  1.00  0.00     0.202 C 
BRANCH   4   5
ATOM      5  C   UNL A   1      46.558  24.970  24.726  1.00  0.00     0.261 C 
BRANCH   5   6
ATOM      6  O   UNL A   1      45.322  25.709  24.873  1.00  0.00    -0.460 OA
BRANCH   6   7
ATOM      7  C   UNL A   1      45.174  27.037  25.125  1.00  0.00     0.338 C 
ATOM      8  O   UNL A   1      45.752  27.863  24.426  1.00  0.00    -0.246 OA
BRANCH   7   9
ATOM      9  C   UNL A   1      44.257  27.513  26.190  1.00  0.00     0.060 A 
ATOM     10  C   UNL A   1      44.017  28.860  26.415  1.00  0.00     0.016 A 
ATOM     11  C   UNL A   1      43.565  26.582  26.966  1.00  0.00     0.016 A 
ATOM     12  C   UNL A   1      43.345  29.303  27.521  1.00  0.00     0.010 A 
ATOM     13  C   UNL A   1      42.739  27.024  28.008  1.00  0.00     0.010 A 
ATOM     14  C   UNL A   1      42.680  28.391  28.320  1.00  0.00    -0.014 A 
BRANCH  14  15
ATOM     15  C   UNL A   1      42.062  28.941  29.535  1.00  0.00     0.031 A 
ATOM     16  C   UNL A   1      40.616  29.316  29.472  1.00  0.00     0.074 A 
ATOM     17  C   UNL A   1      42.742  28.895  30.698  1.00  0.00     0.049 A 
ATOM     18  N   UNL A   1      39.873  29.872  30.384  1.00  0.00    -0.248 NA
ATOM     19  C   UNL A   1      39.904  29.015  28.215  1.00  0.00     0.031 C 
ATOM     20  C   UNL A   1      44.113  28.388  30.863  1.00  0.00     0.029 A 
ATOM     21  N   UNL A   1      42.369  29.236  31.968  1.00  0.00    -0.354 N 
ATOM     22  C   UNL A   1      38.633  30.057  29.789  1.00  0.00     0.074 A 
ATOM     23  C   UNL A   1      38.712  29.541  28.444  1.00  0.00     0.031 C 
ATOM     24  C   UNL A   1      44.453  28.433  32.159  1.00  0.00     0.029 A 
ATOM     25  C   UNL A   1      43.375  29.076  32.893  1.00  0.00     0.049 A 
ATOM     26  H   UNL A   1      41.470  29.566  32.198  1.00  0.00     0.167 HD
ATOM     27  C   UNL A   1      37.531  30.616  30.332  1.00  0.00     0.034 A 
ATOM     28  C   UNL A   1      43.435  29.476  34.176  1.00  0.00     0.034 A 
ATOM     29  C   UNL A   1      37.493  31.092  31.684  1.00  0.00     0.049 A 
ATOM     30  C   UNL A   1      42.222  30.167  34.729  1.00  0.00     0.074 A 
ATOM     31  C   UNL A   1      36.475  31.750  32.343  1.00  0.00     0.029 A 
ATOM     32  N   UNL A   1      38.539  30.950  32.588  1.00  0.00    -0.354 N 
ATOM     33  N   UNL A   1      41.066  30.394  34.146  1.00  0.00    -0.248 NA
ATOM     34  C   UNL A   1      42.308  30.650  36.110  1.00  0.00     0.031 C 
ATOM     35  C   UNL A   1      36.918  32.029  33.642  1.00  0.00     0.029 A 
ATOM     36  C   UNL A   1      38.193  31.507  33.803  1.00  0.00     0.049 A 
ATOM     37  H   UNL A   1      39.400  30.516  32.391  1.00  0.00     0.167 HD
ATOM     38  C   UNL A   1      40.279  31.029  35.094  1.00  0.00     0.074 A 
ATOM     39  C   UNL A   1      41.081  31.113  36.302  1.00  0.00     0.031 C 
ATOM     40  C   UNL A   1      39.021  31.524  34.984  1.00  0.00     0.034 A 
BRANCH  27  41
ATOM     41  C   UNL A   1      36.332  30.776  29.441  1.00  0.00     0.023 A 
ATOM     42  C   UNL A   1      35.815  29.670  28.735  1.00  0.00     0.012 A 
ATOM     43  C   UNL A   1      35.735  32.041  29.278  1.00  0.00     0.148 A 
ATOM     44  C   UNL A   1      34.744  29.829  27.855  1.00  0.00     0.002 A 
ATOM     45  C   UNL A   1      34.641  32.182  28.434  1.00  0.00     0.091 A 
ATOM     46  F   UNL A   1      36.266  33.084  29.930  1.00  0.00    -0.205 F 
ATOM     47  C   UNL A   1      34.153  31.081  27.712  1.00  0.00     0.022 A 
BRANCH  45  48
ATOM     48  S   UNL A   1      33.778  33.743  28.228  1.00  0.00     0.127 S 
ATOM     49  O   UNL A   1      33.619  34.178  29.621  1.00  0.00    -0.237 OA
ATOM     50  O   UNL A   1      34.756  34.525  27.461  1.00  0.00    -0.237 OA
ATOM     51  O   UNL A   1      32.548  33.442  27.530  1.00  0.00    -0.744 OA
ENDBRANCH  45  48
ENDBRANCH  27  41
BRANCH  28  52
ATOM     52  C   UNL A   1      44.682  29.298  34.976  1.00  0.00     0.023 A 
ATOM     53  C   UNL A   1      45.670  30.300  34.981  1.00  0.00     0.012 A 
ATOM     54  C   UNL A   1      44.897  28.126  35.733  1.00  0.00     0.148 A 
ATOM     55  C   UNL A   1      46.863  30.121  35.685  1.00  0.00     0.002 A 
ATOM     56  C   UNL A   1      46.058  27.981  36.483  1.00  0.00     0.091 A 
ATOM     57  F   UNL A   1      43.959  27.168  35.706  1.00  0.00    -0.205 F 
ATOM     58  C   UNL A   1      47.053  28.968  36.442  1.00  0.00     0.022 A 
BRANCH  56  59
ATOM     59  S   UNL A   1      46.321  26.586  37.585  1.00  0.00     0.127 S 
ATOM     60  O   UNL A   1      46.319  25.464  36.651  1.00  0.00    -0.237 OA
ATOM     61  O   UNL A   1      47.625  26.901  38.169  1.00  0.00    -0.237 OA
ATOM     62  O   UNL A   1      45.216  26.625  38.535  1.00  0.00    -0.744 OA
ENDBRANCH  56  59
ENDBRANCH  28  52
BRANCH  40  63
ATOM     63  C   UNL A   1      38.438  32.155  36.214  1.00  0.00     0.023 A 
ATOM     64  C   UNL A   1      38.412  33.557  36.340  1.00  0.00     0.012 A 
ATOM     65  C   UNL A   1      37.862  31.350  37.215  1.00  0.00     0.148 A 
ATOM     66  C   UNL A   1      37.858  34.150  37.472  1.00  0.00     0.002 A 
ATOM     67  C   UNL A   1      37.257  31.950  38.308  1.00  0.00     0.091 A 
ATOM     68  F   UNL A   1      37.919  30.018  37.077  1.00  0.00    -0.205 F 
ATOM     69  C   UNL A   1      37.270  33.347  38.447  1.00  0.00     0.022 A 
BRANCH  67  70
ATOM     70  S   UNL A   1      36.378  31.000  39.550  1.00  0.00     0.127 S 
ATOM     71  O   UNL A   1      35.901  29.860  38.769  1.00  0.00    -0.237 OA
ATOM     72  O   UNL A   1      37.440  30.684  40.506  1.00  0.00    -0.237 OA
ATOM     73  O   UNL A   1      35.341  31.881  40.070  1.00  0.00    -0.744 OA
ENDBRANCH  67  70
ENDBRANCH  40  63
ENDBRANCH  14  15
ENDBRANCH   7   9
ENDBRANCH   6   7
ENDBRANCH   5   6
ENDBRANCH   4   5
ENDBRANCH   3   4
ENDBRANCH   2   3
ENDBRANCH   1   2
BRANCH   1  74
ATOM     74  O   UNL A   1      43.257  22.085  26.529  1.00  0.00    -0.377 OA
BRANCH  74  75
ATOM     75  C   UNL A   1      42.667  23.380  26.549  1.00  0.00     0.188 C 
BRANCH  75  76
ATOM     76  C   UNL A   1      41.171  23.454  26.259  1.00  0.00     0.188 C 
BRANCH  76  77
ATOM     77  O   UNL A   1      40.598  24.522  26.985  1.00  0.00    -0.376 OA
BRANCH  77  78
ATOM     78  C   UNL A   1      39.195  24.462  27.233  1.00  0.00     0.202 C 
BRANCH  78  79
ATOM     79  C   UNL A   1      38.213  23.720  26.281  1.00  0.00     0.261 C 
BRANCH  79  80
ATOM     80  O   UNL A   1      36.785  23.876  26.507  1.00  0.00    -0.459 OA
BRANCH  80  81
ATOM     81  C   UNL A   1      35.991  23.920  25.386  1.00  0.00     0.369 C 
ATOM     82  O   UNL A   1      36.445  24.120  24.253  1.00  0.00    -0.245 OA
BRANCH  81  83
ATOM     83  C   UNL A   1      34.450  23.930  25.614  1.00  0.00     0.326 C 
BRANCH  83  84
ATOM     84  C   UNL A   1      33.557  25.229  25.618  1.00  0.00     0.025 A 
ATOM     85  C   UNL A   1      32.267  25.357  26.178  1.00  0.00     0.011 A 
ATOM     86  C   UNL A   1      34.080  26.429  25.076  1.00  0.00     0.056 A 
ATOM     87  C   UNL A   1      31.661  26.601  26.424  1.00  0.00     0.004 A 
ATOM     88  C   UNL A   1      33.394  27.647  25.183  1.00  0.00     0.116 A 
ATOM     89  C   UNL A   1      32.229  27.758  25.925  1.00  0.00     0.046 A 
BRANCH  88  90
ATOM     90  O   UNL A   1      33.877  28.735  24.513  1.00  0.00    -0.508 OA
ATOM     91  H   UNL A   1      34.523  28.625  23.844  1.00  0.00     0.293 HD
ENDBRANCH  88  90
ENDBRANCH  83  84
BRANCH  83  92
ATOM     92  N   UNL A   1      33.990  22.732  24.866  1.00  0.00    -0.310 N 
ATOM     93  C   UNL A   1      35.066  21.785  24.460  1.00  0.00     0.325 C 
ATOM     94  C   UNL A   1      32.885  22.009  25.416  1.00  0.00     0.325 C 
ATOM     95  H   UNL A   1      33.636  23.189  24.026  1.00  0.00     0.349 HD
ATOM     96  C   UNL A   1      35.090  20.341  25.127  1.00  0.00     0.324 C 
ATOM     97  C   UNL A   1      33.375  21.115  26.553  1.00  0.00     0.324 C 
ATOM     98  N   UNL A   1      33.917  19.903  25.935  1.00  0.00    -0.323 N 
ATOM     99  H   UNL A   1      34.241  19.229  26.628  1.00  0.00     0.348 HD
BRANCH  98 100
ATOM    100  C   UNL A   1      32.891  19.082  25.242  1.00  0.00     0.184 C 
ATOM    101  C   UNL A   1      32.730  19.388  23.722  1.00  0.00     0.065 C 
ATOM    102  C   UNL A   1      32.900  17.529  25.320  1.00  0.00     0.065 C 
ATOM    103  C   UNL A   1      32.209  18.113  23.087  1.00  0.00     0.006 C 
ATOM    104  C   UNL A   1      32.904  17.019  23.875  1.00  0.00     0.006 C 
ENDBRANCH  98 100
ENDBRANCH  83  92
ENDBRANCH  81  83
ENDBRANCH  80  81
ENDBRANCH  79  80
ENDBRANCH  78  79
ENDBRANCH  77  78
ENDBRANCH  76  77
ENDBRANCH  75  76
ENDBRANCH  74  75
ENDBRANCH   1  74
TORSDOF 27
ENDMDL
