MODEL 1
REMARK VINA RESULT:     -10.9      0.000      0.000
REMARK SMILES Nc1ccnc(N2CCC[C@](Cc3ccc(F)cc3)(C(=O)OCCOCCOCCOCCOC(=O)c3ccc(-c4c5nc(c(-c6cccc(S(=O)(=O)[O-])c6F)c6ccc([nH]6)c(-c6cccc(S(=O)(=O)[O-])c6F)c6nc(c(-c7cccc(S(=O)(=O)[O-])c7F)c7ccc4[nH]7)C=C6)C=C5)cc3)C2)n1
REMARK SMILES IDX 29 1 28 2 27 3 26 4 25 5 24 6 23 7 22 8 20 9 21 10 11 11
REMARK SMILES IDX 7 12 8 13 100 14 9 15 10 16 6 17 2 18 3 19 101 20 4 21 5 22
REMARK SMILES IDX 1 23 12 26 13 27 14 28 19 29 15 30 18 31 16 32 17 33 30 34
REMARK SMILES IDX 31 35 32 36 33 37 34 38 35 39 36 40 37 41 38 42 99 43 39 44
REMARK SMILES IDX 98 45 40 46 41 47 42 48 92 49 43 50 97 51 91 52 93 53 44 54
REMARK SMILES IDX 96 55 90 56 89 57 45 59 77 60 57 61 76 62 58 63 61 64 75 65
REMARK SMILES IDX 94 66 59 67 60 68 74 70 95 71 62 72 46 73 47 74 55 75 48 76
REMARK SMILES IDX 50 77 56 78 49 79 51 80 52 81 53 82 54 83 78 84 79 85 87 86
REMARK SMILES IDX 80 87 82 88 88 89 81 90 83 91 84 92 85 93 86 94 63 95 64 96
REMARK SMILES IDX 72 97 65 98 67 99 73 100 66 101 68 102 69 103 70 104 71 105
REMARK H PARENT 1 24 1 25 93 58 61 69
REMARK Flexibility Score: inf
ROOT
ATOM      1  C   UNL A   1      42.218  21.051  26.152  1.00  0.00     0.188 C 
ENDROOT
BRANCH   1   2
ATOM      2  O   UNL A   1      41.224  20.935  27.167  1.00  0.00    -0.377 OA
BRANCH   2   3
ATOM      3  C   UNL A   1      40.139  21.844  27.236  1.00  0.00     0.188 C 
BRANCH   3   4
ATOM      4  C   UNL A   1      39.186  21.660  26.054  1.00  0.00     0.188 C 
BRANCH   4   5
ATOM      5  O   UNL A   1      38.146  22.628  25.917  1.00  0.00    -0.376 OA
BRANCH   5   6
ATOM      6  C   UNL A   1      36.845  22.165  25.555  1.00  0.00     0.202 C 
BRANCH   6   7
ATOM      7  C   UNL A   1      35.632  23.048  25.900  1.00  0.00     0.261 C 
BRANCH   7   8
ATOM      8  O   UNL A   1      34.349  22.542  25.471  1.00  0.00    -0.463 OA
BRANCH   8   9
ATOM      9  C   UNL A   1      33.269  23.242  25.890  1.00  0.00     0.314 C 
ATOM     10  O   UNL A   1      33.205  23.726  27.020  1.00  0.00    -0.252 OA
BRANCH   9  11
ATOM     11  C   UNL A   1      32.112  23.382  24.862  1.00  0.00     0.090 C 
ATOM     12  N   UNL A   1      32.241  21.269  23.662  1.00  0.00    -0.340 N 
ATOM     13  C   UNL A   1      32.209  21.776  22.316  1.00  0.00     0.120 C 
ATOM     14  C   UNL A   1      31.503  21.978  24.680  1.00  0.00     0.138 C 
ATOM     15  C   UNL A   1      32.885  23.134  22.322  1.00  0.00     0.023 C 
ATOM     16  C   UNL A   1      32.487  24.041  23.496  1.00  0.00     0.023 C 
BRANCH  12  17
ATOM     17  C   UNL A   1      32.428  19.921  23.787  1.00  0.00     0.227 A 
ATOM     18  C   UNL A   1      32.619  18.143  25.198  1.00  0.00     0.128 A 
ATOM     19  C   UNL A   1      32.782  17.278  24.151  1.00  0.00     0.067 A 
ATOM     20  N   UNL A   1      32.496  19.460  25.040  1.00  0.00    -0.196 NA
ATOM     21  C   UNL A   1      32.714  17.841  22.903  1.00  0.00     0.119 A 
ATOM     22  N   UNL A   1      32.515  19.157  22.689  1.00  0.00    -0.221 NA
BRANCH  18  23
ATOM     23  N   UNL A   1      32.608  17.700  26.499  1.00  0.00    -0.384 N 
ATOM     24  H   UNL A   1      33.177  16.942  26.766  1.00  0.00     0.158 HD
ATOM     25  H   UNL A   1      32.031  18.140  27.165  1.00  0.00     0.158 HD
ENDBRANCH  18  23
ENDBRANCH  12  17
BRANCH  11  26
ATOM     26  C   UNL A   1      31.134  24.355  25.625  1.00  0.00     0.056 C 
BRANCH  26  27
ATOM     27  C   UNL A   1      30.827  25.712  25.039  1.00  0.00    -0.047 A 
ATOM     28  C   UNL A   1      29.854  25.852  24.043  1.00  0.00     0.007 A 
ATOM     29  C   UNL A   1      31.494  26.853  25.515  1.00  0.00     0.007 A 
ATOM     30  C   UNL A   1      29.594  27.102  23.486  1.00  0.00     0.039 A 
ATOM     31  C   UNL A   1      31.218  28.106  24.971  1.00  0.00     0.039 A 
ATOM     32  C   UNL A   1      30.280  28.216  23.954  1.00  0.00     0.123 A 
ATOM     33  F   UNL A   1      30.024  29.417  23.419  1.00  0.00    -0.207 F 
ENDBRANCH  26  27
ENDBRANCH  11  26
ENDBRANCH   9  11
ENDBRANCH   8   9
ENDBRANCH   7   8
ENDBRANCH   6   7
ENDBRANCH   5   6
ENDBRANCH   4   5
ENDBRANCH   3   4
ENDBRANCH   2   3
ENDBRANCH   1   2
BRANCH   1  34
ATOM     34  C   UNL A   1      43.092  19.825  25.914  1.00  0.00     0.188 C 
BRANCH  34  35
ATOM     35  O   UNL A   1      44.391  20.071  25.365  1.00  0.00    -0.376 OA
BRANCH  35  36
ATOM     36  C   UNL A   1      44.537  21.166  24.462  1.00  0.00     0.202 C 
BRANCH  36  37
ATOM     37  C   UNL A   1      45.084  22.454  25.077  1.00  0.00     0.261 C 
BRANCH  37  38
ATOM     38  O   UNL A   1      44.128  23.523  25.035  1.00  0.00    -0.460 OA
BRANCH  38  39
ATOM     39  C   UNL A   1      44.656  24.762  25.194  1.00  0.00     0.338 C 
ATOM     40  O   UNL A   1      45.619  25.232  24.619  1.00  0.00    -0.246 OA
BRANCH  39  41
ATOM     41  C   UNL A   1      43.779  25.556  26.075  1.00  0.00     0.060 A 
ATOM     42  C   UNL A   1      43.846  26.955  25.994  1.00  0.00     0.016 A 
ATOM     43  C   UNL A   1      42.970  24.933  27.026  1.00  0.00     0.016 A 
ATOM     44  C   UNL A   1      43.146  27.739  26.905  1.00  0.00     0.010 A 
ATOM     45  C   UNL A   1      42.281  25.721  27.947  1.00  0.00     0.010 A 
ATOM     46  C   UNL A   1      42.406  27.123  27.917  1.00  0.00    -0.014 A 
BRANCH  46  47
ATOM     47  C   UNL A   1      41.919  27.915  29.067  1.00  0.00     0.031 A 
ATOM     48  C   UNL A   1      42.595  27.735  30.391  1.00  0.00     0.074 A 
ATOM     49  C   UNL A   1      40.887  28.765  28.939  1.00  0.00     0.049 A 
ATOM     50  N   UNL A   1      42.277  28.247  31.548  1.00  0.00    -0.248 NA
ATOM     51  C   UNL A   1      43.801  26.888  30.412  1.00  0.00     0.031 C 
ATOM     52  C   UNL A   1      40.232  29.091  27.681  1.00  0.00     0.029 A 
ATOM     53  N   UNL A   1      40.181  29.474  29.877  1.00  0.00    -0.354 N 
ATOM     54  C   UNL A   1      43.238  27.783  32.436  1.00  0.00     0.074 A 
ATOM     55  C   UNL A   1      44.134  26.925  31.693  1.00  0.00     0.031 C 
ATOM     56  C   UNL A   1      39.148  29.844  27.928  1.00  0.00     0.029 A 
ATOM     57  C   UNL A   1      39.045  30.058  29.366  1.00  0.00     0.049 A 
ATOM     58  H   UNL A   1      40.457  29.554  30.818  1.00  0.00     0.167 HD
ATOM     59  C   UNL A   1      43.369  28.078  33.747  1.00  0.00     0.034 A 
ATOM     60  C   UNL A   1      38.025  30.676  29.992  1.00  0.00     0.034 A 
ATOM     61  C   UNL A   1      42.471  28.941  34.462  1.00  0.00     0.049 A 
ATOM     62  C   UNL A   1      38.134  30.907  31.472  1.00  0.00     0.074 A 
ATOM     63  C   UNL A   1      42.535  29.334  35.785  1.00  0.00     0.029 A 
ATOM     64  N   UNL A   1      41.340  29.530  33.920  1.00  0.00    -0.354 N 
ATOM     65  N   UNL A   1      39.096  30.542  32.286  1.00  0.00    -0.248 NA
ATOM     66  C   UNL A   1      37.066  31.684  32.112  1.00  0.00     0.031 C 
ATOM     67  C   UNL A   1      41.418  30.127  36.055  1.00  0.00     0.029 A 
ATOM     68  C   UNL A   1      40.683  30.269  34.887  1.00  0.00     0.049 A 
ATOM     69  H   UNL A   1      41.046  29.438  32.985  1.00  0.00     0.167 HD
ATOM     70  C   UNL A   1      38.782  31.095  33.519  1.00  0.00     0.074 A 
ATOM     71  C   UNL A   1      37.536  31.817  33.346  1.00  0.00     0.031 C 
ATOM     72  C   UNL A   1      39.468  31.017  34.685  1.00  0.00     0.034 A 
BRANCH  59  73
ATOM     73  C   UNL A   1      44.535  27.486  34.488  1.00  0.00     0.023 A 
ATOM     74  C   UNL A   1      45.775  28.155  34.487  1.00  0.00     0.012 A 
ATOM     75  C   UNL A   1      44.375  26.318  35.256  1.00  0.00     0.148 A 
ATOM     76  C   UNL A   1      46.846  27.660  35.231  1.00  0.00     0.002 A 
ATOM     77  C   UNL A   1      45.431  25.858  36.032  1.00  0.00     0.091 A 
ATOM     78  F   UNL A   1      43.194  25.685  35.218  1.00  0.00    -0.205 F 
ATOM     79  C   UNL A   1      46.669  26.522  36.014  1.00  0.00     0.022 A 
BRANCH  77  80
ATOM     80  S   UNL A   1      45.279  24.454  37.139  1.00  0.00     0.127 S 
ATOM     81  O   UNL A   1      46.583  24.457  37.802  1.00  0.00    -0.237 OA
ATOM     82  O   UNL A   1      44.161  24.856  37.991  1.00  0.00    -0.237 OA
ATOM     83  O   UNL A   1      45.019  23.297  36.294  1.00  0.00    -0.744 OA
ENDBRANCH  77  80
ENDBRANCH  59  73
BRANCH  60  84
ATOM     84  C   UNL A   1      36.861  31.168  29.202  1.00  0.00     0.023 A 
ATOM     85  C   UNL A   1      36.734  32.543  28.933  1.00  0.00     0.012 A 
ATOM     86  C   UNL A   1      35.915  30.272  28.664  1.00  0.00     0.148 A 
ATOM     87  C   UNL A   1      35.672  33.022  28.166  1.00  0.00     0.002 A 
ATOM     88  C   UNL A   1      34.884  30.750  27.863  1.00  0.00     0.091 A 
ATOM     89  F   UNL A   1      36.053  28.965  28.930  1.00  0.00    -0.205 F 
ATOM     90  C   UNL A   1      34.752  32.127  27.624  1.00  0.00     0.022 A 
BRANCH  88  91
ATOM     91  S   UNL A   1      33.736  29.659  27.012  1.00  0.00     0.127 S 
ATOM     92  O   UNL A   1      33.370  28.722  28.070  1.00  0.00    -0.237 OA
ATOM     93  O   UNL A   1      32.679  30.589  26.615  1.00  0.00    -0.237 OA
ATOM     94  O   UNL A   1      34.480  29.095  25.894  1.00  0.00    -0.744 OA
ENDBRANCH  88  91
ENDBRANCH  60  84
BRANCH  72  95
ATOM     95  C   UNL A   1      38.922  31.761  35.874  1.00  0.00     0.023 A 
ATOM     96  C   UNL A   1      38.976  33.167  35.908  1.00  0.00     0.012 A 
ATOM     97  C   UNL A   1      38.245  31.065  36.896  1.00  0.00     0.148 A 
ATOM     98  C   UNL A   1      38.378  33.870  36.952  1.00  0.00     0.002 A 
ATOM     99  C   UNL A   1      37.603  31.774  37.900  1.00  0.00     0.091 A 
ATOM    100  F   UNL A   1      38.223  29.725  36.849  1.00  0.00    -0.205 F 
ATOM    101  C   UNL A   1      37.679  33.176  37.938  1.00  0.00     0.022 A 
BRANCH  99 102
ATOM    102  S   UNL A   1      36.584  30.976  39.146  1.00  0.00     0.127 S 
ATOM    103  O   UNL A   1      35.476  31.920  39.273  1.00  0.00    -0.237 OA
ATOM    104  O   UNL A   1      36.238  29.711  38.495  1.00  0.00    -0.237 OA
ATOM    105  O   UNL A   1      37.424  30.840  40.329  1.00  0.00    -0.744 OA
ENDBRANCH  99 102
ENDBRANCH  72  95
ENDBRANCH  46  47
ENDBRANCH  39  41
ENDBRANCH  38  39
ENDBRANCH  37  38
ENDBRANCH  36  37
ENDBRANCH  35  36
ENDBRANCH  34  35
ENDBRANCH   1  34
TORSDOF 27
ENDMDL
MODEL 2
REMARK VINA RESULT:     -10.1      3.877      7.301
REMARK SMILES Nc1ccnc(N2CCC[C@](Cc3ccc(F)cc3)(C(=O)OCCOCCOCCOCCOC(=O)c3ccc(-c4c5nc(c(-c6cccc(S(=O)(=O)[O-])c6F)c6ccc([nH]6)c(-c6cccc(S(=O)(=O)[O-])c6F)c6nc(c(-c7cccc(S(=O)(=O)[O-])c7F)c7ccc4[nH]7)C=C6)C=C5)cc3)C2)n1
REMARK SMILES IDX 29 1 28 2 27 3 26 4 25 5 24 6 23 7 22 8 20 9 21 10 11 11
REMARK SMILES IDX 7 12 8 13 100 14 9 15 10 16 6 17 2 18 3 19 101 20 4 21 5 22
REMARK SMILES IDX 1 23 12 26 13 27 14 28 19 29 15 30 18 31 16 32 17 33 30 34
REMARK SMILES IDX 31 35 32 36 33 37 34 38 35 39 36 40 37 41 38 42 99 43 39 44
REMARK SMILES IDX 98 45 40 46 41 47 42 48 92 49 43 50 97 51 91 52 93 53 44 54
REMARK SMILES IDX 96 55 90 56 89 57 45 59 77 60 57 61 76 62 58 63 61 64 75 65
REMARK SMILES IDX 94 66 59 67 60 68 74 70 95 71 62 72 46 73 47 74 55 75 48 76
REMARK SMILES IDX 50 77 56 78 49 79 51 80 52 81 53 82 54 83 78 84 79 85 87 86
REMARK SMILES IDX 80 87 82 88 88 89 81 90 83 91 84 92 85 93 86 94 63 95 64 96
REMARK SMILES IDX 72 97 65 98 67 99 73 100 66 101 68 102 69 103 70 104 71 105
REMARK H PARENT 1 24 1 25 93 58 61 69
REMARK Flexibility Score: inf
ROOT
ATOM      1  C   UNL A   1      42.788  22.709  26.579  1.00  0.00     0.188 C 
ENDROOT
BRANCH   1   2
ATOM      2  O   UNL A   1      42.015  22.152  27.640  1.00  0.00    -0.377 OA
BRANCH   2   3
ATOM      3  C   UNL A   1      40.767  22.712  28.008  1.00  0.00     0.188 C 
BRANCH   3   4
ATOM      4  C   UNL A   1      40.082  23.374  26.813  1.00  0.00     0.188 C 
BRANCH   4   5
ATOM      5  O   UNL A   1      38.780  22.896  26.478  1.00  0.00    -0.376 OA
BRANCH   5   6
ATOM      6  C   UNL A   1      38.684  21.691  25.719  1.00  0.00     0.202 C 
BRANCH   6   7
ATOM      7  C   UNL A   1      37.385  21.418  24.939  1.00  0.00     0.261 C 
BRANCH   7   8
ATOM      8  O   UNL A   1      36.295  22.329  25.201  1.00  0.00    -0.463 OA
BRANCH   8   9
ATOM      9  C   UNL A   1      35.906  23.100  24.159  1.00  0.00     0.314 C 
ATOM     10  O   UNL A   1      36.638  23.300  23.189  1.00  0.00    -0.252 OA
BRANCH   9  11
ATOM     11  C   UNL A   1      34.490  23.727  24.271  1.00  0.00     0.090 C 
ATOM     12  N   UNL A   1      33.050  21.805  23.880  1.00  0.00    -0.340 N 
ATOM     13  C   UNL A   1      32.174  22.380  22.894  1.00  0.00     0.120 C 
ATOM     14  C   UNL A   1      33.578  22.663  24.914  1.00  0.00     0.138 C 
ATOM     15  C   UNL A   1      32.981  23.388  22.098  1.00  0.00     0.023 C 
ATOM     16  C   UNL A   1      33.886  24.295  22.946  1.00  0.00     0.023 C 
BRANCH  12  17
ATOM     17  C   UNL A   1      32.859  20.478  24.145  1.00  0.00     0.227 A 
ATOM     18  C   UNL A   1      32.247  18.439  23.335  1.00  0.00     0.128 A 
ATOM     19  C   UNL A   1      32.460  17.847  24.551  1.00  0.00     0.067 A 
ATOM     20  N   UNL A   1      32.389  19.747  23.129  1.00  0.00    -0.196 NA
ATOM     21  C   UNL A   1      32.927  18.676  25.538  1.00  0.00     0.119 A 
ATOM     22  N   UNL A   1      33.158  19.992  25.357  1.00  0.00    -0.221 NA
BRANCH  18  23
ATOM     23  N   UNL A   1      31.834  17.709  22.246  1.00  0.00    -0.384 N 
ATOM     24  H   UNL A   1      31.604  18.168  21.406  1.00  0.00     0.158 HD
ATOM     25  H   UNL A   1      31.770  16.728  22.305  1.00  0.00     0.158 HD
ENDBRANCH  18  23
ENDBRANCH  12  17
BRANCH  11  26
ATOM     26  C   UNL A   1      34.761  24.937  25.245  1.00  0.00     0.056 C 
BRANCH  26  27
ATOM     27  C   UNL A   1      33.787  26.090  25.288  1.00  0.00    -0.047 A 
ATOM     28  C   UNL A   1      34.006  27.235  24.514  1.00  0.00     0.007 A 
ATOM     29  C   UNL A   1      32.631  26.009  26.083  1.00  0.00     0.007 A 
ATOM     30  C   UNL A   1      33.119  28.307  24.578  1.00  0.00     0.039 A 
ATOM     31  C   UNL A   1      31.733  27.073  26.131  1.00  0.00     0.039 A 
ATOM     32  C   UNL A   1      31.994  28.217  25.387  1.00  0.00     0.123 A 
ATOM     33  F   UNL A   1      31.141  29.248  25.443  1.00  0.00    -0.207 F 
ENDBRANCH  26  27
ENDBRANCH  11  26
ENDBRANCH   9  11
ENDBRANCH   8   9
ENDBRANCH   7   8
ENDBRANCH   6   7
ENDBRANCH   5   6
ENDBRANCH   4   5
ENDBRANCH   3   4
ENDBRANCH   2   3
ENDBRANCH   1   2
BRANCH   1  34
ATOM     34  C   UNL A   1      43.434  21.721  25.616  1.00  0.00     0.188 C 
BRANCH  34  35
ATOM     35  O   UNL A   1      44.833  21.898  25.370  1.00  0.00    -0.376 OA
BRANCH  35  36
ATOM     36  C   UNL A   1      45.218  22.582  24.179  1.00  0.00     0.202 C 
BRANCH  36  37
ATOM     37  C   UNL A   1      46.555  23.318  24.250  1.00  0.00     0.261 C 
BRANCH  37  38
ATOM     38  O   UNL A   1      46.607  24.242  25.347  1.00  0.00    -0.460 OA
BRANCH  38  39
ATOM     39  C   UNL A   1      46.907  25.518  24.999  1.00  0.00     0.338 C 
ATOM     40  O   UNL A   1      47.504  25.891  24.007  1.00  0.00    -0.246 OA
BRANCH  39  41
ATOM     41  C   UNL A   1      46.249  26.446  25.938  1.00  0.00     0.060 A 
ATOM     42  C   UNL A   1      47.049  27.133  26.863  1.00  0.00     0.016 A 
ATOM     43  C   UNL A   1      44.861  26.570  25.963  1.00  0.00     0.016 A 
ATOM     44  C   UNL A   1      46.457  27.904  27.858  1.00  0.00     0.010 A 
ATOM     45  C   UNL A   1      44.268  27.331  26.970  1.00  0.00     0.010 A 
ATOM     46  C   UNL A   1      45.064  27.960  27.947  1.00  0.00    -0.014 A 
BRANCH  46  47
ATOM     47  C   UNL A   1      44.420  28.505  29.162  1.00  0.00     0.031 A 
ATOM     48  C   UNL A   1      44.056  29.958  29.181  1.00  0.00     0.074 A 
ATOM     49  C   UNL A   1      44.178  27.728  30.230  1.00  0.00     0.049 A 
ATOM     50  N   UNL A   1      43.577  30.668  30.164  1.00  0.00    -0.248 NA
ATOM     51  C   UNL A   1      44.231  30.703  27.921  1.00  0.00     0.031 C 
ATOM     52  C   UNL A   1      44.395  26.290  30.276  1.00  0.00     0.029 A 
ATOM     53  N   UNL A   1      43.743  28.041  31.492  1.00  0.00    -0.354 N 
ATOM     54  C   UNL A   1      43.396  31.943  29.648  1.00  0.00     0.074 A 
ATOM     55  C   UNL A   1      43.843  31.920  28.274  1.00  0.00     0.031 C 
ATOM     56  C   UNL A   1      44.203  25.853  31.531  1.00  0.00     0.029 A 
ATOM     57  C   UNL A   1      43.840  26.987  32.372  1.00  0.00     0.049 A 
ATOM     58  H   UNL A   1      43.397  28.927  31.743  1.00  0.00     0.167 HD
ATOM     59  C   UNL A   1      42.873  33.024  30.266  1.00  0.00     0.034 A 
ATOM     60  C   UNL A   1      43.678  26.947  33.707  1.00  0.00     0.034 A 
ATOM     61  C   UNL A   1      42.426  33.021  31.631  1.00  0.00     0.049 A 
ATOM     62  C   UNL A   1      43.195  28.189  34.402  1.00  0.00     0.074 A 
ATOM     63  C   UNL A   1      41.847  34.054  32.344  1.00  0.00     0.029 A 
ATOM     64  N   UNL A   1      42.523  31.940  32.493  1.00  0.00    -0.354 N 
ATOM     65  N   UNL A   1      42.939  29.366  33.883  1.00  0.00    -0.248 NA
ATOM     66  C   UNL A   1      42.914  28.089  35.839  1.00  0.00     0.031 C 
ATOM     67  C   UNL A   1      41.633  33.610  33.650  1.00  0.00     0.029 A 
ATOM     68  C   UNL A   1      42.033  32.285  33.740  1.00  0.00     0.049 A 
ATOM     69  H   UNL A   1      42.886  31.056  32.255  1.00  0.00     0.167 HD
ATOM     70  C   UNL A   1      42.410  30.130  34.915  1.00  0.00     0.074 A 
ATOM     71  C   UNL A   1      42.387  29.281  36.090  1.00  0.00     0.031 C 
ATOM     72  C   UNL A   1      41.977  31.414  34.886  1.00  0.00     0.034 A 
BRANCH  59  73
ATOM     73  C   UNL A   1      42.732  34.290  29.470  1.00  0.00     0.023 A 
ATOM     74  C   UNL A   1      41.465  34.674  28.988  1.00  0.00     0.012 A 
ATOM     75  C   UNL A   1      43.836  35.141  29.278  1.00  0.00     0.148 A 
ATOM     76  C   UNL A   1      41.302  35.883  28.313  1.00  0.00     0.002 A 
ATOM     77  C   UNL A   1      43.657  36.366  28.648  1.00  0.00     0.091 A 
ATOM     78  F   UNL A   1      45.036  34.740  29.721  1.00  0.00    -0.205 F 
ATOM     79  C   UNL A   1      42.392  36.734  28.156  1.00  0.00     0.022 A 
BRANCH  77  80
ATOM     80  S   UNL A   1      44.978  37.568  28.473  1.00  0.00     0.127 S 
ATOM     81  O   UNL A   1      45.321  37.835  29.869  1.00  0.00    -0.237 OA
ATOM     82  O   UNL A   1      45.984  36.809  27.732  1.00  0.00    -0.237 OA
ATOM     83  O   UNL A   1      44.407  38.695  27.750  1.00  0.00    -0.744 OA
ENDBRANCH  77  80
ENDBRANCH  59  73
BRANCH  60  84
ATOM     84  C   UNL A   1      43.913  25.674  34.445  1.00  0.00     0.023 A 
ATOM     85  C   UNL A   1      42.862  24.751  34.592  1.00  0.00     0.012 A 
ATOM     86  C   UNL A   1      45.190  25.347  34.945  1.00  0.00     0.148 A 
ATOM     87  C   UNL A   1      43.069  23.538  35.248  1.00  0.00     0.002 A 
ATOM     88  C   UNL A   1      45.401  24.117  35.556  1.00  0.00     0.091 A 
ATOM     89  F   UNL A   1      46.181  26.238  34.793  1.00  0.00    -0.205 F 
ATOM     90  C   UNL A   1      44.338  23.216  35.722  1.00  0.00     0.022 A 
BRANCH  88  91
ATOM     91  S   UNL A   1      47.031  23.562  36.075  1.00  0.00     0.127 S 
ATOM     92  O   UNL A   1      47.455  24.649  36.951  1.00  0.00    -0.237 OA
ATOM     93  O   UNL A   1      46.718  22.305  36.753  1.00  0.00    -0.237 OA
ATOM     94  O   UNL A   1      47.802  23.399  34.849  1.00  0.00    -0.744 OA
ENDBRANCH  88  91
ENDBRANCH  60  84
BRANCH  72  95
ATOM     95  C   UNL A   1      41.397  31.989  36.149  1.00  0.00     0.023 A 
ATOM     96  C   UNL A   1      42.203  32.767  37.002  1.00  0.00     0.012 A 
ATOM     97  C   UNL A   1      40.019  31.861  36.420  1.00  0.00     0.148 A 
ATOM     98  C   UNL A   1      41.650  33.393  38.117  1.00  0.00     0.002 A 
ATOM     99  C   UNL A   1      39.466  32.535  37.499  1.00  0.00     0.091 A 
ATOM    100  F   UNL A   1      39.277  31.100  35.602  1.00  0.00    -0.205 F 
ATOM    101  C   UNL A   1      40.281  33.291  38.356  1.00  0.00     0.022 A 
BRANCH  99 102
ATOM    102  S   UNL A   1      37.699  32.556  37.819  1.00  0.00     0.127 S 
ATOM    103  O   UNL A   1      37.418  31.138  38.033  1.00  0.00    -0.237 OA
ATOM    104  O   UNL A   1      37.614  33.384  39.023  1.00  0.00    -0.237 OA
ATOM    105  O   UNL A   1      37.080  33.140  36.636  1.00  0.00    -0.744 OA
ENDBRANCH  99 102
ENDBRANCH  72  95
ENDBRANCH  46  47
ENDBRANCH  39  41
ENDBRANCH  38  39
ENDBRANCH  37  38
ENDBRANCH  36  37
ENDBRANCH  35  36
ENDBRANCH  34  35
ENDBRANCH   1  34
TORSDOF 27
ENDMDL
MODEL 3
REMARK VINA RESULT:      -9.3      6.503      9.984
REMARK SMILES Nc1ccnc(N2CCC[C@](Cc3ccc(F)cc3)(C(=O)OCCOCCOCCOCCOC(=O)c3ccc(-c4c5nc(c(-c6cccc(S(=O)(=O)[O-])c6F)c6ccc([nH]6)c(-c6cccc(S(=O)(=O)[O-])c6F)c6nc(c(-c7cccc(S(=O)(=O)[O-])c7F)c7ccc4[nH]7)C=C6)C=C5)cc3)C2)n1
REMARK SMILES IDX 29 1 28 2 27 3 26 4 25 5 24 6 23 7 22 8 20 9 21 10 11 11
REMARK SMILES IDX 7 12 8 13 100 14 9 15 10 16 6 17 2 18 3 19 101 20 4 21 5 22
REMARK SMILES IDX 1 23 12 26 13 27 14 28 19 29 15 30 18 31 16 32 17 33 30 34
REMARK SMILES IDX 31 35 32 36 33 37 34 38 35 39 36 40 37 41 38 42 99 43 39 44
REMARK SMILES IDX 98 45 40 46 41 47 42 48 92 49 43 50 97 51 91 52 93 53 44 54
REMARK SMILES IDX 96 55 90 56 89 57 45 59 77 60 57 61 76 62 58 63 61 64 75 65
REMARK SMILES IDX 94 66 59 67 60 68 74 70 95 71 62 72 46 73 47 74 55 75 48 76
REMARK SMILES IDX 50 77 56 78 49 79 51 80 52 81 53 82 54 83 78 84 79 85 87 86
REMARK SMILES IDX 80 87 82 88 88 89 81 90 83 91 84 92 85 93 86 94 63 95 64 96
REMARK SMILES IDX 72 97 65 98 67 99 73 100 66 101 68 102 69 103 70 104 71 105
REMARK H PARENT 1 24 1 25 93 58 61 69
REMARK Flexibility Score: inf
ROOT
ATOM      1  C   UNL A   1      41.317  26.334  27.148  1.00  0.00     0.188 C 
ENDROOT
BRANCH   1   2
ATOM      2  O   UNL A   1      40.976  25.349  26.176  1.00  0.00    -0.377 OA
BRANCH   2   3
ATOM      3  C   UNL A   1      40.946  23.972  26.508  1.00  0.00     0.188 C 
BRANCH   3   4
ATOM      4  C   UNL A   1      39.788  23.655  27.455  1.00  0.00     0.188 C 
BRANCH   4   5
ATOM      5  O   UNL A   1      38.528  24.248  27.142  1.00  0.00    -0.376 OA
BRANCH   5   6
ATOM      6  C   UNL A   1      37.870  23.828  25.947  1.00  0.00     0.202 C 
BRANCH   6   7
ATOM      7  C   UNL A   1      36.572  23.009  26.074  1.00  0.00     0.261 C 
BRANCH   7   8
ATOM      8  O   UNL A   1      35.348  23.736  25.830  1.00  0.00    -0.463 OA
BRANCH   8   9
ATOM      9  C   UNL A   1      34.217  23.162  26.301  1.00  0.00     0.314 C 
ATOM     10  O   UNL A   1      34.172  22.627  27.410  1.00  0.00    -0.252 OA
BRANCH   9  11
ATOM     11  C   UNL A   1      32.989  23.204  25.351  1.00  0.00     0.090 C 
ATOM     12  N   UNL A   1      31.865  25.240  26.066  1.00  0.00    -0.340 N 
ATOM     13  C   UNL A   1      30.529  24.722  26.200  1.00  0.00     0.120 C 
ATOM     14  C   UNL A   1      32.716  24.689  25.039  1.00  0.00     0.138 C 
ATOM     15  C   UNL A   1      30.643  23.269  26.619  1.00  0.00     0.023 C 
ATOM     16  C   UNL A   1      31.708  22.465  25.857  1.00  0.00     0.023 C 
BRANCH  12  17
ATOM     17  C   UNL A   1      32.042  26.538  26.457  1.00  0.00     0.227 A 
ATOM     18  C   UNL A   1      33.233  28.463  26.200  1.00  0.00     0.128 A 
ATOM     19  C   UNL A   1      32.476  29.105  27.142  1.00  0.00     0.067 A 
ATOM     20  N   UNL A   1      33.067  27.179  25.885  1.00  0.00    -0.196 NA
ATOM     21  C   UNL A   1      31.458  28.366  27.686  1.00  0.00     0.119 A 
ATOM     22  N   UNL A   1      31.202  27.086  27.345  1.00  0.00    -0.221 NA
BRANCH  18  23
ATOM     23  N   UNL A   1      34.248  29.108  25.535  1.00  0.00    -0.384 N 
ATOM     24  H   UNL A   1      34.423  30.061  25.710  1.00  0.00     0.158 HD
ATOM     25  H   UNL A   1      34.801  28.618  24.884  1.00  0.00     0.158 HD
ENDBRANCH  18  23
ENDBRANCH  12  17
BRANCH  11  26
ATOM     26  C   UNL A   1      33.539  22.429  24.094  1.00  0.00     0.056 C 
BRANCH  26  27
ATOM     27  C   UNL A   1      33.404  20.927  24.027  1.00  0.00    -0.047 A 
ATOM     28  C   UNL A   1      32.401  20.338  23.249  1.00  0.00     0.007 A 
ATOM     29  C   UNL A   1      34.308  20.105  24.721  1.00  0.00     0.007 A 
ATOM     30  C   UNL A   1      32.263  18.952  23.212  1.00  0.00     0.039 A 
ATOM     31  C   UNL A   1      34.182  18.718  24.668  1.00  0.00     0.039 A 
ATOM     32  C   UNL A   1      33.152  18.156  23.924  1.00  0.00     0.123 A 
ATOM     33  F   UNL A   1      33.020  16.824  23.883  1.00  0.00    -0.207 F 
ENDBRANCH  26  27
ENDBRANCH  11  26
ENDBRANCH   9  11
ENDBRANCH   8   9
ENDBRANCH   7   8
ENDBRANCH   6   7
ENDBRANCH   5   6
ENDBRANCH   4   5
ENDBRANCH   3   4
ENDBRANCH   2   3
ENDBRANCH   1   2
BRANCH   1  34
ATOM     34  C   UNL A   1      41.672  27.718  26.618  1.00  0.00     0.188 C 
BRANCH  34  35
ATOM     35  O   UNL A   1      40.727  28.760  26.884  1.00  0.00    -0.376 OA
BRANCH  35  36
ATOM     36  C   UNL A   1      39.989  28.694  28.103  1.00  0.00     0.202 C 
BRANCH  36  37
ATOM     37  C   UNL A   1      38.508  29.056  27.993  1.00  0.00     0.261 C 
BRANCH  37  38
ATOM     38  O   UNL A   1      37.827  28.944  29.250  1.00  0.00    -0.460 OA
BRANCH  38  39
ATOM     39  C   UNL A   1      36.950  29.944  29.512  1.00  0.00     0.338 C 
ATOM     40  O   UNL A   1      35.785  30.012  29.168  1.00  0.00    -0.246 OA
BRANCH  39  41
ATOM     41  C   UNL A   1      37.571  30.906  30.443  1.00  0.00     0.060 A 
ATOM     42  C   UNL A   1      37.252  32.265  30.306  1.00  0.00     0.016 A 
ATOM     43  C   UNL A   1      38.518  30.486  31.376  1.00  0.00     0.016 A 
ATOM     44  C   UNL A   1      37.923  33.218  31.064  1.00  0.00     0.010 A 
ATOM     45  C   UNL A   1      39.201  31.443  32.125  1.00  0.00     0.010 A 
ATOM     46  C   UNL A   1      38.938  32.813  31.935  1.00  0.00    -0.014 A 
BRANCH  46  47
ATOM     47  C   UNL A   1      39.865  33.813  32.508  1.00  0.00     0.031 A 
ATOM     48  C   UNL A   1      40.998  34.299  31.657  1.00  0.00     0.074 A 
ATOM     49  C   UNL A   1      39.713  34.266  33.762  1.00  0.00     0.049 A 
ATOM     50  N   UNL A   1      41.981  35.092  31.980  1.00  0.00    -0.248 NA
ATOM     51  C   UNL A   1      41.013  33.854  30.252  1.00  0.00     0.031 C 
ATOM     52  C   UNL A   1      38.592  33.940  34.631  1.00  0.00     0.029 A 
ATOM     53  N   UNL A   1      40.518  35.058  34.539  1.00  0.00    -0.354 N 
ATOM     54  C   UNL A   1      42.735  35.240  30.824  1.00  0.00     0.074 A 
ATOM     55  C   UNL A   1      42.114  34.433  29.798  1.00  0.00     0.031 C 
ATOM     56  C   UNL A   1      38.827  34.428  35.860  1.00  0.00     0.029 A 
ATOM     57  C   UNL A   1      40.115  35.110  35.854  1.00  0.00     0.049 A 
ATOM     58  H   UNL A   1      41.303  35.538  34.192  1.00  0.00     0.167 HD
ATOM     59  C   UNL A   1      43.829  36.009  30.638  1.00  0.00     0.034 A 
ATOM     60  C   UNL A   1      40.728  35.628  36.935  1.00  0.00     0.034 A 
ATOM     61  C   UNL A   1      44.423  36.811  31.671  1.00  0.00     0.049 A 
ATOM     62  C   UNL A   1      42.004  36.395  36.729  1.00  0.00     0.074 A 
ATOM     63  C   UNL A   1      45.513  37.656  31.577  1.00  0.00     0.029 A 
ATOM     64  N   UNL A   1      43.989  36.856  32.986  1.00  0.00    -0.354 N 
ATOM     65  N   UNL A   1      42.658  36.604  35.612  1.00  0.00    -0.248 NA
ATOM     66  C   UNL A   1      42.592  37.049  37.904  1.00  0.00     0.031 C 
ATOM     67  C   UNL A   1      45.764  38.179  32.847  1.00  0.00     0.029 A 
ATOM     68  C   UNL A   1      44.801  37.699  33.722  1.00  0.00     0.049 A 
ATOM     69  H   UNL A   1      43.216  36.363  33.344  1.00  0.00     0.167 HD
ATOM     70  C   UNL A   1      43.699  37.464  35.936  1.00  0.00     0.074 A 
ATOM     71  C   UNL A   1      43.590  37.731  37.356  1.00  0.00     0.031 C 
ATOM     72  C   UNL A   1      44.651  37.988  35.126  1.00  0.00     0.034 A 
BRANCH  59  73
ATOM     73  C   UNL A   1      44.441  36.042  29.266  1.00  0.00     0.023 A 
ATOM     74  C   UNL A   1      44.063  37.050  28.356  1.00  0.00     0.012 A 
ATOM     75  C   UNL A   1      45.453  35.130  28.912  1.00  0.00     0.148 A 
ATOM     76  C   UNL A   1      44.676  37.140  27.107  1.00  0.00     0.002 A 
ATOM     77  C   UNL A   1      46.092  35.256  27.686  1.00  0.00     0.091 A 
ATOM     78  F   UNL A   1      45.774  34.163  29.784  1.00  0.00    -0.205 F 
ATOM     79  C   UNL A   1      45.698  36.255  26.778  1.00  0.00     0.022 A 
BRANCH  77  80
ATOM     80  S   UNL A   1      47.476  34.221  27.204  1.00  0.00     0.127 S 
ATOM     81  O   UNL A   1      46.991  33.643  25.951  1.00  0.00    -0.237 OA
ATOM     82  O   UNL A   1      48.550  35.201  27.048  1.00  0.00    -0.237 OA
ATOM     83  O   UNL A   1      47.669  33.270  28.289  1.00  0.00    -0.744 OA
ENDBRANCH  77  80
ENDBRANCH  59  73
BRANCH  60  84
ATOM     84  C   UNL A   1      40.102  35.489  38.279  1.00  0.00     0.023 A 
ATOM     85  C   UNL A   1      39.372  36.562  38.821  1.00  0.00     0.012 A 
ATOM     86  C   UNL A   1      40.174  34.276  38.994  1.00  0.00     0.148 A 
ATOM     87  C   UNL A   1      38.748  36.442  40.063  1.00  0.00     0.002 A 
ATOM     88  C   UNL A   1      39.511  34.147  40.209  1.00  0.00     0.091 A 
ATOM     89  F   UNL A   1      40.872  33.263  38.461  1.00  0.00    -0.205 F 
ATOM     90  C   UNL A   1      38.809  35.234  40.753  1.00  0.00     0.022 A 
BRANCH  88  91
ATOM     91  S   UNL A   1      39.422  32.588  41.101  1.00  0.00     0.127 S 
ATOM     92  O   UNL A   1      39.059  33.030  42.444  1.00  0.00    -0.237 OA
ATOM     93  O   UNL A   1      38.367  31.886  40.372  1.00  0.00    -0.237 OA
ATOM     94  O   UNL A   1      40.740  31.981  40.968  1.00  0.00    -0.744 OA
ENDBRANCH  88  91
ENDBRANCH  60  84
BRANCH  72  95
ATOM     95  C   UNL A   1      45.643  38.942  35.733  1.00  0.00     0.023 A 
ATOM     96  C   UNL A   1      46.900  38.472  36.161  1.00  0.00     0.012 A 
ATOM     97  C   UNL A   1      45.371  40.325  35.760  1.00  0.00     0.148 A 
ATOM     98  C   UNL A   1      47.865  39.363  36.624  1.00  0.00     0.002 A 
ATOM     99  C   UNL A   1      46.358  41.211  36.168  1.00  0.00     0.091 A 
ATOM    100  F   UNL A   1      44.161  40.746  35.364  1.00  0.00    -0.205 F 
ATOM    101  C   UNL A   1      47.601  40.732  36.613  1.00  0.00     0.022 A 
BRANCH  99 102
ATOM    102  S   UNL A   1      46.152  42.993  36.080  1.00  0.00     0.127 S 
ATOM    103  O   UNL A   1      47.534  43.446  35.938  1.00  0.00    -0.237 OA
ATOM    104  O   UNL A   1      45.332  43.148  34.877  1.00  0.00    -0.237 OA
ATOM    105  O   UNL A   1      45.493  43.386  37.319  1.00  0.00    -0.744 OA
ENDBRANCH  99 102
ENDBRANCH  72  95
ENDBRANCH  46  47
ENDBRANCH  39  41
ENDBRANCH  38  39
ENDBRANCH  37  38
ENDBRANCH  36  37
ENDBRANCH  35  36
ENDBRANCH  34  35
ENDBRANCH   1  34
TORSDOF 27
ENDMDL
