MODEL 1
REMARK VINA RESULT:     -10.6      0.000      0.000
REMARK SMILES C[C@@]([NH2+]C[C@@H]1CCCc2ccccc21)(C(=O)OCCOCCOCCOCCOC(=O)c1ccc(-c2c3nc(c(-c4cccc(S(=O)(=O)[O-])c4F)c4ccc([nH]4)c(-c4cccc(S(=O)(=O)[O-])c4F)c4nc(c(-c5cccc(S(=O)(=O)[O-])c5F)c5ccc2[nH]5)C=C4)C=C3)cc1)C(F)(F)F
REMARK SMILES IDX 23 1 22 2 21 3 20 4 19 5 18 6 17 7 15 8 16 9 2 10 1 11 3 12
REMARK SMILES IDX 4 15 5 16 6 17 14 18 7 19 9 20 13 21 8 22 10 23 12 24 11 25
REMARK SMILES IDX 95 26 96 27 97 28 98 29 24 30 25 31 26 32 27 33 28 34 29 35
REMARK SMILES IDX 30 36 31 37 32 38 33 39 94 40 34 41 93 42 35 43 36 44 37 45
REMARK SMILES IDX 87 46 38 47 92 48 86 49 88 50 39 51 91 52 85 53 84 54 40 56
REMARK SMILES IDX 72 57 52 58 71 59 53 60 56 61 70 62 89 63 54 64 55 65 69 67
REMARK SMILES IDX 90 68 57 69 41 70 42 71 50 72 43 73 45 74 51 75 44 76 46 77
REMARK SMILES IDX 47 78 48 79 49 80 73 81 74 82 82 83 75 84 77 85 83 86 76 87
REMARK SMILES IDX 78 88 79 89 80 90 81 91 58 92 59 93 67 94 60 95 62 96 68 97
REMARK SMILES IDX 61 98 63 99 64 100 65 101 66 102
REMARK H PARENT 3 13 3 14 88 55 56 66
REMARK Flexibility Score: inf
ROOT
ATOM      1  O   UNL A   1      31.899  22.250  24.314  1.00  0.00    -0.377 OA
ENDROOT
BRANCH   1   2
ATOM      2  C   UNL A   1      32.068  22.331  22.918  1.00  0.00     0.188 C 
BRANCH   2   3
ATOM      3  C   UNL A   1      33.342  23.037  22.436  1.00  0.00     0.188 C 
BRANCH   3   4
ATOM      4  O   UNL A   1      33.096  24.107  21.548  1.00  0.00    -0.376 OA
BRANCH   4   5
ATOM      5  C   UNL A   1      33.451  25.442  21.857  1.00  0.00     0.202 C 
BRANCH   5   6
ATOM      6  C   UNL A   1      32.731  26.374  22.859  1.00  0.00     0.261 C 
BRANCH   6   7
ATOM      7  O   UNL A   1      33.478  27.195  23.764  1.00  0.00    -0.458 OA
BRANCH   7   8
ATOM      8  C   UNL A   1      33.098  27.169  25.060  1.00  0.00     0.377 C 
ATOM      9  O   UNL A   1      32.837  26.107  25.608  1.00  0.00    -0.244 OA
BRANCH   8  10
ATOM     10  C   UNL A   1      32.937  28.572  25.699  1.00  0.00     0.287 C 
ATOM     11  C   UNL A   1      34.310  29.096  26.208  1.00  0.00     0.103 C 
BRANCH  10  12
ATOM     12  N   UNL A   1      32.511  29.538  24.629  1.00  0.00    -0.324 N 
ATOM     13  H   UNL A   1      32.889  29.198  23.745  1.00  0.00     0.347 HD
ATOM     14  H   UNL A   1      32.866  30.440  24.947  1.00  0.00     0.347 HD
BRANCH  12  15
ATOM     15  C   UNL A   1      31.066  29.762  24.429  1.00  0.00     0.270 C 
BRANCH  15  16
ATOM     16  C   UNL A   1      30.421  29.344  23.065  1.00  0.00     0.074 C 
ATOM     17  C   UNL A   1      30.011  30.470  22.086  1.00  0.00     0.014 C 
ATOM     18  C   UNL A   1      29.210  28.462  23.343  1.00  0.00    -0.036 A 
ATOM     19  C   UNL A   1      28.753  31.197  22.540  1.00  0.00     0.006 C 
ATOM     20  C   UNL A   1      27.891  28.895  23.103  1.00  0.00    -0.044 A 
ATOM     21  C   UNL A   1      29.436  27.188  23.889  1.00  0.00     0.004 A 
ATOM     22  C   UNL A   1      27.582  30.231  22.474  1.00  0.00     0.036 C 
ATOM     23  C   UNL A   1      26.831  28.032  23.400  1.00  0.00     0.004 A 
ATOM     24  C   UNL A   1      28.372  26.355  24.205  1.00  0.00     0.000 A 
ATOM     25  C   UNL A   1      27.070  26.775  23.957  1.00  0.00     0.000 A 
ENDBRANCH  15  16
ENDBRANCH  12  15
ENDBRANCH  10  12
BRANCH  10  26
ATOM     26  C   UNL A   1      32.007  28.553  26.953  1.00  0.00     0.455 C 
ATOM     27  F   UNL A   1      31.646  29.764  27.417  1.00  0.00    -0.164 F 
ATOM     28  F   UNL A   1      30.847  27.898  26.662  1.00  0.00    -0.164 F 
ATOM     29  F   UNL A   1      32.511  27.887  28.010  1.00  0.00    -0.164 F 
ENDBRANCH  10  26
ENDBRANCH   8  10
ENDBRANCH   7   8
ENDBRANCH   6   7
ENDBRANCH   5   6
ENDBRANCH   4   5
ENDBRANCH   3   4
ENDBRANCH   2   3
ENDBRANCH   1   2
BRANCH   1  30
ATOM     30  C   UNL A   1      32.148  21.023  24.972  1.00  0.00     0.188 C 
BRANCH  30  31
ATOM     31  C   UNL A   1      33.571  20.584  25.378  1.00  0.00     0.188 C 
BRANCH  31  32
ATOM     32  O   UNL A   1      34.163  21.312  26.445  1.00  0.00    -0.376 OA
BRANCH  32  33
ATOM     33  C   UNL A   1      35.469  21.833  26.278  1.00  0.00     0.202 C 
BRANCH  33  34
ATOM     34  C   UNL A   1      36.409  21.080  25.327  1.00  0.00     0.261 C 
BRANCH  34  35
ATOM     35  O   UNL A   1      37.679  21.692  25.080  1.00  0.00    -0.460 OA
BRANCH  35  36
ATOM     36  C   UNL A   1      38.740  21.255  25.793  1.00  0.00     0.338 C 
ATOM     37  O   UNL A   1      39.229  20.139  25.786  1.00  0.00    -0.246 OA
BRANCH  36  38
ATOM     38  C   UNL A   1      39.337  22.437  26.443  1.00  0.00     0.060 A 
ATOM     39  C   UNL A   1      38.818  23.711  26.160  1.00  0.00     0.016 A 
ATOM     40  C   UNL A   1      40.359  22.273  27.379  1.00  0.00     0.016 A 
ATOM     41  C   UNL A   1      39.347  24.834  26.796  1.00  0.00     0.010 A 
ATOM     42  C   UNL A   1      40.908  23.398  27.987  1.00  0.00     0.010 A 
ATOM     43  C   UNL A   1      40.429  24.682  27.669  1.00  0.00    -0.014 A 
BRANCH  43  44
ATOM     44  C   UNL A   1      41.252  25.850  28.050  1.00  0.00     0.031 A 
ATOM     45  C   UNL A   1      40.558  26.964  28.779  1.00  0.00     0.074 A 
ATOM     46  C   UNL A   1      42.538  25.961  27.686  1.00  0.00     0.049 A 
ATOM     47  N   UNL A   1      40.987  28.162  29.066  1.00  0.00    -0.248 NA
ATOM     48  C   UNL A   1      39.181  26.689  29.225  1.00  0.00     0.031 C 
ATOM     49  C   UNL A   1      43.311  24.938  26.986  1.00  0.00     0.029 A 
ATOM     50  N   UNL A   1      43.403  27.019  27.813  1.00  0.00    -0.354 N 
ATOM     51  C   UNL A   1      39.916  28.804  29.676  1.00  0.00     0.074 A 
ATOM     52  C   UNL A   1      38.821  27.861  29.720  1.00  0.00     0.031 C 
ATOM     53  C   UNL A   1      44.524  25.441  26.693  1.00  0.00     0.029 A 
ATOM     54  C   UNL A   1      44.592  26.829  27.150  1.00  0.00     0.049 A 
ATOM     55  H   UNL A   1      43.194  27.831  28.329  1.00  0.00     0.167 HD
ATOM     56  C   UNL A   1      39.849  30.067  30.153  1.00  0.00     0.034 A 
ATOM     57  C   UNL A   1      45.593  27.696  26.896  1.00  0.00     0.034 A 
ATOM     58  C   UNL A   1      40.943  30.994  30.102  1.00  0.00     0.049 A 
ATOM     59  C   UNL A   1      45.497  29.106  27.417  1.00  0.00     0.074 A 
ATOM     60  C   UNL A   1      41.005  32.280  30.607  1.00  0.00     0.029 A 
ATOM     61  N   UNL A   1      42.160  30.743  29.487  1.00  0.00    -0.354 N 
ATOM     62  N   UNL A   1      44.523  29.674  28.089  1.00  0.00    -0.248 NA
ATOM     63  C   UNL A   1      46.647  29.989  27.171  1.00  0.00     0.031 C 
ATOM     64  C   UNL A   1      42.246  32.822  30.257  1.00  0.00     0.029 A 
ATOM     65  C   UNL A   1      42.976  31.856  29.582  1.00  0.00     0.049 A 
ATOM     66  H   UNL A   1      42.407  29.898  29.047  1.00  0.00     0.167 HD
ATOM     67  C   UNL A   1      44.957  30.963  28.381  1.00  0.00     0.074 A 
ATOM     68  C   UNL A   1      46.284  31.092  27.815  1.00  0.00     0.031 C 
ATOM     69  C   UNL A   1      44.316  31.949  29.056  1.00  0.00     0.034 A 
BRANCH  56  70
ATOM     70  C   UNL A   1      38.540  30.511  30.749  1.00  0.00     0.023 A 
ATOM     71  C   UNL A   1      38.240  30.222  32.096  1.00  0.00     0.012 A 
ATOM     72  C   UNL A   1      37.602  31.214  29.968  1.00  0.00     0.148 A 
ATOM     73  C   UNL A   1      37.008  30.580  32.641  1.00  0.00     0.002 A 
ATOM     74  C   UNL A   1      36.398  31.614  30.534  1.00  0.00     0.091 A 
ATOM     75  F   UNL A   1      37.890  31.452  28.680  1.00  0.00    -0.205 F 
ATOM     76  C   UNL A   1      36.092  31.283  31.864  1.00  0.00     0.022 A 
BRANCH  74  77
ATOM     77  S   UNL A   1      35.194  32.597  29.635  1.00  0.00     0.127 S 
ATOM     78  O   UNL A   1      34.735  31.648  28.622  1.00  0.00    -0.237 OA
ATOM     79  O   UNL A   1      34.210  32.904  30.673  1.00  0.00    -0.237 OA
ATOM     80  O   UNL A   1      35.920  33.753  29.129  1.00  0.00    -0.744 OA
ENDBRANCH  74  77
ENDBRANCH  56  70
BRANCH  57  81
ATOM     81  C   UNL A   1      46.774  27.238  26.113  1.00  0.00     0.023 A 
ATOM     82  C   UNL A   1      46.823  27.470  24.726  1.00  0.00     0.012 A 
ATOM     83  C   UNL A   1      47.873  26.628  26.750  1.00  0.00     0.148 A 
ATOM     84  C   UNL A   1      47.942  27.089  23.982  1.00  0.00     0.002 A 
ATOM     85  C   UNL A   1      49.005  26.301  26.013  1.00  0.00     0.091 A 
ATOM     86  F   UNL A   1      47.798  26.408  28.069  1.00  0.00    -0.205 F 
ATOM     87  C   UNL A   1      49.036  26.517  24.627  1.00  0.00     0.022 A 
BRANCH  85  88
ATOM     88  S   UNL A   1      50.510  25.681  26.773  1.00  0.00     0.127 S 
ATOM     89  O   UNL A   1      50.052  24.427  27.366  1.00  0.00    -0.237 OA
ATOM     90  O   UNL A   1      51.387  25.531  25.612  1.00  0.00    -0.237 OA
ATOM     91  O   UNL A   1      50.928  26.705  27.721  1.00  0.00    -0.744 OA
ENDBRANCH  85  88
ENDBRANCH  57  81
BRANCH  69  92
ATOM     92  C   UNL A   1      45.048  33.245  29.290  1.00  0.00     0.023 A 
ATOM     93  C   UNL A   1      45.868  33.405  30.423  1.00  0.00     0.012 A 
ATOM     94  C   UNL A   1      45.009  34.262  28.314  1.00  0.00     0.148 A 
ATOM     95  C   UNL A   1      46.622  34.566  30.591  1.00  0.00     0.002 A 
ATOM     96  C   UNL A   1      45.804  35.391  28.461  1.00  0.00     0.091 A 
ATOM     97  F   UNL A   1      44.210  34.095  27.249  1.00  0.00    -0.205 F 
ATOM     98  C   UNL A   1      46.602  35.552  29.604  1.00  0.00     0.022 A 
BRANCH  96  99
ATOM     99  S   UNL A   1      45.923  36.658  27.193  1.00  0.00     0.127 S 
ATOM    100  O   UNL A   1      46.395  35.886  26.044  1.00  0.00    -0.237 OA
ATOM    101  O   UNL A   1      44.540  37.122  27.089  1.00  0.00    -0.237 OA
ATOM    102  O   UNL A   1      46.860  37.652  27.700  1.00  0.00    -0.744 OA
ENDBRANCH  96  99
ENDBRANCH  69  92
ENDBRANCH  43  44
ENDBRANCH  36  38
ENDBRANCH  35  36
ENDBRANCH  34  35
ENDBRANCH  33  34
ENDBRANCH  32  33
ENDBRANCH  31  32
ENDBRANCH  30  31
ENDBRANCH   1  30
TORSDOF 27
ENDMDL
MODEL 2
REMARK VINA RESULT:      -8.6      5.440      9.548
REMARK SMILES C[C@@]([NH2+]C[C@@H]1CCCc2ccccc21)(C(=O)OCCOCCOCCOCCOC(=O)c1ccc(-c2c3nc(c(-c4cccc(S(=O)(=O)[O-])c4F)c4ccc([nH]4)c(-c4cccc(S(=O)(=O)[O-])c4F)c4nc(c(-c5cccc(S(=O)(=O)[O-])c5F)c5ccc2[nH]5)C=C4)C=C3)cc1)C(F)(F)F
REMARK SMILES IDX 23 1 22 2 21 3 20 4 19 5 18 6 17 7 15 8 16 9 2 10 1 11 3 12
REMARK SMILES IDX 4 15 5 16 6 17 14 18 7 19 9 20 13 21 8 22 10 23 12 24 11 25
REMARK SMILES IDX 95 26 96 27 97 28 98 29 24 30 25 31 26 32 27 33 28 34 29 35
REMARK SMILES IDX 30 36 31 37 32 38 33 39 94 40 34 41 93 42 35 43 36 44 37 45
REMARK SMILES IDX 87 46 38 47 92 48 86 49 88 50 39 51 91 52 85 53 84 54 40 56
REMARK SMILES IDX 72 57 52 58 71 59 53 60 56 61 70 62 89 63 54 64 55 65 69 67
REMARK SMILES IDX 90 68 57 69 41 70 42 71 50 72 43 73 45 74 51 75 44 76 46 77
REMARK SMILES IDX 47 78 48 79 49 80 73 81 74 82 82 83 75 84 77 85 83 86 76 87
REMARK SMILES IDX 78 88 79 89 80 90 81 91 58 92 59 93 67 94 60 95 62 96 68 97
REMARK SMILES IDX 61 98 63 99 64 100 65 101 66 102
REMARK H PARENT 3 13 3 14 88 55 56 66
REMARK Flexibility Score: inf
ROOT
ATOM      1  O   UNL A   1      33.443  31.946  27.763  1.00  0.00    -0.377 OA
ENDROOT
BRANCH   1   2
ATOM      2  C   UNL A   1      33.358  30.577  27.445  1.00  0.00     0.188 C 
BRANCH   2   3
ATOM      3  C   UNL A   1      32.887  30.245  26.022  1.00  0.00     0.188 C 
BRANCH   3   4
ATOM      4  O   UNL A   1      31.509  29.949  25.936  1.00  0.00    -0.376 OA
BRANCH   4   5
ATOM      5  C   UNL A   1      30.865  29.705  24.700  1.00  0.00     0.202 C 
BRANCH   5   6
ATOM      6  C   UNL A   1      31.513  29.103  23.431  1.00  0.00     0.261 C 
BRANCH   6   7
ATOM      7  O   UNL A   1      31.509  27.689  23.206  1.00  0.00    -0.458 OA
BRANCH   7   8
ATOM      8  C   UNL A   1      32.388  26.959  23.926  1.00  0.00     0.377 C 
ATOM      9  O   UNL A   1      33.532  27.358  24.097  1.00  0.00    -0.244 OA
BRANCH   8  10
ATOM     10  C   UNL A   1      31.838  25.587  24.391  1.00  0.00     0.287 C 
ATOM     11  C   UNL A   1      30.630  25.160  23.510  1.00  0.00     0.103 C 
BRANCH  10  12
ATOM     12  N   UNL A   1      32.895  24.544  24.155  1.00  0.00    -0.324 N 
ATOM     13  H   UNL A   1      32.985  24.003  25.016  1.00  0.00     0.347 HD
ATOM     14  H   UNL A   1      33.719  25.076  23.876  1.00  0.00     0.347 HD
BRANCH  12  15
ATOM     15  C   UNL A   1      32.691  23.582  23.055  1.00  0.00     0.270 C 
BRANCH  15  16
ATOM     16  C   UNL A   1      33.259  22.131  23.206  1.00  0.00     0.074 C 
ATOM     17  C   UNL A   1      32.348  21.065  23.858  1.00  0.00     0.014 C 
ATOM     18  C   UNL A   1      34.575  22.194  23.970  1.00  0.00    -0.036 A 
ATOM     19  C   UNL A   1      32.230  21.252  25.365  1.00  0.00     0.006 C 
ATOM     20  C   UNL A   1      34.711  21.697  25.281  1.00  0.00    -0.044 A 
ATOM     21  C   UNL A   1      35.673  22.804  23.341  1.00  0.00     0.004 A 
ATOM     22  C   UNL A   1      33.586  20.987  25.996  1.00  0.00     0.036 C 
ATOM     23  C   UNL A   1      35.949  21.807  25.923  1.00  0.00     0.004 A 
ATOM     24  C   UNL A   1      36.886  22.932  24.003  1.00  0.00     0.000 A 
ATOM     25  C   UNL A   1      37.025  22.430  25.292  1.00  0.00     0.000 A 
ENDBRANCH  15  16
ENDBRANCH  12  15
ENDBRANCH  10  12
BRANCH  10  26
ATOM     26  C   UNL A   1      31.294  25.627  25.854  1.00  0.00     0.455 C 
ATOM     27  F   UNL A   1      31.606  26.736  26.551  1.00  0.00    -0.164 F 
ATOM     28  F   UNL A   1      29.932  25.555  25.847  1.00  0.00    -0.164 F 
ATOM     29  F   UNL A   1      31.680  24.588  26.620  1.00  0.00    -0.164 F 
ENDBRANCH  10  26
ENDBRANCH   8  10
ENDBRANCH   7   8
ENDBRANCH   6   7
ENDBRANCH   5   6
ENDBRANCH   4   5
ENDBRANCH   3   4
ENDBRANCH   2   3
ENDBRANCH   1   2
BRANCH   1  30
ATOM     30  C   UNL A   1      34.625  32.450  28.352  1.00  0.00     0.188 C 
BRANCH  30  31
ATOM     31  C   UNL A   1      34.597  33.354  29.603  1.00  0.00     0.188 C 
BRANCH  31  32
ATOM     32  O   UNL A   1      34.176  32.730  30.808  1.00  0.00    -0.376 OA
BRANCH  32  33
ATOM     33  C   UNL A   1      35.142  32.427  31.798  1.00  0.00     0.202 C 
BRANCH  33  34
ATOM     34  C   UNL A   1      35.940  33.600  32.382  1.00  0.00     0.261 C 
BRANCH  34  35
ATOM     35  O   UNL A   1      37.298  33.324  32.742  1.00  0.00    -0.460 OA
BRANCH  35  36
ATOM     36  C   UNL A   1      37.519  32.500  33.789  1.00  0.00     0.338 C 
ATOM     37  O   UNL A   1      36.844  32.388  34.798  1.00  0.00    -0.246 OA
BRANCH  36  38
ATOM     38  C   UNL A   1      38.625  31.604  33.405  1.00  0.00     0.060 A 
ATOM     39  C   UNL A   1      38.521  30.230  33.675  1.00  0.00     0.016 A 
ATOM     40  C   UNL A   1      39.728  32.116  32.720  1.00  0.00     0.016 A 
ATOM     41  C   UNL A   1      39.541  29.365  33.284  1.00  0.00     0.010 A 
ATOM     42  C   UNL A   1      40.761  31.257  32.360  1.00  0.00     0.010 A 
ATOM     43  C   UNL A   1      40.687  29.887  32.675  1.00  0.00    -0.014 A 
BRANCH  43  44
ATOM     44  C   UNL A   1      41.926  29.084  32.602  1.00  0.00     0.031 A 
ATOM     45  C   UNL A   1      42.895  29.221  33.741  1.00  0.00     0.074 A 
ATOM     46  C   UNL A   1      42.225  28.334  31.531  1.00  0.00     0.049 A 
ATOM     47  N   UNL A   1      44.120  28.782  33.848  1.00  0.00    -0.248 NA
ATOM     48  C   UNL A   1      42.419  29.979  34.911  1.00  0.00     0.031 C 
ATOM     49  C   UNL A   1      41.355  28.123  30.377  1.00  0.00     0.029 A 
ATOM     50  N   UNL A   1      43.376  27.653  31.223  1.00  0.00    -0.354 N 
ATOM     51  C   UNL A   1      44.579  29.256  35.070  1.00  0.00     0.074 A 
ATOM     52  C   UNL A   1      43.502  30.012  35.669  1.00  0.00     0.031 C 
ATOM     53  C   UNL A   1      42.027  27.408  29.457  1.00  0.00     0.029 A 
ATOM     54  C   UNL A   1      43.382  27.151  29.944  1.00  0.00     0.049 A 
ATOM     55  H   UNL A   1      44.122  27.536  31.855  1.00  0.00     0.167 HD
ATOM     56  C   UNL A   1      45.792  29.081  35.641  1.00  0.00     0.034 A 
ATOM     57  C   UNL A   1      44.385  26.596  29.233  1.00  0.00     0.034 A 
ATOM     58  C   UNL A   1      46.854  28.330  35.036  1.00  0.00     0.049 A 
ATOM     59  C   UNL A   1      45.737  26.425  29.875  1.00  0.00     0.074 A 
ATOM     60  C   UNL A   1      48.104  28.040  35.551  1.00  0.00     0.029 A 
ATOM     61  N   UNL A   1      46.800  27.771  33.768  1.00  0.00    -0.354 N 
ATOM     62  N   UNL A   1      46.132  26.780  31.075  1.00  0.00    -0.248 NA
ATOM     63  C   UNL A   1      46.774  25.752  29.080  1.00  0.00     0.031 C 
ATOM     64  C   UNL A   1      48.822  27.342  34.575  1.00  0.00     0.029 A 
ATOM     65  C   UNL A   1      48.001  27.152  33.474  1.00  0.00     0.049 A 
ATOM     66  H   UNL A   1      46.022  27.809  33.166  1.00  0.00     0.167 HD
ATOM     67  C   UNL A   1      47.446  26.340  31.194  1.00  0.00     0.074 A 
ATOM     68  C   UNL A   1      47.780  25.688  29.944  1.00  0.00     0.031 C 
ATOM     69  C   UNL A   1      48.298  26.463  32.242  1.00  0.00     0.034 A 
BRANCH  56  70
ATOM     70  C   UNL A   1      46.026  29.736  36.977  1.00  0.00     0.023 A 
ATOM     71  C   UNL A   1      46.626  31.010  37.046  1.00  0.00     0.012 A 
ATOM     72  C   UNL A   1      45.652  29.083  38.168  1.00  0.00     0.148 A 
ATOM     73  C   UNL A   1      46.897  31.601  38.279  1.00  0.00     0.002 A 
ATOM     74  C   UNL A   1      45.877  29.702  39.391  1.00  0.00     0.091 A 
ATOM     75  F   UNL A   1      45.112  27.859  38.085  1.00  0.00    -0.205 F 
ATOM     76  C   UNL A   1      46.515  30.951  39.450  1.00  0.00     0.022 A 
BRANCH  74  77
ATOM     77  S   UNL A   1      45.342  28.980  40.945  1.00  0.00     0.127 S 
ATOM     78  O   UNL A   1      44.823  27.685  40.506  1.00  0.00    -0.237 OA
ATOM     79  O   UNL A   1      46.593  28.911  41.700  1.00  0.00    -0.237 OA
ATOM     80  O   UNL A   1      44.354  29.899  41.493  1.00  0.00    -0.744 OA
ENDBRANCH  74  77
ENDBRANCH  56  70
BRANCH  57  81
ATOM     81  C   UNL A   1      44.132  26.159  27.833  1.00  0.00     0.023 A 
ATOM     82  C   UNL A   1      44.345  27.060  26.772  1.00  0.00     0.012 A 
ATOM     83  C   UNL A   1      43.739  24.837  27.546  1.00  0.00     0.148 A 
ATOM     84  C   UNL A   1      44.157  26.655  25.449  1.00  0.00     0.002 A 
ATOM     85  C   UNL A   1      43.607  24.425  26.225  1.00  0.00     0.091 A 
ATOM     86  F   UNL A   1      43.533  24.001  28.573  1.00  0.00    -0.205 F 
ATOM     87  C   UNL A   1      43.801  25.336  25.176  1.00  0.00     0.022 A 
BRANCH  85  88
ATOM     88  S   UNL A   1      43.279  22.718  25.770  1.00  0.00     0.127 S 
ATOM     89  O   UNL A   1      41.992  22.478  26.416  1.00  0.00    -0.237 OA
ATOM     90  O   UNL A   1      43.231  22.805  24.311  1.00  0.00    -0.237 OA
ATOM     91  O   UNL A   1      44.396  21.945  26.295  1.00  0.00    -0.744 OA
ENDBRANCH  85  88
ENDBRANCH  57  81
BRANCH  69  92
ATOM     92  C   UNL A   1      49.662  25.831  32.130  1.00  0.00     0.023 A 
ATOM     93  C   UNL A   1      50.729  26.540  31.546  1.00  0.00     0.012 A 
ATOM     94  C   UNL A   1      49.904  24.571  32.715  1.00  0.00     0.148 A 
ATOM     95  C   UNL A   1      52.013  25.995  31.529  1.00  0.00     0.002 A 
ATOM     96  C   UNL A   1      51.195  24.060  32.742  1.00  0.00     0.091 A 
ATOM     97  F   UNL A   1      48.870  23.907  33.252  1.00  0.00    -0.205 F 
ATOM     98  C   UNL A   1      52.249  24.764  32.139  1.00  0.00     0.022 A 
BRANCH  96  99
ATOM     99  S   UNL A   1      51.610  22.536  33.598  1.00  0.00     0.127 S 
ATOM    100  O   UNL A   1      51.371  22.903  34.993  1.00  0.00    -0.237 OA
ATOM    101  O   UNL A   1      50.639  21.594  33.040  1.00  0.00    -0.237 OA
ATOM    102  O   UNL A   1      52.997  22.247  33.260  1.00  0.00    -0.744 OA
ENDBRANCH  96  99
ENDBRANCH  69  92
ENDBRANCH  43  44
ENDBRANCH  36  38
ENDBRANCH  35  36
ENDBRANCH  34  35
ENDBRANCH  33  34
ENDBRANCH  32  33
ENDBRANCH  31  32
ENDBRANCH  30  31
ENDBRANCH   1  30
TORSDOF 27
ENDMDL
MODEL 3
REMARK VINA RESULT:      -8.6      4.217     10.263
REMARK SMILES C[C@@]([NH2+]C[C@@H]1CCCc2ccccc21)(C(=O)OCCOCCOCCOCCOC(=O)c1ccc(-c2c3nc(c(-c4cccc(S(=O)(=O)[O-])c4F)c4ccc([nH]4)c(-c4cccc(S(=O)(=O)[O-])c4F)c4nc(c(-c5cccc(S(=O)(=O)[O-])c5F)c5ccc2[nH]5)C=C4)C=C3)cc1)C(F)(F)F
REMARK SMILES IDX 23 1 22 2 21 3 20 4 19 5 18 6 17 7 15 8 16 9 2 10 1 11 3 12
REMARK SMILES IDX 4 15 5 16 6 17 14 18 7 19 9 20 13 21 8 22 10 23 12 24 11 25
REMARK SMILES IDX 95 26 96 27 97 28 98 29 24 30 25 31 26 32 27 33 28 34 29 35
REMARK SMILES IDX 30 36 31 37 32 38 33 39 94 40 34 41 93 42 35 43 36 44 37 45
REMARK SMILES IDX 87 46 38 47 92 48 86 49 88 50 39 51 91 52 85 53 84 54 40 56
REMARK SMILES IDX 72 57 52 58 71 59 53 60 56 61 70 62 89 63 54 64 55 65 69 67
REMARK SMILES IDX 90 68 57 69 41 70 42 71 50 72 43 73 45 74 51 75 44 76 46 77
REMARK SMILES IDX 47 78 48 79 49 80 73 81 74 82 82 83 75 84 77 85 83 86 76 87
REMARK SMILES IDX 78 88 79 89 80 90 81 91 58 92 59 93 67 94 60 95 62 96 68 97
REMARK SMILES IDX 61 98 63 99 64 100 65 101 66 102
REMARK H PARENT 3 13 3 14 88 55 56 66
REMARK Flexibility Score: inf
ROOT
ATOM      1  O   UNL A   1      35.725  31.064  27.645  1.00  0.00    -0.377 OA
ENDROOT
BRANCH   1   2
ATOM      2  C   UNL A   1      35.592  29.667  27.763  1.00  0.00     0.188 C 
BRANCH   2   3
ATOM      3  C   UNL A   1      34.284  29.069  27.229  1.00  0.00     0.188 C 
BRANCH   3   4
ATOM      4  O   UNL A   1      33.201  29.976  27.237  1.00  0.00    -0.376 OA
BRANCH   4   5
ATOM      5  C   UNL A   1      31.901  29.603  26.821  1.00  0.00     0.202 C 
BRANCH   5   6
ATOM      6  C   UNL A   1      31.438  29.355  25.366  1.00  0.00     0.261 C 
BRANCH   6   7
ATOM      7  O   UNL A   1      32.196  28.513  24.490  1.00  0.00    -0.458 OA
BRANCH   7   8
ATOM      8  C   UNL A   1      31.563  27.426  23.998  1.00  0.00     0.377 C 
ATOM      9  O   UNL A   1      30.341  27.374  23.982  1.00  0.00    -0.244 OA
BRANCH   8  10
ATOM     10  C   UNL A   1      32.515  26.277  23.579  1.00  0.00     0.287 C 
ATOM     11  C   UNL A   1      33.878  26.405  24.317  1.00  0.00     0.103 C 
BRANCH  10  12
ATOM     12  N   UNL A   1      31.927  24.975  24.048  1.00  0.00    -0.324 N 
ATOM     13  H   UNL A   1      31.437  24.561  23.254  1.00  0.00     0.347 HD
ATOM     14  H   UNL A   1      31.345  25.232  24.845  1.00  0.00     0.347 HD
BRANCH  12  15
ATOM     15  C   UNL A   1      32.843  23.947  24.579  1.00  0.00     0.270 C 
BRANCH  15  16
ATOM     16  C   UNL A   1      33.211  22.724  23.674  1.00  0.00     0.074 C 
ATOM     17  C   UNL A   1      32.239  21.521  23.659  1.00  0.00     0.014 C 
ATOM     18  C   UNL A   1      34.603  22.234  24.050  1.00  0.00    -0.036 A 
ATOM     19  C   UNL A   1      32.328  20.694  24.935  1.00  0.00     0.006 C 
ATOM     20  C   UNL A   1      34.819  21.003  24.700  1.00  0.00    -0.044 A 
ATOM     21  C   UNL A   1      35.695  23.069  23.760  1.00  0.00     0.004 A 
ATOM     22  C   UNL A   1      33.697  20.039  24.996  1.00  0.00     0.036 C 
ATOM     23  C   UNL A   1      36.128  20.630  25.027  1.00  0.00     0.004 A 
ATOM     24  C   UNL A   1      36.984  22.697  24.118  1.00  0.00     0.000 A 
ATOM     25  C   UNL A   1      37.200  21.477  24.748  1.00  0.00     0.000 A 
ENDBRANCH  15  16
ENDBRANCH  12  15
ENDBRANCH  10  12
BRANCH  10  26
ATOM     26  C   UNL A   1      32.860  26.312  22.057  1.00  0.00     0.455 C 
ATOM     27  F   UNL A   1      33.589  27.372  21.659  1.00  0.00    -0.164 F 
ATOM     28  F   UNL A   1      33.584  25.207  21.717  1.00  0.00    -0.164 F 
ATOM     29  F   UNL A   1      31.788  26.273  21.242  1.00  0.00    -0.164 F 
ENDBRANCH  10  26
ENDBRANCH   8  10
ENDBRANCH   7   8
ENDBRANCH   6   7
ENDBRANCH   5   6
ENDBRANCH   4   5
ENDBRANCH   3   4
ENDBRANCH   2   3
ENDBRANCH   1   2
BRANCH   1  30
ATOM     30  C   UNL A   1      35.419  31.886  28.754  1.00  0.00     0.188 C 
BRANCH  30  31
ATOM     31  C   UNL A   1      34.321  32.969  28.694  1.00  0.00     0.188 C 
BRANCH  31  32
ATOM     32  O   UNL A   1      34.525  34.104  29.523  1.00  0.00    -0.376 OA
BRANCH  32  33
ATOM     33  C   UNL A   1      34.155  34.032  30.889  1.00  0.00     0.202 C 
BRANCH  33  34
ATOM     34  C   UNL A   1      35.274  34.190  31.928  1.00  0.00     0.261 C 
BRANCH  34  35
ATOM     35  O   UNL A   1      36.594  34.382  31.410  1.00  0.00    -0.460 OA
BRANCH  35  36
ATOM     36  C   UNL A   1      37.477  33.367  31.538  1.00  0.00     0.338 C 
ATOM     37  O   UNL A   1      37.249  32.232  31.918  1.00  0.00    -0.246 OA
BRANCH  36  38
ATOM     38  C   UNL A   1      38.746  33.823  30.941  1.00  0.00     0.060 A 
ATOM     39  C   UNL A   1      38.794  34.112  29.568  1.00  0.00     0.016 A 
ATOM     40  C   UNL A   1      39.861  34.028  31.754  1.00  0.00     0.016 A 
ATOM     41  C   UNL A   1      39.976  34.581  28.997  1.00  0.00     0.010 A 
ATOM     42  C   UNL A   1      41.050  34.463  31.177  1.00  0.00     0.010 A 
ATOM     43  C   UNL A   1      41.120  34.704  29.792  1.00  0.00    -0.014 A 
BRANCH  43  44
ATOM     44  C   UNL A   1      42.456  34.816  29.168  1.00  0.00     0.031 A 
ATOM     45  C   UNL A   1      43.344  33.608  29.237  1.00  0.00     0.074 A 
ATOM     46  C   UNL A   1      42.899  35.967  28.641  1.00  0.00     0.049 A 
ATOM     47  N   UNL A   1      44.609  33.488  28.938  1.00  0.00    -0.248 NA
ATOM     48  C   UNL A   1      42.719  32.370  29.733  1.00  0.00     0.031 C 
ATOM     49  C   UNL A   1      42.118  37.195  28.514  1.00  0.00     0.029 A 
ATOM     50  N   UNL A   1      44.142  36.299  28.163  1.00  0.00    -0.354 N 
ATOM     51  C   UNL A   1      44.945  32.180  29.262  1.00  0.00     0.074 A 
ATOM     52  C   UNL A   1      43.752  31.545  29.776  1.00  0.00     0.031 C 
ATOM     53  C   UNL A   1      42.920  38.168  28.043  1.00  0.00     0.029 A 
ATOM     54  C   UNL A   1      44.273  37.636  27.878  1.00  0.00     0.049 A 
ATOM     55  H   UNL A   1      44.866  35.644  28.037  1.00  0.00     0.167 HD
ATOM     56  C   UNL A   1      46.142  31.562  29.146  1.00  0.00     0.034 A 
ATOM     57  C   UNL A   1      45.372  38.355  27.570  1.00  0.00     0.034 A 
ATOM     58  C   UNL A   1      47.320  32.203  28.637  1.00  0.00     0.049 A 
ATOM     59  C   UNL A   1      46.703  37.658  27.463  1.00  0.00     0.074 A 
ATOM     60  C   UNL A   1      48.572  31.657  28.421  1.00  0.00     0.029 A 
ATOM     61  N   UNL A   1      47.399  33.543  28.286  1.00  0.00    -0.354 N 
ATOM     62  N   UNL A   1      46.992  36.394  27.667  1.00  0.00    -0.248 NA
ATOM     63  C   UNL A   1      47.855  38.477  27.058  1.00  0.00     0.031 C 
ATOM     64  C   UNL A   1      49.419  32.679  27.982  1.00  0.00     0.029 A 
ATOM     65  C   UNL A   1      48.683  33.848  27.872  1.00  0.00     0.049 A 
ATOM     66  H   UNL A   1      46.651  34.182  28.326  1.00  0.00     0.167 HD
ATOM     67  C   UNL A   1      48.345  36.257  27.375  1.00  0.00     0.074 A 
ATOM     68  C   UNL A   1      48.819  37.567  26.978  1.00  0.00     0.031 C 
ATOM     69  C   UNL A   1      49.125  35.148  27.431  1.00  0.00     0.034 A 
BRANCH  56  70
ATOM     70  C   UNL A   1      46.226  30.130  29.601  1.00  0.00     0.023 A 
ATOM     71  C   UNL A   1      46.603  29.829  30.926  1.00  0.00     0.012 A 
ATOM     72  C   UNL A   1      45.934  29.079  28.711  1.00  0.00     0.148 A 
ATOM     73  C   UNL A   1      46.738  28.504  31.342  1.00  0.00     0.002 A 
ATOM     74  C   UNL A   1      46.019  27.763  29.148  1.00  0.00     0.091 A 
ATOM     75  F   UNL A   1      45.608  29.382  27.446  1.00  0.00    -0.205 F 
ATOM     76  C   UNL A   1      46.437  27.474  30.457  1.00  0.00     0.022 A 
BRANCH  74  77
ATOM     77  S   UNL A   1      45.568  26.373  28.105  1.00  0.00     0.127 S 
ATOM     78  O   UNL A   1      45.597  25.266  29.059  1.00  0.00    -0.237 OA
ATOM     79  O   UNL A   1      44.229  26.751  27.651  1.00  0.00    -0.237 OA
ATOM     80  O   UNL A   1      46.572  26.322  27.052  1.00  0.00    -0.744 OA
ENDBRANCH  74  77
ENDBRANCH  56  70
BRANCH  57  81
ATOM     81  C   UNL A   1      45.244  39.820  27.336  1.00  0.00     0.023 A 
ATOM     82  C   UNL A   1      44.960  40.297  26.042  1.00  0.00     0.012 A 
ATOM     83  C   UNL A   1      45.343  40.736  28.401  1.00  0.00     0.148 A 
ATOM     84  C   UNL A   1      44.791  41.663  25.810  1.00  0.00     0.002 A 
ATOM     85  C   UNL A   1      45.120  42.089  28.174  1.00  0.00     0.091 A 
ATOM     86  F   UNL A   1      45.624  40.260  29.622  1.00  0.00    -0.205 F 
ATOM     87  C   UNL A   1      44.859  42.556  26.877  1.00  0.00     0.022 A 
BRANCH  85  88
ATOM     88  S   UNL A   1      45.057  43.297  29.502  1.00  0.00     0.127 S 
ATOM     89  O   UNL A   1      46.391  43.172  30.085  1.00  0.00    -0.237 OA
ATOM     90  O   UNL A   1      44.821  44.537  28.763  1.00  0.00    -0.237 OA
ATOM     91  O   UNL A   1      43.958  42.885  30.363  1.00  0.00    -0.744 OA
ENDBRANCH  85  88
ENDBRANCH  57  81
BRANCH  69  92
ATOM     92  C   UNL A   1      50.563  35.265  26.996  1.00  0.00     0.023 A 
ATOM     93  C   UNL A   1      51.555  35.652  27.916  1.00  0.00     0.012 A 
ATOM     94  C   UNL A   1      50.938  34.874  25.694  1.00  0.00     0.148 A 
ATOM     95  C   UNL A   1      52.899  35.667  27.540  1.00  0.00     0.002 A 
ATOM     96  C   UNL A   1      52.281  34.839  25.344  1.00  0.00     0.091 A 
ATOM     97  F   UNL A   1      49.974  34.524  24.830  1.00  0.00    -0.205 F 
ATOM     98  C   UNL A   1      53.263  35.246  26.261  1.00  0.00     0.022 A 
BRANCH  96  99
ATOM     99  S   UNL A   1      52.849  34.211  23.760  1.00  0.00     0.127 S 
ATOM    100  O   UNL A   1      52.691  35.384  22.901  1.00  0.00    -0.237 OA
ATOM    101  O   UNL A   1      54.237  33.850  24.050  1.00  0.00    -0.237 OA
ATOM    102  O   UNL A   1      51.984  33.084  23.437  1.00  0.00    -0.744 OA
ENDBRANCH  96  99
ENDBRANCH  69  92
ENDBRANCH  43  44
ENDBRANCH  36  38
ENDBRANCH  35  36
ENDBRANCH  34  35
ENDBRANCH  33  34
ENDBRANCH  32  33
ENDBRANCH  31  32
ENDBRANCH  30  31
ENDBRANCH   1  30
TORSDOF 27
ENDMDL
