MODEL 1
REMARK VINA RESULT:     -11.0      0.000      0.000
REMARK SMILES O=C(OCCOCCOCCOCCOC(=O)c1cc(-c2ccn(C(F)F)c(=O)c2)ccc1O)c1ccc(-c2c3nc(c(-c4cccc(S(=O)(=O)[O-])c4F)c4ccc([nH]4)c(-c4cccc(S(=O)(=O)[O-])c4F)c4nc(c(-c5cccc(S(=O)(=O)[O-])c5F)c5ccc2[nH]5)C=C4)C=C3)cc1
REMARK SMILES IDX 8 1 7 2 6 3 5 4 4 5 3 6 2 7 1 8 35 9 36 10 97 11 37 12 96 13
REMARK SMILES IDX 38 14 39 15 40 16 90 17 41 18 95 19 89 20 91 21 42 22 94 23
REMARK SMILES IDX 88 24 87 25 43 27 75 28 55 29 74 30 56 31 59 32 73 33 92 34
REMARK SMILES IDX 57 35 58 36 72 38 93 39 60 40 44 41 45 42 53 43 46 44 48 45
REMARK SMILES IDX 54 46 47 47 49 48 50 49 51 50 52 51 76 52 77 53 85 54 78 55
REMARK SMILES IDX 80 56 86 57 79 58 81 59 82 60 83 61 84 62 61 63 62 64 70 65
REMARK SMILES IDX 63 66 65 67 71 68 64 69 66 70 67 71 68 72 69 73 9 74 10 75
REMARK SMILES IDX 11 76 12 77 13 78 14 79 15 80 16 81 17 82 18 83 19 84 33 85
REMARK SMILES IDX 20 86 32 87 31 88 34 89 21 91 22 92 30 93 23 94 28 95 24 96
REMARK SMILES IDX 29 97 25 98 26 99 27 100
REMARK H PARENT 91 26 59 37 34 90
REMARK Flexibility Score: inf
ROOT
ATOM      1  C   UNL A   1      33.824  21.103  24.189  1.00  0.00     0.188 C 
ENDROOT
BRANCH   1   2
ATOM      2  C   UNL A   1      33.905  19.648  24.645  1.00  0.00     0.188 C 
BRANCH   2   3
ATOM      3  O   UNL A   1      35.261  19.263  24.894  1.00  0.00    -0.376 OA
BRANCH   3   4
ATOM      4  C   UNL A   1      36.179  20.347  25.014  1.00  0.00     0.202 C 
BRANCH   4   5
ATOM      5  C   UNL A   1      37.650  19.934  25.057  1.00  0.00     0.261 C 
BRANCH   5   6
ATOM      6  O   UNL A   1      38.544  21.047  25.166  1.00  0.00    -0.460 OA
BRANCH   6   7
ATOM      7  C   UNL A   1      39.419  21.342  26.160  1.00  0.00     0.338 C 
ATOM      8  O   UNL A   1      39.944  20.387  26.736  1.00  0.00    -0.246 OA
BRANCH   7   9
ATOM      9  C   UNL A   1      39.754  22.725  26.661  1.00  0.00     0.060 A 
ATOM     10  C   UNL A   1      40.756  22.796  27.651  1.00  0.00     0.016 A 
ATOM     11  C   UNL A   1      39.176  23.933  26.256  1.00  0.00     0.016 A 
ATOM     12  C   UNL A   1      41.185  24.019  28.180  1.00  0.00     0.010 A 
ATOM     13  C   UNL A   1      39.586  25.158  26.785  1.00  0.00     0.010 A 
ATOM     14  C   UNL A   1      40.614  25.210  27.724  1.00  0.00    -0.014 A 
BRANCH  14  15
ATOM     15  C   UNL A   1      41.242  26.515  28.000  1.00  0.00     0.031 A 
ATOM     16  C   UNL A   1      42.667  26.801  27.650  1.00  0.00     0.074 A 
ATOM     17  C   UNL A   1      40.507  27.386  28.717  1.00  0.00     0.049 A 
ATOM     18  N   UNL A   1      43.332  27.914  27.806  1.00  0.00    -0.248 NA
ATOM     19  C   UNL A   1      43.455  25.703  27.069  1.00  0.00     0.031 C 
ATOM     20  C   UNL A   1      39.152  27.122  29.215  1.00  0.00     0.029 A 
ATOM     21  N   UNL A   1      40.794  28.637  29.187  1.00  0.00    -0.354 N 
ATOM     22  C   UNL A   1      44.616  27.661  27.343  1.00  0.00     0.074 A 
ATOM     23  C   UNL A   1      44.645  26.277  26.920  1.00  0.00     0.031 C 
ATOM     24  C   UNL A   1      38.732  28.173  29.931  1.00  0.00     0.029 A 
ATOM     25  C   UNL A   1      39.777  29.187  29.930  1.00  0.00     0.049 A 
ATOM     26  H   UNL A   1      41.646  29.099  29.011  1.00  0.00     0.167 HD
ATOM     27  C   UNL A   1      45.655  28.526  27.262  1.00  0.00     0.034 A 
ATOM     28  C   UNL A   1      39.686  30.390  30.526  1.00  0.00     0.034 A 
ATOM     29  C   UNL A   1      45.581  29.898  27.691  1.00  0.00     0.049 A 
ATOM     30  C   UNL A   1      40.817  31.353  30.348  1.00  0.00     0.074 A 
ATOM     31  C   UNL A   1      46.532  30.894  27.560  1.00  0.00     0.029 A 
ATOM     32  N   UNL A   1      44.497  30.463  28.350  1.00  0.00    -0.354 N 
ATOM     33  N   UNL A   1      41.958  31.164  29.730  1.00  0.00    -0.248 NA
ATOM     34  C   UNL A   1      40.640  32.702  30.896  1.00  0.00     0.031 C 
ATOM     35  C   UNL A   1      46.027  32.058  28.148  1.00  0.00     0.029 A 
ATOM     36  C   UNL A   1      44.757  31.791  28.637  1.00  0.00     0.049 A 
ATOM     37  H   UNL A   1      43.666  29.988  28.579  1.00  0.00     0.167 HD
ATOM     38  C   UNL A   1      42.632  32.374  29.795  1.00  0.00     0.074 A 
ATOM     39  C   UNL A   1      41.761  33.295  30.503  1.00  0.00     0.031 C 
ATOM     40  C   UNL A   1      43.860  32.689  29.320  1.00  0.00     0.034 A 
BRANCH  27  41
ATOM     41  C   UNL A   1      46.931  28.059  26.611  1.00  0.00     0.023 A 
ATOM     42  C   UNL A   1      47.916  27.447  27.414  1.00  0.00     0.012 A 
ATOM     43  C   UNL A   1      47.105  28.095  25.213  1.00  0.00     0.148 A 
ATOM     44  C   UNL A   1      49.056  26.885  26.840  1.00  0.00     0.002 A 
ATOM     45  C   UNL A   1      48.233  27.509  24.645  1.00  0.00     0.091 A 
ATOM     46  F   UNL A   1      46.158  28.683  24.467  1.00  0.00    -0.205 F 
ATOM     47  C   UNL A   1      49.210  26.909  25.457  1.00  0.00     0.022 A 
BRANCH  45  48
ATOM     48  S   UNL A   1      48.510  27.430  22.871  1.00  0.00     0.127 S 
ATOM     49  O   UNL A   1      49.863  27.977  22.758  1.00  0.00    -0.237 OA
ATOM     50  O   UNL A   1      48.411  25.994  22.609  1.00  0.00    -0.237 OA
ATOM     51  O   UNL A   1      47.465  28.240  22.260  1.00  0.00    -0.744 OA
ENDBRANCH  45  48
ENDBRANCH  27  41
BRANCH  28  52
ATOM     52  C   UNL A   1      38.413  30.750  31.202  1.00  0.00     0.023 A 
ATOM     53  C   UNL A   1      38.316  30.584  32.596  1.00  0.00     0.012 A 
ATOM     54  C   UNL A   1      37.376  31.404  30.508  1.00  0.00     0.148 A 
ATOM     55  C   UNL A   1      37.208  31.065  33.292  1.00  0.00     0.002 A 
ATOM     56  C   UNL A   1      36.291  31.914  31.212  1.00  0.00     0.091 A 
ATOM     57  F   UNL A   1      37.500  31.557  29.182  1.00  0.00    -0.205 F 
ATOM     58  C   UNL A   1      36.203  31.741  32.603  1.00  0.00     0.022 A 
BRANCH  56  59
ATOM     59  S   UNL A   1      35.008  32.904  30.435  1.00  0.00     0.127 S 
ATOM     60  O   UNL A   1      35.765  34.069  29.981  1.00  0.00    -0.237 OA
ATOM     61  O   UNL A   1      34.545  32.016  29.369  1.00  0.00    -0.237 OA
ATOM     62  O   UNL A   1      34.023  33.162  31.476  1.00  0.00    -0.744 OA
ENDBRANCH  56  59
ENDBRANCH  28  52
BRANCH  40  63
ATOM     63  C   UNL A   1      44.351  34.088  29.558  1.00  0.00     0.023 A 
ATOM     64  C   UNL A   1      45.027  34.382  30.757  1.00  0.00     0.012 A 
ATOM     65  C   UNL A   1      44.242  35.069  28.554  1.00  0.00     0.148 A 
ATOM     66  C   UNL A   1      45.584  35.644  30.959  1.00  0.00     0.002 A 
ATOM     67  C   UNL A   1      44.828  36.312  28.748  1.00  0.00     0.091 A 
ATOM     68  F   UNL A   1      43.583  34.759  27.428  1.00  0.00    -0.205 F 
ATOM     69  C   UNL A   1      45.495  36.602  29.951  1.00  0.00     0.022 A 
BRANCH  67  70
ATOM     70  S   UNL A   1      44.831  37.588  27.485  1.00  0.00     0.127 S 
ATOM     71  O   UNL A   1      45.156  38.780  28.267  1.00  0.00    -0.237 OA
ATOM     72  O   UNL A   1      45.897  37.134  26.592  1.00  0.00    -0.237 OA
ATOM     73  O   UNL A   1      43.499  37.578  26.897  1.00  0.00    -0.744 OA
ENDBRANCH  67  70
ENDBRANCH  40  63
ENDBRANCH  14  15
ENDBRANCH   7   9
ENDBRANCH   6   7
ENDBRANCH   5   6
ENDBRANCH   4   5
ENDBRANCH   3   4
ENDBRANCH   2   3
ENDBRANCH   1   2
BRANCH   1  74
ATOM     74  O   UNL A   1      32.545  21.707  24.357  1.00  0.00    -0.377 OA
BRANCH  74  75
ATOM     75  C   UNL A   1      31.957  21.620  25.652  1.00  0.00     0.188 C 
BRANCH  75  76
ATOM     76  C   UNL A   1      30.721  22.486  25.976  1.00  0.00     0.188 C 
BRANCH  76  77
ATOM     77  O   UNL A   1      30.844  23.243  27.171  1.00  0.00    -0.376 OA
BRANCH  77  78
ATOM     78  C   UNL A   1      32.061  23.967  27.310  1.00  0.00     0.202 C 
BRANCH  78  79
ATOM     79  C   UNL A   1      32.407  24.857  26.112  1.00  0.00     0.261 C 
BRANCH  79  80
ATOM     80  O   UNL A   1      33.804  25.161  25.956  1.00  0.00    -0.460 OA
BRANCH  80  81
ATOM     81  C   UNL A   1      34.395  24.964  24.749  1.00  0.00     0.342 C 
ATOM     82  O   UNL A   1      35.437  24.403  24.522  1.00  0.00    -0.246 OA
BRANCH  81  83
ATOM     83  C   UNL A   1      33.389  25.350  23.722  1.00  0.00     0.102 A 
ATOM     84  C   UNL A   1      32.613  26.505  23.945  1.00  0.00     0.028 A 
ATOM     85  C   UNL A   1      33.339  24.701  22.485  1.00  0.00     0.130 A 
ATOM     86  C   UNL A   1      31.847  27.041  22.900  1.00  0.00    -0.017 A 
ATOM     87  C   UNL A   1      32.539  25.203  21.461  1.00  0.00     0.048 A 
ATOM     88  C   UNL A   1      31.807  26.373  21.666  1.00  0.00     0.012 A 
BRANCH  85  89
ATOM     89  O   UNL A   1      34.078  23.574  22.264  1.00  0.00    -0.507 OA
ATOM     90  H   UNL A   1      34.905  23.633  21.828  1.00  0.00     0.293 HD
ENDBRANCH  85  89
BRANCH  86  91
ATOM     91  C   UNL A   1      31.104  28.310  23.025  1.00  0.00    -0.011 A 
ATOM     92  C   UNL A   1      31.269  29.206  24.151  1.00  0.00     0.027 A 
ATOM     93  C   UNL A   1      30.143  28.570  22.120  1.00  0.00     0.080 A 
ATOM     94  C   UNL A   1      30.429  30.231  24.334  1.00  0.00     0.095 A 
ATOM     95  C   UNL A   1      29.213  29.723  22.298  1.00  0.00     0.255 A 
ATOM     96  N   UNL A   1      29.403  30.484  23.439  1.00  0.00    -0.258 N 
ATOM     97  O   UNL A   1      28.330  29.896  21.462  1.00  0.00    -0.269 OA
BRANCH  96  98
ATOM     98  C   UNL A   1      28.454  31.537  23.696  1.00  0.00     0.451 C 
ATOM     99  F   UNL A   1      28.374  32.404  22.659  1.00  0.00    -0.185 F 
ATOM    100  F   UNL A   1      27.215  31.024  23.908  1.00  0.00    -0.185 F 
ENDBRANCH  96  98
ENDBRANCH  86  91
ENDBRANCH  81  83
ENDBRANCH  80  81
ENDBRANCH  79  80
ENDBRANCH  78  79
ENDBRANCH  77  78
ENDBRANCH  76  77
ENDBRANCH  75  76
ENDBRANCH  74  75
ENDBRANCH   1  74
TORSDOF 26
ENDMDL
MODEL 2
REMARK VINA RESULT:     -10.9      2.944      4.718
REMARK SMILES O=C(OCCOCCOCCOCCOC(=O)c1cc(-c2ccn(C(F)F)c(=O)c2)ccc1O)c1ccc(-c2c3nc(c(-c4cccc(S(=O)(=O)[O-])c4F)c4ccc([nH]4)c(-c4cccc(S(=O)(=O)[O-])c4F)c4nc(c(-c5cccc(S(=O)(=O)[O-])c5F)c5ccc2[nH]5)C=C4)C=C3)cc1
REMARK SMILES IDX 8 1 7 2 6 3 5 4 4 5 3 6 2 7 1 8 35 9 36 10 97 11 37 12 96 13
REMARK SMILES IDX 38 14 39 15 40 16 90 17 41 18 95 19 89 20 91 21 42 22 94 23
REMARK SMILES IDX 88 24 87 25 43 27 75 28 55 29 74 30 56 31 59 32 73 33 92 34
REMARK SMILES IDX 57 35 58 36 72 38 93 39 60 40 44 41 45 42 53 43 46 44 48 45
REMARK SMILES IDX 54 46 47 47 49 48 50 49 51 50 52 51 76 52 77 53 85 54 78 55
REMARK SMILES IDX 80 56 86 57 79 58 81 59 82 60 83 61 84 62 61 63 62 64 70 65
REMARK SMILES IDX 63 66 65 67 71 68 64 69 66 70 67 71 68 72 69 73 9 74 10 75
REMARK SMILES IDX 11 76 12 77 13 78 14 79 15 80 16 81 17 82 18 83 19 84 33 85
REMARK SMILES IDX 20 86 32 87 31 88 34 89 21 91 22 92 30 93 23 94 28 95 24 96
REMARK SMILES IDX 29 97 25 98 26 99 27 100
REMARK H PARENT 91 26 59 37 34 90
REMARK Flexibility Score: inf
ROOT
ATOM      1  C   UNL A   1      34.665  24.009  23.968  1.00  0.00     0.188 C 
ENDROOT
BRANCH   1   2
ATOM      2  C   UNL A   1      35.853  23.052  23.916  1.00  0.00     0.188 C 
BRANCH   2   3
ATOM      3  O   UNL A   1      35.444  21.711  24.206  1.00  0.00    -0.376 OA
BRANCH   3   4
ATOM      4  C   UNL A   1      36.436  20.907  24.841  1.00  0.00     0.202 C 
BRANCH   4   5
ATOM      5  C   UNL A   1      37.467  21.689  25.652  1.00  0.00     0.261 C 
BRANCH   5   6
ATOM      6  O   UNL A   1      38.716  21.003  25.788  1.00  0.00    -0.460 OA
BRANCH   6   7
ATOM      7  C   UNL A   1      39.837  21.396  26.442  1.00  0.00     0.338 C 
ATOM      8  O   UNL A   1      40.672  20.522  26.684  1.00  0.00    -0.246 OA
BRANCH   7   9
ATOM      9  C   UNL A   1      40.119  22.786  26.955  1.00  0.00     0.060 A 
ATOM     10  C   UNL A   1      41.160  22.895  27.901  1.00  0.00     0.016 A 
ATOM     11  C   UNL A   1      39.460  23.968  26.598  1.00  0.00     0.016 A 
ATOM     12  C   UNL A   1      41.545  24.131  28.433  1.00  0.00     0.010 A 
ATOM     13  C   UNL A   1      39.827  25.204  27.132  1.00  0.00     0.010 A 
ATOM     14  C   UNL A   1      40.891  25.297  28.025  1.00  0.00    -0.014 A 
BRANCH  14  15
ATOM     15  C   UNL A   1      41.461  26.629  28.298  1.00  0.00     0.031 A 
ATOM     16  C   UNL A   1      42.897  26.948  28.038  1.00  0.00     0.074 A 
ATOM     17  C   UNL A   1      40.652  27.501  28.931  1.00  0.00     0.049 A 
ATOM     18  N   UNL A   1      43.517  28.087  28.200  1.00  0.00    -0.248 NA
ATOM     19  C   UNL A   1      43.756  25.857  27.552  1.00  0.00     0.031 C 
ATOM     20  C   UNL A   1      39.273  27.210  29.342  1.00  0.00     0.029 A 
ATOM     21  N   UNL A   1      40.869  28.775  29.375  1.00  0.00    -0.354 N 
ATOM     22  C   UNL A   1      44.838  27.858  27.837  1.00  0.00     0.074 A 
ATOM     23  C   UNL A   1      44.937  26.463  27.467  1.00  0.00     0.031 C 
ATOM     24  C   UNL A   1      38.774  28.271  29.990  1.00  0.00     0.029 A 
ATOM     25  C   UNL A   1      39.787  29.317  30.026  1.00  0.00     0.049 A 
ATOM     26  H   UNL A   1      41.717  29.258  29.242  1.00  0.00     0.167 HD
ATOM     27  C   UNL A   1      45.854  28.752  27.798  1.00  0.00     0.034 A 
ATOM     28  C   UNL A   1      39.618  30.536  30.571  1.00  0.00     0.034 A 
ATOM     29  C   UNL A   1      45.711  30.135  28.172  1.00  0.00     0.049 A 
ATOM     30  C   UNL A   1      40.731  31.527  30.437  1.00  0.00     0.074 A 
ATOM     31  C   UNL A   1      46.639  31.156  28.072  1.00  0.00     0.029 A 
ATOM     32  N   UNL A   1      44.567  30.687  28.733  1.00  0.00    -0.354 N 
ATOM     33  N   UNL A   1      41.918  31.353  29.908  1.00  0.00    -0.248 NA
ATOM     34  C   UNL A   1      40.476  32.888  30.924  1.00  0.00     0.031 C 
ATOM     35  C   UNL A   1      46.060  32.322  28.582  1.00  0.00     0.029 A 
ATOM     36  C   UNL A   1      44.767  32.032  28.990  1.00  0.00     0.049 A 
ATOM     37  H   UNL A   1      43.736  30.194  28.920  1.00  0.00     0.167 HD
ATOM     38  C   UNL A   1      42.550  32.586  29.977  1.00  0.00     0.074 A 
ATOM     39  C   UNL A   1      41.605  33.502  30.589  1.00  0.00     0.031 C 
ATOM     40  C   UNL A   1      43.799  32.923  29.577  1.00  0.00     0.034 A 
BRANCH  27  41
ATOM     41  C   UNL A   1      47.186  28.304  27.254  1.00  0.00     0.023 A 
ATOM     42  C   UNL A   1      48.240  28.062  28.160  1.00  0.00     0.012 A 
ATOM     43  C   UNL A   1      47.363  27.993  25.891  1.00  0.00     0.148 A 
ATOM     44  C   UNL A   1      49.450  27.526  27.719  1.00  0.00     0.002 A 
ATOM     45  C   UNL A   1      48.564  27.434  25.463  1.00  0.00     0.091 A 
ATOM     46  F   UNL A   1      46.349  28.232  25.046  1.00  0.00    -0.205 F 
ATOM     47  C   UNL A   1      49.608  27.204  26.375  1.00  0.00     0.022 A 
BRANCH  45  48
ATOM     48  S   UNL A   1      48.860  26.927  23.764  1.00  0.00     0.127 S 
ATOM     49  O   UNL A   1      48.592  28.168  23.035  1.00  0.00    -0.237 OA
ATOM     50  O   UNL A   1      50.269  26.537  23.803  1.00  0.00    -0.237 OA
ATOM     51  O   UNL A   1      47.928  25.841  23.495  1.00  0.00    -0.744 OA
ENDBRANCH  45  48
ENDBRANCH  27  41
BRANCH  28  52
ATOM     52  C   UNL A   1      38.291  30.878  31.143  1.00  0.00     0.023 A 
ATOM     53  C   UNL A   1      38.091  30.726  32.528  1.00  0.00     0.012 A 
ATOM     54  C   UNL A   1      37.298  31.503  30.364  1.00  0.00     0.148 A 
ATOM     55  C   UNL A   1      36.924  31.193  33.131  1.00  0.00     0.002 A 
ATOM     56  C   UNL A   1      36.153  31.999  30.977  1.00  0.00     0.091 A 
ATOM     57  F   UNL A   1      37.519  31.643  29.049  1.00  0.00    -0.205 F 
ATOM     58  C   UNL A   1      35.962  31.840  32.359  1.00  0.00     0.022 A 
BRANCH  56  59
ATOM     59  S   UNL A   1      34.914  32.954  30.092  1.00  0.00     0.127 S 
ATOM     60  O   UNL A   1      34.000  33.327  31.169  1.00  0.00    -0.237 OA
ATOM     61  O   UNL A   1      35.711  34.055  29.551  1.00  0.00    -0.237 OA
ATOM     62  O   UNL A   1      34.366  32.055  29.085  1.00  0.00    -0.744 OA
ENDBRANCH  56  59
ENDBRANCH  28  52
BRANCH  40  63
ATOM     63  C   UNL A   1      44.231  34.344  29.799  1.00  0.00     0.023 A 
ATOM     64  C   UNL A   1      45.016  34.654  30.926  1.00  0.00     0.012 A 
ATOM     65  C   UNL A   1      43.956  35.337  28.839  1.00  0.00     0.148 A 
ATOM     66  C   UNL A   1      45.517  35.942  31.100  1.00  0.00     0.002 A 
ATOM     67  C   UNL A   1      44.488  36.609  29.004  1.00  0.00     0.091 A 
ATOM     68  F   UNL A   1      43.197  35.011  27.784  1.00  0.00    -0.205 F 
ATOM     69  C   UNL A   1      45.264  36.914  30.134  1.00  0.00     0.022 A 
BRANCH  67  70
ATOM     70  S   UNL A   1      44.279  37.909  27.783  1.00  0.00     0.127 S 
ATOM     71  O   UNL A   1      42.823  37.983  27.674  1.00  0.00    -0.237 OA
ATOM     72  O   UNL A   1      44.900  39.055  28.445  1.00  0.00    -0.237 OA
ATOM     73  O   UNL A   1      44.966  37.452  26.583  1.00  0.00    -0.744 OA
ENDBRANCH  67  70
ENDBRANCH  40  63
ENDBRANCH  14  15
ENDBRANCH   7   9
ENDBRANCH   6   7
ENDBRANCH   5   6
ENDBRANCH   4   5
ENDBRANCH   3   4
ENDBRANCH   2   3
ENDBRANCH   1   2
BRANCH   1  74
ATOM     74  O   UNL A   1      34.588  24.796  25.154  1.00  0.00    -0.377 OA
BRANCH  74  75
ATOM     75  C   UNL A   1      34.311  26.184  24.988  1.00  0.00     0.188 C 
BRANCH  75  76
ATOM     76  C   UNL A   1      33.775  26.687  23.631  1.00  0.00     0.188 C 
BRANCH  76  77
ATOM     77  O   UNL A   1      32.693  27.600  23.740  1.00  0.00    -0.376 OA
BRANCH  77  78
ATOM     78  C   UNL A   1      31.611  27.370  22.844  1.00  0.00     0.202 C 
BRANCH  78  79
ATOM     79  C   UNL A   1      31.718  26.067  22.046  1.00  0.00     0.261 C 
BRANCH  79  80
ATOM     80  O   UNL A   1      31.381  24.873  22.774  1.00  0.00    -0.460 OA
BRANCH  80  81
ATOM     81  C   UNL A   1      30.511  24.953  23.814  1.00  0.00     0.342 C 
ATOM     82  O   UNL A   1      29.455  25.533  23.846  1.00  0.00    -0.246 OA
BRANCH  81  83
ATOM     83  C   UNL A   1      30.983  23.977  24.833  1.00  0.00     0.102 A 
ATOM     84  C   UNL A   1      31.203  22.644  24.432  1.00  0.00     0.028 A 
ATOM     85  C   UNL A   1      31.379  24.401  26.105  1.00  0.00     0.130 A 
ATOM     86  C   UNL A   1      31.883  21.765  25.286  1.00  0.00    -0.017 A 
ATOM     87  C   UNL A   1      32.010  23.514  26.975  1.00  0.00     0.048 A 
ATOM     88  C   UNL A   1      32.271  22.208  26.561  1.00  0.00     0.012 A 
BRANCH  85  89
ATOM     89  O   UNL A   1      31.158  25.688  26.506  1.00  0.00    -0.507 OA
ATOM     90  H   UNL A   1      31.582  26.019  27.273  1.00  0.00     0.293 HD
ENDBRANCH  85  89
BRANCH  86  91
ATOM     91  C   UNL A   1      32.252  20.392  24.888  1.00  0.00    -0.011 A 
ATOM     92  C   UNL A   1      32.965  19.488  25.767  1.00  0.00     0.027 A 
ATOM     93  C   UNL A   1      32.031  20.023  23.614  1.00  0.00     0.080 A 
ATOM     94  C   UNL A   1      33.467  18.338  25.299  1.00  0.00     0.095 A 
ATOM     95  C   UNL A   1      32.563  18.734  23.083  1.00  0.00     0.255 A 
ATOM     96  N   UNL A   1      33.291  17.967  23.978  1.00  0.00    -0.258 N 
ATOM     97  O   UNL A   1      32.363  18.461  21.903  1.00  0.00    -0.269 OA
BRANCH  96  98
ATOM     98  C   UNL A   1      33.911  16.770  23.467  1.00  0.00     0.451 C 
ATOM     99  F   UNL A   1      34.523  16.990  22.280  1.00  0.00    -0.185 F 
ATOM    100  F   UNL A   1      34.843  16.304  24.338  1.00  0.00    -0.185 F 
ENDBRANCH  96  98
ENDBRANCH  86  91
ENDBRANCH  81  83
ENDBRANCH  80  81
ENDBRANCH  79  80
ENDBRANCH  78  79
ENDBRANCH  77  78
ENDBRANCH  76  77
ENDBRANCH  75  76
ENDBRANCH  74  75
ENDBRANCH   1  74
TORSDOF 26
ENDMDL
MODEL 3
REMARK VINA RESULT:     -10.5      1.547      2.151
REMARK SMILES O=C(OCCOCCOCCOCCOC(=O)c1cc(-c2ccn(C(F)F)c(=O)c2)ccc1O)c1ccc(-c2c3nc(c(-c4cccc(S(=O)(=O)[O-])c4F)c4ccc([nH]4)c(-c4cccc(S(=O)(=O)[O-])c4F)c4nc(c(-c5cccc(S(=O)(=O)[O-])c5F)c5ccc2[nH]5)C=C4)C=C3)cc1
REMARK SMILES IDX 8 1 7 2 6 3 5 4 4 5 3 6 2 7 1 8 35 9 36 10 97 11 37 12 96 13
REMARK SMILES IDX 38 14 39 15 40 16 90 17 41 18 95 19 89 20 91 21 42 22 94 23
REMARK SMILES IDX 88 24 87 25 43 27 75 28 55 29 74 30 56 31 59 32 73 33 92 34
REMARK SMILES IDX 57 35 58 36 72 38 93 39 60 40 44 41 45 42 53 43 46 44 48 45
REMARK SMILES IDX 54 46 47 47 49 48 50 49 51 50 52 51 76 52 77 53 85 54 78 55
REMARK SMILES IDX 80 56 86 57 79 58 81 59 82 60 83 61 84 62 61 63 62 64 70 65
REMARK SMILES IDX 63 66 65 67 71 68 64 69 66 70 67 71 68 72 69 73 9 74 10 75
REMARK SMILES IDX 11 76 12 77 13 78 14 79 15 80 16 81 17 82 18 83 19 84 33 85
REMARK SMILES IDX 20 86 32 87 31 88 34 89 21 91 22 92 30 93 23 94 28 95 24 96
REMARK SMILES IDX 29 97 25 98 26 99 27 100
REMARK H PARENT 91 26 59 37 34 90
REMARK Flexibility Score: inf
ROOT
ATOM      1  C   UNL A   1      35.372  23.860  24.521  1.00  0.00     0.188 C 
ENDROOT
BRANCH   1   2
ATOM      2  C   UNL A   1      36.293  22.853  23.836  1.00  0.00     0.188 C 
BRANCH   2   3
ATOM      3  O   UNL A   1      35.896  21.510  24.131  1.00  0.00    -0.376 OA
BRANCH   3   4
ATOM      4  C   UNL A   1      36.943  20.666  24.604  1.00  0.00     0.202 C 
BRANCH   4   5
ATOM      5  C   UNL A   1      37.767  21.254  25.748  1.00  0.00     0.261 C 
BRANCH   5   6
ATOM      6  O   UNL A   1      39.109  20.757  25.790  1.00  0.00    -0.460 OA
BRANCH   6   7
ATOM      7  C   UNL A   1      40.157  21.195  26.530  1.00  0.00     0.338 C 
ATOM      8  O   UNL A   1      40.953  20.340  26.923  1.00  0.00    -0.246 OA
BRANCH   7   9
ATOM      9  C   UNL A   1      40.396  22.619  26.967  1.00  0.00     0.060 A 
ATOM     10  C   UNL A   1      41.328  22.796  28.011  1.00  0.00     0.016 A 
ATOM     11  C   UNL A   1      39.792  23.773  26.455  1.00  0.00     0.016 A 
ATOM     12  C   UNL A   1      41.665  24.067  28.490  1.00  0.00     0.010 A 
ATOM     13  C   UNL A   1      40.110  25.045  26.933  1.00  0.00     0.010 A 
ATOM     14  C   UNL A   1      41.072  25.201  27.929  1.00  0.00    -0.014 A 
BRANCH  14  15
ATOM     15  C   UNL A   1      41.621  26.548  28.164  1.00  0.00     0.031 A 
ATOM     16  C   UNL A   1      43.022  26.912  27.791  1.00  0.00     0.074 A 
ATOM     17  C   UNL A   1      40.841  27.392  28.866  1.00  0.00     0.049 A 
ATOM     18  N   UNL A   1      43.619  28.068  27.911  1.00  0.00    -0.248 NA
ATOM     19  C   UNL A   1      43.871  25.849  27.230  1.00  0.00     0.031 C 
ATOM     20  C   UNL A   1      39.509  27.059  29.386  1.00  0.00     0.029 A 
ATOM     21  N   UNL A   1      41.055  28.671  29.300  1.00  0.00    -0.354 N 
ATOM     22  C   UNL A   1      44.912  27.881  27.440  1.00  0.00     0.074 A 
ATOM     23  C   UNL A   1      45.022  26.491  27.053  1.00  0.00     0.031 C 
ATOM     24  C   UNL A   1      39.033  28.101  30.079  1.00  0.00     0.029 A 
ATOM     25  C   UNL A   1      40.013  29.177  30.040  1.00  0.00     0.049 A 
ATOM     26  H   UNL A   1      41.874  29.179  29.103  1.00  0.00     0.167 HD
ATOM     27  C   UNL A   1      45.895  28.805  27.326  1.00  0.00     0.034 A 
ATOM     28  C   UNL A   1      39.854  30.387  30.605  1.00  0.00     0.034 A 
ATOM     29  C   UNL A   1      45.741  30.182  27.719  1.00  0.00     0.049 A 
ATOM     30  C   UNL A   1      40.922  31.413  30.389  1.00  0.00     0.074 A 
ATOM     31  C   UNL A   1      46.627  31.230  27.551  1.00  0.00     0.029 A 
ATOM     32  N   UNL A   1      44.630  30.697  28.375  1.00  0.00    -0.354 N 
ATOM     33  N   UNL A   1      42.066  31.277  29.764  1.00  0.00    -0.248 NA
ATOM     34  C   UNL A   1      40.667  32.762  30.905  1.00  0.00     0.031 C 
ATOM     35  C   UNL A   1      46.057  32.376  28.115  1.00  0.00     0.029 A 
ATOM     36  C   UNL A   1      44.811  32.046  28.624  1.00  0.00     0.049 A 
ATOM     37  H   UNL A   1      43.832  30.178  28.625  1.00  0.00     0.167 HD
ATOM     38  C   UNL A   1      42.665  32.528  29.791  1.00  0.00     0.074 A 
ATOM     39  C   UNL A   1      41.746  33.412  30.484  1.00  0.00     0.031 C 
ATOM     40  C   UNL A   1      43.867  32.905  29.294  1.00  0.00     0.034 A 
BRANCH  27  41
ATOM     41  C   UNL A   1      47.191  28.400  26.673  1.00  0.00     0.023 A 
ATOM     42  C   UNL A   1      48.331  28.225  27.484  1.00  0.00     0.012 A 
ATOM     43  C   UNL A   1      47.258  28.064  25.306  1.00  0.00     0.148 A 
ATOM     44  C   UNL A   1      49.519  27.729  26.947  1.00  0.00     0.002 A 
ATOM     45  C   UNL A   1      48.439  27.545  24.783  1.00  0.00     0.091 A 
ATOM     46  F   UNL A   1      46.164  28.239  24.551  1.00  0.00    -0.205 F 
ATOM     47  C   UNL A   1      49.570  27.381  25.600  1.00  0.00     0.022 A 
BRANCH  45  48
ATOM     48  S   UNL A   1      48.604  27.010  23.074  1.00  0.00     0.127 S 
ATOM     49  O   UNL A   1      50.052  27.087  22.879  1.00  0.00    -0.237 OA
ATOM     50  O   UNL A   1      48.070  25.649  23.127  1.00  0.00    -0.237 OA
ATOM     51  O   UNL A   1      47.823  27.946  22.278  1.00  0.00    -0.744 OA
ENDBRANCH  45  48
ENDBRANCH  27  41
BRANCH  28  52
ATOM     52  C   UNL A   1      38.568  30.687  31.285  1.00  0.00     0.023 A 
ATOM     53  C   UNL A   1      38.477  30.497  32.677  1.00  0.00     0.012 A 
ATOM     54  C   UNL A   1      37.505  31.308  30.600  1.00  0.00     0.148 A 
ATOM     55  C   UNL A   1      37.351  30.924  33.379  1.00  0.00     0.002 A 
ATOM     56  C   UNL A   1      36.401  31.764  31.311  1.00  0.00     0.091 A 
ATOM     57  F   UNL A   1      37.622  31.485  29.276  1.00  0.00    -0.205 F 
ATOM     58  C   UNL A   1      36.320  31.569  32.700  1.00  0.00     0.022 A 
BRANCH  56  59
ATOM     59  S   UNL A   1      35.079  32.713  30.547  1.00  0.00     0.127 S 
ATOM     60  O   UNL A   1      34.700  31.851  29.430  1.00  0.00    -0.237 OA
ATOM     61  O   UNL A   1      34.096  32.788  31.629  1.00  0.00    -0.237 OA
ATOM     62  O   UNL A   1      35.671  33.993  30.181  1.00  0.00    -0.744 OA
ENDBRANCH  56  59
ENDBRANCH  28  52
BRANCH  40  63
ATOM     63  C   UNL A   1      44.273  34.337  29.490  1.00  0.00     0.023 A 
ATOM     64  C   UNL A   1      45.143  34.664  30.547  1.00  0.00     0.012 A 
ATOM     65  C   UNL A   1      43.886  35.326  28.566  1.00  0.00     0.148 A 
ATOM     66  C   UNL A   1      45.618  35.966  30.689  1.00  0.00     0.002 A 
ATOM     67  C   UNL A   1      44.391  36.613  28.695  1.00  0.00     0.091 A 
ATOM     68  F   UNL A   1      43.048  34.984  27.578  1.00  0.00    -0.205 F 
ATOM     69  C   UNL A   1      45.253  36.936  29.757  1.00  0.00     0.022 A 
BRANCH  67  70
ATOM     70  S   UNL A   1      44.036  37.914  27.509  1.00  0.00     0.127 S 
ATOM     71  O   UNL A   1      45.346  38.120  26.893  1.00  0.00    -0.237 OA
ATOM     72  O   UNL A   1      43.047  37.276  26.640  1.00  0.00    -0.237 OA
ATOM     73  O   UNL A   1      43.532  39.041  28.281  1.00  0.00    -0.744 OA
ENDBRANCH  67  70
ENDBRANCH  40  63
ENDBRANCH  14  15
ENDBRANCH   7   9
ENDBRANCH   6   7
ENDBRANCH   5   6
ENDBRANCH   4   5
ENDBRANCH   3   4
ENDBRANCH   2   3
ENDBRANCH   1   2
BRANCH   1  74
ATOM     74  O   UNL A   1      35.698  24.134  25.881  1.00  0.00    -0.377 OA
BRANCH  74  75
ATOM     75  C   UNL A   1      35.054  23.336  26.870  1.00  0.00     0.188 C 
BRANCH  75  76
ATOM     76  C   UNL A   1      33.597  22.882  26.640  1.00  0.00     0.188 C 
BRANCH  76  77
ATOM     77  O   UNL A   1      33.470  21.522  26.253  1.00  0.00    -0.376 OA
BRANCH  77  78
ATOM     78  C   UNL A   1      32.365  21.233  25.403  1.00  0.00     0.202 C 
BRANCH  78  79
ATOM     79  C   UNL A   1      31.177  22.185  25.564  1.00  0.00     0.261 C 
BRANCH  79  80
ATOM     80  O   UNL A   1      30.871  22.986  24.409  1.00  0.00    -0.460 OA
BRANCH  80  81
ATOM     81  C   UNL A   1      31.662  22.891  23.309  1.00  0.00     0.342 C 
ATOM     82  O   UNL A   1      31.865  21.916  22.631  1.00  0.00    -0.246 OA
BRANCH  81  83
ATOM     83  C   UNL A   1      32.036  24.283  22.939  1.00  0.00     0.102 A 
ATOM     84  C   UNL A   1      31.709  25.324  23.831  1.00  0.00     0.028 A 
ATOM     85  C   UNL A   1      32.853  24.539  21.834  1.00  0.00     0.130 A 
ATOM     86  C   UNL A   1      32.263  26.598  23.646  1.00  0.00    -0.017 A 
ATOM     87  C   UNL A   1      33.365  25.817  21.620  1.00  0.00     0.048 A 
ATOM     88  C   UNL A   1      33.080  26.836  22.529  1.00  0.00     0.012 A 
BRANCH  85  89
ATOM     89  O   UNL A   1      33.165  23.538  20.958  1.00  0.00    -0.507 OA
ATOM     90  H   UNL A   1      33.901  22.983  21.124  1.00  0.00     0.293 HD
ENDBRANCH  85  89
BRANCH  86  91
ATOM     91  C   UNL A   1      32.060  27.704  24.603  1.00  0.00    -0.011 A 
ATOM     92  C   UNL A   1      31.190  28.828  24.326  1.00  0.00     0.027 A 
ATOM     93  C   UNL A   1      32.818  27.724  25.715  1.00  0.00     0.080 A 
ATOM     94  C   UNL A   1      31.198  29.906  25.120  1.00  0.00     0.095 A 
ATOM     95  C   UNL A   1      32.821  28.908  26.621  1.00  0.00     0.255 A 
ATOM     96  N   UNL A   1      32.009  29.964  26.239  1.00  0.00    -0.258 N 
ATOM     97  O   UNL A   1      33.558  28.890  27.603  1.00  0.00    -0.269 OA
BRANCH  96  98
ATOM     98  C   UNL A   1      32.073  31.165  27.034  1.00  0.00     0.451 C 
ATOM     99  F   UNL A   1      33.252  31.811  26.872  1.00  0.00    -0.185 F 
ATOM    100  F   UNL A   1      31.077  32.020  26.689  1.00  0.00    -0.185 F 
ENDBRANCH  96  98
ENDBRANCH  86  91
ENDBRANCH  81  83
ENDBRANCH  80  81
ENDBRANCH  79  80
ENDBRANCH  78  79
ENDBRANCH  77  78
ENDBRANCH  76  77
ENDBRANCH  75  76
ENDBRANCH  74  75
ENDBRANCH   1  74
TORSDOF 26
ENDMDL
