MODEL 1
REMARK VINA RESULT:      -8.9      0.000      0.000
REMARK SMILES CC[C@@](C)(NC(=O)N(C)[C@@H](C)C(C)C)C(=O)OCCOCCOCCOCCOC(=O)c1ccc(-c2c3nc(c(-c4cccc(S(=O)(=O)[O-])c4F)c4ccc([nH]4)c(-c4cccc(S(=O)(=O)[O-])c4F)c4nc(c(-c5cccc(S(=O)(=O)[O-])c5F)c5ccc2[nH]5)C=C4)C=C3)cc1
REMARK SMILES IDX 22 1 21 2 20 3 19 4 18 5 17 6 15 7 16 8 3 9 4 10 2 11 1 12
REMARK SMILES IDX 5 13 6 14 7 16 8 17 9 18 10 19 11 20 12 21 13 22 14 23 23 24
REMARK SMILES IDX 24 25 25 26 26 27 27 28 28 29 29 30 30 31 31 32 32 33 33 34
REMARK SMILES IDX 94 35 34 36 93 37 35 38 36 39 37 40 87 41 38 42 92 43 86 44
REMARK SMILES IDX 88 45 39 46 91 47 85 48 84 49 40 51 72 52 52 53 71 54 53 55
REMARK SMILES IDX 56 56 70 57 89 58 54 59 55 60 69 62 90 63 57 64 41 65 42 66
REMARK SMILES IDX 50 67 43 68 45 69 51 70 44 71 46 72 47 73 48 74 49 75 73 76
REMARK SMILES IDX 74 77 82 78 75 79 77 80 83 81 76 82 78 83 79 84 80 85 81 86
REMARK SMILES IDX 58 87 59 88 67 89 60 90 62 91 68 92 61 93 63 94 64 95 65 96
REMARK SMILES IDX 66 97
REMARK H PARENT 5 15 88 50 56 61
REMARK Flexibility Score: inf
ROOT
ATOM      1  C   UNL A   1      39.177  20.546  25.817  1.00  0.00     0.188 C 
ENDROOT
BRANCH   1   2
ATOM      2  C   UNL A   1      37.935  20.536  24.925  1.00  0.00     0.188 C 
BRANCH   2   3
ATOM      3  O   UNL A   1      37.035  21.642  24.900  1.00  0.00    -0.376 OA
BRANCH   3   4
ATOM      4  C   UNL A   1      35.851  21.640  25.687  1.00  0.00     0.202 C 
BRANCH   4   5
ATOM      5  C   UNL A   1      35.537  23.079  26.103  1.00  0.00     0.261 C 
BRANCH   5   6
ATOM      6  O   UNL A   1      34.148  23.337  25.849  1.00  0.00    -0.462 OA
BRANCH   6   7
ATOM      7  C   UNL A   1      33.804  23.980  24.721  1.00  0.00     0.331 C 
ATOM      8  O   UNL A   1      34.490  24.860  24.211  1.00  0.00    -0.249 OA
BRANCH   7   9
ATOM      9  C   UNL A   1      32.407  23.518  24.186  1.00  0.00     0.136 C 
ATOM     10  C   UNL A   1      32.809  22.609  22.991  1.00  0.00     0.047 C 
BRANCH   9  11
ATOM     11  C   UNL A   1      31.654  22.609  25.225  1.00  0.00     0.037 C 
ATOM     12  C   UNL A   1      30.874  23.315  26.343  1.00  0.00     0.007 C 
ENDBRANCH   9  11
BRANCH   9  13
ATOM     13  N   UNL A   1      31.447  24.567  23.584  1.00  0.00    -0.322 N 
ATOM     14  C   UNL A   1      30.886  25.750  24.030  1.00  0.00     0.318 C 
ATOM     15  H   UNL A   1      31.169  24.339  22.668  1.00  0.00     0.166 HD
ATOM     16  O   UNL A   1      29.710  25.663  24.386  1.00  0.00    -0.249 OA
BRANCH  14  17
ATOM     17  N   UNL A   1      31.528  26.971  23.739  1.00  0.00    -0.325 N 
ATOM     18  C   UNL A   1      32.595  26.976  22.750  1.00  0.00     0.149 C 
BRANCH  17  19
ATOM     19  C   UNL A   1      30.832  28.368  23.803  1.00  0.00     0.086 C 
ATOM     20  C   UNL A   1      31.841  29.182  24.655  1.00  0.00     0.031 C 
BRANCH  19  21
ATOM     21  C   UNL A   1      29.681  28.846  22.616  1.00  0.00     0.005 C 
ATOM     22  C   UNL A   1      28.227  28.608  23.118  1.00  0.00     0.009 C 
ATOM     23  C   UNL A   1      29.380  30.125  21.655  1.00  0.00     0.009 C 
ENDBRANCH  19  21
ENDBRANCH  17  19
ENDBRANCH  14  17
ENDBRANCH   9  13
ENDBRANCH   7   9
ENDBRANCH   6   7
ENDBRANCH   5   6
ENDBRANCH   4   5
ENDBRANCH   3   4
ENDBRANCH   2   3
ENDBRANCH   1   2
BRANCH   1  24
ATOM     24  O   UNL A   1      39.966  19.377  25.748  1.00  0.00    -0.377 OA
BRANCH  24  25
ATOM     25  C   UNL A   1      41.122  19.358  26.565  1.00  0.00     0.188 C 
BRANCH  25  26
ATOM     26  C   UNL A   1      42.318  18.493  26.056  1.00  0.00     0.188 C 
BRANCH  26  27
ATOM     27  O   UNL A   1      43.584  19.101  25.684  1.00  0.00    -0.376 OA
BRANCH  27  28
ATOM     28  C   UNL A   1      43.672  20.547  25.649  1.00  0.00     0.202 C 
BRANCH  28  29
ATOM     29  C   UNL A   1      45.163  21.248  25.593  1.00  0.00     0.261 C 
BRANCH  29  30
ATOM     30  O   UNL A   1      45.277  22.741  25.393  1.00  0.00    -0.460 OA
BRANCH  30  31
ATOM     31  C   UNL A   1      44.300  23.549  24.818  1.00  0.00     0.338 C 
ATOM     32  O   UNL A   1      43.950  23.442  23.651  1.00  0.00    -0.246 OA
BRANCH  31  33
ATOM     33  C   UNL A   1      43.653  24.640  25.747  1.00  0.00     0.060 A 
ATOM     34  C   UNL A   1      43.911  26.023  25.664  1.00  0.00     0.016 A 
ATOM     35  C   UNL A   1      42.743  24.306  26.753  1.00  0.00     0.016 A 
ATOM     36  C   UNL A   1      43.299  27.037  26.423  1.00  0.00     0.010 A 
ATOM     37  C   UNL A   1      42.124  25.313  27.562  1.00  0.00     0.010 A 
ATOM     38  C   UNL A   1      42.395  26.689  27.400  1.00  0.00    -0.014 A 
BRANCH  38  39
ATOM     39  C   UNL A   1      41.962  27.716  28.390  1.00  0.00     0.031 A 
ATOM     40  C   UNL A   1      42.877  27.941  29.562  1.00  0.00     0.074 A 
ATOM     41  C   UNL A   1      40.831  28.443  28.271  1.00  0.00     0.049 A 
ATOM     42  N   UNL A   1      42.648  28.516  30.709  1.00  0.00    -0.248 NA
ATOM     43  C   UNL A   1      44.243  27.408  29.415  1.00  0.00     0.031 C 
ATOM     44  C   UNL A   1      39.935  28.448  27.114  1.00  0.00     0.029 A 
ATOM     45  N   UNL A   1      40.217  29.296  29.163  1.00  0.00    -0.354 N 
ATOM     46  C   UNL A   1      43.796  28.304  31.466  1.00  0.00     0.074 A 
ATOM     47  C   UNL A   1      44.736  27.594  30.629  1.00  0.00     0.031 C 
ATOM     48  C   UNL A   1      38.854  29.202  27.395  1.00  0.00     0.029 A 
ATOM     49  C   UNL A   1      38.955  29.691  28.767  1.00  0.00     0.049 A 
ATOM     50  H   UNL A   1      40.637  29.593  30.003  1.00  0.00     0.167 HD
ATOM     51  C   UNL A   1      44.025  28.643  32.756  1.00  0.00     0.034 A 
ATOM     52  C   UNL A   1      37.978  30.320  29.458  1.00  0.00     0.034 A 
ATOM     53  C   UNL A   1      43.081  29.384  33.547  1.00  0.00     0.049 A 
ATOM     54  C   UNL A   1      38.245  30.685  30.901  1.00  0.00     0.074 A 
ATOM     55  C   UNL A   1      43.194  29.811  34.857  1.00  0.00     0.029 A 
ATOM     56  N   UNL A   1      41.842  29.811  33.090  1.00  0.00    -0.354 N 
ATOM     57  N   UNL A   1      39.325  30.476  31.617  1.00  0.00    -0.248 NA
ATOM     58  C   UNL A   1      37.175  31.386  31.624  1.00  0.00     0.031 C 
ATOM     59  C   UNL A   1      42.008  30.468  35.200  1.00  0.00     0.029 A 
ATOM     60  C   UNL A   1      41.176  30.492  34.090  1.00  0.00     0.049 A 
ATOM     61  H   UNL A   1      41.488  29.650  32.185  1.00  0.00     0.167 HD
ATOM     62  C   UNL A   1      39.083  31.054  32.859  1.00  0.00     0.074 A 
ATOM     63  C   UNL A   1      37.756  31.635  32.790  1.00  0.00     0.031 C 
ATOM     64  C   UNL A   1      39.873  31.099  33.961  1.00  0.00     0.034 A 
BRANCH  51  65
ATOM     65  C   UNL A   1      45.313  28.169  33.384  1.00  0.00     0.023 A 
ATOM     66  C   UNL A   1      45.392  26.897  33.986  1.00  0.00     0.012 A 
ATOM     67  C   UNL A   1      46.451  29.002  33.390  1.00  0.00     0.148 A 
ATOM     68  C   UNL A   1      46.560  26.486  34.631  1.00  0.00     0.002 A 
ATOM     69  C   UNL A   1      47.627  28.564  33.988  1.00  0.00     0.091 A 
ATOM     70  F   UNL A   1      46.355  30.219  32.835  1.00  0.00    -0.205 F 
ATOM     71  C   UNL A   1      47.677  27.314  34.625  1.00  0.00     0.022 A 
BRANCH  69  72
ATOM     72  S   UNL A   1      49.147  29.523  33.964  1.00  0.00     0.127 S 
ATOM     73  O   UNL A   1      48.778  30.640  33.096  1.00  0.00    -0.237 OA
ATOM     74  O   UNL A   1      49.306  29.875  35.375  1.00  0.00    -0.237 OA
ATOM     75  O   UNL A   1      50.175  28.637  33.437  1.00  0.00    -0.744 OA
ENDBRANCH  69  72
ENDBRANCH  51  65
BRANCH  52  76
ATOM     76  C   UNL A   1      36.668  30.651  28.810  1.00  0.00     0.023 A 
ATOM     77  C   UNL A   1      35.843  29.607  28.342  1.00  0.00     0.012 A 
ATOM     78  C   UNL A   1      36.219  31.981  28.671  1.00  0.00     0.148 A 
ATOM     79  C   UNL A   1      34.613  29.878  27.736  1.00  0.00     0.002 A 
ATOM     80  C   UNL A   1      34.965  32.241  28.119  1.00  0.00     0.091 A 
ATOM     81  F   UNL A   1      37.021  32.969  29.089  1.00  0.00    -0.205 F 
ATOM     82  C   UNL A   1      34.168  31.193  27.638  1.00  0.00     0.022 A 
BRANCH  80  83
ATOM     83  S   UNL A   1      34.249  33.890  28.069  1.00  0.00     0.127 S 
ATOM     84  O   UNL A   1      32.866  33.608  27.693  1.00  0.00    -0.237 OA
ATOM     85  O   UNL A   1      34.432  34.340  29.449  1.00  0.00    -0.237 OA
ATOM     86  O   UNL A   1      35.032  34.630  27.088  1.00  0.00    -0.744 OA
ENDBRANCH  80  83
ENDBRANCH  52  76
BRANCH  64  87
ATOM     87  C   UNL A   1      39.355  31.858  35.154  1.00  0.00     0.023 A 
ATOM     88  C   UNL A   1      38.545  31.215  36.109  1.00  0.00     0.012 A 
ATOM     89  C   UNL A   1      39.738  33.198  35.356  1.00  0.00     0.148 A 
ATOM     90  C   UNL A   1      38.089  31.909  37.230  1.00  0.00     0.002 A 
ATOM     91  C   UNL A   1      39.327  33.865  36.501  1.00  0.00     0.091 A 
ATOM     92  F   UNL A   1      40.494  33.796  34.424  1.00  0.00    -0.205 F 
ATOM     93  C   UNL A   1      38.490  33.229  37.431  1.00  0.00     0.022 A 
BRANCH  91  94
ATOM     94  S   UNL A   1      39.883  35.527  36.895  1.00  0.00     0.127 S 
ATOM     95  O   UNL A   1      41.320  35.332  37.056  1.00  0.00    -0.237 OA
ATOM     96  O   UNL A   1      39.493  36.277  35.705  1.00  0.00    -0.237 OA
ATOM     97  O   UNL A   1      39.162  35.910  38.110  1.00  0.00    -0.744 OA
ENDBRANCH  91  94
ENDBRANCH  64  87
ENDBRANCH  38  39
ENDBRANCH  31  33
ENDBRANCH  30  31
ENDBRANCH  29  30
ENDBRANCH  28  29
ENDBRANCH  27  28
ENDBRANCH  26  27
ENDBRANCH  25  26
ENDBRANCH  24  25
ENDBRANCH   1  24
TORSDOF 28
ENDMDL
MODEL 2
REMARK VINA RESULT:      -8.2      5.380      8.587
REMARK SMILES CC[C@@](C)(NC(=O)N(C)[C@@H](C)C(C)C)C(=O)OCCOCCOCCOCCOC(=O)c1ccc(-c2c3nc(c(-c4cccc(S(=O)(=O)[O-])c4F)c4ccc([nH]4)c(-c4cccc(S(=O)(=O)[O-])c4F)c4nc(c(-c5cccc(S(=O)(=O)[O-])c5F)c5ccc2[nH]5)C=C4)C=C3)cc1
REMARK SMILES IDX 22 1 21 2 20 3 19 4 18 5 17 6 15 7 16 8 3 9 4 10 2 11 1 12
REMARK SMILES IDX 5 13 6 14 7 16 8 17 9 18 10 19 11 20 12 21 13 22 14 23 23 24
REMARK SMILES IDX 24 25 25 26 26 27 27 28 28 29 29 30 30 31 31 32 32 33 33 34
REMARK SMILES IDX 94 35 34 36 93 37 35 38 36 39 37 40 87 41 38 42 92 43 86 44
REMARK SMILES IDX 88 45 39 46 91 47 85 48 84 49 40 51 72 52 52 53 71 54 53 55
REMARK SMILES IDX 56 56 70 57 89 58 54 59 55 60 69 62 90 63 57 64 41 65 42 66
REMARK SMILES IDX 50 67 43 68 45 69 51 70 44 71 46 72 47 73 48 74 49 75 73 76
REMARK SMILES IDX 74 77 82 78 75 79 77 80 83 81 76 82 78 83 79 84 80 85 81 86
REMARK SMILES IDX 58 87 59 88 67 89 60 90 62 91 68 92 61 93 63 94 64 95 65 96
REMARK SMILES IDX 66 97
REMARK H PARENT 5 15 88 50 56 61
REMARK Flexibility Score: inf
ROOT
ATOM      1  C   UNL A   1      39.155  23.907  27.458  1.00  0.00     0.188 C 
ENDROOT
BRANCH   1   2
ATOM      2  C   UNL A   1      38.848  23.285  26.095  1.00  0.00     0.188 C 
BRANCH   2   3
ATOM      3  O   UNL A   1      38.487  21.910  25.975  1.00  0.00    -0.376 OA
BRANCH   3   4
ATOM      4  C   UNL A   1      37.388  21.511  25.166  1.00  0.00     0.202 C 
BRANCH   4   5
ATOM      5  C   UNL A   1      36.124  21.504  26.028  1.00  0.00     0.261 C 
BRANCH   5   6
ATOM      6  O   UNL A   1      34.984  21.347  25.170  1.00  0.00    -0.462 OA
BRANCH   6   7
ATOM      7  C   UNL A   1      33.758  21.324  25.718  1.00  0.00     0.331 C 
ATOM      8  O   UNL A   1      33.463  20.623  26.680  1.00  0.00    -0.249 OA
BRANCH   7   9
ATOM      9  C   UNL A   1      32.752  22.240  24.942  1.00  0.00     0.136 C 
ATOM     10  C   UNL A   1      32.514  21.421  23.643  1.00  0.00     0.047 C 
BRANCH   9  11
ATOM     11  C   UNL A   1      31.369  22.348  25.680  1.00  0.00     0.037 C 
ATOM     12  C   UNL A   1      31.198  23.489  26.694  1.00  0.00     0.007 C 
ENDBRANCH   9  11
BRANCH   9  13
ATOM     13  N   UNL A   1      33.221  23.629  24.458  1.00  0.00    -0.322 N 
ATOM     14  C   UNL A   1      33.047  24.374  23.304  1.00  0.00     0.318 C 
ATOM     15  H   UNL A   1      33.776  24.093  25.126  1.00  0.00     0.166 HD
ATOM     16  O   UNL A   1      34.010  24.373  22.537  1.00  0.00    -0.249 OA
BRANCH  14  17
ATOM     17  N   UNL A   1      31.996  25.312  23.241  1.00  0.00    -0.325 N 
ATOM     18  C   UNL A   1      30.647  24.827  22.987  1.00  0.00     0.149 C 
BRANCH  17  19
ATOM     19  C   UNL A   1      31.956  26.644  24.055  1.00  0.00     0.086 C 
ATOM     20  C   UNL A   1      30.456  26.730  24.443  1.00  0.00     0.031 C 
BRANCH  19  21
ATOM     21  C   UNL A   1      33.374  27.280  24.797  1.00  0.00     0.005 C 
ATOM     22  C   UNL A   1      33.905  28.518  24.018  1.00  0.00     0.009 C 
ATOM     23  C   UNL A   1      33.883  27.711  26.280  1.00  0.00     0.009 C 
ENDBRANCH  19  21
ENDBRANCH  17  19
ENDBRANCH  14  17
ENDBRANCH   9  13
ENDBRANCH   7   9
ENDBRANCH   6   7
ENDBRANCH   5   6
ENDBRANCH   4   5
ENDBRANCH   3   4
ENDBRANCH   2   3
ENDBRANCH   1   2
BRANCH   1  24
ATOM     24  O   UNL A   1      39.717  25.201  27.406  1.00  0.00    -0.377 OA
BRANCH  24  25
ATOM     25  C   UNL A   1      40.488  25.500  26.256  1.00  0.00     0.188 C 
BRANCH  25  26
ATOM     26  C   UNL A   1      42.019  25.212  26.353  1.00  0.00     0.188 C 
BRANCH  26  27
ATOM     27  O   UNL A   1      42.519  23.878  26.636  1.00  0.00    -0.376 OA
BRANCH  27  28
ATOM     28  C   UNL A   1      42.627  22.934  25.541  1.00  0.00     0.202 C 
BRANCH  28  29
ATOM     29  C   UNL A   1      43.925  23.040  24.530  1.00  0.00     0.261 C 
BRANCH  29  30
ATOM     30  O   UNL A   1      45.311  23.190  25.110  1.00  0.00    -0.460 OA
BRANCH  30  31
ATOM     31  C   UNL A   1      46.198  24.221  24.810  1.00  0.00     0.338 C 
ATOM     32  O   UNL A   1      47.038  24.139  23.925  1.00  0.00    -0.246 OA
BRANCH  31  33
ATOM     33  C   UNL A   1      46.082  25.524  25.681  1.00  0.00     0.060 A 
ATOM     34  C   UNL A   1      45.276  26.635  25.364  1.00  0.00     0.016 A 
ATOM     35  C   UNL A   1      46.793  25.678  26.874  1.00  0.00     0.016 A 
ATOM     36  C   UNL A   1      45.088  27.786  26.151  1.00  0.00     0.010 A 
ATOM     37  C   UNL A   1      46.644  26.849  27.684  1.00  0.00     0.010 A 
ATOM     38  C   UNL A   1      45.786  27.913  27.330  1.00  0.00    -0.014 A 
BRANCH  38  39
ATOM     39  C   UNL A   1      45.814  29.234  28.020  1.00  0.00     0.031 A 
ATOM     40  C   UNL A   1      44.692  29.507  28.984  1.00  0.00     0.074 A 
ATOM     41  C   UNL A   1      46.783  30.156  27.837  1.00  0.00     0.049 A 
ATOM     42  N   UNL A   1      44.275  30.633  29.490  1.00  0.00    -0.248 NA
ATOM     43  C   UNL A   1      43.918  28.328  29.411  1.00  0.00     0.031 C 
ATOM     44  C   UNL A   1      48.009  29.966  27.061  1.00  0.00     0.029 A 
ATOM     45  N   UNL A   1      46.866  31.464  28.264  1.00  0.00    -0.354 N 
ATOM     46  C   UNL A   1      43.115  30.317  30.192  1.00  0.00     0.074 A 
ATOM     47  C   UNL A   1      42.929  28.888  30.089  1.00  0.00     0.031 C 
ATOM     48  C   UNL A   1      48.682  31.131  27.006  1.00  0.00     0.029 A 
ATOM     49  C   UNL A   1      47.912  32.163  27.696  1.00  0.00     0.049 A 
ATOM     50  H   UNL A   1      46.238  31.862  28.909  1.00  0.00     0.167 HD
ATOM     51  C   UNL A   1      42.269  31.155  30.835  1.00  0.00     0.034 A 
ATOM     52  C   UNL A   1      48.177  33.488  27.687  1.00  0.00     0.034 A 
ATOM     53  C   UNL A   1      42.507  32.567  30.950  1.00  0.00     0.049 A 
ATOM     54  C   UNL A   1      47.217  34.412  28.402  1.00  0.00     0.074 A 
ATOM     55  C   UNL A   1      41.743  33.526  31.590  1.00  0.00     0.029 A 
ATOM     56  N   UNL A   1      43.605  33.222  30.409  1.00  0.00    -0.354 N 
ATOM     57  N   UNL A   1      46.119  34.115  29.057  1.00  0.00    -0.248 NA
ATOM     58  C   UNL A   1      47.539  35.847  28.396  1.00  0.00     0.031 C 
ATOM     59  C   UNL A   1      42.366  34.765  31.406  1.00  0.00     0.029 A 
ATOM     60  C   UNL A   1      43.540  34.573  30.694  1.00  0.00     0.049 A 
ATOM     61  H   UNL A   1      44.325  32.788  29.896  1.00  0.00     0.167 HD
ATOM     62  C   UNL A   1      45.640  35.314  29.574  1.00  0.00     0.074 A 
ATOM     63  C   UNL A   1      46.579  36.341  29.167  1.00  0.00     0.031 C 
ATOM     64  C   UNL A   1      44.526  35.554  30.311  1.00  0.00     0.034 A 
BRANCH  51  65
ATOM     65  C   UNL A   1      41.001  30.565  31.402  1.00  0.00     0.023 A 
ATOM     66  C   UNL A   1      40.971  30.059  32.718  1.00  0.00     0.012 A 
ATOM     67  C   UNL A   1      39.832  30.498  30.616  1.00  0.00     0.148 A 
ATOM     68  C   UNL A   1      39.821  29.448  33.220  1.00  0.00     0.002 A 
ATOM     69  C   UNL A   1      38.674  29.936  31.141  1.00  0.00     0.091 A 
ATOM     70  F   UNL A   1      39.881  30.960  29.358  1.00  0.00    -0.205 F 
ATOM     71  C   UNL A   1      38.673  29.394  32.436  1.00  0.00     0.022 A 
BRANCH  69  72
ATOM     72  S   UNL A   1      37.120  29.890  30.241  1.00  0.00     0.127 S 
ATOM     73  O   UNL A   1      36.242  29.222  31.200  1.00  0.00    -0.237 OA
ATOM     74  O   UNL A   1      36.839  31.313  30.047  1.00  0.00    -0.237 OA
ATOM     75  O   UNL A   1      37.384  29.150  29.016  1.00  0.00    -0.744 OA
ENDBRANCH  69  72
ENDBRANCH  51  65
BRANCH  52  76
ATOM     76  C   UNL A   1      49.392  34.026  26.994  1.00  0.00     0.023 A 
ATOM     77  C   UNL A   1      49.304  34.407  25.639  1.00  0.00     0.012 A 
ATOM     78  C   UNL A   1      50.624  34.185  27.663  1.00  0.00     0.148 A 
ATOM     79  C   UNL A   1      50.415  34.918  24.962  1.00  0.00     0.002 A 
ATOM     80  C   UNL A   1      51.712  34.748  26.998  1.00  0.00     0.091 A 
ATOM     81  F   UNL A   1      50.708  33.792  28.940  1.00  0.00    -0.205 F 
ATOM     82  C   UNL A   1      51.614  35.102  25.644  1.00  0.00     0.022 A 
BRANCH  80  83
ATOM     83  S   UNL A   1      53.258  35.146  27.826  1.00  0.00     0.127 S 
ATOM     84  O   UNL A   1      54.126  35.485  26.701  1.00  0.00    -0.237 OA
ATOM     85  O   UNL A   1      52.867  36.279  28.665  1.00  0.00    -0.237 OA
ATOM     86  O   UNL A   1      53.625  33.948  28.570  1.00  0.00    -0.744 OA
ENDBRANCH  80  83
ENDBRANCH  52  76
BRANCH  64  87
ATOM     87  C   UNL A   1      44.300  36.966  30.783  1.00  0.00     0.023 A 
ATOM     88  C   UNL A   1      44.778  37.379  32.041  1.00  0.00     0.012 A 
ATOM     89  C   UNL A   1      43.672  37.900  29.937  1.00  0.00     0.148 A 
ATOM     90  C   UNL A   1      44.596  38.695  32.467  1.00  0.00     0.002 A 
ATOM     91  C   UNL A   1      43.545  39.220  30.344  1.00  0.00     0.091 A 
ATOM     92  F   UNL A   1      43.209  37.479  28.751  1.00  0.00    -0.205 F 
ATOM     93  C   UNL A   1      43.991  39.617  31.614  1.00  0.00     0.022 A 
BRANCH  91  94
ATOM     94  S   UNL A   1      42.880  40.495  29.269  1.00  0.00     0.127 S 
ATOM     95  O   UNL A   1      42.406  41.482  30.233  1.00  0.00    -0.237 OA
ATOM     96  O   UNL A   1      44.053  40.900  28.501  1.00  0.00    -0.237 OA
ATOM     97  O   UNL A   1      41.837  39.844  28.475  1.00  0.00    -0.744 OA
ENDBRANCH  91  94
ENDBRANCH  64  87
ENDBRANCH  38  39
ENDBRANCH  31  33
ENDBRANCH  30  31
ENDBRANCH  29  30
ENDBRANCH  28  29
ENDBRANCH  27  28
ENDBRANCH  26  27
ENDBRANCH  25  26
ENDBRANCH  24  25
ENDBRANCH   1  24
TORSDOF 28
ENDMDL
MODEL 3
REMARK VINA RESULT:      -8.1      3.087      8.520
REMARK SMILES CC[C@@](C)(NC(=O)N(C)[C@@H](C)C(C)C)C(=O)OCCOCCOCCOCCOC(=O)c1ccc(-c2c3nc(c(-c4cccc(S(=O)(=O)[O-])c4F)c4ccc([nH]4)c(-c4cccc(S(=O)(=O)[O-])c4F)c4nc(c(-c5cccc(S(=O)(=O)[O-])c5F)c5ccc2[nH]5)C=C4)C=C3)cc1
REMARK SMILES IDX 22 1 21 2 20 3 19 4 18 5 17 6 15 7 16 8 3 9 4 10 2 11 1 12
REMARK SMILES IDX 5 13 6 14 7 16 8 17 9 18 10 19 11 20 12 21 13 22 14 23 23 24
REMARK SMILES IDX 24 25 25 26 26 27 27 28 28 29 29 30 30 31 31 32 32 33 33 34
REMARK SMILES IDX 94 35 34 36 93 37 35 38 36 39 37 40 87 41 38 42 92 43 86 44
REMARK SMILES IDX 88 45 39 46 91 47 85 48 84 49 40 51 72 52 52 53 71 54 53 55
REMARK SMILES IDX 56 56 70 57 89 58 54 59 55 60 69 62 90 63 57 64 41 65 42 66
REMARK SMILES IDX 50 67 43 68 45 69 51 70 44 71 46 72 47 73 48 74 49 75 73 76
REMARK SMILES IDX 74 77 82 78 75 79 77 80 83 81 76 82 78 83 79 84 80 85 81 86
REMARK SMILES IDX 58 87 59 88 67 89 60 90 62 91 68 92 61 93 63 94 64 95 65 96
REMARK SMILES IDX 66 97
REMARK H PARENT 5 15 88 50 56 61
REMARK Flexibility Score: inf
ROOT
ATOM      1  C   UNL A   1      40.225  20.690  26.362  1.00  0.00     0.188 C 
ENDROOT
BRANCH   1   2
ATOM      2  C   UNL A   1      38.892  20.814  25.621  1.00  0.00     0.188 C 
BRANCH   2   3
ATOM      3  O   UNL A   1      38.366  22.088  25.255  1.00  0.00    -0.376 OA
BRANCH   3   4
ATOM      4  C   UNL A   1      37.093  22.515  25.724  1.00  0.00     0.202 C 
BRANCH   4   5
ATOM      5  C   UNL A   1      37.040  24.043  25.669  1.00  0.00     0.261 C 
BRANCH   5   6
ATOM      6  O   UNL A   1      35.676  24.448  25.478  1.00  0.00    -0.462 OA
BRANCH   6   7
ATOM      7  C   UNL A   1      35.005  23.980  24.412  1.00  0.00     0.331 C 
ATOM      8  O   UNL A   1      35.546  23.677  23.355  1.00  0.00    -0.249 OA
BRANCH   7   9
ATOM      9  C   UNL A   1      33.460  23.934  24.668  1.00  0.00     0.136 C 
ATOM     10  C   UNL A   1      33.368  24.421  26.141  1.00  0.00     0.047 C 
BRANCH   9  11
ATOM     11  C   UNL A   1      32.690  24.982  23.786  1.00  0.00     0.037 C 
ATOM     12  C   UNL A   1      31.722  24.436  22.726  1.00  0.00     0.007 C 
ENDBRANCH   9  11
BRANCH   9  13
ATOM     13  N   UNL A   1      32.736  22.571  24.652  1.00  0.00    -0.322 N 
ATOM     14  C   UNL A   1      33.027  21.313  24.155  1.00  0.00     0.318 C 
ATOM     15  H   UNL A   1      31.860  22.606  25.101  1.00  0.00     0.166 HD
ATOM     16  O   UNL A   1      32.453  21.027  23.103  1.00  0.00    -0.249 OA
BRANCH  14  17
ATOM     17  N   UNL A   1      33.638  20.362  24.998  1.00  0.00    -0.325 N 
ATOM     18  C   UNL A   1      33.158  20.239  26.367  1.00  0.00     0.149 C 
BRANCH  17  19
ATOM     19  C   UNL A   1      34.245  19.011  24.505  1.00  0.00     0.086 C 
ATOM     20  C   UNL A   1      35.757  19.229  24.777  1.00  0.00     0.031 C 
BRANCH  19  21
ATOM     21  C   UNL A   1      33.288  17.583  24.414  1.00  0.00     0.005 C 
ATOM     22  C   UNL A   1      33.861  16.592  23.359  1.00  0.00     0.009 C 
ATOM     23  C   UNL A   1      32.638  16.485  25.423  1.00  0.00     0.009 C 
ENDBRANCH  19  21
ENDBRANCH  17  19
ENDBRANCH  14  17
ENDBRANCH   9  13
ENDBRANCH   7   9
ENDBRANCH   6   7
ENDBRANCH   5   6
ENDBRANCH   4   5
ENDBRANCH   3   4
ENDBRANCH   2   3
ENDBRANCH   1   2
BRANCH   1  24
ATOM     24  O   UNL A   1      40.955  19.515  26.077  1.00  0.00    -0.377 OA
BRANCH  24  25
ATOM     25  C   UNL A   1      42.286  19.479  26.557  1.00  0.00     0.188 C 
BRANCH  25  26
ATOM     26  C   UNL A   1      43.406  19.318  25.482  1.00  0.00     0.188 C 
BRANCH  26  27
ATOM     27  O   UNL A   1      44.388  20.364  25.253  1.00  0.00    -0.376 OA
BRANCH  27  28
ATOM     28  C   UNL A   1      44.075  21.712  25.684  1.00  0.00     0.202 C 
BRANCH  28  29
ATOM     29  C   UNL A   1      45.204  22.894  25.470  1.00  0.00     0.261 C 
BRANCH  29  30
ATOM     30  O   UNL A   1      44.931  24.287  25.987  1.00  0.00    -0.460 OA
BRANCH  30  31
ATOM     31  C   UNL A   1      43.686  24.910  25.990  1.00  0.00     0.338 C 
ATOM     32  O   UNL A   1      42.911  24.852  25.046  1.00  0.00    -0.246 OA
BRANCH  31  33
ATOM     33  C   UNL A   1      43.309  25.722  27.283  1.00  0.00     0.060 A 
ATOM     34  C   UNL A   1      43.936  26.913  27.697  1.00  0.00     0.016 A 
ATOM     35  C   UNL A   1      42.286  25.308  28.140  1.00  0.00     0.016 A 
ATOM     36  C   UNL A   1      43.581  27.708  28.801  1.00  0.00     0.010 A 
ATOM     37  C   UNL A   1      41.919  26.080  29.288  1.00  0.00     0.010 A 
ATOM     38  C   UNL A   1      42.562  27.291  29.627  1.00  0.00    -0.014 A 
BRANCH  38  39
ATOM     39  C   UNL A   1      42.369  27.965  30.942  1.00  0.00     0.031 A 
ATOM     40  C   UNL A   1      41.354  29.074  30.981  1.00  0.00     0.074 A 
ATOM     41  C   UNL A   1      43.030  27.618  32.067  1.00  0.00     0.049 A 
ATOM     42  N   UNL A   1      41.181  30.024  31.856  1.00  0.00    -0.248 NA
ATOM     43  C   UNL A   1      40.419  29.122  29.843  1.00  0.00     0.031 C 
ATOM     44  C   UNL A   1      43.919  26.466  32.216  1.00  0.00     0.029 A 
ATOM     45  N   UNL A   1      43.086  28.236  33.298  1.00  0.00    -0.354 N 
ATOM     46  C   UNL A   1      40.205  30.854  31.313  1.00  0.00     0.074 A 
ATOM     47  C   UNL A   1      39.790  30.265  30.061  1.00  0.00     0.031 C 
ATOM     48  C   UNL A   1      44.486  26.500  33.438  1.00  0.00     0.029 A 
ATOM     49  C   UNL A   1      44.044  27.703  34.138  1.00  0.00     0.049 A 
ATOM     50  H   UNL A   1      42.502  28.986  33.553  1.00  0.00     0.167 HD
ATOM     51  C   UNL A   1      39.727  32.020  31.806  1.00  0.00     0.034 A 
ATOM     52  C   UNL A   1      44.543  28.170  35.304  1.00  0.00     0.034 A 
ATOM     53  C   UNL A   1      40.135  32.557  33.075  1.00  0.00     0.049 A 
ATOM     54  C   UNL A   1      44.005  29.479  35.837  1.00  0.00     0.074 A 
ATOM     55  C   UNL A   1      39.716  33.716  33.702  1.00  0.00     0.029 A 
ATOM     56  N   UNL A   1      41.063  31.957  33.916  1.00  0.00    -0.354 N 
ATOM     57  N   UNL A   1      43.091  30.267  35.320  1.00  0.00    -0.248 NA
ATOM     58  C   UNL A   1      44.550  29.955  37.117  1.00  0.00     0.031 C 
ATOM     59  C   UNL A   1      40.417  33.832  34.907  1.00  0.00     0.029 A 
ATOM     60  C   UNL A   1      41.236  32.722  35.054  1.00  0.00     0.049 A 
ATOM     61  H   UNL A   1      41.531  31.111  33.728  1.00  0.00     0.167 HD
ATOM     62  C   UNL A   1      42.920  31.307  36.227  1.00  0.00     0.074 A 
ATOM     63  C   UNL A   1      43.817  31.039  37.334  1.00  0.00     0.031 C 
ATOM     64  C   UNL A   1      42.105  32.391  36.156  1.00  0.00     0.034 A 
BRANCH  51  65
ATOM     65  C   UNL A   1      38.763  32.799  30.944  1.00  0.00     0.023 A 
ATOM     66  C   UNL A   1      39.214  33.470  29.789  1.00  0.00     0.012 A 
ATOM     67  C   UNL A   1      37.399  32.878  31.294  1.00  0.00     0.148 A 
ATOM     68  C   UNL A   1      38.339  34.250  29.031  1.00  0.00     0.002 A 
ATOM     69  C   UNL A   1      36.522  33.613  30.504  1.00  0.00     0.091 A 
ATOM     70  F   UNL A   1      36.988  32.255  32.408  1.00  0.00    -0.205 F 
ATOM     71  C   UNL A   1      36.994  34.315  29.384  1.00  0.00     0.022 A 
BRANCH  69  72
ATOM     72  S   UNL A   1      34.757  33.694  30.827  1.00  0.00     0.127 S 
ATOM     73  O   UNL A   1      34.690  34.736  31.850  1.00  0.00    -0.237 OA
ATOM     74  O   UNL A   1      34.227  34.089  29.521  1.00  0.00    -0.237 OA
ATOM     75  O   UNL A   1      34.365  32.363  31.265  1.00  0.00    -0.744 OA
ENDBRANCH  69  72
ENDBRANCH  51  65
BRANCH  52  76
ATOM     76  C   UNL A   1      45.595  27.408  36.051  1.00  0.00     0.023 A 
ATOM     77  C   UNL A   1      46.956  27.643  35.764  1.00  0.00     0.012 A 
ATOM     78  C   UNL A   1      45.268  26.472  37.055  1.00  0.00     0.148 A 
ATOM     79  C   UNL A   1      47.964  26.955  36.444  1.00  0.00     0.002 A 
ATOM     80  C   UNL A   1      46.279  25.832  37.769  1.00  0.00     0.091 A 
ATOM     81  F   UNL A   1      43.973  26.231  37.300  1.00  0.00    -0.205 F 
ATOM     82  C   UNL A   1      47.627  26.061  37.456  1.00  0.00     0.022 A 
BRANCH  80  83
ATOM     83  S   UNL A   1      45.948  24.763  39.177  1.00  0.00     0.127 S 
ATOM     84  O   UNL A   1      47.291  24.528  39.701  1.00  0.00    -0.237 OA
ATOM     85  O   UNL A   1      45.103  25.618  40.011  1.00  0.00    -0.237 OA
ATOM     86  O   UNL A   1      45.267  23.595  38.633  1.00  0.00    -0.744 OA
ENDBRANCH  80  83
ENDBRANCH  52  76
BRANCH  64  87
ATOM     87  C   UNL A   1      42.095  33.326  37.336  1.00  0.00     0.023 A 
ATOM     88  C   UNL A   1      43.078  34.326  37.460  1.00  0.00     0.012 A 
ATOM     89  C   UNL A   1      41.058  33.250  38.286  1.00  0.00     0.148 A 
ATOM     90  C   UNL A   1      43.052  35.212  38.536  1.00  0.00     0.002 A 
ATOM     91  C   UNL A   1      41.006  34.170  39.323  1.00  0.00     0.091 A 
ATOM     92  F   UNL A   1      40.142  32.278  38.159  1.00  0.00    -0.205 F 
ATOM     93  C   UNL A   1      42.010  35.142  39.460  1.00  0.00     0.022 A 
BRANCH  91  94
ATOM     94  S   UNL A   1      39.644  34.223  40.492  1.00  0.00     0.127 S 
ATOM     95  O   UNL A   1      39.016  32.924  40.279  1.00  0.00    -0.237 OA
ATOM     96  O   UNL A   1      40.336  34.371  41.770  1.00  0.00    -0.237 OA
ATOM     97  O   UNL A   1      38.835  35.381  40.109  1.00  0.00    -0.744 OA
ENDBRANCH  91  94
ENDBRANCH  64  87
ENDBRANCH  38  39
ENDBRANCH  31  33
ENDBRANCH  30  31
ENDBRANCH  29  30
ENDBRANCH  28  29
ENDBRANCH  27  28
ENDBRANCH  26  27
ENDBRANCH  25  26
ENDBRANCH  24  25
ENDBRANCH   1  24
TORSDOF 28
ENDMDL
