MODEL 1
REMARK VINA RESULT:     -10.4      0.000      0.000
REMARK SMILES NS(=O)(=O)c1ccc(-n2nc(C(=O)NCCCC(=O)OCCOCCOCCOCCOC(=O)c3ccc(-c4c5nc(c(-c6cccc(S(=O)(=O)[O-])c6F)c6ccc([nH]6)c(-c6cccc(S(=O)(=O)[O-])c6F)c6nc(c(-c7cccc(S(=O)(=O)[O-])c7F)c7ccc4[nH]7)C=C6)C=C5)cc3)cc2-c2ccccc2)cc1
REMARK SMILES IDX 24 1 23 2 22 3 21 4 20 5 18 6 19 7 17 8 16 9 15 10 14 11
REMARK SMILES IDX 12 12 13 13 11 15 9 16 10 17 99 18 98 19 8 20 5 21 6 22
REMARK SMILES IDX 107 23 7 24 106 25 2 26 3 27 4 28 1 29 100 32 101 33 105 34
REMARK SMILES IDX 102 35 104 36 103 37 25 38 26 39 27 40 28 41 29 42 30 43
REMARK SMILES IDX 31 44 32 45 33 46 34 47 35 48 36 49 97 50 37 51 96 52 38 53
REMARK SMILES IDX 39 54 40 55 90 56 41 57 95 58 89 59 91 60 42 61 94 62 88 63
REMARK SMILES IDX 87 64 43 66 75 67 55 68 74 69 56 70 59 71 73 72 92 73 57 74
REMARK SMILES IDX 58 75 72 77 93 78 60 79 44 80 45 81 53 82 46 83 48 84 54 85
REMARK SMILES IDX 47 86 49 87 50 88 51 89 52 90 76 91 77 92 85 93 78 94 80 95
REMARK SMILES IDX 86 96 79 97 81 98 82 99 83 100 84 101 61 102 62 103 70 104
REMARK SMILES IDX 63 105 65 106 71 107 64 108 66 109 67 110 68 111 69 112
REMARK H PARENT 14 14 1 30 1 31 91 65 59 76
REMARK Flexibility Score: inf
ROOT
ATOM      1  C   UNL A   1      33.377  28.867  26.315  1.00  0.00     0.188 C 
ENDROOT
BRANCH   1   2
ATOM      2  O   UNL A   1      32.351  29.693  25.772  1.00  0.00    -0.376 OA
BRANCH   2   3
ATOM      3  C   UNL A   1      31.276  29.102  25.059  1.00  0.00     0.202 C 
BRANCH   3   4
ATOM      4  C   UNL A   1      31.088  29.454  23.579  1.00  0.00     0.261 C 
BRANCH   4   5
ATOM      5  O   UNL A   1      30.389  28.470  22.792  1.00  0.00    -0.463 OA
BRANCH   5   6
ATOM      6  C   UNL A   1      29.048  28.421  22.955  1.00  0.00     0.305 C 
ATOM      7  O   UNL A   1      28.275  29.312  22.615  1.00  0.00    -0.252 OA
BRANCH   6   8
ATOM      8  C   UNL A   1      28.538  27.180  23.661  1.00  0.00     0.124 C 
BRANCH   8   9
ATOM      9  C   UNL A   1      29.470  26.159  24.311  1.00  0.00     0.033 C 
BRANCH   9  10
ATOM     10  C   UNL A   1      30.130  25.098  23.429  1.00  0.00     0.117 C 
BRANCH  10  11
ATOM     11  N   UNL A   1      30.945  25.670  22.382  1.00  0.00    -0.351 N 
ATOM     12  C   UNL A   1      32.281  25.545  22.066  1.00  0.00     0.271 C 
ATOM     13  O   UNL A   1      32.667  26.285  21.154  1.00  0.00    -0.267 OA
ATOM     14  H   UNL A   1      30.449  26.266  21.775  1.00  0.00     0.163 HD
BRANCH  12  15
ATOM     15  C   UNL A   1      33.190  24.594  22.748  1.00  0.00     0.151 A 
ATOM     16  N   UNL A   1      33.826  22.684  23.496  1.00  0.00    -0.232 N 
ATOM     17  N   UNL A   1      32.993  23.263  22.599  1.00  0.00    -0.162 NA
ATOM     18  C   UNL A   1      34.792  23.575  23.932  1.00  0.00     0.075 A 
ATOM     19  C   UNL A   1      34.296  24.821  23.616  1.00  0.00     0.065 A 
BRANCH  16  20
ATOM     20  C   UNL A   1      33.667  21.334  23.911  1.00  0.00     0.065 A 
ATOM     21  C   UNL A   1      33.506  18.625  24.541  1.00  0.00     0.082 A 
ATOM     22  C   UNL A   1      34.639  19.346  24.913  1.00  0.00     0.024 A 
ATOM     23  C   UNL A   1      32.432  19.263  23.902  1.00  0.00     0.024 A 
ATOM     24  C   UNL A   1      34.716  20.698  24.596  1.00  0.00     0.030 A 
ATOM     25  C   UNL A   1      32.501  20.630  23.605  1.00  0.00     0.030 A 
BRANCH  21  26
ATOM     26  S   UNL A   1      33.395  16.890  24.881  1.00  0.00     0.238 S 
ATOM     27  O   UNL A   1      34.076  16.622  26.122  1.00  0.00    -0.207 OA
ATOM     28  O   UNL A   1      33.725  16.183  23.660  1.00  0.00    -0.207 OA
BRANCH  26  29
ATOM     29  N   UNL A   1      31.770  16.624  25.144  1.00  0.00    -0.225 NA
ATOM     30  H   UNL A   1      31.593  16.565  26.146  1.00  0.00     0.137 HD
ATOM     31  H   UNL A   1      31.491  15.749  24.697  1.00  0.00     0.137 HD
ENDBRANCH  26  29
ENDBRANCH  21  26
ENDBRANCH  16  20
BRANCH  18  32
ATOM     32  C   UNL A   1      36.040  23.156  24.559  1.00  0.00     0.000 A 
ATOM     33  C   UNL A   1      36.822  22.164  23.945  1.00  0.00     0.010 A 
ATOM     34  C   UNL A   1      36.394  23.629  25.822  1.00  0.00     0.010 A 
ATOM     35  C   UNL A   1      37.934  21.639  24.596  1.00  0.00     0.001 A 
ATOM     36  C   UNL A   1      37.489  23.077  26.481  1.00  0.00     0.001 A 
ATOM     37  C   UNL A   1      38.256  22.098  25.864  1.00  0.00     0.000 A 
ENDBRANCH  18  32
ENDBRANCH  12  15
ENDBRANCH  10  11
ENDBRANCH   9  10
ENDBRANCH   8   9
ENDBRANCH   6   8
ENDBRANCH   5   6
ENDBRANCH   4   5
ENDBRANCH   3   4
ENDBRANCH   2   3
ENDBRANCH   1   2
BRANCH   1  38
ATOM     38  C   UNL A   1      34.858  29.300  26.274  1.00  0.00     0.188 C 
BRANCH  38  39
ATOM     39  O   UNL A   1      35.459  29.565  27.528  1.00  0.00    -0.377 OA
BRANCH  39  40
ATOM     40  C   UNL A   1      34.749  30.510  28.327  1.00  0.00     0.188 C 
BRANCH  40  41
ATOM     41  C   UNL A   1      34.723  31.961  27.805  1.00  0.00     0.188 C 
BRANCH  41  42
ATOM     42  O   UNL A   1      34.083  32.884  28.690  1.00  0.00    -0.376 OA
BRANCH  42  43
ATOM     43  C   UNL A   1      33.727  34.165  28.184  1.00  0.00     0.202 C 
BRANCH  43  44
ATOM     44  C   UNL A   1      33.407  35.197  29.261  1.00  0.00     0.261 C 
BRANCH  44  45
ATOM     45  O   UNL A   1      33.120  34.626  30.529  1.00  0.00    -0.460 OA
BRANCH  45  46
ATOM     46  C   UNL A   1      33.402  35.361  31.625  1.00  0.00     0.338 C 
ATOM     47  O   UNL A   1      33.001  36.478  31.891  1.00  0.00    -0.246 OA
BRANCH  46  48
ATOM     48  C   UNL A   1      34.408  34.628  32.402  1.00  0.00     0.060 A 
ATOM     49  C   UNL A   1      35.533  35.354  32.793  1.00  0.00     0.016 A 
ATOM     50  C   UNL A   1      34.376  33.229  32.446  1.00  0.00     0.016 A 
ATOM     51  C   UNL A   1      36.719  34.671  32.944  1.00  0.00     0.010 A 
ATOM     52  C   UNL A   1      35.561  32.560  32.596  1.00  0.00     0.010 A 
ATOM     53  C   UNL A   1      36.730  33.293  32.723  1.00  0.00    -0.014 A 
BRANCH  53  54
ATOM     54  C   UNL A   1      38.003  32.627  32.589  1.00  0.00     0.031 A 
ATOM     55  C   UNL A   1      38.833  32.649  33.798  1.00  0.00     0.074 A 
ATOM     56  C   UNL A   1      38.388  31.980  31.473  1.00  0.00     0.049 A 
ATOM     57  N   UNL A   1      39.839  33.424  34.021  1.00  0.00    -0.248 NA
ATOM     58  C   UNL A   1      38.429  31.816  34.936  1.00  0.00     0.031 C 
ATOM     59  C   UNL A   1      37.575  31.584  30.322  1.00  0.00     0.029 A 
ATOM     60  N   UNL A   1      39.610  31.448  31.194  1.00  0.00    -0.354 N 
ATOM     61  C   UNL A   1      40.351  33.002  35.237  1.00  0.00     0.074 A 
ATOM     62  C   UNL A   1      39.346  32.161  35.840  1.00  0.00     0.031 C 
ATOM     63  C   UNL A   1      38.281  30.711  29.564  1.00  0.00     0.029 A 
ATOM     64  C   UNL A   1      39.628  30.591  30.101  1.00  0.00     0.049 A 
ATOM     65  H   UNL A   1      40.414  31.653  31.723  1.00  0.00     0.167 HD
ATOM     66  C   UNL A   1      41.665  33.163  35.538  1.00  0.00     0.034 A 
ATOM     67  C   UNL A   1      40.668  29.814  29.711  1.00  0.00     0.034 A 
ATOM     68  C   UNL A   1      42.325  34.070  34.635  1.00  0.00     0.049 A 
ATOM     69  C   UNL A   1      41.896  30.395  30.309  1.00  0.00     0.074 A 
ATOM     70  C   UNL A   1      42.114  35.375  34.233  1.00  0.00     0.029 A 
ATOM     71  N   UNL A   1      43.179  33.523  33.708  1.00  0.00    -0.354 N 
ATOM     72  N   UNL A   1      42.432  31.517  29.918  1.00  0.00    -0.248 NA
ATOM     73  C   UNL A   1      42.346  29.912  31.606  1.00  0.00     0.031 C 
ATOM     74  C   UNL A   1      42.485  35.405  32.857  1.00  0.00     0.029 A 
ATOM     75  C   UNL A   1      42.923  34.126  32.506  1.00  0.00     0.049 A 
ATOM     76  H   UNL A   1      43.852  32.824  33.878  1.00  0.00     0.167 HD
ATOM     77  C   UNL A   1      42.934  32.092  31.077  1.00  0.00     0.074 A 
ATOM     78  C   UNL A   1      42.976  31.004  32.048  1.00  0.00     0.031 C 
ATOM     79  C   UNL A   1      42.991  33.450  31.227  1.00  0.00     0.034 A 
BRANCH  66  80
ATOM     80  C   UNL A   1      42.435  32.240  36.436  1.00  0.00     0.023 A 
ATOM     81  C   UNL A   1      43.205  32.821  37.463  1.00  0.00     0.012 A 
ATOM     82  C   UNL A   1      42.635  30.864  36.174  1.00  0.00     0.148 A 
ATOM     83  C   UNL A   1      44.142  32.074  38.182  1.00  0.00     0.002 A 
ATOM     84  C   UNL A   1      43.495  30.106  36.956  1.00  0.00     0.091 A 
ATOM     85  F   UNL A   1      42.105  30.304  35.080  1.00  0.00    -0.205 F 
ATOM     86  C   UNL A   1      44.273  30.711  37.943  1.00  0.00     0.022 A 
BRANCH  84  87
ATOM     87  S   UNL A   1      43.613  28.328  36.725  1.00  0.00     0.127 S 
ATOM     88  O   UNL A   1      42.209  27.933  36.717  1.00  0.00    -0.237 OA
ATOM     89  O   UNL A   1      44.294  28.230  35.435  1.00  0.00    -0.237 OA
ATOM     90  O   UNL A   1      44.409  27.855  37.852  1.00  0.00    -0.744 OA
ENDBRANCH  84  87
ENDBRANCH  66  80
BRANCH  67  91
ATOM     91  C   UNL A   1      40.704  28.524  28.975  1.00  0.00     0.023 A 
ATOM     92  C   UNL A   1      39.704  27.557  29.194  1.00  0.00     0.012 A 
ATOM     93  C   UNL A   1      41.545  28.343  27.862  1.00  0.00     0.148 A 
ATOM     94  C   UNL A   1      39.522  26.487  28.306  1.00  0.00     0.002 A 
ATOM     95  C   UNL A   1      41.351  27.295  26.967  1.00  0.00     0.091 A 
ATOM     96  F   UNL A   1      42.504  29.238  27.626  1.00  0.00    -0.205 F 
ATOM     97  C   UNL A   1      40.332  26.365  27.180  1.00  0.00     0.022 A 
BRANCH  95  98
ATOM     98  S   UNL A   1      42.364  27.173  25.486  1.00  0.00     0.127 S 
ATOM     99  O   UNL A   1      43.718  27.053  26.028  1.00  0.00    -0.237 OA
ATOM    100  O   UNL A   1      41.840  25.964  24.861  1.00  0.00    -0.237 OA
ATOM    101  O   UNL A   1      42.119  28.421  24.769  1.00  0.00    -0.744 OA
ENDBRANCH  95  98
ENDBRANCH  67  91
BRANCH  79 102
ATOM    102  C   UNL A   1      42.785  34.314  30.003  1.00  0.00     0.023 A 
ATOM    103  C   UNL A   1      41.536  34.903  29.711  1.00  0.00     0.012 A 
ATOM    104  C   UNL A   1      43.904  34.686  29.237  1.00  0.00     0.148 A 
ATOM    105  C   UNL A   1      41.399  35.813  28.661  1.00  0.00     0.002 A 
ATOM    106  C   UNL A   1      43.774  35.633  28.226  1.00  0.00     0.091 A 
ATOM    107  F   UNL A   1      45.089  34.127  29.525  1.00  0.00    -0.205 F 
ATOM    108  C   UNL A   1      42.520  36.189  27.927  1.00  0.00     0.022 A 
BRANCH 106 109
ATOM    109  S   UNL A   1      45.205  36.267  27.344  1.00  0.00     0.127 S 
ATOM    110  O   UNL A   1      44.693  37.517  26.787  1.00  0.00    -0.237 OA
ATOM    111  O   UNL A   1      46.190  36.432  28.415  1.00  0.00    -0.237 OA
ATOM    112  O   UNL A   1      45.556  35.237  26.373  1.00  0.00    -0.744 OA
ENDBRANCH 106 109
ENDBRANCH  79 102
ENDBRANCH  53  54
ENDBRANCH  46  48
ENDBRANCH  45  46
ENDBRANCH  44  45
ENDBRANCH  43  44
ENDBRANCH  42  43
ENDBRANCH  41  42
ENDBRANCH  40  41
ENDBRANCH  39  40
ENDBRANCH  38  39
ENDBRANCH   1  38
TORSDOF 31
ENDMDL
MODEL 2
REMARK VINA RESULT:      -9.7      2.086      2.539
REMARK SMILES NS(=O)(=O)c1ccc(-n2nc(C(=O)NCCCC(=O)OCCOCCOCCOCCOC(=O)c3ccc(-c4c5nc(c(-c6cccc(S(=O)(=O)[O-])c6F)c6ccc([nH]6)c(-c6cccc(S(=O)(=O)[O-])c6F)c6nc(c(-c7cccc(S(=O)(=O)[O-])c7F)c7ccc4[nH]7)C=C6)C=C5)cc3)cc2-c2ccccc2)cc1
REMARK SMILES IDX 24 1 23 2 22 3 21 4 20 5 18 6 19 7 17 8 16 9 15 10 14 11
REMARK SMILES IDX 12 12 13 13 11 15 9 16 10 17 99 18 98 19 8 20 5 21 6 22
REMARK SMILES IDX 107 23 7 24 106 25 2 26 3 27 4 28 1 29 100 32 101 33 105 34
REMARK SMILES IDX 102 35 104 36 103 37 25 38 26 39 27 40 28 41 29 42 30 43
REMARK SMILES IDX 31 44 32 45 33 46 34 47 35 48 36 49 97 50 37 51 96 52 38 53
REMARK SMILES IDX 39 54 40 55 90 56 41 57 95 58 89 59 91 60 42 61 94 62 88 63
REMARK SMILES IDX 87 64 43 66 75 67 55 68 74 69 56 70 59 71 73 72 92 73 57 74
REMARK SMILES IDX 58 75 72 77 93 78 60 79 44 80 45 81 53 82 46 83 48 84 54 85
REMARK SMILES IDX 47 86 49 87 50 88 51 89 52 90 76 91 77 92 85 93 78 94 80 95
REMARK SMILES IDX 86 96 79 97 81 98 82 99 83 100 84 101 61 102 62 103 70 104
REMARK SMILES IDX 63 105 65 106 71 107 64 108 66 109 67 110 68 111 69 112
REMARK H PARENT 14 14 1 30 1 31 91 65 59 76
REMARK Flexibility Score: inf
ROOT
ATOM      1  C   UNL A   1      33.485  28.964  26.989  1.00  0.00     0.188 C 
ENDROOT
BRANCH   1   2
ATOM      2  O   UNL A   1      32.395  29.723  26.472  1.00  0.00    -0.376 OA
BRANCH   2   3
ATOM      3  C   UNL A   1      31.489  29.123  25.561  1.00  0.00     0.202 C 
BRANCH   3   4
ATOM      4  C   UNL A   1      31.743  29.275  24.056  1.00  0.00     0.261 C 
BRANCH   4   5
ATOM      5  O   UNL A   1      31.047  28.337  23.213  1.00  0.00    -0.463 OA
BRANCH   5   6
ATOM      6  C   UNL A   1      29.700  28.326  23.319  1.00  0.00     0.305 C 
ATOM      7  O   UNL A   1      29.003  29.333  23.408  1.00  0.00    -0.252 OA
BRANCH   6   8
ATOM      8  C   UNL A   1      29.078  26.945  23.384  1.00  0.00     0.124 C 
BRANCH   8   9
ATOM      9  C   UNL A   1      29.700  25.797  24.175  1.00  0.00     0.033 C 
BRANCH   9  10
ATOM     10  C   UNL A   1      30.177  26.062  25.605  1.00  0.00     0.117 C 
BRANCH  10  11
ATOM     11  N   UNL A   1      29.638  25.118  26.557  1.00  0.00    -0.351 N 
ATOM     12  C   UNL A   1      29.982  23.824  26.885  1.00  0.00     0.271 C 
ATOM     13  O   UNL A   1      29.213  23.272  27.680  1.00  0.00    -0.267 OA
ATOM     14  H   UNL A   1      28.875  25.467  27.072  1.00  0.00     0.163 HD
BRANCH  12  15
ATOM     15  C   UNL A   1      31.182  23.142  26.346  1.00  0.00     0.151 A 
ATOM     16  N   UNL A   1      32.301  21.506  25.520  1.00  0.00    -0.232 N 
ATOM     17  N   UNL A   1      31.039  21.968  25.687  1.00  0.00    -0.162 NA
ATOM     18  C   UNL A   1      33.233  22.511  25.717  1.00  0.00     0.075 A 
ATOM     19  C   UNL A   1      32.561  23.490  26.414  1.00  0.00     0.065 A 
BRANCH  16  20
ATOM     20  C   UNL A   1      32.571  20.148  25.201  1.00  0.00     0.065 A 
ATOM     21  C   UNL A   1      33.332  17.526  24.646  1.00  0.00     0.082 A 
ATOM     22  C   UNL A   1      33.110  17.907  25.967  1.00  0.00     0.024 A 
ATOM     23  C   UNL A   1      33.126  18.435  23.596  1.00  0.00     0.024 A 
ATOM     24  C   UNL A   1      32.730  19.217  26.241  1.00  0.00     0.030 A 
ATOM     25  C   UNL A   1      32.720  19.748  23.872  1.00  0.00     0.030 A 
BRANCH  21  26
ATOM     26  S   UNL A   1      33.867  15.881  24.263  1.00  0.00     0.238 S 
ATOM     27  O   UNL A   1      34.333  15.857  22.900  1.00  0.00    -0.207 OA
ATOM     28  O   UNL A   1      32.848  14.968  24.740  1.00  0.00    -0.207 OA
BRANCH  26  29
ATOM     29  N   UNL A   1      35.196  15.642  25.242  1.00  0.00    -0.225 NA
ATOM     30  H   UNL A   1      35.935  15.185  24.706  1.00  0.00     0.137 HD
ATOM     31  H   UNL A   1      34.936  15.051  26.032  1.00  0.00     0.137 HD
ENDBRANCH  26  29
ENDBRANCH  21  26
ENDBRANCH  16  20
BRANCH  18  32
ATOM     32  C   UNL A   1      34.603  22.437  25.221  1.00  0.00     0.000 A 
ATOM     33  C   UNL A   1      34.939  23.088  24.022  1.00  0.00     0.010 A 
ATOM     34  C   UNL A   1      35.542  21.620  25.849  1.00  0.00     0.010 A 
ATOM     35  C   UNL A   1      36.195  22.907  23.450  1.00  0.00     0.001 A 
ATOM     36  C   UNL A   1      36.785  21.419  25.254  1.00  0.00     0.001 A 
ATOM     37  C   UNL A   1      37.108  22.068  24.070  1.00  0.00     0.000 A 
ENDBRANCH  18  32
ENDBRANCH  12  15
ENDBRANCH  10  11
ENDBRANCH   9  10
ENDBRANCH   8   9
ENDBRANCH   6   8
ENDBRANCH   5   6
ENDBRANCH   4   5
ENDBRANCH   3   4
ENDBRANCH   2   3
ENDBRANCH   1   2
BRANCH   1  38
ATOM     38  C   UNL A   1      34.822  29.637  27.364  1.00  0.00     0.188 C 
BRANCH  38  39
ATOM     39  O   UNL A   1      34.730  30.749  28.236  1.00  0.00    -0.377 OA
BRANCH  39  40
ATOM     40  C   UNL A   1      33.806  31.748  27.811  1.00  0.00     0.188 C 
BRANCH  40  41
ATOM     41  C   UNL A   1      34.143  33.202  28.204  1.00  0.00     0.188 C 
BRANCH  41  42
ATOM     42  O   UNL A   1      33.398  33.687  29.323  1.00  0.00    -0.376 OA
BRANCH  42  43
ATOM     43  C   UNL A   1      33.204  35.091  29.445  1.00  0.00     0.202 C 
BRANCH  43  44
ATOM     44  C   UNL A   1      33.231  35.605  30.881  1.00  0.00     0.261 C 
BRANCH  44  45
ATOM     45  O   UNL A   1      33.544  34.604  31.838  1.00  0.00    -0.460 OA
BRANCH  45  46
ATOM     46  C   UNL A   1      34.709  34.723  32.510  1.00  0.00     0.338 C 
ATOM     47  O   UNL A   1      35.035  35.612  33.273  1.00  0.00    -0.246 OA
BRANCH  46  48
ATOM     48  C   UNL A   1      35.595  33.647  32.053  1.00  0.00     0.060 A 
ATOM     49  C   UNL A   1      35.877  32.645  32.981  1.00  0.00     0.016 A 
ATOM     50  C   UNL A   1      36.350  33.811  30.885  1.00  0.00     0.016 A 
ATOM     51  C   UNL A   1      37.090  32.002  32.886  1.00  0.00     0.010 A 
ATOM     52  C   UNL A   1      37.556  33.168  30.801  1.00  0.00     0.010 A 
ATOM     53  C   UNL A   1      37.961  32.367  31.857  1.00  0.00    -0.014 A 
BRANCH  53  54
ATOM     54  C   UNL A   1      39.331  31.920  31.923  1.00  0.00     0.031 A 
ATOM     55  C   UNL A   1      39.984  32.141  33.218  1.00  0.00     0.074 A 
ATOM     56  C   UNL A   1      39.957  31.294  30.909  1.00  0.00     0.049 A 
ATOM     57  N   UNL A   1      40.814  33.085  33.505  1.00  0.00    -0.248 NA
ATOM     58  C   UNL A   1      39.576  31.309  34.355  1.00  0.00     0.031 C 
ATOM     59  C   UNL A   1      39.374  30.709  29.700  1.00  0.00     0.029 A 
ATOM     60  N   UNL A   1      41.274  30.963  30.815  1.00  0.00    -0.354 N 
ATOM     61  C   UNL A   1      41.226  32.817  34.799  1.00  0.00     0.074 A 
ATOM     62  C   UNL A   1      40.301  31.849  35.335  1.00  0.00     0.031 C 
ATOM     63  C   UNL A   1      40.304  29.933  29.094  1.00  0.00     0.029 A 
ATOM     64  C   UNL A   1      41.571  30.069  29.795  1.00  0.00     0.049 A 
ATOM     65  H   UNL A   1      41.959  31.327  31.421  1.00  0.00     0.167 HD
ATOM     66  C   UNL A   1      42.447  33.213  35.243  1.00  0.00     0.034 A 
ATOM     67  C   UNL A   1      42.766  29.461  29.587  1.00  0.00     0.034 A 
ATOM     68  C   UNL A   1      43.062  34.173  34.364  1.00  0.00     0.049 A 
ATOM     69  C   UNL A   1      43.796  30.270  30.285  1.00  0.00     0.074 A 
ATOM     70  C   UNL A   1      42.697  35.402  33.849  1.00  0.00     0.029 A 
ATOM     71  N   UNL A   1      44.106  33.733  33.586  1.00  0.00    -0.354 N 
ATOM     72  N   UNL A   1      44.189  31.446  29.883  1.00  0.00    -0.248 NA
ATOM     73  C   UNL A   1      44.146  29.934  31.657  1.00  0.00     0.031 C 
ATOM     74  C   UNL A   1      43.232  35.426  32.528  1.00  0.00     0.029 A 
ATOM     75  C   UNL A   1      43.913  34.225  32.323  1.00  0.00     0.049 A 
ATOM     76  H   UNL A   1      44.855  33.167  33.883  1.00  0.00     0.167 HD
ATOM     77  C   UNL A   1      44.437  32.154  31.051  1.00  0.00     0.074 A 
ATOM     78  C   UNL A   1      44.529  31.137  32.093  1.00  0.00     0.031 C 
ATOM     79  C   UNL A   1      44.254  33.507  31.111  1.00  0.00     0.034 A 
BRANCH  66  80
ATOM     80  C   UNL A   1      43.233  32.478  36.289  1.00  0.00     0.023 A 
ATOM     81  C   UNL A   1      43.541  31.125  36.041  1.00  0.00     0.012 A 
ATOM     82  C   UNL A   1      43.471  32.969  37.593  1.00  0.00     0.148 A 
ATOM     83  C   UNL A   1      44.043  30.297  37.048  1.00  0.00     0.002 A 
ATOM     84  C   UNL A   1      44.060  32.169  38.562  1.00  0.00     0.091 A 
ATOM     85  F   UNL A   1      43.001  34.169  37.955  1.00  0.00    -0.205 F 
ATOM     86  C   UNL A   1      44.323  30.823  38.304  1.00  0.00     0.022 A 
BRANCH  84  87
ATOM     87  S   UNL A   1      44.513  32.852  40.160  1.00  0.00     0.127 S 
ATOM     88  O   UNL A   1      45.418  31.831  40.677  1.00  0.00    -0.237 OA
ATOM     89  O   UNL A   1      45.149  34.115  39.787  1.00  0.00    -0.237 OA
ATOM     90  O   UNL A   1      43.250  33.012  40.872  1.00  0.00    -0.744 OA
ENDBRANCH  84  87
ENDBRANCH  66  80
BRANCH  67  91
ATOM     91  C   UNL A   1      43.104  28.161  28.953  1.00  0.00     0.023 A 
ATOM     92  C   UNL A   1      43.312  27.019  29.749  1.00  0.00     0.012 A 
ATOM     93  C   UNL A   1      42.954  27.965  27.567  1.00  0.00     0.148 A 
ATOM     94  C   UNL A   1      43.313  25.733  29.188  1.00  0.00     0.002 A 
ATOM     95  C   UNL A   1      42.932  26.689  27.013  1.00  0.00     0.091 A 
ATOM     96  F   UNL A   1      42.758  29.025  26.783  1.00  0.00    -0.205 F 
ATOM     97  C   UNL A   1      43.103  25.564  27.821  1.00  0.00     0.022 A 
BRANCH  95  98
ATOM     98  S   UNL A   1      42.606  26.474  25.257  1.00  0.00     0.127 S 
ATOM     99  O   UNL A   1      42.741  27.833  24.733  1.00  0.00    -0.237 OA
ATOM    100  O   UNL A   1      43.666  25.553  24.864  1.00  0.00    -0.237 OA
ATOM    101  O   UNL A   1      41.246  25.946  25.196  1.00  0.00    -0.744 OA
ENDBRANCH  95  98
ENDBRANCH  67  91
BRANCH  79 102
ATOM    102  C   UNL A   1      44.070  34.263  29.814  1.00  0.00     0.023 A 
ATOM    103  C   UNL A   1      42.792  34.495  29.263  1.00  0.00     0.012 A 
ATOM    104  C   UNL A   1      45.182  34.904  29.238  1.00  0.00     0.148 A 
ATOM    105  C   UNL A   1      42.629  35.316  28.146  1.00  0.00     0.002 A 
ATOM    106  C   UNL A   1      45.008  35.764  28.158  1.00  0.00     0.091 A 
ATOM    107  F   UNL A   1      46.393  34.685  29.771  1.00  0.00    -0.205 F 
ATOM    108  C   UNL A   1      43.735  35.962  27.601  1.00  0.00     0.022 A 
BRANCH 106 109
ATOM    109  S   UNL A   1      46.369  36.738  27.506  1.00  0.00     0.127 S 
ATOM    110  O   UNL A   1      46.703  37.597  28.640  1.00  0.00    -0.237 OA
ATOM    111  O   UNL A   1      47.372  35.717  27.196  1.00  0.00    -0.237 OA
ATOM    112  O   UNL A   1      45.838  37.419  26.330  1.00  0.00    -0.744 OA
ENDBRANCH 106 109
ENDBRANCH  79 102
ENDBRANCH  53  54
ENDBRANCH  46  48
ENDBRANCH  45  46
ENDBRANCH  44  45
ENDBRANCH  43  44
ENDBRANCH  42  43
ENDBRANCH  41  42
ENDBRANCH  40  41
ENDBRANCH  39  40
ENDBRANCH  38  39
ENDBRANCH   1  38
TORSDOF 31
ENDMDL
MODEL 3
REMARK VINA RESULT:      -9.5      3.302      4.292
REMARK SMILES NS(=O)(=O)c1ccc(-n2nc(C(=O)NCCCC(=O)OCCOCCOCCOCCOC(=O)c3ccc(-c4c5nc(c(-c6cccc(S(=O)(=O)[O-])c6F)c6ccc([nH]6)c(-c6cccc(S(=O)(=O)[O-])c6F)c6nc(c(-c7cccc(S(=O)(=O)[O-])c7F)c7ccc4[nH]7)C=C6)C=C5)cc3)cc2-c2ccccc2)cc1
REMARK SMILES IDX 24 1 23 2 22 3 21 4 20 5 18 6 19 7 17 8 16 9 15 10 14 11
REMARK SMILES IDX 12 12 13 13 11 15 9 16 10 17 99 18 98 19 8 20 5 21 6 22
REMARK SMILES IDX 107 23 7 24 106 25 2 26 3 27 4 28 1 29 100 32 101 33 105 34
REMARK SMILES IDX 102 35 104 36 103 37 25 38 26 39 27 40 28 41 29 42 30 43
REMARK SMILES IDX 31 44 32 45 33 46 34 47 35 48 36 49 97 50 37 51 96 52 38 53
REMARK SMILES IDX 39 54 40 55 90 56 41 57 95 58 89 59 91 60 42 61 94 62 88 63
REMARK SMILES IDX 87 64 43 66 75 67 55 68 74 69 56 70 59 71 73 72 92 73 57 74
REMARK SMILES IDX 58 75 72 77 93 78 60 79 44 80 45 81 53 82 46 83 48 84 54 85
REMARK SMILES IDX 47 86 49 87 50 88 51 89 52 90 76 91 77 92 85 93 78 94 80 95
REMARK SMILES IDX 86 96 79 97 81 98 82 99 83 100 84 101 61 102 62 103 70 104
REMARK SMILES IDX 63 105 65 106 71 107 64 108 66 109 67 110 68 111 69 112
REMARK H PARENT 14 14 1 30 1 31 91 65 59 76
REMARK Flexibility Score: inf
ROOT
ATOM      1  C   UNL A   1      33.994  27.715  26.322  1.00  0.00     0.188 C 
ENDROOT
BRANCH   1   2
ATOM      2  O   UNL A   1      32.641  28.109  26.534  1.00  0.00    -0.376 OA
BRANCH   2   3
ATOM      3  C   UNL A   1      31.701  27.996  25.477  1.00  0.00     0.202 C 
BRANCH   3   4
ATOM      4  C   UNL A   1      31.675  29.077  24.391  1.00  0.00     0.261 C 
BRANCH   4   5
ATOM      5  O   UNL A   1      30.899  28.760  23.219  1.00  0.00    -0.463 OA
BRANCH   5   6
ATOM      6  C   UNL A   1      29.557  28.755  23.378  1.00  0.00     0.305 C 
ATOM      7  O   UNL A   1      28.902  29.714  23.775  1.00  0.00    -0.252 OA
BRANCH   6   8
ATOM      8  C   UNL A   1      28.886  27.428  23.081  1.00  0.00     0.124 C 
BRANCH   8   9
ATOM      9  C   UNL A   1      29.165  26.164  23.890  1.00  0.00     0.033 C 
BRANCH   9  10
ATOM     10  C   UNL A   1      29.929  26.288  25.210  1.00  0.00     0.117 C 
BRANCH  10  11
ATOM     11  N   UNL A   1      29.434  25.390  26.228  1.00  0.00    -0.351 N 
ATOM     12  C   UNL A   1      29.822  24.130  26.629  1.00  0.00     0.271 C 
ATOM     13  O   UNL A   1      29.083  23.606  27.471  1.00  0.00    -0.267 OA
ATOM     14  H   UNL A   1      28.670  25.749  26.735  1.00  0.00     0.163 HD
BRANCH  12  15
ATOM     15  C   UNL A   1      31.032  23.450  26.111  1.00  0.00     0.151 A 
ATOM     16  N   UNL A   1      32.186  21.798  25.369  1.00  0.00    -0.232 N 
ATOM     17  N   UNL A   1      30.914  22.233  25.531  1.00  0.00    -0.162 NA
ATOM     18  C   UNL A   1      33.091  22.840  25.483  1.00  0.00     0.075 A 
ATOM     19  C   UNL A   1      32.401  23.842  26.130  1.00  0.00     0.065 A 
BRANCH  16  20
ATOM     20  C   UNL A   1      32.492  20.431  25.131  1.00  0.00     0.065 A 
ATOM     21  C   UNL A   1      33.323  17.802  24.727  1.00  0.00     0.082 A 
ATOM     22  C   UNL A   1      33.120  18.262  26.027  1.00  0.00     0.024 A 
ATOM     23  C   UNL A   1      33.064  18.634  23.627  1.00  0.00     0.024 A 
ATOM     24  C   UNL A   1      32.705  19.575  26.225  1.00  0.00     0.030 A 
ATOM     25  C   UNL A   1      32.623  19.949  23.827  1.00  0.00     0.030 A 
BRANCH  21  26
ATOM     26  S   UNL A   1      33.901  16.153  24.439  1.00  0.00     0.238 S 
ATOM     27  O   UNL A   1      32.832  15.235  24.735  1.00  0.00    -0.207 OA
ATOM     28  O   UNL A   1      35.206  16.033  25.056  1.00  0.00    -0.207 OA
BRANCH  26  29
ATOM     29  N   UNL A   1      34.162  16.089  22.792  1.00  0.00    -0.225 NA
ATOM     30  H   UNL A   1      34.355  15.127  22.516  1.00  0.00     0.137 HD
ATOM     31  H   UNL A   1      34.959  16.679  22.551  1.00  0.00     0.137 HD
ENDBRANCH  26  29
ENDBRANCH  21  26
ENDBRANCH  16  20
BRANCH  18  32
ATOM     32  C   UNL A   1      34.453  22.775  24.966  1.00  0.00     0.000 A 
ATOM     33  C   UNL A   1      35.422  22.035  25.664  1.00  0.00     0.010 A 
ATOM     34  C   UNL A   1      34.833  23.545  23.867  1.00  0.00     0.010 A 
ATOM     35  C   UNL A   1      36.758  22.081  25.277  1.00  0.00     0.001 A 
ATOM     36  C   UNL A   1      36.176  23.612  23.506  1.00  0.00     0.001 A 
ATOM     37  C   UNL A   1      37.125  22.875  24.201  1.00  0.00     0.000 A 
ENDBRANCH  18  32
ENDBRANCH  12  15
ENDBRANCH  10  11
ENDBRANCH   9  10
ENDBRANCH   8   9
ENDBRANCH   6   8
ENDBRANCH   5   6
ENDBRANCH   4   5
ENDBRANCH   3   4
ENDBRANCH   2   3
ENDBRANCH   1   2
BRANCH   1  38
ATOM     38  C   UNL A   1      35.165  28.659  26.667  1.00  0.00     0.188 C 
BRANCH  38  39
ATOM     39  O   UNL A   1      35.086  29.309  27.922  1.00  0.00    -0.377 OA
BRANCH  39  40
ATOM     40  C   UNL A   1      35.008  30.731  27.838  1.00  0.00     0.188 C 
BRANCH  40  41
ATOM     41  C   UNL A   1      35.676  31.520  28.983  1.00  0.00     0.188 C 
BRANCH  41  42
ATOM     42  O   UNL A   1      34.781  31.883  30.037  1.00  0.00    -0.376 OA
BRANCH  42  43
ATOM     43  C   UNL A   1      34.762  33.240  30.466  1.00  0.00     0.202 C 
BRANCH  43  44
ATOM     44  C   UNL A   1      35.136  33.438  31.931  1.00  0.00     0.261 C 
BRANCH  44  45
ATOM     45  O   UNL A   1      35.353  32.222  32.633  1.00  0.00    -0.460 OA
BRANCH  45  46
ATOM     46  C   UNL A   1      36.562  32.036  33.203  1.00  0.00     0.338 C 
ATOM     47  O   UNL A   1      36.969  32.508  34.248  1.00  0.00    -0.246 OA
BRANCH  46  48
ATOM     48  C   UNL A   1      37.378  31.259  32.263  1.00  0.00     0.060 A 
ATOM     49  C   UNL A   1      37.169  29.880  32.259  1.00  0.00     0.016 A 
ATOM     50  C   UNL A   1      38.505  31.840  31.668  1.00  0.00     0.016 A 
ATOM     51  C   UNL A   1      38.229  29.069  31.923  1.00  0.00     0.010 A 
ATOM     52  C   UNL A   1      39.553  31.025  31.338  1.00  0.00     0.010 A 
ATOM     53  C   UNL A   1      39.445  29.665  31.583  1.00  0.00    -0.014 A 
BRANCH  53  54
ATOM     54  C   UNL A   1      40.624  28.837  31.519  1.00  0.00     0.031 A 
ATOM     55  C   UNL A   1      41.392  28.771  32.768  1.00  0.00     0.074 A 
ATOM     56  C   UNL A   1      40.975  28.127  30.431  1.00  0.00     0.049 A 
ATOM     57  N   UNL A   1      42.478  29.412  33.032  1.00  0.00    -0.248 NA
ATOM     58  C   UNL A   1      40.829  28.018  33.892  1.00  0.00     0.031 C 
ATOM     59  C   UNL A   1      40.173  27.820  29.245  1.00  0.00     0.029 A 
ATOM     60  N   UNL A   1      42.128  27.435  30.218  1.00  0.00    -0.354 N 
ATOM     61  C   UNL A   1      42.872  28.949  34.276  1.00  0.00     0.074 A 
ATOM     62  C   UNL A   1      41.739  28.256  34.837  1.00  0.00     0.031 C 
ATOM     63  C   UNL A   1      40.795  26.850  28.532  1.00  0.00     0.029 A 
ATOM     64  C   UNL A   1      42.086  26.565  29.137  1.00  0.00     0.049 A 
ATOM     65  H   UNL A   1      42.926  27.544  30.784  1.00  0.00     0.167 HD
ATOM     66  C   UNL A   1      44.180  28.943  34.641  1.00  0.00     0.034 A 
ATOM     67  C   UNL A   1      43.034  25.653  28.807  1.00  0.00     0.034 A 
ATOM     68  C   UNL A   1      44.995  29.741  33.761  1.00  0.00     0.049 A 
ATOM     69  C   UNL A   1      44.297  26.080  29.459  1.00  0.00     0.074 A 
ATOM     70  C   UNL A   1      44.976  31.055  33.336  1.00  0.00     0.029 A 
ATOM     71  N   UNL A   1      45.814  29.071  32.884  1.00  0.00    -0.354 N 
ATOM     72  N   UNL A   1      44.993  27.115  29.083  1.00  0.00    -0.248 NA
ATOM     73  C   UNL A   1      44.617  25.564  30.782  1.00  0.00     0.031 C 
ATOM     74  C   UNL A   1      45.413  31.013  31.980  1.00  0.00     0.029 A 
ATOM     75  C   UNL A   1      45.696  29.682  31.665  1.00  0.00     0.049 A 
ATOM     76  H   UNL A   1      46.381  28.294  33.095  1.00  0.00     0.167 HD
ATOM     77  C   UNL A   1      45.510  27.640  30.259  1.00  0.00     0.074 A 
ATOM     78  C   UNL A   1      45.363  26.572  31.243  1.00  0.00     0.031 C 
ATOM     79  C   UNL A   1      45.737  28.981  30.397  1.00  0.00     0.034 A 
BRANCH  66  80
ATOM     80  C   UNL A   1      44.779  27.942  35.585  1.00  0.00     0.023 A 
ATOM     81  C   UNL A   1      45.538  28.438  36.664  1.00  0.00     0.012 A 
ATOM     82  C   UNL A   1      44.841  26.552  35.333  1.00  0.00     0.148 A 
ATOM     83  C   UNL A   1      46.334  27.594  37.442  1.00  0.00     0.002 A 
ATOM     84  C   UNL A   1      45.555  25.705  36.168  1.00  0.00     0.091 A 
ATOM     85  F   UNL A   1      44.327  26.050  34.203  1.00  0.00    -0.205 F 
ATOM     86  C   UNL A   1      46.328  26.223  37.209  1.00  0.00     0.022 A 
BRANCH  84  87
ATOM     87  S   UNL A   1      45.489  23.925  35.939  1.00  0.00     0.127 S 
ATOM     88  O   UNL A   1      44.051  23.677  35.931  1.00  0.00    -0.237 OA
ATOM     89  O   UNL A   1      46.157  23.755  34.650  1.00  0.00    -0.237 OA
ATOM     90  O   UNL A   1      46.231  23.373  37.068  1.00  0.00    -0.744 OA
ENDBRANCH  84  87
ENDBRANCH  66  80
BRANCH  67  91
ATOM     91  C   UNL A   1      42.936  24.357  28.088  1.00  0.00     0.023 A 
ATOM     92  C   UNL A   1      41.748  23.605  28.145  1.00  0.00     0.012 A 
ATOM     93  C   UNL A   1      43.891  23.984  27.124  1.00  0.00     0.148 A 
ATOM     94  C   UNL A   1      41.504  22.561  27.239  1.00  0.00     0.002 A 
ATOM     95  C   UNL A   1      43.642  22.965  26.210  1.00  0.00     0.091 A 
ATOM     96  F   UNL A   1      45.029  24.673  27.043  1.00  0.00    -0.205 F 
ATOM     97  C   UNL A   1      42.442  22.252  26.258  1.00  0.00     0.022 A 
BRANCH  95  98
ATOM     98  S   UNL A   1      44.832  22.606  24.911  1.00  0.00     0.127 S 
ATOM     99  O   UNL A   1      44.164  21.556  24.139  1.00  0.00    -0.237 OA
ATOM    100  O   UNL A   1      44.940  23.894  24.236  1.00  0.00    -0.237 OA
ATOM    101  O   UNL A   1      46.026  22.153  25.619  1.00  0.00    -0.744 OA
ENDBRANCH  95  98
ENDBRANCH  67  91
BRANCH  79 102
ATOM    102  C   UNL A   1      45.704  29.844  29.156  1.00  0.00     0.023 A 
ATOM    103  C   UNL A   1      44.489  30.276  28.583  1.00  0.00     0.012 A 
ATOM    104  C   UNL A   1      46.910  30.377  28.666  1.00  0.00     0.148 A 
ATOM    105  C   UNL A   1      44.478  31.188  27.526  1.00  0.00     0.002 A 
ATOM    106  C   UNL A   1      46.891  31.325  27.649  1.00  0.00     0.091 A 
ATOM    107  F   UNL A   1      48.061  29.966  29.221  1.00  0.00    -0.205 F 
ATOM    108  C   UNL A   1      45.678  31.724  27.068  1.00  0.00     0.022 A 
BRANCH 106 109
ATOM    109  S   UNL A   1      48.390  32.161  27.118  1.00  0.00     0.127 S 
ATOM    110  O   UNL A   1      47.861  33.251  26.302  1.00  0.00    -0.237 OA
ATOM    111  O   UNL A   1      48.987  32.580  28.387  1.00  0.00    -0.237 OA
ATOM    112  O   UNL A   1      49.168  31.155  26.403  1.00  0.00    -0.744 OA
ENDBRANCH 106 109
ENDBRANCH  79 102
ENDBRANCH  53  54
ENDBRANCH  46  48
ENDBRANCH  45  46
ENDBRANCH  44  45
ENDBRANCH  43  44
ENDBRANCH  42  43
ENDBRANCH  41  42
ENDBRANCH  40  41
ENDBRANCH  39  40
ENDBRANCH  38  39
ENDBRANCH   1  38
TORSDOF 31
ENDMDL
