MODEL 1
REMARK VINA RESULT:      -9.1      0.000      0.000
REMARK SMILES O=C(OCCOCCOCCOCCOC(=O)c1nn(Cc2ccc(F)cc2)c2c1CN(C(=O)[C@H]1CC1(F)F)CC2)c1ccc(-c2c3nc(c(-c4cccc(S(=O)(=O)[O-])c4F)c4ccc([nH]4)c(-c4cccc(S(=O)(=O)[O-])c4F)c4nc(c(-c5cccc(S(=O)(=O)[O-])c5F)c5ccc2[nH]5)C=C4)C=C3)cc1
REMARK SMILES IDX 8 1 7 2 6 3 5 4 4 5 3 6 2 7 1 8 42 9 43 10 104 11 44 12
REMARK SMILES IDX 103 13 45 14 46 15 47 16 97 17 48 18 102 19 96 20 98 21
REMARK SMILES IDX 49 22 101 23 95 24 94 25 50 27 82 28 62 29 81 30 63 31 66 32
REMARK SMILES IDX 80 33 99 34 64 35 65 36 79 38 100 39 67 40 51 41 52 42 60 43
REMARK SMILES IDX 53 44 55 45 61 46 54 47 56 48 57 49 58 50 59 51 83 52 84 53
REMARK SMILES IDX 92 54 85 55 87 56 93 57 86 58 88 59 89 60 90 61 91 62 68 63
REMARK SMILES IDX 69 64 77 65 70 66 72 67 78 68 71 69 73 70 74 71 75 72 76 73
REMARK SMILES IDX 9 74 10 75 11 76 12 77 13 78 14 79 15 80 16 81 17 82 18 83
REMARK SMILES IDX 19 84 30 85 20 86 29 87 31 88 41 89 32 90 40 91 21 92 22 93
REMARK SMILES IDX 23 94 28 95 24 96 27 97 25 98 26 99 33 100 34 101 35 102
REMARK SMILES IDX 36 103 37 104 38 105 39 106
REMARK H PARENT 98 26 66 37
REMARK Flexibility Score: inf
ROOT
ATOM      1  C   UNL A   1      42.067  19.837  26.970  1.00  0.00     0.188 C 
ENDROOT
BRANCH   1   2
ATOM      2  C   UNL A   1      42.506  18.677  26.061  1.00  0.00     0.188 C 
BRANCH   2   3
ATOM      3  O   UNL A   1      43.849  18.298  25.813  1.00  0.00    -0.376 OA
BRANCH   3   4
ATOM      4  C   UNL A   1      44.770  18.662  24.809  1.00  0.00     0.202 C 
BRANCH   4   5
ATOM      5  C   UNL A   1      45.565  19.961  24.703  1.00  0.00     0.261 C 
BRANCH   5   6
ATOM      6  O   UNL A   1      44.953  21.125  25.226  1.00  0.00    -0.460 OA
BRANCH   6   7
ATOM      7  C   UNL A   1      44.781  22.309  24.607  1.00  0.00     0.338 C 
ATOM      8  O   UNL A   1      44.467  22.297  23.418  1.00  0.00    -0.246 OA
BRANCH   7   9
ATOM      9  C   UNL A   1      45.062  23.622  25.244  1.00  0.00     0.060 A 
ATOM     10  C   UNL A   1      44.566  24.862  24.836  1.00  0.00     0.016 A 
ATOM     11  C   UNL A   1      45.956  23.567  26.332  1.00  0.00     0.016 A 
ATOM     12  C   UNL A   1      45.121  26.019  25.329  1.00  0.00     0.010 A 
ATOM     13  C   UNL A   1      46.490  24.724  26.858  1.00  0.00     0.010 A 
ATOM     14  C   UNL A   1      46.148  25.925  26.259  1.00  0.00    -0.014 A 
BRANCH  14  15
ATOM     15  C   UNL A   1      46.900  27.135  26.492  1.00  0.00     0.031 A 
ATOM     16  C   UNL A   1      48.281  27.112  25.959  1.00  0.00     0.074 A 
ATOM     17  C   UNL A   1      46.341  28.137  27.196  1.00  0.00     0.049 A 
ATOM     18  N   UNL A   1      49.387  27.140  26.629  1.00  0.00    -0.248 NA
ATOM     19  C   UNL A   1      48.449  26.851  24.523  1.00  0.00     0.031 C 
ATOM     20  C   UNL A   1      44.930  28.309  27.567  1.00  0.00     0.029 A 
ATOM     21  N   UNL A   1      46.905  29.299  27.607  1.00  0.00    -0.354 N 
ATOM     22  C   UNL A   1      50.398  27.125  25.672  1.00  0.00     0.074 A 
ATOM     23  C   UNL A   1      49.776  26.774  24.421  1.00  0.00     0.031 C 
ATOM     24  C   UNL A   1      44.711  29.609  27.861  1.00  0.00     0.029 A 
ATOM     25  C   UNL A   1      45.982  30.309  27.842  1.00  0.00     0.049 A 
ATOM     26  H   UNL A   1      47.875  29.415  27.727  1.00  0.00     0.167 HD
ATOM     27  C   UNL A   1      51.633  27.631  25.929  1.00  0.00     0.034 A 
ATOM     28  C   UNL A   1      46.256  31.635  27.880  1.00  0.00     0.034 A 
ATOM     29  C   UNL A   1      51.875  27.763  27.339  1.00  0.00     0.049 A 
ATOM     30  C   UNL A   1      47.711  31.770  28.137  1.00  0.00     0.074 A 
ATOM     31  C   UNL A   1      51.962  26.880  28.395  1.00  0.00     0.029 A 
ATOM     32  N   UNL A   1      51.688  29.006  27.894  1.00  0.00    -0.354 N 
ATOM     33  N   UNL A   1      48.279  31.400  29.251  1.00  0.00    -0.248 NA
ATOM     34  C   UNL A   1      48.597  31.882  26.988  1.00  0.00     0.031 C 
ATOM     35  C   UNL A   1      51.351  27.557  29.489  1.00  0.00     0.029 A 
ATOM     36  C   UNL A   1      50.984  28.834  29.057  1.00  0.00     0.049 A 
ATOM     37  H   UNL A   1      52.000  29.863  27.524  1.00  0.00     0.167 HD
ATOM     38  C   UNL A   1      49.469  30.803  28.851  1.00  0.00     0.074 A 
ATOM     39  C   UNL A   1      49.656  31.220  27.461  1.00  0.00     0.031 C 
ATOM     40  C   UNL A   1      50.033  29.793  29.577  1.00  0.00     0.034 A 
BRANCH  27  41
ATOM     41  C   UNL A   1      52.490  28.319  24.902  1.00  0.00     0.023 A 
ATOM     42  C   UNL A   1      52.302  29.702  24.697  1.00  0.00     0.012 A 
ATOM     43  C   UNL A   1      53.281  27.627  23.954  1.00  0.00     0.148 A 
ATOM     44  C   UNL A   1      52.854  30.357  23.591  1.00  0.00     0.002 A 
ATOM     45  C   UNL A   1      53.897  28.298  22.906  1.00  0.00     0.091 A 
ATOM     46  F   UNL A   1      53.334  26.293  23.980  1.00  0.00    -0.205 F 
ATOM     47  C   UNL A   1      53.663  29.659  22.703  1.00  0.00     0.022 A 
BRANCH  45  48
ATOM     48  S   UNL A   1      54.995  27.450  21.764  1.00  0.00     0.127 S 
ATOM     49  O   UNL A   1      55.478  28.556  20.945  1.00  0.00    -0.237 OA
ATOM     50  O   UNL A   1      55.984  26.874  22.677  1.00  0.00    -0.237 OA
ATOM     51  O   UNL A   1      54.165  26.462  21.086  1.00  0.00    -0.744 OA
ENDBRANCH  45  48
ENDBRANCH  27  41
BRANCH  28  52
ATOM     52  C   UNL A   1      45.450  32.748  27.323  1.00  0.00     0.023 A 
ATOM     53  C   UNL A   1      45.184  32.777  25.940  1.00  0.00     0.012 A 
ATOM     54  C   UNL A   1      44.700  33.604  28.164  1.00  0.00     0.148 A 
ATOM     55  C   UNL A   1      44.176  33.597  25.418  1.00  0.00     0.002 A 
ATOM     56  C   UNL A   1      43.703  34.419  27.640  1.00  0.00     0.091 A 
ATOM     57  F   UNL A   1      44.896  33.547  29.488  1.00  0.00    -0.205 F 
ATOM     58  C   UNL A   1      43.429  34.409  26.267  1.00  0.00     0.022 A 
BRANCH  56  59
ATOM     59  S   UNL A   1      42.669  35.457  28.682  1.00  0.00     0.127 S 
ATOM     60  O   UNL A   1      43.592  36.532  29.050  1.00  0.00    -0.237 OA
ATOM     61  O   UNL A   1      41.609  35.849  27.758  1.00  0.00    -0.237 OA
ATOM     62  O   UNL A   1      42.255  34.616  29.799  1.00  0.00    -0.744 OA
ENDBRANCH  56  59
ENDBRANCH  28  52
BRANCH  40  63
ATOM     63  C   UNL A   1      49.448  29.476  30.932  1.00  0.00     0.023 A 
ATOM     64  C   UNL A   1      49.745  30.242  32.081  1.00  0.00     0.012 A 
ATOM     65  C   UNL A   1      48.425  28.516  31.005  1.00  0.00     0.148 A 
ATOM     66  C   UNL A   1      49.049  30.042  33.277  1.00  0.00     0.002 A 
ATOM     67  C   UNL A   1      47.699  28.358  32.180  1.00  0.00     0.091 A 
ATOM     68  F   UNL A   1      48.150  27.799  29.906  1.00  0.00    -0.205 F 
ATOM     69  C   UNL A   1      48.015  29.112  33.322  1.00  0.00     0.022 A 
BRANCH  67  70
ATOM     70  S   UNL A   1      46.265  27.283  32.255  1.00  0.00     0.127 S 
ATOM     71  O   UNL A   1      45.413  27.838  31.205  1.00  0.00    -0.237 OA
ATOM     72  O   UNL A   1      46.840  25.971  31.947  1.00  0.00    -0.237 OA
ATOM     73  O   UNL A   1      45.748  27.400  33.613  1.00  0.00    -0.744 OA
ENDBRANCH  67  70
ENDBRANCH  40  63
ENDBRANCH  14  15
ENDBRANCH   7   9
ENDBRANCH   6   7
ENDBRANCH   5   6
ENDBRANCH   4   5
ENDBRANCH   3   4
ENDBRANCH   2   3
ENDBRANCH   1   2
BRANCH   1  74
ATOM     74  O   UNL A   1      41.293  20.863  26.378  1.00  0.00    -0.377 OA
BRANCH  74  75
ATOM     75  C   UNL A   1      41.947  22.106  26.306  1.00  0.00     0.188 C 
BRANCH  75  76
ATOM     76  C   UNL A   1      42.115  22.814  27.671  1.00  0.00     0.188 C 
BRANCH  76  77
ATOM     77  O   UNL A   1      41.252  23.856  28.098  1.00  0.00    -0.376 OA
BRANCH  77  78
ATOM     78  C   UNL A   1      39.856  23.760  27.902  1.00  0.00     0.202 C 
BRANCH  78  79
ATOM     79  C   UNL A   1      39.286  24.025  26.500  1.00  0.00     0.261 C 
BRANCH  79  80
ATOM     80  O   UNL A   1      37.858  24.106  26.378  1.00  0.00    -0.458 OA
BRANCH  80  81
ATOM     81  C   UNL A   1      37.193  23.002  25.914  1.00  0.00     0.359 C 
ATOM     82  O   UNL A   1      37.716  21.922  25.665  1.00  0.00    -0.244 OA
BRANCH  81  83
ATOM     83  C   UNL A   1      35.744  23.245  25.803  1.00  0.00     0.175 A 
ATOM     84  N   UNL A   1      35.303  24.508  25.650  1.00  0.00    -0.165 NA
ATOM     85  C   UNL A   1      34.637  22.328  25.832  1.00  0.00     0.028 A 
ATOM     86  N   UNL A   1      33.961  24.417  25.616  1.00  0.00    -0.264 N 
ATOM     87  C   UNL A   1      33.519  23.135  25.723  1.00  0.00     0.046 A 
ATOM     88  C   UNL A   1      34.544  20.839  25.990  1.00  0.00     0.159 C 
ATOM     89  C   UNL A   1      32.115  22.652  25.683  1.00  0.00     0.078 C 
ATOM     90  N   UNL A   1      33.166  20.386  25.694  1.00  0.00    -0.337 N 
ATOM     91  C   UNL A   1      32.064  21.213  26.225  1.00  0.00     0.126 C 
BRANCH  86  92
ATOM     92  C   UNL A   1      33.181  25.612  25.326  1.00  0.00     0.180 C 
BRANCH  92  93
ATOM     93  C   UNL A   1      32.734  25.686  23.885  1.00  0.00    -0.026 A 
ATOM     94  C   UNL A   1      31.389  25.458  23.544  1.00  0.00     0.008 A 
ATOM     95  C   UNL A   1      33.644  26.027  22.872  1.00  0.00     0.008 A 
ATOM     96  C   UNL A   1      30.959  25.580  22.223  1.00  0.00     0.039 A 
ATOM     97  C   UNL A   1      33.210  26.155  21.552  1.00  0.00     0.039 A 
ATOM     98  C   UNL A   1      31.872  25.937  21.240  1.00  0.00     0.123 A 
ATOM     99  F   UNL A   1      31.459  26.082  19.975  1.00  0.00    -0.207 F 
ENDBRANCH  92  93
ENDBRANCH  86  92
BRANCH  90 100
ATOM    100  C   UNL A   1      32.994  19.143  25.102  1.00  0.00     0.232 C 
ATOM    101  O   UNL A   1      32.002  18.442  25.286  1.00  0.00    -0.274 OA
BRANCH 100 102
ATOM    102  C   UNL A   1      34.059  18.667  24.195  1.00  0.00     0.154 C 
ATOM    103  C   UNL A   1      35.046  17.615  24.681  1.00  0.00     0.097 C 
ATOM    104  C   UNL A   1      34.026  17.285  23.658  1.00  0.00     0.260 C 
ATOM    105  F   UNL A   1      33.054  16.366  23.970  1.00  0.00    -0.206 F 
ATOM    106  F   UNL A   1      34.448  17.013  22.375  1.00  0.00    -0.206 F 
ENDBRANCH 100 102
ENDBRANCH  90 100
ENDBRANCH  81  83
ENDBRANCH  80  81
ENDBRANCH  79  80
ENDBRANCH  78  79
ENDBRANCH  77  78
ENDBRANCH  76  77
ENDBRANCH  75  76
ENDBRANCH  74  75
ENDBRANCH   1  74
TORSDOF 27
ENDMDL
MODEL 2
REMARK VINA RESULT:      -9.0      6.141     14.031
REMARK SMILES O=C(OCCOCCOCCOCCOC(=O)c1nn(Cc2ccc(F)cc2)c2c1CN(C(=O)[C@H]1CC1(F)F)CC2)c1ccc(-c2c3nc(c(-c4cccc(S(=O)(=O)[O-])c4F)c4ccc([nH]4)c(-c4cccc(S(=O)(=O)[O-])c4F)c4nc(c(-c5cccc(S(=O)(=O)[O-])c5F)c5ccc2[nH]5)C=C4)C=C3)cc1
REMARK SMILES IDX 8 1 7 2 6 3 5 4 4 5 3 6 2 7 1 8 42 9 43 10 104 11 44 12
REMARK SMILES IDX 103 13 45 14 46 15 47 16 97 17 48 18 102 19 96 20 98 21
REMARK SMILES IDX 49 22 101 23 95 24 94 25 50 27 82 28 62 29 81 30 63 31 66 32
REMARK SMILES IDX 80 33 99 34 64 35 65 36 79 38 100 39 67 40 51 41 52 42 60 43
REMARK SMILES IDX 53 44 55 45 61 46 54 47 56 48 57 49 58 50 59 51 83 52 84 53
REMARK SMILES IDX 92 54 85 55 87 56 93 57 86 58 88 59 89 60 90 61 91 62 68 63
REMARK SMILES IDX 69 64 77 65 70 66 72 67 78 68 71 69 73 70 74 71 75 72 76 73
REMARK SMILES IDX 9 74 10 75 11 76 12 77 13 78 14 79 15 80 16 81 17 82 18 83
REMARK SMILES IDX 19 84 30 85 20 86 29 87 31 88 41 89 32 90 40 91 21 92 22 93
REMARK SMILES IDX 23 94 28 95 24 96 27 97 25 98 26 99 33 100 34 101 35 102
REMARK SMILES IDX 36 103 37 104 38 105 39 106
REMARK H PARENT 98 26 66 37
REMARK Flexibility Score: inf
ROOT
ATOM      1  C   UNL A   1      35.573  33.883  32.548  1.00  0.00     0.188 C 
ENDROOT
BRANCH   1   2
ATOM      2  C   UNL A   1      34.579  33.011  31.762  1.00  0.00     0.188 C 
BRANCH   2   3
ATOM      3  O   UNL A   1      34.092  33.297  30.462  1.00  0.00    -0.376 OA
BRANCH   3   4
ATOM      4  C   UNL A   1      34.306  34.380  29.583  1.00  0.00     0.202 C 
BRANCH   4   5
ATOM      5  C   UNL A   1      35.203  34.411  28.348  1.00  0.00     0.261 C 
BRANCH   5   6
ATOM      6  O   UNL A   1      36.388  33.640  28.404  1.00  0.00    -0.460 OA
BRANCH   6   7
ATOM      7  C   UNL A   1      36.500  32.300  28.306  1.00  0.00     0.338 C 
ATOM      8  O   UNL A   1      35.622  31.693  27.695  1.00  0.00    -0.246 OA
BRANCH   7   9
ATOM      9  C   UNL A   1      37.554  31.508  28.990  1.00  0.00     0.060 A 
ATOM     10  C   UNL A   1      38.726  32.009  29.561  1.00  0.00     0.016 A 
ATOM     11  C   UNL A   1      37.331  30.117  28.998  1.00  0.00     0.016 A 
ATOM     12  C   UNL A   1      39.743  31.152  29.907  1.00  0.00     0.010 A 
ATOM     13  C   UNL A   1      38.332  29.249  29.379  1.00  0.00     0.010 A 
ATOM     14  C   UNL A   1      39.563  29.789  29.712  1.00  0.00    -0.014 A 
BRANCH  14  15
ATOM     15  C   UNL A   1      40.757  28.979  29.783  1.00  0.00     0.031 A 
ATOM     16  C   UNL A   1      41.206  28.665  31.158  1.00  0.00     0.074 A 
ATOM     17  C   UNL A   1      41.386  28.628  28.646  1.00  0.00     0.049 A 
ATOM     18  N   UNL A   1      42.291  29.054  31.743  1.00  0.00    -0.248 NA
ATOM     19  C   UNL A   1      40.252  27.983  32.043  1.00  0.00     0.031 C 
ATOM     20  C   UNL A   1      40.890  28.725  27.266  1.00  0.00     0.029 A 
ATOM     21  N   UNL A   1      42.560  27.966  28.499  1.00  0.00    -0.354 N 
ATOM     22  C   UNL A   1      42.257  28.472  33.007  1.00  0.00     0.074 A 
ATOM     23  C   UNL A   1      40.918  27.978  33.197  1.00  0.00     0.031 C 
ATOM     24  C   UNL A   1      41.604  27.884  26.486  1.00  0.00     0.029 A 
ATOM     25  C   UNL A   1      42.681  27.319  27.276  1.00  0.00     0.049 A 
ATOM     26  H   UNL A   1      43.259  27.947  29.192  1.00  0.00     0.167 HD
ATOM     27  C   UNL A   1      43.394  28.230  33.713  1.00  0.00     0.034 A 
ATOM     28  C   UNL A   1      43.530  26.299  27.004  1.00  0.00     0.034 A 
ATOM     29  C   UNL A   1      44.505  28.996  33.220  1.00  0.00     0.049 A 
ATOM     30  C   UNL A   1      44.607  26.348  28.023  1.00  0.00     0.074 A 
ATOM     31  C   UNL A   1      44.789  30.343  33.128  1.00  0.00     0.029 A 
ATOM     32  N   UNL A   1      45.375  28.362  32.367  1.00  0.00    -0.354 N 
ATOM     33  N   UNL A   1      45.466  27.326  28.111  1.00  0.00    -0.248 NA
ATOM     34  C   UNL A   1      44.441  25.548  29.227  1.00  0.00     0.031 C 
ATOM     35  C   UNL A   1      45.475  30.488  31.889  1.00  0.00     0.029 A 
ATOM     36  C   UNL A   1      45.626  29.217  31.326  1.00  0.00     0.049 A 
ATOM     37  H   UNL A   1      45.749  27.459  32.481  1.00  0.00     0.167 HD
ATOM     38  C   UNL A   1      45.602  27.545  29.477  1.00  0.00     0.074 A 
ATOM     39  C   UNL A   1      45.028  26.359  30.112  1.00  0.00     0.031 C 
ATOM     40  C   UNL A   1      45.888  28.786  29.970  1.00  0.00     0.034 A 
BRANCH  27  41
ATOM     41  C   UNL A   1      43.578  27.052  34.631  1.00  0.00     0.023 A 
ATOM     42  C   UNL A   1      43.806  27.307  35.999  1.00  0.00     0.012 A 
ATOM     43  C   UNL A   1      43.794  25.731  34.174  1.00  0.00     0.148 A 
ATOM     44  C   UNL A   1      44.251  26.299  36.863  1.00  0.00     0.002 A 
ATOM     45  C   UNL A   1      44.153  24.717  35.052  1.00  0.00     0.091 A 
ATOM     46  F   UNL A   1      43.787  25.471  32.863  1.00  0.00    -0.205 F 
ATOM     47  C   UNL A   1      44.411  25.002  36.393  1.00  0.00     0.022 A 
BRANCH  45  48
ATOM     48  S   UNL A   1      44.319  23.014  34.502  1.00  0.00     0.127 S 
ATOM     49  O   UNL A   1      45.435  23.115  33.567  1.00  0.00    -0.237 OA
ATOM     50  O   UNL A   1      44.621  22.326  35.758  1.00  0.00    -0.237 OA
ATOM     51  O   UNL A   1      43.028  22.663  33.927  1.00  0.00    -0.744 OA
ENDBRANCH  45  48
ENDBRANCH  27  41
BRANCH  28  52
ATOM     52  C   UNL A   1      43.263  25.082  26.201  1.00  0.00     0.023 A 
ATOM     53  C   UNL A   1      44.158  24.728  25.174  1.00  0.00     0.012 A 
ATOM     54  C   UNL A   1      42.317  24.117  26.623  1.00  0.00     0.148 A 
ATOM     55  C   UNL A   1      44.142  23.443  24.615  1.00  0.00     0.002 A 
ATOM     56  C   UNL A   1      42.303  22.845  26.063  1.00  0.00     0.091 A 
ATOM     57  F   UNL A   1      41.497  24.413  27.639  1.00  0.00    -0.205 F 
ATOM     58  C   UNL A   1      43.223  22.500  25.066  1.00  0.00     0.022 A 
BRANCH  56  59
ATOM     59  S   UNL A   1      41.176  21.562  26.627  1.00  0.00     0.127 S 
ATOM     60  O   UNL A   1      41.550  21.430  28.036  1.00  0.00    -0.237 OA
ATOM     61  O   UNL A   1      39.875  22.181  26.394  1.00  0.00    -0.237 OA
ATOM     62  O   UNL A   1      41.471  20.386  25.818  1.00  0.00    -0.744 OA
ENDBRANCH  56  59
ENDBRANCH  28  52
BRANCH  40  63
ATOM     63  C   UNL A   1      46.257  29.874  28.990  1.00  0.00     0.023 A 
ATOM     64  C   UNL A   1      47.577  30.050  28.520  1.00  0.00     0.012 A 
ATOM     65  C   UNL A   1      45.220  30.600  28.381  1.00  0.00     0.148 A 
ATOM     66  C   UNL A   1      47.856  30.940  27.477  1.00  0.00     0.002 A 
ATOM     67  C   UNL A   1      45.494  31.443  27.310  1.00  0.00     0.091 A 
ATOM     68  F   UNL A   1      43.971  30.420  28.835  1.00  0.00    -0.205 F 
ATOM     69  C   UNL A   1      46.812  31.624  26.862  1.00  0.00     0.022 A 
BRANCH  67  70
ATOM     70  S   UNL A   1      44.177  32.235  26.385  1.00  0.00     0.127 S 
ATOM     71  O   UNL A   1      44.881  32.709  25.195  1.00  0.00    -0.237 OA
ATOM     72  O   UNL A   1      43.250  31.126  26.147  1.00  0.00    -0.237 OA
ATOM     73  O   UNL A   1      43.645  33.275  27.257  1.00  0.00    -0.744 OA
ENDBRANCH  67  70
ENDBRANCH  40  63
ENDBRANCH  14  15
ENDBRANCH   7   9
ENDBRANCH   6   7
ENDBRANCH   5   6
ENDBRANCH   4   5
ENDBRANCH   3   4
ENDBRANCH   2   3
ENDBRANCH   1   2
BRANCH   1  74
ATOM     74  O   UNL A   1      36.870  33.356  32.753  1.00  0.00    -0.377 OA
BRANCH  74  75
ATOM     75  C   UNL A   1      36.884  32.089  33.364  1.00  0.00     0.188 C 
BRANCH  75  76
ATOM     76  C   UNL A   1      38.295  31.477  33.522  1.00  0.00     0.188 C 
BRANCH  76  77
ATOM     77  O   UNL A   1      39.468  32.273  33.575  1.00  0.00    -0.376 OA
BRANCH  77  78
ATOM     78  C   UNL A   1      40.747  31.673  33.541  1.00  0.00     0.202 C 
BRANCH  78  79
ATOM     79  C   UNL A   1      41.874  32.285  34.386  1.00  0.00     0.261 C 
BRANCH  79  80
ATOM     80  O   UNL A   1      42.505  33.470  33.875  1.00  0.00    -0.458 OA
BRANCH  80  81
ATOM     81  C   UNL A   1      43.434  34.090  34.669  1.00  0.00     0.359 C 
ATOM     82  O   UNL A   1      43.357  34.196  35.888  1.00  0.00    -0.244 OA
BRANCH  81  83
ATOM     83  C   UNL A   1      44.586  34.571  33.886  1.00  0.00     0.175 A 
ATOM     84  N   UNL A   1      45.831  34.265  34.299  1.00  0.00    -0.165 NA
ATOM     85  C   UNL A   1      44.637  35.361  32.687  1.00  0.00     0.028 A 
ATOM     86  N   UNL A   1      46.656  34.861  33.420  1.00  0.00    -0.264 N 
ATOM     87  C   UNL A   1      45.988  35.529  32.441  1.00  0.00     0.046 A 
ATOM     88  C   UNL A   1      43.579  35.977  31.820  1.00  0.00     0.159 C 
ATOM     89  C   UNL A   1      46.565  36.264  31.287  1.00  0.00     0.078 C 
ATOM     90  N   UNL A   1      44.183  36.476  30.564  1.00  0.00    -0.337 N 
ATOM     91  C   UNL A   1      45.481  37.172  30.679  1.00  0.00     0.126 C 
BRANCH  86  92
ATOM     92  C   UNL A   1      48.087  34.610  33.517  1.00  0.00     0.180 C 
BRANCH  92  93
ATOM     93  C   UNL A   1      48.490  33.273  32.942  1.00  0.00    -0.026 A 
ATOM     94  C   UNL A   1      48.751  32.182  33.789  1.00  0.00     0.008 A 
ATOM     95  C   UNL A   1      48.567  33.089  31.552  1.00  0.00     0.008 A 
ATOM     96  C   UNL A   1      49.067  30.931  33.262  1.00  0.00     0.039 A 
ATOM     97  C   UNL A   1      48.878  31.833  31.027  1.00  0.00     0.039 A 
ATOM     98  C   UNL A   1      49.119  30.766  31.885  1.00  0.00     0.123 A 
ATOM     99  F   UNL A   1      49.397  29.560  31.374  1.00  0.00    -0.207 F 
ENDBRANCH  92  93
ENDBRANCH  86  92
BRANCH  90 100
ATOM    100  C   UNL A   1      43.427  36.420  29.402  1.00  0.00     0.232 C 
ATOM    101  O   UNL A   1      42.409  35.739  29.295  1.00  0.00    -0.274 OA
BRANCH 100 102
ATOM    102  C   UNL A   1      43.874  37.239  28.257  1.00  0.00     0.154 C 
ATOM    103  C   UNL A   1      43.745  36.689  26.843  1.00  0.00     0.097 C 
ATOM    104  C   UNL A   1      42.886  37.805  27.306  1.00  0.00     0.260 C 
ATOM    105  F   UNL A   1      41.531  37.598  27.397  1.00  0.00    -0.206 F 
ATOM    106  F   UNL A   1      43.072  39.050  26.748  1.00  0.00    -0.206 F 
ENDBRANCH 100 102
ENDBRANCH  90 100
ENDBRANCH  81  83
ENDBRANCH  80  81
ENDBRANCH  79  80
ENDBRANCH  78  79
ENDBRANCH  77  78
ENDBRANCH  76  77
ENDBRANCH  75  76
ENDBRANCH  74  75
ENDBRANCH   1  74
TORSDOF 27
ENDMDL
MODEL 3
REMARK VINA RESULT:      -9.0      8.141     14.874
REMARK SMILES O=C(OCCOCCOCCOCCOC(=O)c1nn(Cc2ccc(F)cc2)c2c1CN(C(=O)[C@H]1CC1(F)F)CC2)c1ccc(-c2c3nc(c(-c4cccc(S(=O)(=O)[O-])c4F)c4ccc([nH]4)c(-c4cccc(S(=O)(=O)[O-])c4F)c4nc(c(-c5cccc(S(=O)(=O)[O-])c5F)c5ccc2[nH]5)C=C4)C=C3)cc1
REMARK SMILES IDX 8 1 7 2 6 3 5 4 4 5 3 6 2 7 1 8 42 9 43 10 104 11 44 12
REMARK SMILES IDX 103 13 45 14 46 15 47 16 97 17 48 18 102 19 96 20 98 21
REMARK SMILES IDX 49 22 101 23 95 24 94 25 50 27 82 28 62 29 81 30 63 31 66 32
REMARK SMILES IDX 80 33 99 34 64 35 65 36 79 38 100 39 67 40 51 41 52 42 60 43
REMARK SMILES IDX 53 44 55 45 61 46 54 47 56 48 57 49 58 50 59 51 83 52 84 53
REMARK SMILES IDX 92 54 85 55 87 56 93 57 86 58 88 59 89 60 90 61 91 62 68 63
REMARK SMILES IDX 69 64 77 65 70 66 72 67 78 68 71 69 73 70 74 71 75 72 76 73
REMARK SMILES IDX 9 74 10 75 11 76 12 77 13 78 14 79 15 80 16 81 17 82 18 83
REMARK SMILES IDX 19 84 30 85 20 86 29 87 31 88 41 89 32 90 40 91 21 92 22 93
REMARK SMILES IDX 23 94 28 95 24 96 27 97 25 98 26 99 33 100 34 101 35 102
REMARK SMILES IDX 36 103 37 104 38 105 39 106
REMARK H PARENT 98 26 66 37
REMARK Flexibility Score: inf
ROOT
ATOM      1  C   UNL A   1      37.121  34.500  32.058  1.00  0.00     0.188 C 
ENDROOT
BRANCH   1   2
ATOM      2  C   UNL A   1      35.789  33.785  32.342  1.00  0.00     0.188 C 
BRANCH   2   3
ATOM      3  O   UNL A   1      34.781  33.526  31.381  1.00  0.00    -0.376 OA
BRANCH   3   4
ATOM      4  C   UNL A   1      34.314  34.259  30.270  1.00  0.00     0.202 C 
BRANCH   4   5
ATOM      5  C   UNL A   1      33.899  33.715  28.905  1.00  0.00     0.261 C 
BRANCH   5   6
ATOM      6  O   UNL A   1      34.921  33.143  28.112  1.00  0.00    -0.460 OA
BRANCH   6   7
ATOM      7  C   UNL A   1      35.254  31.841  28.017  1.00  0.00     0.338 C 
ATOM      8  O   UNL A   1      34.489  31.093  27.411  1.00  0.00    -0.246 OA
BRANCH   7   9
ATOM      9  C   UNL A   1      36.428  31.238  28.700  1.00  0.00     0.060 A 
ATOM     10  C   UNL A   1      37.544  31.923  29.187  1.00  0.00     0.016 A 
ATOM     11  C   UNL A   1      36.390  29.833  28.802  1.00  0.00     0.016 A 
ATOM     12  C   UNL A   1      38.677  31.228  29.538  1.00  0.00     0.010 A 
ATOM     13  C   UNL A   1      37.511  29.129  29.190  1.00  0.00     0.010 A 
ATOM     14  C   UNL A   1      38.671  29.844  29.434  1.00  0.00    -0.014 A 
BRANCH  14  15
ATOM     15  C   UNL A   1      39.963  29.201  29.500  1.00  0.00     0.031 A 
ATOM     16  C   UNL A   1      40.521  29.082  30.866  1.00  0.00     0.074 A 
ATOM     17  C   UNL A   1      40.572  28.822  28.361  1.00  0.00     0.049 A 
ATOM     18  N   UNL A   1      41.575  29.659  31.342  1.00  0.00    -0.248 NA
ATOM     19  C   UNL A   1      39.712  28.375  31.869  1.00  0.00     0.031 C 
ATOM     20  C   UNL A   1      39.996  28.721  27.013  1.00  0.00     0.029 A 
ATOM     21  N   UNL A   1      41.813  28.302  28.199  1.00  0.00    -0.354 N 
ATOM     22  C   UNL A   1      41.684  29.204  32.653  1.00  0.00     0.074 A 
ATOM     23  C   UNL A   1      40.433  28.566  32.973  1.00  0.00     0.031 C 
ATOM     24  C   UNL A   1      40.772  27.905  26.267  1.00  0.00     0.029 A 
ATOM     25  C   UNL A   1      41.953  27.559  27.034  1.00  0.00     0.049 A 
ATOM     26  H   UNL A   1      42.544  28.438  28.844  1.00  0.00     0.167 HD
ATOM     27  C   UNL A   1      42.878  29.176  33.303  1.00  0.00     0.034 A 
ATOM     28  C   UNL A   1      42.913  26.632  26.801  1.00  0.00     0.034 A 
ATOM     29  C   UNL A   1      43.851  30.024  32.672  1.00  0.00     0.049 A 
ATOM     30  C   UNL A   1      44.027  26.915  27.739  1.00  0.00     0.074 A 
ATOM     31  C   UNL A   1      43.951  31.381  32.441  1.00  0.00     0.029 A 
ATOM     32  N   UNL A   1      44.751  29.424  31.825  1.00  0.00    -0.354 N 
ATOM     33  N   UNL A   1      44.754  27.997  27.683  1.00  0.00    -0.248 NA
ATOM     34  C   UNL A   1      44.030  26.222  29.019  1.00  0.00     0.031 C 
ATOM     35  C   UNL A   1      44.546  31.489  31.152  1.00  0.00     0.029 A 
ATOM     36  C   UNL A   1      44.833  30.198  30.698  1.00  0.00     0.049 A 
ATOM     37  H   UNL A   1      45.246  28.590  31.996  1.00  0.00     0.167 HD
ATOM     38  C   UNL A   1      44.931  28.364  29.012  1.00  0.00     0.074 A 
ATOM     39  C   UNL A   1      44.552  27.183  29.787  1.00  0.00     0.031 C 
ATOM     40  C   UNL A   1      45.077  29.673  29.371  1.00  0.00     0.034 A 
BRANCH  27  41
ATOM     41  C   UNL A   1      43.263  28.127  34.309  1.00  0.00     0.023 A 
ATOM     42  C   UNL A   1      43.643  28.551  35.600  1.00  0.00     0.012 A 
ATOM     43  C   UNL A   1      43.516  26.776  33.972  1.00  0.00     0.148 A 
ATOM     44  C   UNL A   1      44.266  27.679  36.500  1.00  0.00     0.002 A 
ATOM     45  C   UNL A   1      44.057  25.894  34.898  1.00  0.00     0.091 A 
ATOM     46  F   UNL A   1      43.363  26.366  32.710  1.00  0.00    -0.205 F 
ATOM     47  C   UNL A   1      44.461  26.348  36.155  1.00  0.00     0.022 A 
BRANCH  45  48
ATOM     48  S   UNL A   1      44.278  24.152  34.518  1.00  0.00     0.127 S 
ATOM     49  O   UNL A   1      45.447  23.821  35.326  1.00  0.00    -0.237 OA
ATOM     50  O   UNL A   1      43.015  23.583  34.991  1.00  0.00    -0.237 OA
ATOM     51  O   UNL A   1      44.455  24.087  33.073  1.00  0.00    -0.744 OA
ENDBRANCH  45  48
ENDBRANCH  27  41
BRANCH  28  52
ATOM     52  C   UNL A   1      42.766  25.318  26.130  1.00  0.00     0.023 A 
ATOM     53  C   UNL A   1      43.673  24.963  25.112  1.00  0.00     0.012 A 
ATOM     54  C   UNL A   1      41.944  24.304  26.675  1.00  0.00     0.148 A 
ATOM     55  C   UNL A   1      43.788  23.634  24.682  1.00  0.00     0.002 A 
ATOM     56  C   UNL A   1      42.060  22.988  26.242  1.00  0.00     0.091 A 
ATOM     57  F   UNL A   1      41.119  24.609  27.684  1.00  0.00    -0.205 F 
ATOM     58  C   UNL A   1      42.991  22.647  25.253  1.00  0.00     0.022 A 
BRANCH  56  59
ATOM     59  S   UNL A   1      41.097  21.653  26.966  1.00  0.00     0.127 S 
ATOM     60  O   UNL A   1      40.866  22.149  28.324  1.00  0.00    -0.237 OA
ATOM     61  O   UNL A   1      39.915  21.636  26.110  1.00  0.00    -0.237 OA
ATOM     62  O   UNL A   1      41.943  20.467  26.899  1.00  0.00    -0.744 OA
ENDBRANCH  56  59
ENDBRANCH  28  52
BRANCH  40  63
ATOM     63  C   UNL A   1      45.249  30.698  28.276  1.00  0.00     0.023 A 
ATOM     64  C   UNL A   1      44.153  31.374  27.696  1.00  0.00     0.012 A 
ATOM     65  C   UNL A   1      46.549  31.133  27.971  1.00  0.00     0.148 A 
ATOM     66  C   UNL A   1      44.351  32.447  26.821  1.00  0.00     0.002 A 
ATOM     67  C   UNL A   1      46.741  32.232  27.143  1.00  0.00     0.091 A 
ATOM     68  F   UNL A   1      47.581  30.485  28.532  1.00  0.00    -0.205 F 
ATOM     69  C   UNL A   1      45.645  32.886  26.557  1.00  0.00     0.022 A 
BRANCH  67  70
ATOM     70  S   UNL A   1      48.372  32.934  26.884  1.00  0.00     0.127 S 
ATOM     71  O   UNL A   1      48.703  33.437  28.216  1.00  0.00    -0.237 OA
ATOM     72  O   UNL A   1      49.151  31.768  26.459  1.00  0.00    -0.237 OA
ATOM     73  O   UNL A   1      48.211  33.948  25.850  1.00  0.00    -0.744 OA
ENDBRANCH  67  70
ENDBRANCH  40  63
ENDBRANCH  14  15
ENDBRANCH   7   9
ENDBRANCH   6   7
ENDBRANCH   5   6
ENDBRANCH   4   5
ENDBRANCH   3   4
ENDBRANCH   2   3
ENDBRANCH   1   2
BRANCH   1  74
ATOM     74  O   UNL A   1      38.293  33.708  32.067  1.00  0.00    -0.377 OA
BRANCH  74  75
ATOM     75  C   UNL A   1      38.617  33.179  33.330  1.00  0.00     0.188 C 
BRANCH  75  76
ATOM     76  C   UNL A   1      40.043  32.586  33.422  1.00  0.00     0.188 C 
BRANCH  76  77
ATOM     77  O   UNL A   1      41.063  33.178  34.209  1.00  0.00    -0.376 OA
BRANCH  77  78
ATOM     78  C   UNL A   1      40.746  33.855  35.407  1.00  0.00     0.202 C 
BRANCH  78  79
ATOM     79  C   UNL A   1      41.889  34.452  36.244  1.00  0.00     0.261 C 
BRANCH  79  80
ATOM     80  O   UNL A   1      41.790  35.842  36.590  1.00  0.00    -0.458 OA
BRANCH  80  81
ATOM     81  C   UNL A   1      40.540  36.400  36.640  1.00  0.00     0.359 C 
ATOM     82  O   UNL A   1      39.886  36.743  35.662  1.00  0.00    -0.244 OA
BRANCH  81  83
ATOM     83  C   UNL A   1      40.036  36.486  38.022  1.00  0.00     0.175 A 
ATOM     84  N   UNL A   1      40.218  37.627  38.714  1.00  0.00    -0.165 NA
ATOM     85  C   UNL A   1      39.345  35.517  38.827  1.00  0.00     0.028 A 
ATOM     86  N   UNL A   1      39.694  37.395  39.931  1.00  0.00    -0.264 N 
ATOM     87  C   UNL A   1      39.164  36.147  40.045  1.00  0.00     0.046 A 
ATOM     88  C   UNL A   1      38.902  34.105  38.577  1.00  0.00     0.159 C 
ATOM     89  C   UNL A   1      38.470  35.559  41.220  1.00  0.00     0.078 C 
ATOM     90  N   UNL A   1      38.008  33.657  39.669  1.00  0.00    -0.337 N 
ATOM     91  C   UNL A   1      38.393  34.033  41.044  1.00  0.00     0.126 C 
BRANCH  86  92
ATOM     92  C   UNL A   1      39.615  38.492  40.885  1.00  0.00     0.180 C 
BRANCH  92  93
ATOM     93  C   UNL A   1      40.524  39.645  40.530  1.00  0.00    -0.026 A 
ATOM     94  C   UNL A   1      41.903  39.436  40.351  1.00  0.00     0.008 A 
ATOM     95  C   UNL A   1      39.999  40.932  40.333  1.00  0.00     0.008 A 
ATOM     96  C   UNL A   1      42.738  40.486  39.968  1.00  0.00     0.039 A 
ATOM     97  C   UNL A   1      40.837  41.979  39.943  1.00  0.00     0.039 A 
ATOM     98  C   UNL A   1      42.195  41.746  39.759  1.00  0.00     0.123 A 
ATOM     99  F   UNL A   1      42.988  42.751  39.366  1.00  0.00    -0.207 F 
ENDBRANCH  92  93
ENDBRANCH  86  92
BRANCH  90 100
ATOM    100  C   UNL A   1      36.980  32.778  39.358  1.00  0.00     0.232 C 
ATOM    101  O   UNL A   1      36.779  32.353  38.222  1.00  0.00    -0.274 OA
BRANCH 100 102
ATOM    102  C   UNL A   1      36.108  32.329  40.462  1.00  0.00     0.154 C 
ATOM    103  C   UNL A   1      35.462  30.952  40.399  1.00  0.00     0.097 C 
ATOM    104  C   UNL A   1      36.544  31.240  41.370  1.00  0.00     0.260 C 
ATOM    105  F   UNL A   1      37.738  30.572  41.244  1.00  0.00    -0.206 F 
ATOM    106  F   UNL A   1      36.231  31.268  42.711  1.00  0.00    -0.206 F 
ENDBRANCH 100 102
ENDBRANCH  90 100
ENDBRANCH  81  83
ENDBRANCH  80  81
ENDBRANCH  79  80
ENDBRANCH  78  79
ENDBRANCH  77  78
ENDBRANCH  76  77
ENDBRANCH  75  76
ENDBRANCH  74  75
ENDBRANCH   1  74
TORSDOF 27
ENDMDL
