MODEL 1
REMARK VINA RESULT:     -10.9      0.000      0.000
REMARK SMILES O=C(OCCOCCOCCOCCOC(=O)c1ccc(-c2c3nc(c(-c4cccc(S(=O)(=O)[O-])c4F)c4ccc([nH]4)c(-c4cccc(S(=O)(=O)[O-])c4F)c4nc(c(-c5cccc(S(=O)(=O)[O-])c5F)c5ccc2[nH]5)C=C4)C=C3)cc1)C1=Cc2c(Cl)cc(Cl)cc2O[C@@H]1C(F)(F)F
REMARK SMILES IDX 10 1 9 2 8 3 7 4 6 5 5 6 4 7 3 8 2 9 1 10 81 11 82 12 92 13
REMARK SMILES IDX 83 14 91 15 84 16 90 17 85 18 86 19 89 20 87 21 88 22 93 23
REMARK SMILES IDX 94 24 95 25 96 26 11 27 12 28 13 29 14 30 15 31 16 32 17 33
REMARK SMILES IDX 18 34 19 35 80 36 20 37 79 38 21 39 22 40 23 41 73 42 24 43
REMARK SMILES IDX 78 44 72 45 74 46 25 47 77 48 71 49 70 50 26 52 58 53 38 54
REMARK SMILES IDX 57 55 39 56 42 57 56 58 75 59 40 60 41 61 55 63 76 64 43 65
REMARK SMILES IDX 27 66 28 67 36 68 29 69 31 70 37 71 30 72 32 73 33 74 34 75
REMARK SMILES IDX 35 76 59 77 60 78 68 79 61 80 63 81 69 82 62 83 64 84 65 85
REMARK SMILES IDX 66 86 67 87 44 88 45 89 53 90 46 91 48 92 54 93 47 94 49 95
REMARK SMILES IDX 50 96 51 97 52 98
REMARK H PARENT 74 51 42 62
REMARK Flexibility Score: inf
ROOT
ATOM      1  C   UNL A   1      33.098  20.178  24.290  1.00  0.00     0.188 C 
ENDROOT
BRANCH   1   2
ATOM      2  O   UNL A   1      32.425  20.795  25.381  1.00  0.00    -0.377 OA
BRANCH   2   3
ATOM      3  C   UNL A   1      32.679  22.184  25.538  1.00  0.00     0.188 C 
BRANCH   3   4
ATOM      4  C   UNL A   1      32.852  22.576  26.997  1.00  0.00     0.188 C 
BRANCH   4   5
ATOM      5  O   UNL A   1      31.686  23.129  27.585  1.00  0.00    -0.376 OA
BRANCH   5   6
ATOM      6  C   UNL A   1      30.467  23.117  26.854  1.00  0.00     0.202 C 
BRANCH   6   7
ATOM      7  C   UNL A   1      29.895  24.480  26.474  1.00  0.00     0.261 C 
BRANCH   7   8
ATOM      8  O   UNL A   1      30.751  25.193  25.561  1.00  0.00    -0.460 OA
BRANCH   8   9
ATOM      9  C   UNL A   1      30.192  26.178  24.823  1.00  0.00     0.338 C 
ATOM     10  O   UNL A   1      28.982  26.320  24.718  1.00  0.00    -0.246 OA
BRANCH   9  11
ATOM     11  C   UNL A   1      31.164  26.935  23.988  1.00  0.00     0.087 C 
ATOM     12  C   UNL A   1      31.146  28.260  24.217  1.00  0.00     0.029 C 
ATOM     13  C   UNL A   1      32.442  26.239  23.603  1.00  0.00     0.316 C 
ATOM     14  C   UNL A   1      32.324  28.723  24.981  1.00  0.00     0.036 A 
ATOM     15  O   UNL A   1      33.631  26.820  24.199  1.00  0.00    -0.475 OA
ATOM     16  C   UNL A   1      32.285  29.879  25.776  1.00  0.00     0.053 A 
ATOM     17  C   UNL A   1      33.459  27.904  25.026  1.00  0.00     0.130 A 
ATOM     18  Cl  UNL A   1      31.003  31.031  25.636  1.00  0.00    -0.083 Cl
ATOM     19  C   UNL A   1      33.281  30.119  26.721  1.00  0.00     0.042 A 
ATOM     20  C   UNL A   1      34.462  28.145  25.964  1.00  0.00     0.067 A 
ATOM     21  C   UNL A   1      34.337  29.218  26.845  1.00  0.00     0.046 A 
ATOM     22  Cl  UNL A   1      35.473  29.412  28.122  1.00  0.00    -0.084 Cl
BRANCH  13  23
ATOM     23  C   UNL A   1      32.568  26.054  22.089  1.00  0.00     0.430 C 
ATOM     24  F   UNL A   1      31.528  26.625  21.433  1.00  0.00    -0.167 F 
ATOM     25  F   UNL A   1      33.692  26.650  21.615  1.00  0.00    -0.167 F 
ATOM     26  F   UNL A   1      32.621  24.754  21.728  1.00  0.00    -0.167 F 
ENDBRANCH  13  23
ENDBRANCH   9  11
ENDBRANCH   8   9
ENDBRANCH   7   8
ENDBRANCH   6   7
ENDBRANCH   5   6
ENDBRANCH   4   5
ENDBRANCH   3   4
ENDBRANCH   2   3
ENDBRANCH   1   2
BRANCH   1  27
ATOM     27  C   UNL A   1      33.932  18.912  24.612  1.00  0.00     0.188 C 
BRANCH  27  28
ATOM     28  O   UNL A   1      35.355  18.895  24.646  1.00  0.00    -0.376 OA
BRANCH  28  29
ATOM     29  C   UNL A   1      36.062  20.072  24.982  1.00  0.00     0.202 C 
BRANCH  29  30
ATOM     30  C   UNL A   1      37.597  19.975  24.961  1.00  0.00     0.261 C 
BRANCH  30  31
ATOM     31  O   UNL A   1      38.291  21.173  25.349  1.00  0.00    -0.460 OA
BRANCH  31  32
ATOM     32  C   UNL A   1      39.430  20.992  26.076  1.00  0.00     0.338 C 
ATOM     33  O   UNL A   1      40.128  20.007  26.091  1.00  0.00    -0.246 OA
BRANCH  32  34
ATOM     34  C   UNL A   1      39.820  22.288  26.716  1.00  0.00     0.060 A 
ATOM     35  C   UNL A   1      39.069  23.424  26.380  1.00  0.00     0.016 A 
ATOM     36  C   UNL A   1      40.846  22.394  27.660  1.00  0.00     0.016 A 
ATOM     37  C   UNL A   1      39.360  24.667  26.949  1.00  0.00     0.010 A 
ATOM     38  C   UNL A   1      41.152  23.646  28.219  1.00  0.00     0.010 A 
ATOM     39  C   UNL A   1      40.440  24.797  27.829  1.00  0.00    -0.014 A 
BRANCH  39  40
ATOM     40  C   UNL A   1      40.993  26.152  28.098  1.00  0.00     0.031 A 
ATOM     41  C   UNL A   1      42.386  26.443  27.594  1.00  0.00     0.074 A 
ATOM     42  C   UNL A   1      40.295  27.117  28.726  1.00  0.00     0.049 A 
ATOM     43  N   UNL A   1      43.105  27.528  27.713  1.00  0.00    -0.248 NA
ATOM     44  C   UNL A   1      43.054  25.357  26.855  1.00  0.00     0.031 C 
ATOM     45  C   UNL A   1      38.932  26.986  29.237  1.00  0.00     0.029 A 
ATOM     46  N   UNL A   1      40.655  28.403  29.057  1.00  0.00    -0.354 N 
ATOM     47  C   UNL A   1      44.316  27.245  27.091  1.00  0.00     0.074 A 
ATOM     48  C   UNL A   1      44.242  25.884  26.610  1.00  0.00     0.031 C 
ATOM     49  C   UNL A   1      38.583  28.136  29.847  1.00  0.00     0.029 A 
ATOM     50  C   UNL A   1      39.704  29.074  29.791  1.00  0.00     0.049 A 
ATOM     51  H   UNL A   1      41.514  28.805  28.795  1.00  0.00     0.167 HD
ATOM     52  C   UNL A   1      45.392  28.046  26.917  1.00  0.00     0.034 A 
ATOM     53  C   UNL A   1      39.746  30.293  30.370  1.00  0.00     0.034 A 
ATOM     54  C   UNL A   1      45.469  29.404  27.377  1.00  0.00     0.049 A 
ATOM     55  C   UNL A   1      40.977  31.152  30.202  1.00  0.00     0.074 A 
ATOM     56  C   UNL A   1      46.506  30.307  27.222  1.00  0.00     0.029 A 
ATOM     57  N   UNL A   1      44.477  30.053  28.095  1.00  0.00    -0.354 N 
ATOM     58  N   UNL A   1      42.074  30.906  29.526  1.00  0.00    -0.248 NA
ATOM     59  C   UNL A   1      40.964  32.472  30.852  1.00  0.00     0.031 C 
ATOM     60  C   UNL A   1      46.156  31.490  27.878  1.00  0.00     0.029 A 
ATOM     61  C   UNL A   1      44.883  31.339  28.403  1.00  0.00     0.049 A 
ATOM     62  H   UNL A   1      43.612  29.657  28.348  1.00  0.00     0.167 HD
ATOM     63  C   UNL A   1      42.858  32.052  29.636  1.00  0.00     0.074 A 
ATOM     64  C   UNL A   1      42.102  33.001  30.424  1.00  0.00     0.031 C 
ATOM     65  C   UNL A   1      44.099  32.294  29.143  1.00  0.00     0.034 A 
BRANCH  52  66
ATOM     66  C   UNL A   1      46.577  27.475  26.185  1.00  0.00     0.023 A 
ATOM     67  C   UNL A   1      46.700  27.662  24.793  1.00  0.00     0.012 A 
ATOM     68  C   UNL A   1      47.595  26.800  26.886  1.00  0.00     0.148 A 
ATOM     69  C   UNL A   1      47.804  27.161  24.105  1.00  0.00     0.002 A 
ATOM     70  C   UNL A   1      48.716  26.348  26.201  1.00  0.00     0.091 A 
ATOM     71  F   UNL A   1      47.446  26.613  28.205  1.00  0.00    -0.205 F 
ATOM     72  C   UNL A   1      48.817  26.517  24.811  1.00  0.00     0.022 A 
BRANCH  70  73
ATOM     73  S   UNL A   1      50.111  25.577  27.030  1.00  0.00     0.127 S 
ATOM     74  O   UNL A   1      50.458  26.589  28.027  1.00  0.00    -0.237 OA
ATOM     75  O   UNL A   1      49.506  24.363  27.578  1.00  0.00    -0.237 OA
ATOM     76  O   UNL A   1      51.116  25.349  26.002  1.00  0.00    -0.744 OA
ENDBRANCH  70  73
ENDBRANCH  52  66
BRANCH  53  77
ATOM     77  C   UNL A   1      38.587  30.795  31.169  1.00  0.00     0.023 A 
ATOM     78  C   UNL A   1      38.533  30.555  32.557  1.00  0.00     0.012 A 
ATOM     79  C   UNL A   1      37.524  31.482  30.553  1.00  0.00     0.148 A 
ATOM     80  C   UNL A   1      37.422  30.951  33.306  1.00  0.00     0.002 A 
ATOM     81  C   UNL A   1      36.450  31.928  31.315  1.00  0.00     0.091 A 
ATOM     82  F   UNL A   1      37.580  31.682  29.229  1.00  0.00    -0.205 F 
ATOM     83  C   UNL A   1      36.386  31.645  32.688  1.00  0.00     0.022 A 
BRANCH  81  84
ATOM     84  S   UNL A   1      35.140  32.946  30.626  1.00  0.00     0.127 S 
ATOM     85  O   UNL A   1      34.305  33.194  31.798  1.00  0.00    -0.237 OA
ATOM     86  O   UNL A   1      35.887  34.108  30.142  1.00  0.00    -0.237 OA
ATOM     87  O   UNL A   1      34.532  32.145  29.573  1.00  0.00    -0.744 OA
ENDBRANCH  81  84
ENDBRANCH  53  77
BRANCH  65  88
ATOM     88  C   UNL A   1      44.704  33.653  29.391  1.00  0.00     0.023 A 
ATOM     89  C   UNL A   1      45.408  33.907  30.584  1.00  0.00     0.012 A 
ATOM     90  C   UNL A   1      44.631  34.659  28.406  1.00  0.00     0.148 A 
ATOM     91  C   UNL A   1      45.991  35.154  30.813  1.00  0.00     0.002 A 
ATOM     92  C   UNL A   1      45.260  35.880  28.617  1.00  0.00     0.091 A 
ATOM     93  F   UNL A   1      43.946  34.404  27.281  1.00  0.00    -0.205 F 
ATOM     94  C   UNL A   1      45.926  36.136  29.826  1.00  0.00     0.022 A 
BRANCH  92  95
ATOM     95  S   UNL A   1      45.314  37.167  27.364  1.00  0.00     0.127 S 
ATOM     96  O   UNL A   1      46.055  36.505  26.292  1.00  0.00    -0.237 OA
ATOM     97  O   UNL A   1      43.895  37.383  27.082  1.00  0.00    -0.237 OA
ATOM     98  O   UNL A   1      45.989  38.301  27.981  1.00  0.00    -0.744 OA
ENDBRANCH  92  95
ENDBRANCH  65  88
ENDBRANCH  39  40
ENDBRANCH  32  34
ENDBRANCH  31  32
ENDBRANCH  30  31
ENDBRANCH  29  30
ENDBRANCH  28  29
ENDBRANCH  27  28
ENDBRANCH   1  27
TORSDOF 24
ENDMDL
MODEL 2
REMARK VINA RESULT:     -10.5      1.577      7.449
REMARK SMILES O=C(OCCOCCOCCOCCOC(=O)c1ccc(-c2c3nc(c(-c4cccc(S(=O)(=O)[O-])c4F)c4ccc([nH]4)c(-c4cccc(S(=O)(=O)[O-])c4F)c4nc(c(-c5cccc(S(=O)(=O)[O-])c5F)c5ccc2[nH]5)C=C4)C=C3)cc1)C1=Cc2c(Cl)cc(Cl)cc2O[C@@H]1C(F)(F)F
REMARK SMILES IDX 10 1 9 2 8 3 7 4 6 5 5 6 4 7 3 8 2 9 1 10 81 11 82 12 92 13
REMARK SMILES IDX 83 14 91 15 84 16 90 17 85 18 86 19 89 20 87 21 88 22 93 23
REMARK SMILES IDX 94 24 95 25 96 26 11 27 12 28 13 29 14 30 15 31 16 32 17 33
REMARK SMILES IDX 18 34 19 35 80 36 20 37 79 38 21 39 22 40 23 41 73 42 24 43
REMARK SMILES IDX 78 44 72 45 74 46 25 47 77 48 71 49 70 50 26 52 58 53 38 54
REMARK SMILES IDX 57 55 39 56 42 57 56 58 75 59 40 60 41 61 55 63 76 64 43 65
REMARK SMILES IDX 27 66 28 67 36 68 29 69 31 70 37 71 30 72 32 73 33 74 34 75
REMARK SMILES IDX 35 76 59 77 60 78 68 79 61 80 63 81 69 82 62 83 64 84 65 85
REMARK SMILES IDX 66 86 67 87 44 88 45 89 53 90 46 91 48 92 54 93 47 94 49 95
REMARK SMILES IDX 50 96 51 97 52 98
REMARK H PARENT 74 51 42 62
REMARK Flexibility Score: inf
ROOT
ATOM      1  C   UNL A   1      32.707  20.511  24.246  1.00  0.00     0.188 C 
ENDROOT
BRANCH   1   2
ATOM      2  O   UNL A   1      32.165  20.851  25.517  1.00  0.00    -0.377 OA
BRANCH   2   3
ATOM      3  C   UNL A   1      31.592  22.148  25.601  1.00  0.00     0.188 C 
BRANCH   3   4
ATOM      4  C   UNL A   1      32.302  23.025  26.620  1.00  0.00     0.188 C 
BRANCH   4   5
ATOM      5  O   UNL A   1      31.485  24.048  27.166  1.00  0.00    -0.376 OA
BRANCH   5   6
ATOM      6  C   UNL A   1      30.271  24.390  26.511  1.00  0.00     0.202 C 
BRANCH   6   7
ATOM      7  C   UNL A   1      30.205  25.790  25.904  1.00  0.00     0.261 C 
BRANCH   7   8
ATOM      8  O   UNL A   1      29.520  25.800  24.638  1.00  0.00    -0.460 OA
BRANCH   8   9
ATOM      9  C   UNL A   1      30.155  25.243  23.582  1.00  0.00     0.338 C 
ATOM     10  O   UNL A   1      30.081  24.051  23.319  1.00  0.00    -0.246 OA
BRANCH   9  11
ATOM     11  C   UNL A   1      31.112  26.157  22.900  1.00  0.00     0.087 C 
ATOM     12  C   UNL A   1      30.551  27.311  22.497  1.00  0.00     0.029 C 
ATOM     13  C   UNL A   1      32.551  26.114  23.338  1.00  0.00     0.316 C 
ATOM     14  C   UNL A   1      30.948  28.462  23.336  1.00  0.00     0.036 A 
ATOM     15  O   UNL A   1      33.003  27.329  23.992  1.00  0.00    -0.475 OA
ATOM     16  C   UNL A   1      30.135  29.599  23.467  1.00  0.00     0.053 A 
ATOM     17  C   UNL A   1      32.092  28.347  24.135  1.00  0.00     0.130 A 
ATOM     18  Cl  UNL A   1      28.814  29.897  22.392  1.00  0.00    -0.083 Cl
ATOM     19  C   UNL A   1      30.366  30.516  24.492  1.00  0.00     0.042 A 
ATOM     20  C   UNL A   1      32.332  29.267  25.155  1.00  0.00     0.067 A 
ATOM     21  C   UNL A   1      31.433  30.313  25.364  1.00  0.00     0.046 A 
ATOM     22  Cl  UNL A   1      31.621  31.339  26.731  1.00  0.00    -0.084 Cl
BRANCH  13  23
ATOM     23  C   UNL A   1      33.486  25.661  22.216  1.00  0.00     0.430 C 
ATOM     24  F   UNL A   1      33.597  24.310  22.180  1.00  0.00    -0.167 F 
ATOM     25  F   UNL A   1      33.011  26.037  21.001  1.00  0.00    -0.167 F 
ATOM     26  F   UNL A   1      34.729  26.175  22.336  1.00  0.00    -0.167 F 
ENDBRANCH  13  23
ENDBRANCH   9  11
ENDBRANCH   8   9
ENDBRANCH   7   8
ENDBRANCH   6   7
ENDBRANCH   5   6
ENDBRANCH   4   5
ENDBRANCH   3   4
ENDBRANCH   2   3
ENDBRANCH   1   2
BRANCH   1  27
ATOM     27  C   UNL A   1      33.481  19.172  24.156  1.00  0.00     0.188 C 
BRANCH  27  28
ATOM     28  O   UNL A   1      34.801  18.990  24.658  1.00  0.00    -0.376 OA
BRANCH  28  29
ATOM     29  C   UNL A   1      35.572  20.117  25.023  1.00  0.00     0.202 C 
BRANCH  29  30
ATOM     30  C   UNL A   1      37.092  20.000  24.812  1.00  0.00     0.261 C 
BRANCH  30  31
ATOM     31  O   UNL A   1      37.863  21.115  25.291  1.00  0.00    -0.460 OA
BRANCH  31  32
ATOM     32  C   UNL A   1      39.034  20.803  25.917  1.00  0.00     0.338 C 
ATOM     33  O   UNL A   1      39.618  19.748  25.871  1.00  0.00    -0.246 OA
BRANCH  32  34
ATOM     34  C   UNL A   1      39.618  22.042  26.521  1.00  0.00     0.060 A 
ATOM     35  C   UNL A   1      39.039  23.269  26.160  1.00  0.00     0.016 A 
ATOM     36  C   UNL A   1      40.658  22.018  27.455  1.00  0.00     0.016 A 
ATOM     37  C   UNL A   1      39.517  24.468  26.695  1.00  0.00     0.010 A 
ATOM     38  C   UNL A   1      41.151  23.224  27.980  1.00  0.00     0.010 A 
ATOM     39  C   UNL A   1      40.613  24.458  27.565  1.00  0.00    -0.014 A 
BRANCH  39  40
ATOM     40  C   UNL A   1      41.364  25.723  27.795  1.00  0.00     0.031 A 
ATOM     41  C   UNL A   1      40.645  26.830  28.525  1.00  0.00     0.074 A 
ATOM     42  C   UNL A   1      42.645  25.892  27.419  1.00  0.00     0.049 A 
ATOM     43  N   UNL A   1      41.058  28.031  28.833  1.00  0.00    -0.248 NA
ATOM     44  C   UNL A   1      39.269  26.538  28.966  1.00  0.00     0.031 C 
ATOM     45  C   UNL A   1      43.471  24.900  26.735  1.00  0.00     0.029 A 
ATOM     46  N   UNL A   1      43.472  26.985  27.546  1.00  0.00    -0.354 N 
ATOM     47  C   UNL A   1      39.988  28.644  29.476  1.00  0.00     0.074 A 
ATOM     48  C   UNL A   1      38.902  27.691  29.500  1.00  0.00     0.031 C 
ATOM     49  C   UNL A   1      44.677  25.440  26.474  1.00  0.00     0.029 A 
ATOM     50  C   UNL A   1      44.701  26.824  26.949  1.00  0.00     0.049 A 
ATOM     51  H   UNL A   1      43.207  27.807  28.019  1.00  0.00     0.167 HD
ATOM     52  C   UNL A   1      39.914  29.882  30.014  1.00  0.00     0.034 A 
ATOM     53  C   UNL A   1      45.714  27.701  26.783  1.00  0.00     0.034 A 
ATOM     54  C   UNL A   1      40.992  30.830  30.008  1.00  0.00     0.049 A 
ATOM     55  C   UNL A   1      45.590  29.095  27.353  1.00  0.00     0.074 A 
ATOM     56  C   UNL A   1      41.022  32.100  30.556  1.00  0.00     0.029 A 
ATOM     57  N   UNL A   1      42.226  30.621  29.414  1.00  0.00    -0.354 N 
ATOM     58  N   UNL A   1      44.609  29.624  28.044  1.00  0.00    -0.248 NA
ATOM     59  C   UNL A   1      46.728  30.004  27.145  1.00  0.00     0.031 C 
ATOM     60  C   UNL A   1      42.263  32.673  30.261  1.00  0.00     0.029 A 
ATOM     61  C   UNL A   1      43.020  31.743  29.568  1.00  0.00     0.049 A 
ATOM     62  H   UNL A   1      42.496  29.795  28.951  1.00  0.00     0.167 HD
ATOM     63  C   UNL A   1      45.028  30.907  28.387  1.00  0.00     0.074 A 
ATOM     64  C   UNL A   1      46.361  31.067  27.847  1.00  0.00     0.031 C 
ATOM     65  C   UNL A   1      44.366  31.871  29.073  1.00  0.00     0.034 A 
BRANCH  52  66
ATOM     66  C   UNL A   1      38.618  30.282  30.668  1.00  0.00     0.023 A 
ATOM     67  C   UNL A   1      38.390  29.972  32.024  1.00  0.00     0.012 A 
ATOM     68  C   UNL A   1      37.650  31.014  29.953  1.00  0.00     0.148 A 
ATOM     69  C   UNL A   1      37.206  30.358  32.651  1.00  0.00     0.002 A 
ATOM     70  C   UNL A   1      36.495  31.438  30.598  1.00  0.00     0.091 A 
ATOM     71  F   UNL A   1      37.877  31.277  28.658  1.00  0.00    -0.205 F 
ATOM     72  C   UNL A   1      36.266  31.102  31.941  1.00  0.00     0.022 A 
BRANCH  70  73
ATOM     73  S   UNL A   1      35.261  32.468  29.797  1.00  0.00     0.127 S 
ATOM     74  O   UNL A   1      34.314  32.696  30.887  1.00  0.00    -0.237 OA
ATOM     75  O   UNL A   1      36.046  33.642  29.415  1.00  0.00    -0.237 OA
ATOM     76  O   UNL A   1      34.746  31.689  28.680  1.00  0.00    -0.744 OA
ENDBRANCH  70  73
ENDBRANCH  52  66
BRANCH  53  77
ATOM     77  C   UNL A   1      46.952  27.301  26.048  1.00  0.00     0.023 A 
ATOM     78  C   UNL A   1      47.958  26.567  26.709  1.00  0.00     0.012 A 
ATOM     79  C   UNL A   1      47.150  27.672  24.704  1.00  0.00     0.148 A 
ATOM     80  C   UNL A   1      49.153  26.250  26.059  1.00  0.00     0.002 A 
ATOM     81  C   UNL A   1      48.315  27.299  24.043  1.00  0.00     0.091 A 
ATOM     82  F   UNL A   1      46.194  28.389  24.096  1.00  0.00    -0.205 F 
ATOM     83  C   UNL A   1      49.327  26.607  24.725  1.00  0.00     0.022 A 
BRANCH  81  84
ATOM     84  S   UNL A   1      48.564  27.600  22.290  1.00  0.00     0.127 S 
ATOM     85  O   UNL A   1      47.380  28.382  21.948  1.00  0.00    -0.237 OA
ATOM     86  O   UNL A   1      49.822  28.350  22.291  1.00  0.00    -0.237 OA
ATOM     87  O   UNL A   1      48.654  26.283  21.674  1.00  0.00    -0.744 OA
ENDBRANCH  81  84
ENDBRANCH  53  77
BRANCH  65  88
ATOM     88  C   UNL A   1      45.084  33.173  29.330  1.00  0.00     0.023 A 
ATOM     89  C   UNL A   1      45.883  33.326  30.479  1.00  0.00     0.012 A 
ATOM     90  C   UNL A   1      45.017  34.223  28.392  1.00  0.00     0.148 A 
ATOM     91  C   UNL A   1      46.569  34.518  30.714  1.00  0.00     0.002 A 
ATOM     92  C   UNL A   1      45.746  35.388  28.605  1.00  0.00     0.091 A 
ATOM     93  F   UNL A   1      44.241  34.066  27.309  1.00  0.00    -0.205 F 
ATOM     94  C   UNL A   1      46.510  35.543  29.773  1.00  0.00     0.022 A 
BRANCH  92  95
ATOM     95  S   UNL A   1      45.809  36.720  27.401  1.00  0.00     0.127 S 
ATOM     96  O   UNL A   1      44.399  37.090  27.294  1.00  0.00    -0.237 OA
ATOM     97  O   UNL A   1      46.649  37.708  28.078  1.00  0.00    -0.237 OA
ATOM     98  O   UNL A   1      46.397  36.148  26.198  1.00  0.00    -0.744 OA
ENDBRANCH  92  95
ENDBRANCH  65  88
ENDBRANCH  39  40
ENDBRANCH  32  34
ENDBRANCH  31  32
ENDBRANCH  30  31
ENDBRANCH  29  30
ENDBRANCH  28  29
ENDBRANCH  27  28
ENDBRANCH   1  27
TORSDOF 24
ENDMDL
MODEL 3
REMARK VINA RESULT:      -9.5      2.263      7.581
REMARK SMILES O=C(OCCOCCOCCOCCOC(=O)c1ccc(-c2c3nc(c(-c4cccc(S(=O)(=O)[O-])c4F)c4ccc([nH]4)c(-c4cccc(S(=O)(=O)[O-])c4F)c4nc(c(-c5cccc(S(=O)(=O)[O-])c5F)c5ccc2[nH]5)C=C4)C=C3)cc1)C1=Cc2c(Cl)cc(Cl)cc2O[C@@H]1C(F)(F)F
REMARK SMILES IDX 10 1 9 2 8 3 7 4 6 5 5 6 4 7 3 8 2 9 1 10 81 11 82 12 92 13
REMARK SMILES IDX 83 14 91 15 84 16 90 17 85 18 86 19 89 20 87 21 88 22 93 23
REMARK SMILES IDX 94 24 95 25 96 26 11 27 12 28 13 29 14 30 15 31 16 32 17 33
REMARK SMILES IDX 18 34 19 35 80 36 20 37 79 38 21 39 22 40 23 41 73 42 24 43
REMARK SMILES IDX 78 44 72 45 74 46 25 47 77 48 71 49 70 50 26 52 58 53 38 54
REMARK SMILES IDX 57 55 39 56 42 57 56 58 75 59 40 60 41 61 55 63 76 64 43 65
REMARK SMILES IDX 27 66 28 67 36 68 29 69 31 70 37 71 30 72 32 73 33 74 34 75
REMARK SMILES IDX 35 76 59 77 60 78 68 79 61 80 63 81 69 82 62 83 64 84 65 85
REMARK SMILES IDX 66 86 67 87 44 88 45 89 53 90 46 91 48 92 54 93 47 94 49 95
REMARK SMILES IDX 50 96 51 97 52 98
REMARK H PARENT 74 51 42 62
REMARK Flexibility Score: inf
ROOT
ATOM      1  C   UNL A   1      32.199  21.119  24.204  1.00  0.00     0.188 C 
ENDROOT
BRANCH   1   2
ATOM      2  O   UNL A   1      31.416  21.124  25.392  1.00  0.00    -0.377 OA
BRANCH   2   3
ATOM      3  C   UNL A   1      30.679  22.316  25.624  1.00  0.00     0.188 C 
BRANCH   3   4
ATOM      4  C   UNL A   1      30.106  22.373  27.031  1.00  0.00     0.188 C 
BRANCH   4   5
ATOM      5  O   UNL A   1      29.597  23.647  27.392  1.00  0.00    -0.376 OA
BRANCH   5   6
ATOM      6  C   UNL A   1      29.696  24.722  26.468  1.00  0.00     0.202 C 
BRANCH   6   7
ATOM      7  C   UNL A   1      30.971  25.559  26.544  1.00  0.00     0.261 C 
BRANCH   7   8
ATOM      8  O   UNL A   1      30.744  26.930  26.167  1.00  0.00    -0.460 OA
BRANCH   8   9
ATOM      9  C   UNL A   1      30.519  27.186  24.859  1.00  0.00     0.338 C 
ATOM     10  O   UNL A   1      29.614  26.660  24.227  1.00  0.00    -0.246 OA
BRANCH   9  11
ATOM     11  C   UNL A   1      31.588  27.993  24.208  1.00  0.00     0.087 C 
ATOM     12  C   UNL A   1      31.614  29.274  24.620  1.00  0.00     0.029 C 
ATOM     13  C   UNL A   1      32.857  27.286  23.819  1.00  0.00     0.316 C 
ATOM     14  C   UNL A   1      32.750  29.559  25.521  1.00  0.00     0.036 A 
ATOM     15  O   UNL A   1      34.023  27.711  24.573  1.00  0.00    -0.475 OA
ATOM     16  C   UNL A   1      32.703  30.597  26.466  1.00  0.00     0.053 A 
ATOM     17  C   UNL A   1      33.838  28.679  25.529  1.00  0.00     0.130 A 
ATOM     18  Cl  UNL A   1      31.491  31.828  26.401  1.00  0.00    -0.083 Cl
ATOM     19  C   UNL A   1      33.634  30.647  27.504  1.00  0.00     0.042 A 
ATOM     20  C   UNL A   1      34.776  28.731  26.561  1.00  0.00     0.067 A 
ATOM     21  C   UNL A   1      34.634  29.679  27.573  1.00  0.00     0.046 A 
ATOM     22  Cl  UNL A   1      35.676  29.631  28.940  1.00  0.00    -0.084 Cl
BRANCH  13  23
ATOM     23  C   UNL A   1      33.091  27.302  22.307  1.00  0.00     0.430 C 
ATOM     24  F   UNL A   1      31.919  27.284  21.626  1.00  0.00    -0.167 F 
ATOM     25  F   UNL A   1      33.737  28.433  21.924  1.00  0.00    -0.167 F 
ATOM     26  F   UNL A   1      33.831  26.255  21.884  1.00  0.00    -0.167 F 
ENDBRANCH  13  23
ENDBRANCH   9  11
ENDBRANCH   8   9
ENDBRANCH   7   8
ENDBRANCH   6   7
ENDBRANCH   5   6
ENDBRANCH   4   5
ENDBRANCH   3   4
ENDBRANCH   2   3
ENDBRANCH   1   2
BRANCH   1  27
ATOM     27  C   UNL A   1      32.929  19.797  23.857  1.00  0.00     0.188 C 
BRANCH  27  28
ATOM     28  O   UNL A   1      34.199  19.436  24.390  1.00  0.00    -0.376 OA
BRANCH  28  29
ATOM     29  C   UNL A   1      34.834  20.286  25.324  1.00  0.00     0.202 C 
BRANCH  29  30
ATOM     30  C   UNL A   1      36.006  21.129  24.792  1.00  0.00     0.261 C 
BRANCH  30  31
ATOM     31  O   UNL A   1      36.835  21.730  25.801  1.00  0.00    -0.460 OA
BRANCH  31  32
ATOM     32  C   UNL A   1      38.167  21.452  25.720  1.00  0.00     0.338 C 
ATOM     33  O   UNL A   1      38.684  20.580  25.065  1.00  0.00    -0.246 OA
BRANCH  32  34
ATOM     34  C   UNL A   1      38.941  22.530  26.414  1.00  0.00     0.060 A 
ATOM     35  C   UNL A   1      38.454  23.842  26.308  1.00  0.00     0.016 A 
ATOM     36  C   UNL A   1      40.074  22.275  27.193  1.00  0.00     0.016 A 
ATOM     37  C   UNL A   1      39.112  24.900  26.942  1.00  0.00     0.010 A 
ATOM     38  C   UNL A   1      40.746  23.340  27.815  1.00  0.00     0.010 A 
ATOM     39  C   UNL A   1      40.294  24.664  27.653  1.00  0.00    -0.014 A 
BRANCH  39  40
ATOM     40  C   UNL A   1      41.192  25.810  27.961  1.00  0.00     0.031 A 
ATOM     41  C   UNL A   1      40.634  26.913  28.826  1.00  0.00     0.074 A 
ATOM     42  C   UNL A   1      42.468  25.874  27.537  1.00  0.00     0.049 A 
ATOM     43  N   UNL A   1      41.193  28.025  29.224  1.00  0.00    -0.248 NA
ATOM     44  C   UNL A   1      39.252  26.731  29.307  1.00  0.00     0.031 C 
ATOM     45  C   UNL A   1      43.148  24.869  26.723  1.00  0.00     0.029 A 
ATOM     46  N   UNL A   1      43.418  26.852  27.723  1.00  0.00    -0.354 N 
ATOM     47  C   UNL A   1      40.226  28.685  29.974  1.00  0.00     0.074 A 
ATOM     48  C   UNL A   1      39.040  27.859  29.965  1.00  0.00     0.031 C 
ATOM     49  C   UNL A   1      44.396  25.297  26.452  1.00  0.00     0.029 A 
ATOM     50  C   UNL A   1      44.596  26.617  27.052  1.00  0.00     0.049 A 
ATOM     51  H   UNL A   1      43.268  27.647  28.284  1.00  0.00     0.167 HD
ATOM     52  C   UNL A   1      40.315  29.865  30.628  1.00  0.00     0.034 A 
ATOM     53  C   UNL A   1      45.695  27.389  26.918  1.00  0.00     0.034 A 
ATOM     54  C   UNL A   1      41.493  30.686  30.656  1.00  0.00     0.049 A 
ATOM     55  C   UNL A   1      45.754  28.726  27.620  1.00  0.00     0.074 A 
ATOM     56  C   UNL A   1      41.690  31.885  31.316  1.00  0.00     0.029 A 
ATOM     57  N   UNL A   1      42.671  30.401  29.983  1.00  0.00    -0.354 N 
ATOM     58  N   UNL A   1      44.867  29.288  28.407  1.00  0.00    -0.248 NA
ATOM     59  C   UNL A   1      46.979  29.521  27.440  1.00  0.00     0.031 C 
ATOM     60  C   UNL A   1      42.975  32.344  31.013  1.00  0.00     0.029 A 
ATOM     61  C   UNL A   1      43.593  31.409  30.200  1.00  0.00     0.049 A 
ATOM     62  H   UNL A   1      42.826  29.600  29.431  1.00  0.00     0.167 HD
ATOM     63  C   UNL A   1      45.444  30.478  28.845  1.00  0.00     0.074 A 
ATOM     64  C   UNL A   1      46.764  30.544  28.256  1.00  0.00     0.031 C 
ATOM     65  C   UNL A   1      44.924  31.437  29.651  1.00  0.00     0.034 A 
BRANCH  52  66
ATOM     66  C   UNL A   1      39.101  30.339  31.382  1.00  0.00     0.023 A 
ATOM     67  C   UNL A   1      38.839  29.844  32.674  1.00  0.00     0.012 A 
ATOM     68  C   UNL A   1      38.250  31.316  30.829  1.00  0.00     0.148 A 
ATOM     69  C   UNL A   1      37.733  30.292  33.396  1.00  0.00     0.002 A 
ATOM     70  C   UNL A   1      37.178  31.793  31.572  1.00  0.00     0.091 A 
ATOM     71  F   UNL A   1      38.504  31.755  29.587  1.00  0.00    -0.205 F 
ATOM     72  C   UNL A   1      36.912  31.275  32.849  1.00  0.00     0.022 A 
BRANCH  70  73
ATOM     73  S   UNL A   1      36.109  33.115  30.992  1.00  0.00     0.127 S 
ATOM     74  O   UNL A   1      35.048  33.098  31.997  1.00  0.00    -0.237 OA
ATOM     75  O   UNL A   1      36.997  34.276  31.061  1.00  0.00    -0.237 OA
ATOM     76  O   UNL A   1      35.696  32.741  29.648  1.00  0.00    -0.744 OA
ENDBRANCH  70  73
ENDBRANCH  52  66
BRANCH  53  77
ATOM     77  C   UNL A   1      46.849  26.930  26.086  1.00  0.00     0.023 A 
ATOM     78  C   UNL A   1      47.740  25.962  26.591  1.00  0.00     0.012 A 
ATOM     79  C   UNL A   1      47.084  27.473  24.808  1.00  0.00     0.148 A 
ATOM     80  C   UNL A   1      48.865  25.576  25.858  1.00  0.00     0.002 A 
ATOM     81  C   UNL A   1      48.171  27.040  24.058  1.00  0.00     0.091 A 
ATOM     82  F   UNL A   1      46.241  28.410  24.352  1.00  0.00    -0.205 F 
ATOM     83  C   UNL A   1      49.075  26.108  24.589  1.00  0.00     0.022 A 
BRANCH  81  84
ATOM     84  S   UNL A   1      48.442  27.570  22.363  1.00  0.00     0.127 S 
ATOM     85  O   UNL A   1      47.233  28.343  22.093  1.00  0.00    -0.237 OA
ATOM     86  O   UNL A   1      49.667  28.362  22.490  1.00  0.00    -0.237 OA
ATOM     87  O   UNL A   1      48.598  26.347  21.588  1.00  0.00    -0.744 OA
ENDBRANCH  81  84
ENDBRANCH  53  77
BRANCH  65  88
ATOM     88  C   UNL A   1      45.795  32.621  29.991  1.00  0.00     0.023 A 
ATOM     89  C   UNL A   1      45.794  33.761  29.164  1.00  0.00     0.012 A 
ATOM     90  C   UNL A   1      46.564  32.627  31.173  1.00  0.00     0.148 A 
ATOM     91  C   UNL A   1      46.580  34.870  29.483  1.00  0.00     0.002 A 
ATOM     92  C   UNL A   1      47.302  33.755  31.512  1.00  0.00     0.091 A 
ATOM     93  F   UNL A   1      46.563  31.528  31.942  1.00  0.00    -0.205 F 
ATOM     94  C   UNL A   1      47.323  34.871  30.660  1.00  0.00     0.022 A 
BRANCH  92  95
ATOM     95  S   UNL A   1      48.210  33.885  33.057  1.00  0.00     0.127 S 
ATOM     96  O   UNL A   1      48.751  35.239  32.970  1.00  0.00    -0.237 OA
ATOM     97  O   UNL A   1      47.152  33.713  34.052  1.00  0.00    -0.237 OA
ATOM     98  O   UNL A   1      49.198  32.815  33.034  1.00  0.00    -0.744 OA
ENDBRANCH  92  95
ENDBRANCH  65  88
ENDBRANCH  39  40
ENDBRANCH  32  34
ENDBRANCH  31  32
ENDBRANCH  30  31
ENDBRANCH  29  30
ENDBRANCH  28  29
ENDBRANCH  27  28
ENDBRANCH   1  27
TORSDOF 24
ENDMDL
