MODEL 1
REMARK VINA RESULT:      -8.2      0.000      0.000
REMARK SMILES O=C(C[C@H]1S/C(=[NH+]/N=C/c2cccc(Cl)c2)NC1=O)OCCOCCOCCOCCOC(=O)c1ccc(-c2c3nc(c(-c4cccc(S(=O)(=O)[O-])c4F)c4ccc([nH]4)c(-c4cccc(S(=O)(=O)[O-])c4F)c4nc(c(-c5cccc(S(=O)(=O)[O-])c5F)c5ccc2[nH]5)C=C4)C=C3)cc1
REMARK SMILES IDX 26 1 25 2 24 3 23 4 22 5 21 6 20 7 2 8 1 9 3 10 4 11 5 12
REMARK SMILES IDX 18 13 6 14 17 15 19 16 7 17 8 20 9 21 10 22 11 23 16 24
REMARK SMILES IDX 12 25 14 26 13 27 15 28 27 29 28 30 29 31 30 32 31 33 32 34
REMARK SMILES IDX 33 35 34 36 35 37 36 38 97 39 37 40 96 41 38 42 39 43 40 44
REMARK SMILES IDX 90 45 41 46 95 47 89 48 91 49 42 50 94 51 88 52 87 53 43 55
REMARK SMILES IDX 75 56 55 57 74 58 56 59 59 60 73 61 92 62 57 63 58 64 72 66
REMARK SMILES IDX 93 67 60 68 44 69 45 70 53 71 46 72 48 73 54 74 47 75 49 76
REMARK SMILES IDX 50 77 51 78 52 79 76 80 77 81 85 82 78 83 80 84 86 85 79 86
REMARK SMILES IDX 81 87 82 88 83 89 84 90 61 91 62 92 70 93 63 94 65 95 71 96
REMARK SMILES IDX 64 97 66 98 67 99 68 100 69 101
REMARK H PARENT 17 18 7 19 91 54 59 65
REMARK Flexibility Score: inf
ROOT
ATOM      1  O   UNL A   1      37.208  32.378  30.694  1.00  0.00    -0.377 OA
ENDROOT
BRANCH   1   2
ATOM      2  C   UNL A   1      35.793  32.372  30.711  1.00  0.00     0.188 C 
BRANCH   2   3
ATOM      3  C   UNL A   1      35.131  32.153  29.352  1.00  0.00     0.188 C 
BRANCH   3   4
ATOM      4  O   UNL A   1      35.046  30.877  28.734  1.00  0.00    -0.376 OA
BRANCH   4   5
ATOM      5  C   UNL A   1      34.485  30.560  27.478  1.00  0.00     0.202 C 
BRANCH   5   6
ATOM      6  C   UNL A   1      34.323  29.133  26.972  1.00  0.00     0.261 C 
BRANCH   6   7
ATOM      7  O   UNL A   1      33.448  28.929  25.862  1.00  0.00    -0.463 OA
BRANCH   7   8
ATOM      8  C   UNL A   1      32.259  29.507  25.644  1.00  0.00     0.307 C 
ATOM      9  O   UNL A   1      31.674  30.055  26.577  1.00  0.00    -0.252 OA
BRANCH   8  10
ATOM     10  C   UNL A   1      31.540  29.319  24.331  1.00  0.00     0.150 C 
BRANCH  10  11
ATOM     11  C   UNL A   1      30.654  28.107  24.192  1.00  0.00     0.184 C 
ATOM     12  S   UNL A   1      30.837  27.487  22.479  1.00  0.00    -0.020 SA
ATOM     13  C   UNL A   1      31.163  27.009  25.078  1.00  0.00     0.322 C 
ATOM     14  C   UNL A   1      31.952  26.284  23.016  1.00  0.00     0.337 C 
ATOM     15  N   UNL A   1      31.948  26.169  24.368  1.00  0.00    -0.202 N 
ATOM     16  O   UNL A   1      30.942  26.921  26.276  1.00  0.00    -0.246 OA
ATOM     17  N   UNL A   1      32.690  25.567  22.243  1.00  0.00    -0.142 N 
ATOM     18  H   UNL A   1      32.503  25.493  24.819  1.00  0.00     0.316 HD
ATOM     19  H   UNL A   1      32.746  25.648  21.264  1.00  0.00     0.343 HD
BRANCH  17  20
ATOM     20  N   UNL A   1      33.392  24.663  23.022  1.00  0.00    -0.093 NA
ATOM     21  C   UNL A   1      33.069  23.437  22.812  1.00  0.00     0.166 C 
BRANCH  21  22
ATOM     22  C   UNL A   1      33.766  22.402  23.584  1.00  0.00    -0.002 A 
ATOM     23  C   UNL A   1      35.123  22.568  23.903  1.00  0.00     0.010 A 
ATOM     24  C   UNL A   1      33.075  21.259  23.967  1.00  0.00     0.030 A 
ATOM     25  C   UNL A   1      35.793  21.583  24.617  1.00  0.00     0.002 A 
ATOM     26  C   UNL A   1      33.758  20.276  24.675  1.00  0.00     0.041 A 
ATOM     27  C   UNL A   1      35.108  20.433  25.003  1.00  0.00     0.020 A 
ATOM     28  Cl  UNL A   1      32.929  18.844  25.145  1.00  0.00    -0.084 Cl
ENDBRANCH  21  22
ENDBRANCH  17  20
ENDBRANCH  10  11
ENDBRANCH   8  10
ENDBRANCH   7   8
ENDBRANCH   6   7
ENDBRANCH   5   6
ENDBRANCH   4   5
ENDBRANCH   3   4
ENDBRANCH   2   3
ENDBRANCH   1   2
BRANCH   1  29
ATOM     29  C   UNL A   1      37.782  32.811  31.909  1.00  0.00     0.188 C 
BRANCH  29  30
ATOM     30  C   UNL A   1      37.773  34.343  32.105  1.00  0.00     0.188 C 
BRANCH  30  31
ATOM     31  O   UNL A   1      37.355  34.929  33.326  1.00  0.00    -0.376 OA
BRANCH  31  32
ATOM     32  C   UNL A   1      36.579  34.200  34.263  1.00  0.00     0.202 C 
BRANCH  32  33
ATOM     33  C   UNL A   1      37.180  33.432  35.454  1.00  0.00     0.261 C 
BRANCH  33  34
ATOM     34  O   UNL A   1      38.508  33.771  35.851  1.00  0.00    -0.460 OA
BRANCH  34  35
ATOM     35  C   UNL A   1      39.205  32.808  36.495  1.00  0.00     0.338 C 
ATOM     36  O   UNL A   1      39.069  32.448  37.655  1.00  0.00    -0.246 OA
BRANCH  35  37
ATOM     37  C   UNL A   1      40.008  32.085  35.488  1.00  0.00     0.060 A 
ATOM     38  C   UNL A   1      41.380  32.370  35.381  1.00  0.00     0.016 A 
ATOM     39  C   UNL A   1      39.428  31.084  34.709  1.00  0.00     0.016 A 
ATOM     40  C   UNL A   1      42.176  31.663  34.483  1.00  0.00     0.010 A 
ATOM     41  C   UNL A   1      40.213  30.411  33.776  1.00  0.00     0.010 A 
ATOM     42  C   UNL A   1      41.579  30.725  33.639  1.00  0.00    -0.014 A 
BRANCH  42  43
ATOM     43  C   UNL A   1      42.285  30.274  32.422  1.00  0.00     0.031 A 
ATOM     44  C   UNL A   1      42.873  28.894  32.449  1.00  0.00     0.074 A 
ATOM     45  C   UNL A   1      42.469  31.082  31.367  1.00  0.00     0.049 A 
ATOM     46  N   UNL A   1      43.690  28.322  31.608  1.00  0.00    -0.248 NA
ATOM     47  C   UNL A   1      42.503  28.054  33.602  1.00  0.00     0.031 C 
ATOM     48  C   UNL A   1      41.929  32.432  31.230  1.00  0.00     0.029 A 
ATOM     49  N   UNL A   1      43.219  30.894  30.233  1.00  0.00    -0.354 N 
ATOM     50  C   UNL A   1      43.979  27.080  32.159  1.00  0.00     0.074 A 
ATOM     51  C   UNL A   1      43.246  26.980  33.400  1.00  0.00     0.031 C 
ATOM     52  C   UNL A   1      42.417  32.978  30.102  1.00  0.00     0.029 A 
ATOM     53  C   UNL A   1      43.334  32.030  29.468  1.00  0.00     0.049 A 
ATOM     54  H   UNL A   1      43.632  30.034  29.992  1.00  0.00     0.167 HD
ATOM     55  C   UNL A   1      44.791  26.113  31.677  1.00  0.00     0.034 A 
ATOM     56  C   UNL A   1      44.133  32.289  28.414  1.00  0.00     0.034 A 
ATOM     57  C   UNL A   1      45.519  26.228  30.445  1.00  0.00     0.049 A 
ATOM     58  C   UNL A   1      45.050  31.210  27.900  1.00  0.00     0.074 A 
ATOM     59  C   UNL A   1      46.322  25.288  29.830  1.00  0.00     0.029 A 
ATOM     60  N   UNL A   1      45.556  27.369  29.657  1.00  0.00    -0.354 N 
ATOM     61  N   UNL A   1      45.238  29.998  28.364  1.00  0.00    -0.248 NA
ATOM     62  C   UNL A   1      45.845  31.523  26.704  1.00  0.00     0.031 C 
ATOM     63  C   UNL A   1      46.887  25.878  28.695  1.00  0.00     0.029 A 
ATOM     64  C   UNL A   1      46.387  27.166  28.571  1.00  0.00     0.049 A 
ATOM     65  H   UNL A   1      45.063  28.201  29.843  1.00  0.00     0.167 HD
ATOM     66  C   UNL A   1      46.139  29.389  27.496  1.00  0.00     0.074 A 
ATOM     67  C   UNL A   1      46.458  30.368  26.476  1.00  0.00     0.031 C 
ATOM     68  C   UNL A   1      46.655  28.136  27.538  1.00  0.00     0.034 A 
BRANCH  55  69
ATOM     69  C   UNL A   1      44.949  24.868  32.507  1.00  0.00     0.023 A 
ATOM     70  C   UNL A   1      44.047  23.793  32.356  1.00  0.00     0.012 A 
ATOM     71  C   UNL A   1      45.992  24.765  33.446  1.00  0.00     0.148 A 
ATOM     72  C   UNL A   1      44.150  22.661  33.164  1.00  0.00     0.002 A 
ATOM     73  C   UNL A   1      46.123  23.611  34.208  1.00  0.00     0.091 A 
ATOM     74  F   UNL A   1      46.822  25.807  33.598  1.00  0.00    -0.205 F 
ATOM     75  C   UNL A   1      45.192  22.566  34.082  1.00  0.00     0.022 A 
BRANCH  73  76
ATOM     76  S   UNL A   1      47.483  23.363  35.351  1.00  0.00     0.127 S 
ATOM     77  O   UNL A   1      48.638  23.444  34.459  1.00  0.00    -0.237 OA
ATOM     78  O   UNL A   1      47.334  24.504  36.257  1.00  0.00    -0.237 OA
ATOM     79  O   UNL A   1      47.256  22.065  35.970  1.00  0.00    -0.744 OA
ENDBRANCH  73  76
ENDBRANCH  55  69
BRANCH  56  80
ATOM     80  C   UNL A   1      44.093  33.637  27.783  1.00  0.00     0.023 A 
ATOM     81  C   UNL A   1      43.237  33.873  26.692  1.00  0.00     0.012 A 
ATOM     82  C   UNL A   1      44.858  34.700  28.303  1.00  0.00     0.148 A 
ATOM     83  C   UNL A   1      43.153  35.143  26.119  1.00  0.00     0.002 A 
ATOM     84  C   UNL A   1      44.727  35.974  27.764  1.00  0.00     0.091 A 
ATOM     85  F   UNL A   1      45.672  34.447  29.338  1.00  0.00    -0.205 F 
ATOM     86  C   UNL A   1      43.887  36.195  26.662  1.00  0.00     0.022 A 
BRANCH  84  87
ATOM     87  S   UNL A   1      45.530  37.414  28.477  1.00  0.00     0.127 S 
ATOM     88  O   UNL A   1      46.942  37.104  28.267  1.00  0.00    -0.237 OA
ATOM     89  O   UNL A   1      45.003  38.489  27.638  1.00  0.00    -0.237 OA
ATOM     90  O   UNL A   1      45.099  37.461  29.867  1.00  0.00    -0.744 OA
ENDBRANCH  84  87
ENDBRANCH  56  80
BRANCH  68  91
ATOM     91  C   UNL A   1      47.569  27.704  26.421  1.00  0.00     0.023 A 
ATOM     92  C   UNL A   1      47.053  27.043  25.290  1.00  0.00     0.012 A 
ATOM     93  C   UNL A   1      48.933  28.066  26.450  1.00  0.00     0.148 A 
ATOM     94  C   UNL A   1      47.885  26.732  24.214  1.00  0.00     0.002 A 
ATOM     95  C   UNL A   1      49.741  27.801  25.353  1.00  0.00     0.091 A 
ATOM     96  F   UNL A   1      49.405  28.681  27.544  1.00  0.00    -0.205 F 
ATOM     97  C   UNL A   1      49.222  27.123  24.239  1.00  0.00     0.022 A 
BRANCH  95  98
ATOM     98  S   UNL A   1      51.444  28.363  25.253  1.00  0.00     0.127 S 
ATOM     99  O   UNL A   1      51.284  29.813  25.338  1.00  0.00    -0.237 OA
ATOM    100  O   UNL A   1      52.042  27.744  26.437  1.00  0.00    -0.237 OA
ATOM    101  O   UNL A   1      51.961  27.870  23.984  1.00  0.00    -0.744 OA
ENDBRANCH  95  98
ENDBRANCH  68  91
ENDBRANCH  42  43
ENDBRANCH  35  37
ENDBRANCH  34  35
ENDBRANCH  33  34
ENDBRANCH  32  33
ENDBRANCH  31  32
ENDBRANCH  30  31
ENDBRANCH  29  30
ENDBRANCH   1  29
TORSDOF 26
ENDMDL
MODEL 2
REMARK VINA RESULT:      -7.8      4.709      8.084
REMARK SMILES O=C(C[C@H]1S/C(=[NH+]/N=C/c2cccc(Cl)c2)NC1=O)OCCOCCOCCOCCOC(=O)c1ccc(-c2c3nc(c(-c4cccc(S(=O)(=O)[O-])c4F)c4ccc([nH]4)c(-c4cccc(S(=O)(=O)[O-])c4F)c4nc(c(-c5cccc(S(=O)(=O)[O-])c5F)c5ccc2[nH]5)C=C4)C=C3)cc1
REMARK SMILES IDX 26 1 25 2 24 3 23 4 22 5 21 6 20 7 2 8 1 9 3 10 4 11 5 12
REMARK SMILES IDX 18 13 6 14 17 15 19 16 7 17 8 20 9 21 10 22 11 23 16 24
REMARK SMILES IDX 12 25 14 26 13 27 15 28 27 29 28 30 29 31 30 32 31 33 32 34
REMARK SMILES IDX 33 35 34 36 35 37 36 38 97 39 37 40 96 41 38 42 39 43 40 44
REMARK SMILES IDX 90 45 41 46 95 47 89 48 91 49 42 50 94 51 88 52 87 53 43 55
REMARK SMILES IDX 75 56 55 57 74 58 56 59 59 60 73 61 92 62 57 63 58 64 72 66
REMARK SMILES IDX 93 67 60 68 44 69 45 70 53 71 46 72 48 73 54 74 47 75 49 76
REMARK SMILES IDX 50 77 51 78 52 79 76 80 77 81 85 82 78 83 80 84 86 85 79 86
REMARK SMILES IDX 81 87 82 88 83 89 84 90 61 91 62 92 70 93 63 94 65 95 71 96
REMARK SMILES IDX 64 97 66 98 67 99 68 100 69 101
REMARK H PARENT 17 18 7 19 91 54 59 65
REMARK Flexibility Score: inf
ROOT
ATOM      1  O   UNL A   1      37.809  31.664  32.237  1.00  0.00    -0.377 OA
ENDROOT
BRANCH   1   2
ATOM      2  C   UNL A   1      37.854  32.723  33.175  1.00  0.00     0.188 C 
BRANCH   2   3
ATOM      3  C   UNL A   1      36.894  32.584  34.354  1.00  0.00     0.188 C 
BRANCH   3   4
ATOM      4  O   UNL A   1      35.580  33.123  34.343  1.00  0.00    -0.376 OA
BRANCH   4   5
ATOM      5  C   UNL A   1      35.203  34.484  34.316  1.00  0.00     0.202 C 
BRANCH   5   6
ATOM      6  C   UNL A   1      35.470  35.401  33.131  1.00  0.00     0.261 C 
BRANCH   6   7
ATOM      7  O   UNL A   1      34.386  36.208  32.672  1.00  0.00    -0.463 OA
BRANCH   7   8
ATOM      8  C   UNL A   1      33.651  36.034  31.565  1.00  0.00     0.307 C 
ATOM      9  O   UNL A   1      32.831  36.892  31.243  1.00  0.00    -0.252 OA
BRANCH   8  10
ATOM     10  C   UNL A   1      33.669  34.718  30.827  1.00  0.00     0.150 C 
BRANCH  10  11
ATOM     11  C   UNL A   1      34.255  34.707  29.438  1.00  0.00     0.184 C 
ATOM     12  S   UNL A   1      35.703  33.587  29.462  1.00  0.00    -0.020 SA
ATOM     13  C   UNL A   1      33.276  34.084  28.487  1.00  0.00     0.322 C 
ATOM     14  C   UNL A   1      34.752  32.315  28.787  1.00  0.00     0.337 C 
ATOM     15  N   UNL A   1      33.567  32.776  28.316  1.00  0.00    -0.202 N 
ATOM     16  O   UNL A   1      32.327  34.666  27.984  1.00  0.00    -0.246 OA
ATOM     17  N   UNL A   1      35.115  31.083  28.718  1.00  0.00    -0.142 N 
ATOM     18  H   UNL A   1      32.934  32.173  27.864  1.00  0.00     0.316 HD
ATOM     19  H   UNL A   1      35.950  30.707  29.080  1.00  0.00     0.343 HD
BRANCH  17  20
ATOM     20  N   UNL A   1      34.133  30.373  28.047  1.00  0.00    -0.093 NA
ATOM     21  C   UNL A   1      34.569  29.321  27.452  1.00  0.00     0.166 C 
BRANCH  21  22
ATOM     22  C   UNL A   1      33.600  28.496  26.721  1.00  0.00    -0.002 A 
ATOM     23  C   UNL A   1      32.343  28.232  27.287  1.00  0.00     0.010 A 
ATOM     24  C   UNL A   1      33.955  27.967  25.485  1.00  0.00     0.030 A 
ATOM     25  C   UNL A   1      31.430  27.436  26.608  1.00  0.00     0.002 A 
ATOM     26  C   UNL A   1      33.035  27.166  24.817  1.00  0.00     0.041 A 
ATOM     27  C   UNL A   1      31.778  26.901  25.369  1.00  0.00     0.020 A 
ATOM     28  Cl  UNL A   1      33.457  26.486  23.295  1.00  0.00    -0.084 Cl
ENDBRANCH  21  22
ENDBRANCH  17  20
ENDBRANCH  10  11
ENDBRANCH   8  10
ENDBRANCH   7   8
ENDBRANCH   6   7
ENDBRANCH   5   6
ENDBRANCH   4   5
ENDBRANCH   3   4
ENDBRANCH   2   3
ENDBRANCH   1   2
BRANCH   1  29
ATOM     29  C   UNL A   1      37.035  30.565  32.667  1.00  0.00     0.188 C 
BRANCH  29  30
ATOM     30  C   UNL A   1      37.667  29.189  32.366  1.00  0.00     0.188 C 
BRANCH  30  31
ATOM     31  O   UNL A   1      38.695  29.042  31.400  1.00  0.00    -0.376 OA
BRANCH  31  32
ATOM     32  C   UNL A   1      39.011  27.773  30.853  1.00  0.00     0.202 C 
BRANCH  32  33
ATOM     33  C   UNL A   1      39.439  27.558  29.389  1.00  0.00     0.261 C 
BRANCH  33  34
ATOM     34  O   UNL A   1      40.575  26.728  29.154  1.00  0.00    -0.460 OA
BRANCH  34  35
ATOM     35  C   UNL A   1      40.982  26.620  27.869  1.00  0.00     0.338 C 
ATOM     36  O   UNL A   1      40.359  26.139  26.934  1.00  0.00    -0.246 OA
BRANCH  35  37
ATOM     37  C   UNL A   1      42.226  27.403  27.725  1.00  0.00     0.060 A 
ATOM     38  C   UNL A   1      43.057  27.573  28.845  1.00  0.00     0.016 A 
ATOM     39  C   UNL A   1      42.604  27.904  26.478  1.00  0.00     0.016 A 
ATOM     40  C   UNL A   1      44.265  28.255  28.727  1.00  0.00     0.010 A 
ATOM     41  C   UNL A   1      43.788  28.629  26.370  1.00  0.00     0.010 A 
ATOM     42  C   UNL A   1      44.601  28.834  27.501  1.00  0.00    -0.014 A 
BRANCH  42  43
ATOM     43  C   UNL A   1      45.632  29.891  27.444  1.00  0.00     0.031 A 
ATOM     44  C   UNL A   1      47.053  29.446  27.262  1.00  0.00     0.074 A 
ATOM     45  C   UNL A   1      45.332  31.186  27.627  1.00  0.00     0.049 A 
ATOM     46  N   UNL A   1      48.158  30.132  27.363  1.00  0.00    -0.248 NA
ATOM     47  C   UNL A   1      47.250  28.020  26.948  1.00  0.00     0.031 C 
ATOM     48  C   UNL A   1      43.987  31.728  27.796  1.00  0.00     0.029 A 
ATOM     49  N   UNL A   1      46.160  32.273  27.760  1.00  0.00    -0.354 N 
ATOM     50  C   UNL A   1      49.182  29.212  27.184  1.00  0.00     0.074 A 
ATOM     51  C   UNL A   1      48.568  27.922  26.962  1.00  0.00     0.031 C 
ATOM     52  C   UNL A   1      44.083  33.041  28.073  1.00  0.00     0.029 A 
ATOM     53  C   UNL A   1      45.497  33.413  28.142  1.00  0.00     0.049 A 
ATOM     54  H   UNL A   1      47.130  32.238  27.597  1.00  0.00     0.167 HD
ATOM     55  C   UNL A   1      50.518  29.421  27.211  1.00  0.00     0.034 A 
ATOM     56  C   UNL A   1      45.981  34.601  28.557  1.00  0.00     0.034 A 
ATOM     57  C   UNL A   1      51.115  30.706  27.439  1.00  0.00     0.049 A 
ATOM     58  C   UNL A   1      47.471  34.815  28.605  1.00  0.00     0.074 A 
ATOM     59  C   UNL A   1      52.454  31.046  27.428  1.00  0.00     0.029 A 
ATOM     60  N   UNL A   1      50.409  31.858  27.754  1.00  0.00    -0.354 N 
ATOM     61  N   UNL A   1      48.435  33.969  28.328  1.00  0.00    -0.248 NA
ATOM     62  C   UNL A   1      47.942  36.152  28.995  1.00  0.00     0.031 C 
ATOM     63  C   UNL A   1      52.561  32.393  27.785  1.00  0.00     0.029 A 
ATOM     64  C   UNL A   1      51.284  32.907  27.960  1.00  0.00     0.049 A 
ATOM     65  H   UNL A   1      49.428  31.919  27.819  1.00  0.00     0.167 HD
ATOM     66  C   UNL A   1      49.623  34.679  28.471  1.00  0.00     0.074 A 
ATOM     67  C   UNL A   1      49.256  36.027  28.857  1.00  0.00     0.031 C 
ATOM     68  C   UNL A   1      50.899  34.256  28.297  1.00  0.00     0.034 A 
BRANCH  55  69
ATOM     69  C   UNL A   1      51.408  28.223  27.018  1.00  0.00     0.023 A 
ATOM     70  C   UNL A   1      51.644  27.333  28.087  1.00  0.00     0.012 A 
ATOM     71  C   UNL A   1      52.019  27.984  25.773  1.00  0.00     0.148 A 
ATOM     72  C   UNL A   1      52.515  26.255  27.933  1.00  0.00     0.002 A 
ATOM     73  C   UNL A   1      52.842  26.876  25.612  1.00  0.00     0.091 A 
ATOM     74  F   UNL A   1      51.809  28.856  24.778  1.00  0.00    -0.205 F 
ATOM     75  C   UNL A   1      53.106  26.022  26.695  1.00  0.00     0.022 A 
BRANCH  73  76
ATOM     76  S   UNL A   1      53.576  26.446  24.031  1.00  0.00     0.127 S 
ATOM     77  O   UNL A   1      54.095  25.107  24.301  1.00  0.00    -0.237 OA
ATOM     78  O   UNL A   1      52.417  26.481  23.137  1.00  0.00    -0.237 OA
ATOM     79  O   UNL A   1      54.578  27.467  23.763  1.00  0.00    -0.744 OA
ENDBRANCH  73  76
ENDBRANCH  55  69
BRANCH  56  80
ATOM     80  C   UNL A   1      45.031  35.674  28.963  1.00  0.00     0.023 A 
ATOM     81  C   UNL A   1      44.769  35.896  30.326  1.00  0.00     0.012 A 
ATOM     82  C   UNL A   1      44.437  36.513  27.999  1.00  0.00     0.148 A 
ATOM     83  C   UNL A   1      43.919  36.929  30.725  1.00  0.00     0.002 A 
ATOM     84  C   UNL A   1      43.636  37.573  28.406  1.00  0.00     0.091 A 
ATOM     85  F   UNL A   1      44.696  36.275  26.706  1.00  0.00    -0.205 F 
ATOM     86  C   UNL A   1      43.364  37.774  29.767  1.00  0.00     0.022 A 
BRANCH  84  87
ATOM     87  S   UNL A   1      42.985  38.790  27.258  1.00  0.00     0.127 S 
ATOM     88  O   UNL A   1      44.199  39.248  26.585  1.00  0.00    -0.237 OA
ATOM     89  O   UNL A   1      42.095  37.972  26.435  1.00  0.00    -0.237 OA
ATOM     90  O   UNL A   1      42.309  39.788  28.077  1.00  0.00    -0.744 OA
ENDBRANCH  84  87
ENDBRANCH  56  80
BRANCH  68  91
ATOM     91  C   UNL A   1      52.011  35.262  28.450  1.00  0.00     0.023 A 
ATOM     92  C   UNL A   1      52.775  35.307  29.631  1.00  0.00     0.012 A 
ATOM     93  C   UNL A   1      52.367  36.085  27.361  1.00  0.00     0.148 A 
ATOM     94  C   UNL A   1      53.865  36.172  29.733  1.00  0.00     0.002 A 
ATOM     95  C   UNL A   1      53.486  36.903  27.451  1.00  0.00     0.091 A 
ATOM     96  F   UNL A   1      51.615  36.035  26.252  1.00  0.00    -0.205 F 
ATOM     97  C   UNL A   1      54.228  36.957  28.641  1.00  0.00     0.022 A 
BRANCH  95  98
ATOM     98  S   UNL A   1      54.089  37.865  26.060  1.00  0.00     0.127 S 
ATOM     99  O   UNL A   1      53.762  36.994  24.932  1.00  0.00    -0.237 OA
ATOM    100  O   UNL A   1      53.278  39.079  26.150  1.00  0.00    -0.237 OA
ATOM    101  O   UNL A   1      55.513  38.067  26.293  1.00  0.00    -0.744 OA
ENDBRANCH  95  98
ENDBRANCH  68  91
ENDBRANCH  42  43
ENDBRANCH  35  37
ENDBRANCH  34  35
ENDBRANCH  33  34
ENDBRANCH  32  33
ENDBRANCH  31  32
ENDBRANCH  30  31
ENDBRANCH  29  30
ENDBRANCH   1  29
TORSDOF 26
ENDMDL
MODEL 3
REMARK VINA RESULT:      -7.8      1.912      2.289
REMARK SMILES O=C(C[C@H]1S/C(=[NH+]/N=C/c2cccc(Cl)c2)NC1=O)OCCOCCOCCOCCOC(=O)c1ccc(-c2c3nc(c(-c4cccc(S(=O)(=O)[O-])c4F)c4ccc([nH]4)c(-c4cccc(S(=O)(=O)[O-])c4F)c4nc(c(-c5cccc(S(=O)(=O)[O-])c5F)c5ccc2[nH]5)C=C4)C=C3)cc1
REMARK SMILES IDX 26 1 25 2 24 3 23 4 22 5 21 6 20 7 2 8 1 9 3 10 4 11 5 12
REMARK SMILES IDX 18 13 6 14 17 15 19 16 7 17 8 20 9 21 10 22 11 23 16 24
REMARK SMILES IDX 12 25 14 26 13 27 15 28 27 29 28 30 29 31 30 32 31 33 32 34
REMARK SMILES IDX 33 35 34 36 35 37 36 38 97 39 37 40 96 41 38 42 39 43 40 44
REMARK SMILES IDX 90 45 41 46 95 47 89 48 91 49 42 50 94 51 88 52 87 53 43 55
REMARK SMILES IDX 75 56 55 57 74 58 56 59 59 60 73 61 92 62 57 63 58 64 72 66
REMARK SMILES IDX 93 67 60 68 44 69 45 70 53 71 46 72 48 73 54 74 47 75 49 76
REMARK SMILES IDX 50 77 51 78 52 79 76 80 77 81 85 82 78 83 80 84 86 85 79 86
REMARK SMILES IDX 81 87 82 88 83 89 84 90 61 91 62 92 70 93 63 94 65 95 71 96
REMARK SMILES IDX 64 97 66 98 67 99 68 100 69 101
REMARK H PARENT 17 18 7 19 91 54 59 65
REMARK Flexibility Score: inf
ROOT
ATOM      1  O   UNL A   1      37.321  32.538  30.861  1.00  0.00    -0.377 OA
ENDROOT
BRANCH   1   2
ATOM      2  C   UNL A   1      35.906  32.528  30.879  1.00  0.00     0.188 C 
BRANCH   2   3
ATOM      3  C   UNL A   1      35.242  32.382  29.512  1.00  0.00     0.188 C 
BRANCH   3   4
ATOM      4  O   UNL A   1      35.228  31.158  28.790  1.00  0.00    -0.376 OA
BRANCH   4   5
ATOM      5  C   UNL A   1      34.526  30.863  27.601  1.00  0.00     0.202 C 
BRANCH   5   6
ATOM      6  C   UNL A   1      34.627  29.525  26.881  1.00  0.00     0.261 C 
BRANCH   6   7
ATOM      7  O   UNL A   1      33.498  29.111  26.111  1.00  0.00    -0.463 OA
BRANCH   7   8
ATOM      8  C   UNL A   1      32.248  29.590  26.174  1.00  0.00     0.307 C 
ATOM      9  O   UNL A   1      31.741  29.810  27.273  1.00  0.00    -0.252 OA
BRANCH   8  10
ATOM     10  C   UNL A   1      31.389  29.667  24.936  1.00  0.00     0.150 C 
BRANCH  10  11
ATOM     11  C   UNL A   1      30.780  28.384  24.432  1.00  0.00     0.184 C 
ATOM     12  S   UNL A   1      31.488  28.054  22.776  1.00  0.00    -0.020 SA
ATOM     13  C   UNL A   1      31.225  27.243  25.298  1.00  0.00     0.322 C 
ATOM     14  C   UNL A   1      32.616  26.942  23.461  1.00  0.00     0.337 C 
ATOM     15  N   UNL A   1      32.292  26.628  24.740  1.00  0.00    -0.202 N 
ATOM     16  O   UNL A   1      30.728  26.950  26.374  1.00  0.00    -0.246 OA
ATOM     17  N   UNL A   1      33.632  26.451  22.844  1.00  0.00    -0.142 N 
ATOM     18  H   UNL A   1      32.819  25.971  25.249  1.00  0.00     0.316 HD
ATOM     19  H   UNL A   1      33.919  26.682  21.931  1.00  0.00     0.343 HD
BRANCH  17  20
ATOM     20  N   UNL A   1      34.257  25.542  23.681  1.00  0.00    -0.093 NA
ATOM     21  C   UNL A   1      34.239  24.334  23.241  1.00  0.00     0.166 C 
BRANCH  21  22
ATOM     22  C   UNL A   1      34.885  23.298  24.054  1.00  0.00    -0.002 A 
ATOM     23  C   UNL A   1      36.060  22.684  23.595  1.00  0.00     0.010 A 
ATOM     24  C   UNL A   1      34.305  22.923  25.261  1.00  0.00     0.030 A 
ATOM     25  C   UNL A   1      36.665  21.689  24.352  1.00  0.00     0.002 A 
ATOM     26  C   UNL A   1      34.915  21.920  26.007  1.00  0.00     0.041 A 
ATOM     27  C   UNL A   1      36.090  21.306  25.562  1.00  0.00     0.020 A 
ATOM     28  Cl  UNL A   1      34.209  21.427  27.495  1.00  0.00    -0.084 Cl
ENDBRANCH  21  22
ENDBRANCH  17  20
ENDBRANCH  10  11
ENDBRANCH   8  10
ENDBRANCH   7   8
ENDBRANCH   6   7
ENDBRANCH   5   6
ENDBRANCH   4   5
ENDBRANCH   3   4
ENDBRANCH   2   3
ENDBRANCH   1   2
BRANCH   1  29
ATOM     29  C   UNL A   1      37.896  32.906  32.096  1.00  0.00     0.188 C 
BRANCH  29  30
ATOM     30  C   UNL A   1      37.891  34.425  32.371  1.00  0.00     0.188 C 
BRANCH  30  31
ATOM     31  O   UNL A   1      37.449  34.951  33.611  1.00  0.00    -0.376 OA
BRANCH  31  32
ATOM     32  C   UNL A   1      36.267  34.471  34.232  1.00  0.00     0.202 C 
BRANCH  32  33
ATOM     33  C   UNL A   1      36.264  33.466  35.398  1.00  0.00     0.261 C 
BRANCH  33  34
ATOM     34  O   UNL A   1      37.310  33.577  36.362  1.00  0.00    -0.460 OA
BRANCH  34  35
ATOM     35  C   UNL A   1      37.684  32.431  36.975  1.00  0.00     0.338 C 
ATOM     36  O   UNL A   1      37.139  31.889  37.924  1.00  0.00    -0.246 OA
BRANCH  35  37
ATOM     37  C   UNL A   1      38.736  31.804  36.149  1.00  0.00     0.060 A 
ATOM     38  C   UNL A   1      40.084  32.019  36.484  1.00  0.00     0.016 A 
ATOM     39  C   UNL A   1      38.393  30.951  35.099  1.00  0.00     0.016 A 
ATOM     40  C   UNL A   1      41.096  31.393  35.763  1.00  0.00     0.010 A 
ATOM     41  C   UNL A   1      39.407  30.364  34.345  1.00  0.00     0.010 A 
ATOM     42  C   UNL A   1      40.757  30.612  34.655  1.00  0.00    -0.014 A 
BRANCH  42  43
ATOM     43  C   UNL A   1      41.782  30.287  33.642  1.00  0.00     0.031 A 
ATOM     44  C   UNL A   1      42.406  28.925  33.718  1.00  0.00     0.074 A 
ATOM     45  C   UNL A   1      42.203  31.189  32.742  1.00  0.00     0.049 A 
ATOM     46  N   UNL A   1      43.443  28.449  33.086  1.00  0.00    -0.248 NA
ATOM     47  C   UNL A   1      41.782  27.978  34.660  1.00  0.00     0.031 C 
ATOM     48  C   UNL A   1      41.656  32.532  32.571  1.00  0.00     0.029 A 
ATOM     49  N   UNL A   1      43.235  31.120  31.840  1.00  0.00    -0.354 N 
ATOM     50  C   UNL A   1      43.633  27.171  33.596  1.00  0.00     0.074 A 
ATOM     51  C   UNL A   1      42.602  26.945  34.583  1.00  0.00     0.031 C 
ATOM     52  C   UNL A   1      42.400  33.188  31.662  1.00  0.00     0.029 A 
ATOM     53  C   UNL A   1      43.496  32.321  31.226  1.00  0.00     0.049 A 
ATOM     54  H   UNL A   1      43.737  30.294  31.654  1.00  0.00     0.167 HD
ATOM     55  C   UNL A   1      44.589  26.270  33.277  1.00  0.00     0.034 A 
ATOM     56  C   UNL A   1      44.534  32.691  30.449  1.00  0.00     0.034 A 
ATOM     57  C   UNL A   1      45.612  26.511  32.299  1.00  0.00     0.049 A 
ATOM     58  C   UNL A   1      45.605  31.684  30.119  1.00  0.00     0.074 A 
ATOM     59  C   UNL A   1      46.593  25.648  31.852  1.00  0.00     0.029 A 
ATOM     60  N   UNL A   1      45.804  27.717  31.642  1.00  0.00    -0.354 N 
ATOM     61  N   UNL A   1      45.719  30.440  30.520  1.00  0.00    -0.248 NA
ATOM     62  C   UNL A   1      46.674  32.120  29.209  1.00  0.00     0.031 C 
ATOM     63  C   UNL A   1      47.411  26.348  30.960  1.00  0.00     0.029 A 
ATOM     64  C   UNL A   1      46.902  27.630  30.806  1.00  0.00     0.049 A 
ATOM     65  H   UNL A   1      45.241  28.517  31.752  1.00  0.00     0.167 HD
ATOM     66  C   UNL A   1      46.846  29.933  29.882  1.00  0.00     0.074 A 
ATOM     67  C   UNL A   1      47.379  31.004  29.066  1.00  0.00     0.031 C 
ATOM     68  C   UNL A   1      47.390  28.693  29.963  1.00  0.00     0.034 A 
BRANCH  55  69
ATOM     69  C   UNL A   1      44.578  24.961  34.019  1.00  0.00     0.023 A 
ATOM     70  C   UNL A   1      43.940  23.832  33.461  1.00  0.00     0.012 A 
ATOM     71  C   UNL A   1      45.197  24.851  35.278  1.00  0.00     0.148 A 
ATOM     72  C   UNL A   1      43.874  22.633  34.169  1.00  0.00     0.002 A 
ATOM     73  C   UNL A   1      45.175  23.637  35.952  1.00  0.00     0.091 A 
ATOM     74  F   UNL A   1      45.772  25.941  35.806  1.00  0.00    -0.205 F 
ATOM     75  C   UNL A   1      44.499  22.533  35.409  1.00  0.00     0.022 A 
BRANCH  73  76
ATOM     76  S   UNL A   1      46.028  23.389  37.512  1.00  0.00     0.127 S 
ATOM     77  O   UNL A   1      45.245  24.233  38.414  1.00  0.00    -0.237 OA
ATOM     78  O   UNL A   1      45.861  21.951  37.727  1.00  0.00    -0.237 OA
ATOM     79  O   UNL A   1      47.403  23.812  37.290  1.00  0.00    -0.744 OA
ENDBRANCH  73  76
ENDBRANCH  55  69
BRANCH  56  80
ATOM     80  C   UNL A   1      44.601  34.088  29.938  1.00  0.00     0.023 A 
ATOM     81  C   UNL A   1      45.550  34.981  30.466  1.00  0.00     0.012 A 
ATOM     82  C   UNL A   1      43.765  34.511  28.885  1.00  0.00     0.148 A 
ATOM     83  C   UNL A   1      45.658  36.279  29.965  1.00  0.00     0.002 A 
ATOM     84  C   UNL A   1      43.915  35.786  28.354  1.00  0.00     0.091 A 
ATOM     85  F   UNL A   1      42.862  33.644  28.405  1.00  0.00    -0.205 F 
ATOM     86  C   UNL A   1      44.851  36.677  28.902  1.00  0.00     0.022 A 
BRANCH  84  87
ATOM     87  S   UNL A   1      43.014  36.343  26.904  1.00  0.00     0.127 S 
ATOM     88  O   UNL A   1      43.436  35.372  25.898  1.00  0.00    -0.237 OA
ATOM     89  O   UNL A   1      41.628  36.208  27.350  1.00  0.00    -0.237 OA
ATOM     90  O   UNL A   1      43.446  37.715  26.670  1.00  0.00    -0.744 OA
ENDBRANCH  84  87
ENDBRANCH  56  80
BRANCH  68  91
ATOM     91  C   UNL A   1      48.589  28.383  29.103  1.00  0.00     0.023 A 
ATOM     92  C   UNL A   1      48.421  27.949  27.775  1.00  0.00     0.012 A 
ATOM     93  C   UNL A   1      49.887  28.641  29.591  1.00  0.00     0.148 A 
ATOM     94  C   UNL A   1      49.530  27.757  26.951  1.00  0.00     0.002 A 
ATOM     95  C   UNL A   1      50.982  28.499  28.748  1.00  0.00     0.091 A 
ATOM     96  F   UNL A   1      50.022  29.039  30.864  1.00  0.00    -0.205 F 
ATOM     97  C   UNL A   1      50.806  28.046  27.431  1.00  0.00     0.022 A 
BRANCH  95  98
ATOM     98  S   UNL A   1      52.646  28.950  29.247  1.00  0.00     0.127 S 
ATOM     99  O   UNL A   1      52.479  30.359  29.601  1.00  0.00    -0.237 OA
ATOM    100  O   UNL A   1      52.880  28.058  30.383  1.00  0.00    -0.237 OA
ATOM    101  O   UNL A   1      53.499  28.699  28.093  1.00  0.00    -0.744 OA
ENDBRANCH  95  98
ENDBRANCH  68  91
ENDBRANCH  42  43
ENDBRANCH  35  37
ENDBRANCH  34  35
ENDBRANCH  33  34
ENDBRANCH  32  33
ENDBRANCH  31  32
ENDBRANCH  30  31
ENDBRANCH  29  30
ENDBRANCH   1  29
TORSDOF 26
ENDMDL
