MODEL 1
REMARK VINA RESULT:     -10.9      0.000      0.000
REMARK SMILES Cc1cnn(C2(C(=O)OCCOCCOCCOCCOC(=O)c3ccc(-c4c5nc(c(-c6cccc(S(=O)(=O)[O-])c6F)c6ccc([nH]6)c(-c6cccc(S(=O)(=O)[O-])c6F)c6nc(c(-c7cccc(S(=O)(=O)[O-])c7F)c7ccc4[nH]7)C=C6)C=C5)cc3)CCN(C(=O)c3cscn3)CC2)c1
REMARK SMILES IDX 16 1 15 2 14 3 13 4 12 5 11 6 10 7 9 8 7 9 8 10 6 11 87 12
REMARK SMILES IDX 98 13 88 14 97 15 89 16 90 17 91 18 5 19 1 20 2 21 3 22
REMARK SMILES IDX 99 23 4 24 92 25 93 26 96 27 94 28 95 29 17 30 18 31 19 32
REMARK SMILES IDX 20 33 21 34 22 35 23 36 24 37 25 38 86 39 26 40 85 41 27 42
REMARK SMILES IDX 28 43 29 44 79 45 30 46 84 47 78 48 80 49 31 50 83 51 77 52
REMARK SMILES IDX 76 53 32 55 64 56 44 57 63 58 45 59 48 60 62 61 81 62 46 63
REMARK SMILES IDX 47 64 61 66 82 67 49 68 33 69 34 70 42 71 35 72 37 73 43 74
REMARK SMILES IDX 36 75 38 76 39 77 40 78 41 79 65 80 66 81 74 82 67 83 69 84
REMARK SMILES IDX 75 85 68 86 70 87 71 88 72 89 73 90 50 91 51 92 59 93 52 94
REMARK SMILES IDX 54 95 60 96 53 97 55 98 56 99 57 100 58 101
REMARK H PARENT 80 54 48 65
REMARK Flexibility Score: inf
ROOT
ATOM      1  C   UNL A   1      33.326  35.494  29.455  1.00  0.00     0.188 C 
ENDROOT
BRANCH   1   2
ATOM      2  O   UNL A   1      32.841  34.249  28.962  1.00  0.00    -0.377 OA
BRANCH   2   3
ATOM      3  C   UNL A   1      33.617  33.589  27.976  1.00  0.00     0.188 C 
BRANCH   3   4
ATOM      4  C   UNL A   1      34.098  32.194  28.403  1.00  0.00     0.188 C 
BRANCH   4   5
ATOM      5  O   UNL A   1      34.319  31.338  27.288  1.00  0.00    -0.376 OA
BRANCH   5   6
ATOM      6  C   UNL A   1      33.325  30.366  27.013  1.00  0.00     0.202 C 
BRANCH   6   7
ATOM      7  C   UNL A   1      33.625  29.177  26.080  1.00  0.00     0.261 C 
BRANCH   7   8
ATOM      8  O   UNL A   1      32.797  28.993  24.917  1.00  0.00    -0.461 OA
BRANCH   8   9
ATOM      9  C   UNL A   1      31.687  28.236  25.054  1.00  0.00     0.334 C 
ATOM     10  O   UNL A   1      31.118  28.077  26.133  1.00  0.00    -0.249 OA
BRANCH   9  11
ATOM     11  C   UNL A   1      31.344  27.428  23.780  1.00  0.00     0.163 C 
ATOM     12  C   UNL A   1      32.394  27.323  22.639  1.00  0.00     0.064 C 
ATOM     13  C   UNL A   1      31.171  26.023  24.428  1.00  0.00     0.064 C 
ATOM     14  C   UNL A   1      32.036  26.189  21.675  1.00  0.00     0.123 C 
ATOM     15  C   UNL A   1      31.158  24.821  23.501  1.00  0.00     0.123 C 
ATOM     16  N   UNL A   1      32.099  24.940  22.405  1.00  0.00    -0.337 N 
ATOM     17  C   UNL A   1      33.032  23.996  21.960  1.00  0.00     0.273 C 
ATOM     18  O   UNL A   1      33.373  23.960  20.779  1.00  0.00    -0.267 OA
BRANCH  11  19
ATOM     19  N   UNL A   1      30.181  28.111  23.197  1.00  0.00    -0.255 N 
ATOM     20  C   UNL A   1      28.022  30.741  21.848  1.00  0.00     0.048 C 
ATOM     21  C   UNL A   1      28.715  29.568  22.422  1.00  0.00    -0.013 A 
ATOM     22  C   UNL A   1      28.089  28.429  22.960  1.00  0.00     0.138 A 
ATOM     23  C   UNL A   1      30.069  29.330  22.587  1.00  0.00     0.113 A 
ATOM     24  N   UNL A   1      28.965  27.558  23.442  1.00  0.00    -0.180 NA
ENDBRANCH  11  19
BRANCH  17  25
ATOM     25  C   UNL A   1      33.722  23.159  22.948  1.00  0.00     0.139 A 
ATOM     26  C   UNL A   1      33.205  22.093  23.659  1.00  0.00     0.100 A 
ATOM     27  N   UNL A   1      35.088  23.369  23.166  1.00  0.00    -0.240 NA
ATOM     28  S   UNL A   1      34.425  21.368  24.631  1.00  0.00    -0.130 S 
ATOM     29  C   UNL A   1      35.566  22.478  24.001  1.00  0.00     0.176 A 
ENDBRANCH  17  25
ENDBRANCH   9  11
ENDBRANCH   8   9
ENDBRANCH   7   8
ENDBRANCH   6   7
ENDBRANCH   5   6
ENDBRANCH   4   5
ENDBRANCH   3   4
ENDBRANCH   2   3
ENDBRANCH   1   2
BRANCH   1  30
ATOM     30  C   UNL A   1      33.518  35.752  30.974  1.00  0.00     0.188 C 
BRANCH  30  31
ATOM     31  O   UNL A   1      33.296  34.638  31.837  1.00  0.00    -0.376 OA
BRANCH  31  32
ATOM     32  C   UNL A   1      34.302  34.209  32.739  1.00  0.00     0.202 C 
BRANCH  32  33
ATOM     33  C   UNL A   1      35.710  34.088  32.158  1.00  0.00     0.261 C 
BRANCH  33  34
ATOM     34  O   UNL A   1      35.826  33.082  31.168  1.00  0.00    -0.460 OA
BRANCH  34  35
ATOM     35  C   UNL A   1      36.366  31.928  31.602  1.00  0.00     0.338 C 
ATOM     36  O   UNL A   1      36.147  31.353  32.652  1.00  0.00    -0.246 OA
BRANCH  35  37
ATOM     37  C   UNL A   1      37.345  31.468  30.620  1.00  0.00     0.060 A 
ATOM     38  C   UNL A   1      37.163  30.164  30.162  1.00  0.00     0.016 A 
ATOM     39  C   UNL A   1      38.549  32.172  30.474  1.00  0.00     0.016 A 
ATOM     40  C   UNL A   1      38.287  29.452  29.841  1.00  0.00     0.010 A 
ATOM     41  C   UNL A   1      39.673  31.457  30.157  1.00  0.00     0.010 A 
ATOM     42  C   UNL A   1      39.527  30.087  29.971  1.00  0.00    -0.014 A 
BRANCH  42  43
ATOM     43  C   UNL A   1      40.678  29.226  30.017  1.00  0.00     0.031 A 
ATOM     44  C   UNL A   1      41.160  28.926  31.369  1.00  0.00     0.074 A 
ATOM     45  C   UNL A   1      41.231  28.732  28.895  1.00  0.00     0.049 A 
ATOM     46  N   UNL A   1      42.273  29.301  31.902  1.00  0.00    -0.248 NA
ATOM     47  C   UNL A   1      40.230  28.245  32.276  1.00  0.00     0.031 C 
ATOM     48  C   UNL A   1      40.671  28.718  27.541  1.00  0.00     0.029 A 
ATOM     49  N   UNL A   1      42.363  27.991  28.779  1.00  0.00    -0.354 N 
ATOM     50  C   UNL A   1      42.281  28.707  33.154  1.00  0.00     0.074 A 
ATOM     51  C   UNL A   1      40.945  28.222  33.399  1.00  0.00     0.031 C 
ATOM     52  C   UNL A   1      41.323  27.782  26.816  1.00  0.00     0.029 A 
ATOM     53  C   UNL A   1      42.405  27.237  27.618  1.00  0.00     0.049 A 
ATOM     54  H   UNL A   1      43.082  27.991  29.452  1.00  0.00     0.167 HD
ATOM     55  C   UNL A   1      43.440  28.432  33.804  1.00  0.00     0.034 A 
ATOM     56  C   UNL A   1      43.200  26.163  27.407  1.00  0.00     0.034 A 
ATOM     57  C   UNL A   1      44.564  29.149  33.270  1.00  0.00     0.049 A 
ATOM     58  C   UNL A   1      44.322  26.237  28.377  1.00  0.00     0.074 A 
ATOM     59  C   UNL A   1      44.853  30.485  33.068  1.00  0.00     0.029 A 
ATOM     60  N   UNL A   1      45.464  28.448  32.504  1.00  0.00    -0.354 N 
ATOM     61  N   UNL A   1      45.262  27.142  28.340  1.00  0.00    -0.248 NA
ATOM     62  C   UNL A   1      44.184  25.539  29.646  1.00  0.00     0.031 C 
ATOM     63  C   UNL A   1      45.592  30.524  31.850  1.00  0.00     0.029 A 
ATOM     64  C   UNL A   1      45.727  29.211  31.395  1.00  0.00     0.049 A 
ATOM     65  H   UNL A   1      45.848  27.565  32.712  1.00  0.00     0.167 HD
ATOM     66  C   UNL A   1      45.530  27.429  29.674  1.00  0.00     0.074 A 
ATOM     67  C   UNL A   1      44.931  26.328  30.423  1.00  0.00     0.031 C 
ATOM     68  C   UNL A   1      45.951  28.670  30.069  1.00  0.00     0.034 A 
BRANCH  55  69
ATOM     69  C   UNL A   1      43.584  27.265  34.731  1.00  0.00     0.023 A 
ATOM     70  C   UNL A   1      43.607  27.510  36.115  1.00  0.00     0.012 A 
ATOM     71  C   UNL A   1      43.906  25.961  34.290  1.00  0.00     0.148 A 
ATOM     72  C   UNL A   1      43.924  26.493  37.021  1.00  0.00     0.002 A 
ATOM     73  C   UNL A   1      44.116  24.934  35.196  1.00  0.00     0.091 A 
ATOM     74  F   UNL A   1      44.139  25.731  32.992  1.00  0.00    -0.205 F 
ATOM     75  C   UNL A   1      44.152  25.198  36.565  1.00  0.00     0.022 A 
BRANCH  73  76
ATOM     76  S   UNL A   1      44.290  23.243  34.623  1.00  0.00     0.127 S 
ATOM     77  O   UNL A   1      43.010  23.019  33.960  1.00  0.00    -0.237 OA
ATOM     78  O   UNL A   1      45.445  23.337  33.728  1.00  0.00    -0.237 OA
ATOM     79  O   UNL A   1      44.544  22.472  35.835  1.00  0.00    -0.744 OA
ENDBRANCH  73  76
ENDBRANCH  55  69
BRANCH  56  80
ATOM     80  C   UNL A   1      42.912  24.954  26.602  1.00  0.00     0.023 A 
ATOM     81  C   UNL A   1      43.757  24.624  25.526  1.00  0.00     0.012 A 
ATOM     82  C   UNL A   1      41.959  23.995  27.018  1.00  0.00     0.148 A 
ATOM     83  C   UNL A   1      43.666  23.377  24.895  1.00  0.00     0.002 A 
ATOM     84  C   UNL A   1      41.853  22.769  26.370  1.00  0.00     0.091 A 
ATOM     85  F   UNL A   1      41.220  24.238  28.108  1.00  0.00    -0.205 F 
ATOM     86  C   UNL A   1      42.714  22.450  25.315  1.00  0.00     0.022 A 
BRANCH  84  87
ATOM     87  S   UNL A   1      40.629  21.545  26.860  1.00  0.00     0.127 S 
ATOM     88  O   UNL A   1      39.370  22.234  26.569  1.00  0.00    -0.237 OA
ATOM     89  O   UNL A   1      40.938  20.431  25.970  1.00  0.00    -0.237 OA
ATOM     90  O   UNL A   1      40.861  21.315  28.281  1.00  0.00    -0.744 OA
ENDBRANCH  84  87
ENDBRANCH  56  80
BRANCH  68  91
ATOM     91  C   UNL A   1      46.359  29.668  29.007  1.00  0.00     0.023 A 
ATOM     92  C   UNL A   1      47.660  29.670  28.460  1.00  0.00     0.012 A 
ATOM     93  C   UNL A   1      45.377  30.478  28.408  1.00  0.00     0.148 A 
ATOM     94  C   UNL A   1      47.982  30.477  27.366  1.00  0.00     0.002 A 
ATOM     95  C   UNL A   1      45.689  31.244  27.287  1.00  0.00     0.091 A 
ATOM     96  F   UNL A   1      44.138  30.466  28.925  1.00  0.00    -0.205 F 
ATOM     97  C   UNL A   1      46.993  31.254  26.771  1.00  0.00     0.022 A 
BRANCH  95  98
ATOM     98  S   UNL A   1      44.425  32.151  26.388  1.00  0.00     0.127 S 
ATOM     99  O   UNL A   1      43.960  33.107  27.391  1.00  0.00    -0.237 OA
ATOM    100  O   UNL A   1      45.180  32.743  25.283  1.00  0.00    -0.237 OA
ATOM    101  O   UNL A   1      43.449  31.153  25.966  1.00  0.00    -0.744 OA
ENDBRANCH  95  98
ENDBRANCH  68  91
ENDBRANCH  42  43
ENDBRANCH  35  37
ENDBRANCH  34  35
ENDBRANCH  33  34
ENDBRANCH  32  33
ENDBRANCH  31  32
ENDBRANCH  30  31
ENDBRANCH   1  30
TORSDOF 25
ENDMDL
MODEL 2
REMARK VINA RESULT:     -10.6      2.001      3.560
REMARK SMILES Cc1cnn(C2(C(=O)OCCOCCOCCOCCOC(=O)c3ccc(-c4c5nc(c(-c6cccc(S(=O)(=O)[O-])c6F)c6ccc([nH]6)c(-c6cccc(S(=O)(=O)[O-])c6F)c6nc(c(-c7cccc(S(=O)(=O)[O-])c7F)c7ccc4[nH]7)C=C6)C=C5)cc3)CCN(C(=O)c3cscn3)CC2)c1
REMARK SMILES IDX 16 1 15 2 14 3 13 4 12 5 11 6 10 7 9 8 7 9 8 10 6 11 87 12
REMARK SMILES IDX 98 13 88 14 97 15 89 16 90 17 91 18 5 19 1 20 2 21 3 22
REMARK SMILES IDX 99 23 4 24 92 25 93 26 96 27 94 28 95 29 17 30 18 31 19 32
REMARK SMILES IDX 20 33 21 34 22 35 23 36 24 37 25 38 86 39 26 40 85 41 27 42
REMARK SMILES IDX 28 43 29 44 79 45 30 46 84 47 78 48 80 49 31 50 83 51 77 52
REMARK SMILES IDX 76 53 32 55 64 56 44 57 63 58 45 59 48 60 62 61 81 62 46 63
REMARK SMILES IDX 47 64 61 66 82 67 49 68 33 69 34 70 42 71 35 72 37 73 43 74
REMARK SMILES IDX 36 75 38 76 39 77 40 78 41 79 65 80 66 81 74 82 67 83 69 84
REMARK SMILES IDX 75 85 68 86 70 87 71 88 72 89 73 90 50 91 51 92 59 93 52 94
REMARK SMILES IDX 54 95 60 96 53 97 55 98 56 99 57 100 58 101
REMARK H PARENT 80 54 48 65
REMARK Flexibility Score: inf
ROOT
ATOM      1  C   UNL A   1      33.091  35.734  29.505  1.00  0.00     0.188 C 
ENDROOT
BRANCH   1   2
ATOM      2  O   UNL A   1      33.245  34.386  29.073  1.00  0.00    -0.377 OA
BRANCH   2   3
ATOM      3  C   UNL A   1      33.991  34.160  27.889  1.00  0.00     0.188 C 
BRANCH   3   4
ATOM      4  C   UNL A   1      35.149  33.167  28.072  1.00  0.00     0.188 C 
BRANCH   4   5
ATOM      5  O   UNL A   1      34.698  31.893  28.518  1.00  0.00    -0.376 OA
BRANCH   5   6
ATOM      6  C   UNL A   1      34.608  30.864  27.548  1.00  0.00     0.202 C 
BRANCH   6   7
ATOM      7  C   UNL A   1      33.269  30.560  26.847  1.00  0.00     0.261 C 
BRANCH   7   8
ATOM      8  O   UNL A   1      33.258  29.592  25.782  1.00  0.00    -0.461 OA
BRANCH   8   9
ATOM      9  C   UNL A   1      32.840  28.342  26.077  1.00  0.00     0.334 C 
ATOM     10  O   UNL A   1      33.221  27.731  27.074  1.00  0.00    -0.249 OA
BRANCH   9  11
ATOM     11  C   UNL A   1      32.020  27.692  24.938  1.00  0.00     0.163 C 
ATOM     12  C   UNL A   1      30.507  27.413  25.152  1.00  0.00     0.064 C 
ATOM     13  C   UNL A   1      32.174  28.811  23.866  1.00  0.00     0.064 C 
ATOM     14  C   UNL A   1      29.810  27.148  23.815  1.00  0.00     0.123 C 
ATOM     15  C   UNL A   1      31.239  28.767  22.670  1.00  0.00     0.123 C 
ATOM     16  N   UNL A   1      29.894  28.353  23.016  1.00  0.00    -0.337 N 
ATOM     17  C   UNL A   1      28.684  28.957  22.656  1.00  0.00     0.273 C 
ATOM     18  O   UNL A   1      27.660  28.286  22.532  1.00  0.00    -0.267 OA
BRANCH  11  19
ATOM     19  N   UNL A   1      32.646  26.381  24.719  1.00  0.00    -0.255 N 
ATOM     20  C   UNL A   1      34.594  23.679  23.201  1.00  0.00     0.048 C 
ATOM     21  C   UNL A   1      33.711  24.617  23.925  1.00  0.00    -0.013 A 
ATOM     22  C   UNL A   1      32.675  24.253  24.804  1.00  0.00     0.138 A 
ATOM     23  C   UNL A   1      33.669  26.001  23.894  1.00  0.00     0.113 A 
ATOM     24  N   UNL A   1      32.022  25.309  25.272  1.00  0.00    -0.180 NA
ENDBRANCH  11  19
BRANCH  17  25
ATOM     25  C   UNL A   1      28.613  30.421  22.591  1.00  0.00     0.139 A 
ATOM     26  C   UNL A   1      28.841  31.323  23.613  1.00  0.00     0.100 A 
ATOM     27  N   UNL A   1      28.375  31.025  21.352  1.00  0.00    -0.240 NA
ATOM     28  S   UNL A   1      28.727  32.937  23.029  1.00  0.00    -0.130 S 
ATOM     29  C   UNL A   1      28.439  32.331  21.453  1.00  0.00     0.176 A 
ENDBRANCH  17  25
ENDBRANCH   9  11
ENDBRANCH   8   9
ENDBRANCH   7   8
ENDBRANCH   6   7
ENDBRANCH   5   6
ENDBRANCH   4   5
ENDBRANCH   3   4
ENDBRANCH   2   3
ENDBRANCH   1   2
BRANCH   1  30
ATOM     30  C   UNL A   1      32.684  36.084  30.962  1.00  0.00     0.188 C 
BRANCH  30  31
ATOM     31  O   UNL A   1      32.909  35.071  31.942  1.00  0.00    -0.376 OA
BRANCH  31  32
ATOM     32  C   UNL A   1      34.215  34.579  32.187  1.00  0.00     0.202 C 
BRANCH  32  33
ATOM     33  C   UNL A   1      34.362  33.058  32.205  1.00  0.00     0.261 C 
BRANCH  33  34
ATOM     34  O   UNL A   1      35.386  32.582  31.349  1.00  0.00    -0.460 OA
BRANCH  34  35
ATOM     35  C   UNL A   1      36.191  31.655  31.901  1.00  0.00     0.338 C 
ATOM     36  O   UNL A   1      36.307  31.378  33.081  1.00  0.00    -0.246 OA
BRANCH  35  37
ATOM     37  C   UNL A   1      36.992  31.039  30.845  1.00  0.00     0.060 A 
ATOM     38  C   UNL A   1      36.879  29.654  30.742  1.00  0.00     0.016 A 
ATOM     39  C   UNL A   1      38.044  31.768  30.272  1.00  0.00     0.016 A 
ATOM     40  C   UNL A   1      37.989  28.965  30.335  1.00  0.00     0.010 A 
ATOM     41  C   UNL A   1      39.155  31.078  29.869  1.00  0.00     0.010 A 
ATOM     42  C   UNL A   1      39.142  29.697  30.030  1.00  0.00    -0.014 A 
BRANCH  42  43
ATOM     43  C   UNL A   1      40.373  28.954  29.996  1.00  0.00     0.031 A 
ATOM     44  C   UNL A   1      40.991  28.741  31.310  1.00  0.00     0.074 A 
ATOM     45  C   UNL A   1      40.881  28.486  28.843  1.00  0.00     0.049 A 
ATOM     46  N   UNL A   1      42.100  29.238  31.741  1.00  0.00    -0.248 NA
ATOM     47  C   UNL A   1      40.210  27.997  32.304  1.00  0.00     0.031 C 
ATOM     48  C   UNL A   1      40.217  28.380  27.540  1.00  0.00     0.029 A 
ATOM     49  N   UNL A   1      42.067  27.858  28.648  1.00  0.00    -0.354 N 
ATOM     50  C   UNL A   1      42.268  28.682  33.000  1.00  0.00     0.074 A 
ATOM     51  C   UNL A   1      41.011  28.076  33.364  1.00  0.00     0.031 C 
ATOM     52  C   UNL A   1      40.899  27.493  26.782  1.00  0.00     0.029 A 
ATOM     53  C   UNL A   1      42.091  27.079  27.502  1.00  0.00     0.049 A 
ATOM     54  H   UNL A   1      42.835  27.946  29.259  1.00  0.00     0.167 HD
ATOM     55  C   UNL A   1      43.498  28.541  33.556  1.00  0.00     0.034 A 
ATOM     56  C   UNL A   1      42.970  26.083  27.247  1.00  0.00     0.034 A 
ATOM     57  C   UNL A   1      44.497  29.349  32.917  1.00  0.00     0.049 A 
ATOM     58  C   UNL A   1      44.154  26.294  28.118  1.00  0.00     0.074 A 
ATOM     59  C   UNL A   1      44.634  30.701  32.666  1.00  0.00     0.029 A 
ATOM     60  N   UNL A   1      45.398  28.720  32.093  1.00  0.00    -0.354 N 
ATOM     61  N   UNL A   1      44.992  27.285  27.986  1.00  0.00    -0.248 NA
ATOM     62  C   UNL A   1      44.189  25.620  29.408  1.00  0.00     0.031 C 
ATOM     63  C   UNL A   1      45.264  30.779  31.390  1.00  0.00     0.029 A 
ATOM     64  C   UNL A   1      45.493  29.473  30.951  1.00  0.00     0.049 A 
ATOM     65  H   UNL A   1      45.883  27.885  32.285  1.00  0.00     0.167 HD
ATOM     66  C   UNL A   1      45.337  27.633  29.287  1.00  0.00     0.074 A 
ATOM     67  C   UNL A   1      44.914  26.501  30.105  1.00  0.00     0.031 C 
ATOM     68  C   UNL A   1      45.662  28.921  29.622  1.00  0.00     0.034 A 
BRANCH  55  69
ATOM     69  C   UNL A   1      43.832  27.420  34.491  1.00  0.00     0.023 A 
ATOM     70  C   UNL A   1      44.250  27.738  35.795  1.00  0.00     0.012 A 
ATOM     71  C   UNL A   1      43.951  26.074  34.074  1.00  0.00     0.148 A 
ATOM     72  C   UNL A   1      44.752  26.753  36.651  1.00  0.00     0.002 A 
ATOM     73  C   UNL A   1      44.350  25.087  34.960  1.00  0.00     0.091 A 
ATOM     74  F   UNL A   1      43.803  25.757  32.781  1.00  0.00    -0.205 F 
ATOM     75  C   UNL A   1      44.777  25.422  36.244  1.00  0.00     0.022 A 
BRANCH  73  76
ATOM     76  S   UNL A   1      44.271  23.358  34.485  1.00  0.00     0.127 S 
ATOM     77  O   UNL A   1      44.638  22.690  35.728  1.00  0.00    -0.237 OA
ATOM     78  O   UNL A   1      42.869  23.209  34.090  1.00  0.00    -0.237 OA
ATOM     79  O   UNL A   1      45.211  23.242  33.376  1.00  0.00    -0.744 OA
ENDBRANCH  73  76
ENDBRANCH  55  69
BRANCH  56  80
ATOM     80  C   UNL A   1      42.741  24.830  26.492  1.00  0.00     0.023 A 
ATOM     81  C   UNL A   1      43.628  24.473  25.460  1.00  0.00     0.012 A 
ATOM     82  C   UNL A   1      41.801  23.865  26.924  1.00  0.00     0.148 A 
ATOM     83  C   UNL A   1      43.591  23.196  24.887  1.00  0.00     0.002 A 
ATOM     84  C   UNL A   1      41.748  22.607  26.332  1.00  0.00     0.091 A 
ATOM     85  F   UNL A   1      41.020  24.138  27.978  1.00  0.00    -0.205 F 
ATOM     86  C   UNL A   1      42.651  22.264  25.321  1.00  0.00     0.022 A 
BRANCH  84  87
ATOM     87  S   UNL A   1      40.542  21.374  26.842  1.00  0.00     0.127 S 
ATOM     88  O   UNL A   1      40.731  21.339  28.294  1.00  0.00    -0.237 OA
ATOM     89  O   UNL A   1      39.287  21.974  26.402  1.00  0.00    -0.237 OA
ATOM     90  O   UNL A   1      40.938  20.143  26.167  1.00  0.00    -0.744 OA
ENDBRANCH  84  87
ENDBRANCH  56  80
BRANCH  68  91
ATOM     91  C   UNL A   1      45.882  29.924  28.511  1.00  0.00     0.023 A 
ATOM     92  C   UNL A   1      44.803  30.610  27.913  1.00  0.00     0.012 A 
ATOM     93  C   UNL A   1      47.192  30.334  28.201  1.00  0.00     0.148 A 
ATOM     94  C   UNL A   1      45.021  31.654  27.011  1.00  0.00     0.002 A 
ATOM     95  C   UNL A   1      47.406  31.406  27.338  1.00  0.00     0.091 A 
ATOM     96  F   UNL A   1      48.216  29.685  28.778  1.00  0.00    -0.205 F 
ATOM     97  C   UNL A   1      46.323  32.061  26.733  1.00  0.00     0.022 A 
BRANCH  95  98
ATOM     98  S   UNL A   1      49.050  32.072  27.057  1.00  0.00     0.127 S 
ATOM     99  O   UNL A   1      49.750  30.929  26.473  1.00  0.00    -0.237 OA
ATOM    100  O   UNL A   1      48.796  33.173  26.126  1.00  0.00    -0.237 OA
ATOM    101  O   UNL A   1      49.530  32.505  28.365  1.00  0.00    -0.744 OA
ENDBRANCH  95  98
ENDBRANCH  68  91
ENDBRANCH  42  43
ENDBRANCH  35  37
ENDBRANCH  34  35
ENDBRANCH  33  34
ENDBRANCH  32  33
ENDBRANCH  31  32
ENDBRANCH  30  31
ENDBRANCH   1  30
TORSDOF 25
ENDMDL
MODEL 3
REMARK VINA RESULT:     -10.6      3.299      4.689
REMARK SMILES Cc1cnn(C2(C(=O)OCCOCCOCCOCCOC(=O)c3ccc(-c4c5nc(c(-c6cccc(S(=O)(=O)[O-])c6F)c6ccc([nH]6)c(-c6cccc(S(=O)(=O)[O-])c6F)c6nc(c(-c7cccc(S(=O)(=O)[O-])c7F)c7ccc4[nH]7)C=C6)C=C5)cc3)CCN(C(=O)c3cscn3)CC2)c1
REMARK SMILES IDX 16 1 15 2 14 3 13 4 12 5 11 6 10 7 9 8 7 9 8 10 6 11 87 12
REMARK SMILES IDX 98 13 88 14 97 15 89 16 90 17 91 18 5 19 1 20 2 21 3 22
REMARK SMILES IDX 99 23 4 24 92 25 93 26 96 27 94 28 95 29 17 30 18 31 19 32
REMARK SMILES IDX 20 33 21 34 22 35 23 36 24 37 25 38 86 39 26 40 85 41 27 42
REMARK SMILES IDX 28 43 29 44 79 45 30 46 84 47 78 48 80 49 31 50 83 51 77 52
REMARK SMILES IDX 76 53 32 55 64 56 44 57 63 58 45 59 48 60 62 61 81 62 46 63
REMARK SMILES IDX 47 64 61 66 82 67 49 68 33 69 34 70 42 71 35 72 37 73 43 74
REMARK SMILES IDX 36 75 38 76 39 77 40 78 41 79 65 80 66 81 74 82 67 83 69 84
REMARK SMILES IDX 75 85 68 86 70 87 71 88 72 89 73 90 50 91 51 92 59 93 52 94
REMARK SMILES IDX 54 95 60 96 53 97 55 98 56 99 57 100 58 101
REMARK H PARENT 80 54 48 65
REMARK Flexibility Score: inf
ROOT
ATOM      1  C   UNL A   1      35.553  33.969  28.502  1.00  0.00     0.188 C 
ENDROOT
BRANCH   1   2
ATOM      2  O   UNL A   1      35.699  32.890  27.584  1.00  0.00    -0.377 OA
BRANCH   2   3
ATOM      3  C   UNL A   1      35.018  31.682  27.881  1.00  0.00     0.188 C 
BRANCH   3   4
ATOM      4  C   UNL A   1      33.525  31.714  27.517  1.00  0.00     0.188 C 
BRANCH   4   5
ATOM      5  O   UNL A   1      32.923  30.428  27.611  1.00  0.00    -0.376 OA
BRANCH   5   6
ATOM      6  C   UNL A   1      33.741  29.309  27.317  1.00  0.00     0.202 C 
BRANCH   6   7
ATOM      7  C   UNL A   1      33.169  28.094  26.560  1.00  0.00     0.261 C 
BRANCH   7   8
ATOM      8  O   UNL A   1      31.884  28.228  25.924  1.00  0.00    -0.461 OA
BRANCH   8   9
ATOM      9  C   UNL A   1      31.146  27.108  25.767  1.00  0.00     0.334 C 
ATOM     10  O   UNL A   1      30.673  26.483  26.716  1.00  0.00    -0.249 OA
BRANCH   9  11
ATOM     11  C   UNL A   1      31.144  26.581  24.313  1.00  0.00     0.163 C 
ATOM     12  C   UNL A   1      32.488  26.475  23.540  1.00  0.00     0.064 C 
ATOM     13  C   UNL A   1      30.609  25.144  24.580  1.00  0.00     0.064 C 
ATOM     14  C   UNL A   1      32.334  25.587  22.303  1.00  0.00     0.123 C 
ATOM     15  C   UNL A   1      30.760  24.123  23.466  1.00  0.00     0.123 C 
ATOM     16  N   UNL A   1      32.012  24.247  22.749  1.00  0.00    -0.337 N 
ATOM     17  C   UNL A   1      32.924  23.237  22.419  1.00  0.00     0.273 C 
ATOM     18  O   UNL A   1      33.624  23.327  21.412  1.00  0.00    -0.267 OA
BRANCH  11  19
ATOM     19  N   UNL A   1      30.320  27.539  23.562  1.00  0.00    -0.255 N 
ATOM     20  C   UNL A   1      29.160  30.644  22.009  1.00  0.00     0.048 C 
ATOM     21  C   UNL A   1      29.427  29.325  22.620  1.00  0.00    -0.013 A 
ATOM     22  C   UNL A   1      28.456  28.356  22.935  1.00  0.00     0.138 A 
ATOM     23  C   UNL A   1      30.623  28.764  23.035  1.00  0.00     0.113 A 
ATOM     24  N   UNL A   1      28.986  27.288  23.516  1.00  0.00    -0.180 NA
ENDBRANCH  11  19
BRANCH  17  25
ATOM     25  C   UNL A   1      33.155  22.149  23.376  1.00  0.00     0.139 A 
ATOM     26  C   UNL A   1      33.910  22.189  24.533  1.00  0.00     0.100 A 
ATOM     27  N   UNL A   1      32.484  20.937  23.186  1.00  0.00    -0.240 NA
ATOM     28  S   UNL A   1      33.807  20.691  25.372  1.00  0.00    -0.130 S 
ATOM     29  C   UNL A   1      32.725  20.112  24.177  1.00  0.00     0.176 A 
ENDBRANCH  17  25
ENDBRANCH   9  11
ENDBRANCH   8   9
ENDBRANCH   7   8
ENDBRANCH   6   7
ENDBRANCH   5   6
ENDBRANCH   4   5
ENDBRANCH   3   4
ENDBRANCH   2   3
ENDBRANCH   1   2
BRANCH   1  30
ATOM     30  C   UNL A   1      34.437  35.036  28.339  1.00  0.00     0.188 C 
BRANCH  30  31
ATOM     31  O   UNL A   1      33.388  35.004  29.306  1.00  0.00    -0.376 OA
BRANCH  31  32
ATOM     32  C   UNL A   1      32.887  36.204  29.870  1.00  0.00     0.202 C 
BRANCH  32  33
ATOM     33  C   UNL A   1      32.227  36.070  31.242  1.00  0.00     0.261 C 
BRANCH  33  34
ATOM     34  O   UNL A   1      32.794  35.047  32.041  1.00  0.00    -0.460 OA
BRANCH  34  35
ATOM     35  C   UNL A   1      33.824  35.443  32.812  1.00  0.00     0.338 C 
ATOM     36  O   UNL A   1      34.107  36.578  33.149  1.00  0.00    -0.246 OA
BRANCH  35  37
ATOM     37  C   UNL A   1      34.631  34.274  33.154  1.00  0.00     0.060 A 
ATOM     38  C   UNL A   1      35.575  34.476  34.159  1.00  0.00     0.016 A 
ATOM     39  C   UNL A   1      34.674  33.189  32.266  1.00  0.00     0.016 A 
ATOM     40  C   UNL A   1      36.741  33.764  34.072  1.00  0.00     0.010 A 
ATOM     41  C   UNL A   1      35.843  32.482  32.178  1.00  0.00     0.010 A 
ATOM     42  C   UNL A   1      36.891  32.875  33.003  1.00  0.00    -0.014 A 
BRANCH  42  43
ATOM     43  C   UNL A   1      38.235  32.453  32.712  1.00  0.00     0.031 A 
ATOM     44  C   UNL A   1      39.143  32.481  33.864  1.00  0.00     0.074 A 
ATOM     45  C   UNL A   1      38.595  32.050  31.481  1.00  0.00     0.049 A 
ATOM     46  N   UNL A   1      40.156  33.258  34.041  1.00  0.00    -0.248 NA
ATOM     47  C   UNL A   1      38.795  31.634  35.011  1.00  0.00     0.031 C 
ATOM     48  C   UNL A   1      37.726  31.703  30.353  1.00  0.00     0.029 A 
ATOM     49  N   UNL A   1      39.835  31.717  31.042  1.00  0.00    -0.354 N 
ATOM     50  C   UNL A   1      40.713  32.841  35.240  1.00  0.00     0.074 A 
ATOM     51  C   UNL A   1      39.751  31.973  35.873  1.00  0.00     0.031 C 
ATOM     52  C   UNL A   1      38.438  30.961  29.476  1.00  0.00     0.029 A 
ATOM     53  C   UNL A   1      39.818  30.897  29.926  1.00  0.00     0.049 A 
ATOM     54  H   UNL A   1      40.665  32.028  31.473  1.00  0.00     0.167 HD
ATOM     55  C   UNL A   1      42.026  33.039  35.521  1.00  0.00     0.034 A 
ATOM     56  C   UNL A   1      40.847  30.129  29.498  1.00  0.00     0.034 A 
ATOM     57  C   UNL A   1      42.638  34.023  34.673  1.00  0.00     0.049 A 
ATOM     58  C   UNL A   1      42.093  30.676  30.093  1.00  0.00     0.074 A 
ATOM     59  C   UNL A   1      42.376  35.349  34.384  1.00  0.00     0.029 A 
ATOM     60  N   UNL A   1      43.478  33.580  33.681  1.00  0.00    -0.354 N 
ATOM     61  N   UNL A   1      42.609  31.831  29.773  1.00  0.00    -0.248 NA
ATOM     62  C   UNL A   1      42.560  30.115  31.352  1.00  0.00     0.031 C 
ATOM     63  C   UNL A   1      42.690  35.496  33.002  1.00  0.00     0.029 A 
ATOM     64  C   UNL A   1      43.144  34.260  32.538  1.00  0.00     0.049 A 
ATOM     65  H   UNL A   1      44.186  32.902  33.774  1.00  0.00     0.167 HD
ATOM     66  C   UNL A   1      43.116  32.335  30.966  1.00  0.00     0.074 A 
ATOM     67  C   UNL A   1      43.168  31.188  31.867  1.00  0.00     0.031 C 
ATOM     68  C   UNL A   1      43.169  33.681  31.209  1.00  0.00     0.034 A 
BRANCH  55  69
ATOM     69  C   UNL A   1      42.816  32.094  36.373  1.00  0.00     0.023 A 
ATOM     70  C   UNL A   1      43.638  32.630  37.380  1.00  0.00     0.012 A 
ATOM     71  C   UNL A   1      42.942  30.715  36.088  1.00  0.00     0.148 A 
ATOM     72  C   UNL A   1      44.537  31.821  38.082  1.00  0.00     0.002 A 
ATOM     73  C   UNL A   1      43.756  29.900  36.857  1.00  0.00     0.091 A 
ATOM     74  F   UNL A   1      42.373  30.203  34.989  1.00  0.00    -0.205 F 
ATOM     75  C   UNL A   1      44.578  30.451  37.841  1.00  0.00     0.022 A 
BRANCH  73  76
ATOM     76  S   UNL A   1      43.726  28.120  36.635  1.00  0.00     0.127 S 
ATOM     77  O   UNL A   1      44.442  27.659  37.818  1.00  0.00    -0.237 OA
ATOM     78  O   UNL A   1      42.290  27.834  36.626  1.00  0.00    -0.237 OA
ATOM     79  O   UNL A   1      44.378  27.903  35.348  1.00  0.00    -0.744 OA
ENDBRANCH  73  76
ENDBRANCH  55  69
BRANCH  56  80
ATOM     80  C   UNL A   1      40.789  28.812  28.824  1.00  0.00     0.023 A 
ATOM     81  C   UNL A   1      39.758  27.913  29.152  1.00  0.00     0.012 A 
ATOM     82  C   UNL A   1      41.594  28.519  27.698  1.00  0.00     0.148 A 
ATOM     83  C   UNL A   1      39.525  26.770  28.379  1.00  0.00     0.002 A 
ATOM     84  C   UNL A   1      41.377  27.367  26.948  1.00  0.00     0.091 A 
ATOM     85  F   UNL A   1      42.508  29.412  27.297  1.00  0.00    -0.205 F 
ATOM     86  C   UNL A   1      40.335  26.495  27.278  1.00  0.00     0.022 A 
BRANCH  84  87
ATOM     87  S   UNL A   1      42.405  26.957  25.531  1.00  0.00     0.127 S 
ATOM     88  O   UNL A   1      41.737  25.768  24.998  1.00  0.00    -0.237 OA
ATOM     89  O   UNL A   1      42.278  28.153  24.705  1.00  0.00    -0.237 OA
ATOM     90  O   UNL A   1      43.731  26.693  26.079  1.00  0.00    -0.744 OA
ENDBRANCH  84  87
ENDBRANCH  56  80
BRANCH  68  91
ATOM     91  C   UNL A   1      42.896  34.635  30.067  1.00  0.00     0.023 A 
ATOM     92  C   UNL A   1      41.583  34.890  29.616  1.00  0.00     0.012 A 
ATOM     93  C   UNL A   1      43.943  35.436  29.573  1.00  0.00     0.148 A 
ATOM     94  C   UNL A   1      41.323  35.894  28.680  1.00  0.00     0.002 A 
ATOM     95  C   UNL A   1      43.674  36.468  28.677  1.00  0.00     0.091 A 
ATOM     96  F   UNL A   1      45.190  35.198  30.011  1.00  0.00    -0.205 F 
ATOM     97  C   UNL A   1      42.367  36.692  28.220  1.00  0.00     0.022 A 
BRANCH  95  98
ATOM     98  S   UNL A   1      44.950  37.622  28.162  1.00  0.00     0.127 S 
ATOM     99  O   UNL A   1      45.853  36.763  27.399  1.00  0.00    -0.237 OA
ATOM    100  O   UNL A   1      44.202  38.589  27.356  1.00  0.00    -0.237 OA
ATOM    101  O   UNL A   1      45.497  38.180  29.393  1.00  0.00    -0.744 OA
ENDBRANCH  95  98
ENDBRANCH  68  91
ENDBRANCH  42  43
ENDBRANCH  35  37
ENDBRANCH  34  35
ENDBRANCH  33  34
ENDBRANCH  32  33
ENDBRANCH  31  32
ENDBRANCH  30  31
ENDBRANCH   1  30
TORSDOF 25
ENDMDL
