MODEL 1
REMARK VINA RESULT:      -7.3      0.000      0.000
REMARK SMILES O=Cc1c(OCc2ccc(C(=O)OCCOCCOCCOCCOC(=O)c3ccc(-c4c5nc(c(-c6cccc(S(=O)(=O)[O-])c6F)c6ccc([nH]6)c(-c6cccc(S(=O)(=O)[O-])c6F)c6nc(c(-c7cccc(S(=O)(=O)[O-])c7F)c7ccc4[nH]7)C=C6)C=C5)cc3)cc2)ccc2ccccc12
REMARK SMILES IDX 18 1 17 2 16 3 15 4 14 5 13 6 11 7 12 8 10 9 7 10 8 11 92 12
REMARK SMILES IDX 9 13 91 14 6 15 5 16 4 17 3 18 100 19 93 20 95 21 99 22
REMARK SMILES IDX 94 23 96 24 98 25 97 26 2 27 1 28 19 29 20 30 21 31 22 32
REMARK SMILES IDX 23 33 24 34 25 35 26 36 27 37 28 38 29 39 90 40 30 41 89 42
REMARK SMILES IDX 31 43 32 44 33 45 83 46 34 47 88 48 82 49 84 50 35 51 87 52
REMARK SMILES IDX 81 53 80 54 36 56 68 57 48 58 67 59 49 60 52 61 66 62 85 63
REMARK SMILES IDX 50 64 51 65 65 67 86 68 53 69 37 70 38 71 46 72 39 73 41 74
REMARK SMILES IDX 47 75 40 76 42 77 43 78 44 79 45 80 69 81 70 82 78 83 71 84
REMARK SMILES IDX 73 85 79 86 72 87 74 88 75 89 76 90 77 91 54 92 55 93 63 94
REMARK SMILES IDX 56 95 58 96 64 97 57 98 59 99 60 100 61 101 62 102
REMARK H PARENT 84 55 52 66
REMARK Flexibility Score: inf
ROOT
ATOM      1  C   UNL A   1      51.171  27.670  24.941  1.00  0.00     0.188 C 
ENDROOT
BRANCH   1   2
ATOM      2  C   UNL A   1      50.173  27.552  23.768  1.00  0.00     0.188 C 
BRANCH   2   3
ATOM      3  O   UNL A   1      48.824  27.793  24.118  1.00  0.00    -0.376 OA
BRANCH   3   4
ATOM      4  C   UNL A   1      47.851  26.787  23.922  1.00  0.00     0.202 C 
BRANCH   4   5
ATOM      5  C   UNL A   1      47.597  25.778  25.046  1.00  0.00     0.261 C 
BRANCH   5   6
ATOM      6  O   UNL A   1      46.561  26.124  25.964  1.00  0.00    -0.460 OA
BRANCH   6   7
ATOM      7  C   UNL A   1      45.364  26.519  25.465  1.00  0.00     0.338 C 
ATOM      8  O   UNL A   1      45.116  27.547  24.879  1.00  0.00    -0.246 OA
BRANCH   7   9
ATOM      9  C   UNL A   1      44.448  25.357  25.597  1.00  0.00     0.060 A 
ATOM     10  C   UNL A   1      42.692  23.173  25.962  1.00  0.00    -0.011 A 
ATOM     11  C   UNL A   1      44.083  23.005  26.075  1.00  0.00     0.008 A 
ATOM     12  C   UNL A   1      42.214  24.467  25.714  1.00  0.00     0.008 A 
ATOM     13  C   UNL A   1      44.959  24.087  25.885  1.00  0.00     0.016 A 
ATOM     14  C   UNL A   1      43.073  25.545  25.527  1.00  0.00     0.016 A 
BRANCH  10  15
ATOM     15  C   UNL A   1      41.750  21.995  26.188  1.00  0.00     0.265 C 
BRANCH  15  16
ATOM     16  O   UNL A   1      40.492  22.307  26.808  1.00  0.00    -0.488 OA
BRANCH  16  17
ATOM     17  C   UNL A   1      39.334  22.174  26.088  1.00  0.00     0.130 A 
ATOM     18  C   UNL A   1      38.402  23.229  26.142  1.00  0.00     0.064 A 
ATOM     19  C   UNL A   1      37.062  23.059  25.688  1.00  0.00    -0.004 A 
ATOM     20  C   UNL A   1      38.990  21.007  25.408  1.00  0.00     0.048 A 
ATOM     21  C   UNL A   1      36.699  21.794  25.169  1.00  0.00    -0.017 A 
ATOM     22  C   UNL A   1      36.049  24.054  25.732  1.00  0.00     0.009 A 
ATOM     23  C   UNL A   1      37.674  20.805  24.992  1.00  0.00     0.012 A 
ATOM     24  C   UNL A   1      35.363  21.521  24.831  1.00  0.00     0.009 A 
ATOM     25  C   UNL A   1      34.729  23.776  25.365  1.00  0.00     0.001 A 
ATOM     26  C   UNL A   1      34.382  22.502  24.943  1.00  0.00     0.001 A 
BRANCH  18  27
ATOM     27  C   UNL A   1      38.801  24.515  26.765  1.00  0.00     0.264 C 
ATOM     28  O   UNL A   1      38.729  24.732  27.968  1.00  0.00    -0.298 OA
ENDBRANCH  18  27
ENDBRANCH  16  17
ENDBRANCH  15  16
ENDBRANCH  10  15
ENDBRANCH   7   9
ENDBRANCH   6   7
ENDBRANCH   5   6
ENDBRANCH   4   5
ENDBRANCH   3   4
ENDBRANCH   2   3
ENDBRANCH   1   2
BRANCH   1  29
ATOM     29  O   UNL A   1      51.238  26.644  25.920  1.00  0.00    -0.377 OA
BRANCH  29  30
ATOM     30  C   UNL A   1      51.975  26.837  27.123  1.00  0.00     0.188 C 
BRANCH  30  31
ATOM     31  C   UNL A   1      53.120  27.874  27.215  1.00  0.00     0.188 C 
BRANCH  31  32
ATOM     32  O   UNL A   1      52.689  29.213  27.388  1.00  0.00    -0.376 OA
BRANCH  32  33
ATOM     33  C   UNL A   1      53.414  30.028  28.288  1.00  0.00     0.202 C 
BRANCH  33  34
ATOM     34  C   UNL A   1      53.834  31.414  27.784  1.00  0.00     0.261 C 
BRANCH  34  35
ATOM     35  O   UNL A   1      52.993  32.005  26.784  1.00  0.00    -0.460 OA
BRANCH  35  36
ATOM     36  C   UNL A   1      52.304  33.115  27.133  1.00  0.00     0.338 C 
ATOM     37  O   UNL A   1      52.663  34.271  27.009  1.00  0.00    -0.246 OA
BRANCH  36  38
ATOM     38  C   UNL A   1      50.945  32.684  27.517  1.00  0.00     0.060 A 
ATOM     39  C   UNL A   1      50.054  32.258  26.522  1.00  0.00     0.016 A 
ATOM     40  C   UNL A   1      50.562  32.685  28.860  1.00  0.00     0.016 A 
ATOM     41  C   UNL A   1      48.760  31.868  26.867  1.00  0.00     0.010 A 
ATOM     42  C   UNL A   1      49.261  32.316  29.202  1.00  0.00     0.010 A 
ATOM     43  C   UNL A   1      48.344  31.943  28.202  1.00  0.00    -0.014 A 
BRANCH  43  44
ATOM     44  C   UNL A   1      46.903  31.844  28.531  1.00  0.00     0.031 A 
ATOM     45  C   UNL A   1      46.094  33.111  28.557  1.00  0.00     0.074 A 
ATOM     46  C   UNL A   1      46.325  30.663  28.808  1.00  0.00     0.049 A 
ATOM     47  N   UNL A   1      44.836  33.287  28.864  1.00  0.00    -0.248 NA
ATOM     48  C   UNL A   1      46.806  34.348  28.195  1.00  0.00     0.031 C 
ATOM     49  C   UNL A   1      47.002  29.368  28.806  1.00  0.00     0.029 A 
ATOM     50  N   UNL A   1      45.035  30.371  29.175  1.00  0.00    -0.354 N 
ATOM     51  C   UNL A   1      44.614  34.655  28.766  1.00  0.00     0.074 A 
ATOM     52  C   UNL A   1      45.870  35.264  28.386  1.00  0.00     0.031 C 
ATOM     53  C   UNL A   1      46.127  28.422  29.189  1.00  0.00     0.029 A 
ATOM     54  C   UNL A   1      44.841  29.048  29.491  1.00  0.00     0.049 A 
ATOM     55  H   UNL A   1      44.318  31.046  29.210  1.00  0.00     0.167 HD
ATOM     56  C   UNL A   1      43.466  35.344  28.964  1.00  0.00     0.034 A 
ATOM     57  C   UNL A   1      43.757  28.423  29.993  1.00  0.00     0.034 A 
ATOM     58  C   UNL A   1      42.220  34.734  29.338  1.00  0.00     0.049 A 
ATOM     59  C   UNL A   1      42.496  29.213  30.236  1.00  0.00     0.074 A 
ATOM     60  C   UNL A   1      40.989  35.337  29.519  1.00  0.00     0.029 A 
ATOM     61  N   UNL A   1      42.051  33.385  29.612  1.00  0.00    -0.354 N 
ATOM     62  N   UNL A   1      42.268  30.489  30.036  1.00  0.00    -0.248 NA
ATOM     63  C   UNL A   1      41.333  28.470  30.743  1.00  0.00     0.031 C 
ATOM     64  C   UNL A   1      40.084  34.358  29.945  1.00  0.00     0.029 A 
ATOM     65  C   UNL A   1      40.739  33.137  29.978  1.00  0.00     0.049 A 
ATOM     66  H   UNL A   1      42.759  32.705  29.554  1.00  0.00     0.167 HD
ATOM     67  C   UNL A   1      40.929  30.694  30.353  1.00  0.00     0.074 A 
ATOM     68  C   UNL A   1      40.394  29.407  30.746  1.00  0.00     0.031 C 
ATOM     69  C   UNL A   1      40.209  31.843  30.327  1.00  0.00     0.034 A 
BRANCH  56  70
ATOM     70  C   UNL A   1      43.515  36.839  28.780  1.00  0.00     0.023 A 
ATOM     71  C   UNL A   1      43.310  37.401  27.504  1.00  0.00     0.012 A 
ATOM     72  C   UNL A   1      43.746  37.688  29.880  1.00  0.00     0.148 A 
ATOM     73  C   UNL A   1      43.379  38.781  27.316  1.00  0.00     0.002 A 
ATOM     74  C   UNL A   1      43.763  39.065  29.693  1.00  0.00     0.091 A 
ATOM     75  F   UNL A   1      43.964  37.137  31.081  1.00  0.00    -0.205 F 
ATOM     76  C   UNL A   1      43.596  39.613  28.410  1.00  0.00     0.022 A 
BRANCH  74  77
ATOM     77  S   UNL A   1      43.951  40.221  31.054  1.00  0.00     0.127 S 
ATOM     78  O   UNL A   1      43.967  41.503  30.351  1.00  0.00    -0.237 OA
ATOM     79  O   UNL A   1      42.741  39.972  31.838  1.00  0.00    -0.237 OA
ATOM     80  O   UNL A   1      45.193  39.859  31.722  1.00  0.00    -0.744 OA
ENDBRANCH  74  77
ENDBRANCH  56  70
BRANCH  57  81
ATOM     81  C   UNL A   1      43.812  26.962  30.278  1.00  0.00     0.023 A 
ATOM     82  C   UNL A   1      43.562  26.038  29.245  1.00  0.00     0.012 A 
ATOM     83  C   UNL A   1      44.141  26.484  31.562  1.00  0.00     0.148 A 
ATOM     84  C   UNL A   1      43.612  24.665  29.492  1.00  0.00     0.002 A 
ATOM     85  C   UNL A   1      44.245  25.118  31.788  1.00  0.00     0.091 A 
ATOM     86  F   UNL A   1      44.363  27.381  32.534  1.00  0.00    -0.205 F 
ATOM     87  C   UNL A   1      43.964  24.205  30.760  1.00  0.00     0.022 A 
BRANCH  85  88
ATOM     88  S   UNL A   1      44.815  24.436  33.349  1.00  0.00     0.127 S 
ATOM     89  O   UNL A   1      43.726  24.798  34.251  1.00  0.00    -0.237 OA
ATOM     90  O   UNL A   1      44.908  23.010  33.035  1.00  0.00    -0.237 OA
ATOM     91  O   UNL A   1      46.095  25.077  33.622  1.00  0.00    -0.744 OA
ENDBRANCH  85  88
ENDBRANCH  57  81
BRANCH  69  92
ATOM     92  C   UNL A   1      38.744  31.767  30.682  1.00  0.00     0.023 A 
ATOM     93  C   UNL A   1      38.340  31.776  32.033  1.00  0.00     0.012 A 
ATOM     94  C   UNL A   1      37.765  31.767  29.669  1.00  0.00     0.148 A 
ATOM     95  C   UNL A   1      36.986  31.749  32.366  1.00  0.00     0.002 A 
ATOM     96  C   UNL A   1      36.418  31.795  30.009  1.00  0.00     0.091 A 
ATOM     97  F   UNL A   1      38.169  31.742  28.390  1.00  0.00    -0.205 F 
ATOM     98  C   UNL A   1      36.027  31.771  31.356  1.00  0.00     0.022 A 
BRANCH  96  99
ATOM     99  S   UNL A   1      35.115  31.927  28.778  1.00  0.00     0.127 S 
ATOM    100  O   UNL A   1      35.677  32.912  27.856  1.00  0.00    -0.237 OA
ATOM    101  O   UNL A   1      35.051  30.564  28.250  1.00  0.00    -0.237 OA
ATOM    102  O   UNL A   1      33.923  32.356  29.497  1.00  0.00    -0.744 OA
ENDBRANCH  96  99
ENDBRANCH  69  92
ENDBRANCH  43  44
ENDBRANCH  36  38
ENDBRANCH  35  36
ENDBRANCH  34  35
ENDBRANCH  33  34
ENDBRANCH  32  33
ENDBRANCH  31  32
ENDBRANCH  30  31
ENDBRANCH  29  30
ENDBRANCH   1  29
TORSDOF 27
ENDMDL
MODEL 2
REMARK VINA RESULT:      -7.0      5.265     10.449
REMARK SMILES O=Cc1c(OCc2ccc(C(=O)OCCOCCOCCOCCOC(=O)c3ccc(-c4c5nc(c(-c6cccc(S(=O)(=O)[O-])c6F)c6ccc([nH]6)c(-c6cccc(S(=O)(=O)[O-])c6F)c6nc(c(-c7cccc(S(=O)(=O)[O-])c7F)c7ccc4[nH]7)C=C6)C=C5)cc3)cc2)ccc2ccccc12
REMARK SMILES IDX 18 1 17 2 16 3 15 4 14 5 13 6 11 7 12 8 10 9 7 10 8 11 92 12
REMARK SMILES IDX 9 13 91 14 6 15 5 16 4 17 3 18 100 19 93 20 95 21 99 22
REMARK SMILES IDX 94 23 96 24 98 25 97 26 2 27 1 28 19 29 20 30 21 31 22 32
REMARK SMILES IDX 23 33 24 34 25 35 26 36 27 37 28 38 29 39 90 40 30 41 89 42
REMARK SMILES IDX 31 43 32 44 33 45 83 46 34 47 88 48 82 49 84 50 35 51 87 52
REMARK SMILES IDX 81 53 80 54 36 56 68 57 48 58 67 59 49 60 52 61 66 62 85 63
REMARK SMILES IDX 50 64 51 65 65 67 86 68 53 69 37 70 38 71 46 72 39 73 41 74
REMARK SMILES IDX 47 75 40 76 42 77 43 78 44 79 45 80 69 81 70 82 78 83 71 84
REMARK SMILES IDX 73 85 79 86 72 87 74 88 75 89 76 90 77 91 54 92 55 93 63 94
REMARK SMILES IDX 56 95 58 96 64 97 57 98 59 99 60 100 61 101 62 102
REMARK H PARENT 84 55 52 66
REMARK Flexibility Score: inf
ROOT
ATOM      1  C   UNL A   1      42.158  19.126  26.076  1.00  0.00     0.188 C 
ENDROOT
BRANCH   1   2
ATOM      2  C   UNL A   1      43.445  18.282  26.214  1.00  0.00     0.188 C 
BRANCH   2   3
ATOM      3  O   UNL A   1      44.367  18.439  25.153  1.00  0.00    -0.376 OA
BRANCH   3   4
ATOM      4  C   UNL A   1      45.658  18.956  25.408  1.00  0.00     0.202 C 
BRANCH   4   5
ATOM      5  C   UNL A   1      46.087  20.247  24.705  1.00  0.00     0.261 C 
BRANCH   5   6
ATOM      6  O   UNL A   1      45.365  21.421  25.077  1.00  0.00    -0.460 OA
BRANCH   6   7
ATOM      7  C   UNL A   1      45.008  22.293  24.104  1.00  0.00     0.338 C 
ATOM      8  O   UNL A   1      44.222  22.108  23.204  1.00  0.00    -0.246 OA
BRANCH   7   9
ATOM      9  C   UNL A   1      45.616  23.601  24.465  1.00  0.00     0.060 A 
ATOM     10  C   UNL A   1      46.818  26.036  25.247  1.00  0.00    -0.011 A 
ATOM     11  C   UNL A   1      45.498  25.731  25.622  1.00  0.00     0.008 A 
ATOM     12  C   UNL A   1      47.524  25.068  24.519  1.00  0.00     0.008 A 
ATOM     13  C   UNL A   1      44.894  24.525  25.227  1.00  0.00     0.016 A 
ATOM     14  C   UNL A   1      46.936  23.870  24.125  1.00  0.00     0.016 A 
BRANCH  10  15
ATOM     15  C   UNL A   1      47.468  27.340  25.696  1.00  0.00     0.265 C 
BRANCH  15  16
ATOM     16  O   UNL A   1      47.155  27.769  27.031  1.00  0.00    -0.488 OA
BRANCH  16  17
ATOM     17  C   UNL A   1      46.356  28.867  27.216  1.00  0.00     0.130 A 
ATOM     18  C   UNL A   1      46.793  29.851  28.125  1.00  0.00     0.064 A 
ATOM     19  C   UNL A   1      45.908  30.858  28.609  1.00  0.00    -0.004 A 
ATOM     20  C   UNL A   1      45.094  28.996  26.640  1.00  0.00     0.048 A 
ATOM     21  C   UNL A   1      44.574  30.844  28.136  1.00  0.00    -0.017 A 
ATOM     22  C   UNL A   1      46.250  31.868  29.548  1.00  0.00     0.009 A 
ATOM     23  C   UNL A   1      44.200  29.949  27.128  1.00  0.00     0.012 A 
ATOM     24  C   UNL A   1      43.620  31.723  28.675  1.00  0.00     0.009 A 
ATOM     25  C   UNL A   1      45.296  32.755  30.054  1.00  0.00     0.001 A 
ATOM     26  C   UNL A   1      43.976  32.662  29.639  1.00  0.00     0.001 A 
BRANCH  18  27
ATOM     27  C   UNL A   1      48.176  29.783  28.656  1.00  0.00     0.264 C 
ATOM     28  O   UNL A   1      49.155  30.192  28.043  1.00  0.00    -0.298 OA
ENDBRANCH  18  27
ENDBRANCH  16  17
ENDBRANCH  15  16
ENDBRANCH  10  15
ENDBRANCH   7   9
ENDBRANCH   6   7
ENDBRANCH   5   6
ENDBRANCH   4   5
ENDBRANCH   3   4
ENDBRANCH   2   3
ENDBRANCH   1   2
BRANCH   1  29
ATOM     29  O   UNL A   1      42.038  20.355  26.776  1.00  0.00    -0.377 OA
BRANCH  29  30
ATOM     30  C   UNL A   1      42.068  21.595  26.077  1.00  0.00     0.188 C 
BRANCH  30  31
ATOM     31  C   UNL A   1      41.873  22.943  26.809  1.00  0.00     0.188 C 
BRANCH  31  32
ATOM     32  O   UNL A   1      41.649  22.829  28.205  1.00  0.00    -0.376 OA
BRANCH  32  33
ATOM     33  C   UNL A   1      42.768  22.935  29.063  1.00  0.00     0.202 C 
BRANCH  33  34
ATOM     34  C   UNL A   1      43.798  24.021  28.728  1.00  0.00     0.261 C 
BRANCH  34  35
ATOM     35  O   UNL A   1      45.144  23.769  29.153  1.00  0.00    -0.460 OA
BRANCH  35  36
ATOM     36  C   UNL A   1      45.920  24.844  29.417  1.00  0.00     0.338 C 
ATOM     37  O   UNL A   1      47.026  25.080  28.965  1.00  0.00    -0.246 OA
BRANCH  36  38
ATOM     38  C   UNL A   1      45.105  25.790  30.205  1.00  0.00     0.060 A 
ATOM     39  C   UNL A   1      44.925  27.098  29.734  1.00  0.00     0.016 A 
ATOM     40  C   UNL A   1      44.508  25.375  31.397  1.00  0.00     0.016 A 
ATOM     41  C   UNL A   1      44.176  28.009  30.479  1.00  0.00     0.010 A 
ATOM     42  C   UNL A   1      43.776  26.292  32.152  1.00  0.00     0.010 A 
ATOM     43  C   UNL A   1      43.640  27.623  31.715  1.00  0.00    -0.014 A 
BRANCH  43  44
ATOM     44  C   UNL A   1      43.128  28.652  32.648  1.00  0.00     0.031 A 
ATOM     45  C   UNL A   1      43.923  28.938  33.892  1.00  0.00     0.074 A 
ATOM     46  C   UNL A   1      41.982  29.312  32.408  1.00  0.00     0.049 A 
ATOM     47  N   UNL A   1      43.657  29.753  34.878  1.00  0.00    -0.248 NA
ATOM     48  C   UNL A   1      45.186  28.197  34.045  1.00  0.00     0.031 C 
ATOM     49  C   UNL A   1      41.130  29.128  31.235  1.00  0.00     0.029 A 
ATOM     50  N   UNL A   1      41.325  30.253  33.161  1.00  0.00    -0.354 N 
ATOM     51  C   UNL A   1      44.700  29.598  35.784  1.00  0.00     0.074 A 
ATOM     52  C   UNL A   1      45.595  28.601  35.237  1.00  0.00     0.031 C 
ATOM     53  C   UNL A   1      40.043  29.909  31.364  1.00  0.00     0.029 A 
ATOM     54  C   UNL A   1      40.110  30.622  32.638  1.00  0.00     0.049 A 
ATOM     55  H   UNL A   1      41.691  30.627  33.995  1.00  0.00     0.167 HD
ATOM     56  C   UNL A   1      44.902  30.234  36.961  1.00  0.00     0.034 A 
ATOM     57  C   UNL A   1      39.150  31.421  33.147  1.00  0.00     0.034 A 
ATOM     58  C   UNL A   1      44.012  31.226  37.499  1.00  0.00     0.049 A 
ATOM     59  C   UNL A   1      39.380  32.098  34.474  1.00  0.00     0.074 A 
ATOM     60  C   UNL A   1      44.149  31.963  38.661  1.00  0.00     0.029 A 
ATOM     61  N   UNL A   1      42.808  31.603  36.924  1.00  0.00    -0.354 N 
ATOM     62  N   UNL A   1      40.420  32.025  35.270  1.00  0.00    -0.248 NA
ATOM     63  C   UNL A   1      38.317  32.991  34.958  1.00  0.00     0.031 C 
ATOM     64  C   UNL A   1      43.005  32.755  38.811  1.00  0.00     0.029 A 
ATOM     65  C   UNL A   1      42.181  32.550  37.715  1.00  0.00     0.049 A 
ATOM     66  H   UNL A   1      42.452  31.250  36.078  1.00  0.00     0.167 HD
ATOM     67  C   UNL A   1      40.156  32.893  36.326  1.00  0.00     0.074 A 
ATOM     68  C   UNL A   1      38.863  33.488  36.061  1.00  0.00     0.031 C 
ATOM     69  C   UNL A   1      40.912  33.166  37.418  1.00  0.00     0.034 A 
BRANCH  56  70
ATOM     70  C   UNL A   1      46.137  29.867  37.744  1.00  0.00     0.023 A 
ATOM     71  C   UNL A   1      47.327  30.603  37.571  1.00  0.00     0.012 A 
ATOM     72  C   UNL A   1      46.110  28.803  38.666  1.00  0.00     0.148 A 
ATOM     73  C   UNL A   1      48.483  30.257  38.269  1.00  0.00     0.002 A 
ATOM     74  C   UNL A   1      47.253  28.497  39.395  1.00  0.00     0.091 A 
ATOM     75  F   UNL A   1      44.979  28.098  38.798  1.00  0.00    -0.205 F 
ATOM     76  C   UNL A   1      48.444  29.211  39.187  1.00  0.00     0.022 A 
BRANCH  74  77
ATOM     77  S   UNL A   1      47.278  27.223  40.660  1.00  0.00     0.127 S 
ATOM     78  O   UNL A   1      46.242  27.697  41.576  1.00  0.00    -0.237 OA
ATOM     79  O   UNL A   1      46.916  26.027  39.897  1.00  0.00    -0.237 OA
ATOM     80  O   UNL A   1      48.631  27.215  41.196  1.00  0.00    -0.744 OA
ENDBRANCH  74  77
ENDBRANCH  56  70
BRANCH  57  81
ATOM     81  C   UNL A   1      37.890  31.641  32.383  1.00  0.00     0.023 A 
ATOM     82  C   UNL A   1      36.692  31.048  32.825  1.00  0.00     0.012 A 
ATOM     83  C   UNL A   1      37.870  32.459  31.236  1.00  0.00     0.148 A 
ATOM     84  C   UNL A   1      35.501  31.245  32.124  1.00  0.00     0.002 A 
ATOM     85  C   UNL A   1      36.671  32.697  30.576  1.00  0.00     0.091 A 
ATOM     86  F   UNL A   1      39.024  33.003  30.825  1.00  0.00    -0.205 F 
ATOM     87  C   UNL A   1      35.488  32.077  31.007  1.00  0.00     0.022 A 
BRANCH  85  88
ATOM     88  S   UNL A   1      36.533  33.852  29.207  1.00  0.00     0.127 S 
ATOM     89  O   UNL A   1      35.291  34.551  29.527  1.00  0.00    -0.237 OA
ATOM     90  O   UNL A   1      37.749  34.650  29.367  1.00  0.00    -0.237 OA
ATOM     91  O   UNL A   1      36.501  33.039  27.999  1.00  0.00    -0.744 OA
ENDBRANCH  85  88
ENDBRANCH  57  81
BRANCH  69  92
ATOM     92  C   UNL A   1      40.396  34.195  38.394  1.00  0.00     0.023 A 
ATOM     93  C   UNL A   1      40.551  35.570  38.125  1.00  0.00     0.012 A 
ATOM     94  C   UNL A   1      39.686  33.792  39.543  1.00  0.00     0.148 A 
ATOM     95  C   UNL A   1      40.038  36.525  39.003  1.00  0.00     0.002 A 
ATOM     96  C   UNL A   1      39.131  34.750  40.383  1.00  0.00     0.091 A 
ATOM     97  F   UNL A   1      39.562  32.480  39.791  1.00  0.00    -0.205 F 
ATOM     98  C   UNL A   1      39.319  36.116  40.123  1.00  0.00     0.022 A 
BRANCH  96  99
ATOM     99  S   UNL A   1      38.103  34.317  41.792  1.00  0.00     0.127 S 
ATOM    100  O   UNL A   1      37.708  35.634  42.287  1.00  0.00    -0.237 OA
ATOM    101  O   UNL A   1      37.025  33.553  41.165  1.00  0.00    -0.237 OA
ATOM    102  O   UNL A   1      38.952  33.544  42.689  1.00  0.00    -0.744 OA
ENDBRANCH  96  99
ENDBRANCH  69  92
ENDBRANCH  43  44
ENDBRANCH  36  38
ENDBRANCH  35  36
ENDBRANCH  34  35
ENDBRANCH  33  34
ENDBRANCH  32  33
ENDBRANCH  31  32
ENDBRANCH  30  31
ENDBRANCH  29  30
ENDBRANCH   1  29
TORSDOF 27
ENDMDL
MODEL 3
REMARK VINA RESULT:      -7.0      3.704      9.121
REMARK SMILES O=Cc1c(OCc2ccc(C(=O)OCCOCCOCCOCCOC(=O)c3ccc(-c4c5nc(c(-c6cccc(S(=O)(=O)[O-])c6F)c6ccc([nH]6)c(-c6cccc(S(=O)(=O)[O-])c6F)c6nc(c(-c7cccc(S(=O)(=O)[O-])c7F)c7ccc4[nH]7)C=C6)C=C5)cc3)cc2)ccc2ccccc12
REMARK SMILES IDX 18 1 17 2 16 3 15 4 14 5 13 6 11 7 12 8 10 9 7 10 8 11 92 12
REMARK SMILES IDX 9 13 91 14 6 15 5 16 4 17 3 18 100 19 93 20 95 21 99 22
REMARK SMILES IDX 94 23 96 24 98 25 97 26 2 27 1 28 19 29 20 30 21 31 22 32
REMARK SMILES IDX 23 33 24 34 25 35 26 36 27 37 28 38 29 39 90 40 30 41 89 42
REMARK SMILES IDX 31 43 32 44 33 45 83 46 34 47 88 48 82 49 84 50 35 51 87 52
REMARK SMILES IDX 81 53 80 54 36 56 68 57 48 58 67 59 49 60 52 61 66 62 85 63
REMARK SMILES IDX 50 64 51 65 65 67 86 68 53 69 37 70 38 71 46 72 39 73 41 74
REMARK SMILES IDX 47 75 40 76 42 77 43 78 44 79 45 80 69 81 70 82 78 83 71 84
REMARK SMILES IDX 73 85 79 86 72 87 74 88 75 89 76 90 77 91 54 92 55 93 63 94
REMARK SMILES IDX 56 95 58 96 64 97 57 98 59 99 60 100 61 101 62 102
REMARK H PARENT 84 55 52 66
REMARK Flexibility Score: inf
ROOT
ATOM      1  C   UNL A   1      50.770  36.148  30.023  1.00  0.00     0.188 C 
ENDROOT
BRANCH   1   2
ATOM      2  C   UNL A   1      52.109  36.495  30.711  1.00  0.00     0.188 C 
BRANCH   2   3
ATOM      3  O   UNL A   1      52.793  35.384  31.259  1.00  0.00    -0.376 OA
BRANCH   3   4
ATOM      4  C   UNL A   1      52.239  34.679  32.351  1.00  0.00     0.202 C 
BRANCH   4   5
ATOM      5  C   UNL A   1      51.749  33.245  32.130  1.00  0.00     0.261 C 
BRANCH   5   6
ATOM      6  O   UNL A   1      50.335  33.087  32.016  1.00  0.00    -0.460 OA
BRANCH   6   7
ATOM      7  C   UNL A   1      49.829  32.654  30.836  1.00  0.00     0.338 C 
ATOM      8  O   UNL A   1      50.370  32.670  29.754  1.00  0.00    -0.246 OA
BRANCH   7   9
ATOM      9  C   UNL A   1      48.551  31.964  31.152  1.00  0.00     0.060 A 
ATOM     10  C   UNL A   1      46.093  30.658  31.639  1.00  0.00    -0.011 A 
ATOM     11  C   UNL A   1      46.204  32.054  31.762  1.00  0.00     0.008 A 
ATOM     12  C   UNL A   1      47.229  29.953  31.219  1.00  0.00     0.008 A 
ATOM     13  C   UNL A   1      47.426  32.705  31.530  1.00  0.00     0.016 A 
ATOM     14  C   UNL A   1      48.444  30.589  30.983  1.00  0.00     0.016 A 
BRANCH  10  15
ATOM     15  C   UNL A   1      44.756  29.964  31.877  1.00  0.00     0.265 C 
BRANCH  15  16
ATOM     16  O   UNL A   1      44.517  29.505  33.217  1.00  0.00    -0.488 OA
BRANCH  16  17
ATOM     17  C   UNL A   1      43.977  28.261  33.418  1.00  0.00     0.130 A 
ATOM     18  C   UNL A   1      43.053  28.109  34.470  1.00  0.00     0.064 A 
ATOM     19  C   UNL A   1      42.677  26.819  34.946  1.00  0.00    -0.004 A 
ATOM     20  C   UNL A   1      44.384  27.131  32.711  1.00  0.00     0.048 A 
ATOM     21  C   UNL A   1      43.256  25.691  34.317  1.00  0.00    -0.017 A 
ATOM     22  C   UNL A   1      41.779  26.570  36.018  1.00  0.00     0.009 A 
ATOM     23  C   UNL A   1      44.059  25.859  33.184  1.00  0.00     0.012 A 
ATOM     24  C   UNL A   1      43.032  24.402  34.825  1.00  0.00     0.009 A 
ATOM     25  C   UNL A   1      41.543  25.278  36.495  1.00  0.00     0.001 A 
ATOM     26  C   UNL A   1      42.193  24.198  35.917  1.00  0.00     0.001 A 
BRANCH  18  27
ATOM     27  C   UNL A   1      42.528  29.317  35.153  1.00  0.00     0.264 C 
ATOM     28  O   UNL A   1      41.333  29.553  35.283  1.00  0.00    -0.298 OA
ENDBRANCH  18  27
ENDBRANCH  16  17
ENDBRANCH  15  16
ENDBRANCH  10  15
ENDBRANCH   7   9
ENDBRANCH   6   7
ENDBRANCH   5   6
ENDBRANCH   4   5
ENDBRANCH   3   4
ENDBRANCH   2   3
ENDBRANCH   1   2
BRANCH   1  29
ATOM     29  O   UNL A   1      49.570  36.123  30.780  1.00  0.00    -0.377 OA
BRANCH  29  30
ATOM     30  C   UNL A   1      49.412  36.961  31.920  1.00  0.00     0.188 C 
BRANCH  30  31
ATOM     31  C   UNL A   1      49.459  38.503  31.804  1.00  0.00     0.188 C 
BRANCH  31  32
ATOM     32  O   UNL A   1      48.191  39.122  31.662  1.00  0.00    -0.376 OA
BRANCH  32  33
ATOM     33  C   UNL A   1      47.979  39.941  30.529  1.00  0.00     0.202 C 
BRANCH  33  34
ATOM     34  C   UNL A   1      48.753  39.577  29.256  1.00  0.00     0.261 C 
BRANCH  34  35
ATOM     35  O   UNL A   1      48.045  38.792  28.287  1.00  0.00    -0.460 OA
BRANCH  35  36
ATOM     36  C   UNL A   1      46.697  38.902  28.270  1.00  0.00     0.338 C 
ATOM     37  O   UNL A   1      46.045  39.903  28.038  1.00  0.00    -0.246 OA
BRANCH  36  38
ATOM     38  C   UNL A   1      46.145  37.537  28.390  1.00  0.00     0.060 A 
ATOM     39  C   UNL A   1      46.367  36.809  29.567  1.00  0.00     0.016 A 
ATOM     40  C   UNL A   1      45.397  36.989  27.346  1.00  0.00     0.016 A 
ATOM     41  C   UNL A   1      45.870  35.510  29.686  1.00  0.00     0.010 A 
ATOM     42  C   UNL A   1      44.918  35.684  27.457  1.00  0.00     0.010 A 
ATOM     43  C   UNL A   1      45.186  34.926  28.612  1.00  0.00    -0.014 A 
BRANCH  43  44
ATOM     44  C   UNL A   1      44.941  33.465  28.603  1.00  0.00     0.031 A 
ATOM     45  C   UNL A   1      43.632  32.964  29.145  1.00  0.00     0.074 A 
ATOM     46  C   UNL A   1      45.858  32.601  28.136  1.00  0.00     0.049 A 
ATOM     47  N   UNL A   1      43.208  31.737  29.290  1.00  0.00    -0.248 NA
ATOM     48  C   UNL A   1      42.674  33.990  29.592  1.00  0.00     0.031 C 
ATOM     49  C   UNL A   1      47.159  32.967  27.579  1.00  0.00     0.029 A 
ATOM     50  N   UNL A   1      45.840  31.230  28.086  1.00  0.00    -0.354 N 
ATOM     51  C   UNL A   1      41.951  31.840  29.875  1.00  0.00     0.074 A 
ATOM     52  C   UNL A   1      41.688  33.249  30.072  1.00  0.00     0.031 C 
ATOM     53  C   UNL A   1      47.830  31.842  27.273  1.00  0.00     0.029 A 
ATOM     54  C   UNL A   1      47.019  30.683  27.641  1.00  0.00     0.049 A 
ATOM     55  H   UNL A   1      45.058  30.690  28.346  1.00  0.00     0.167 HD
ATOM     56  C   UNL A   1      41.088  30.854  30.209  1.00  0.00     0.034 A 
ATOM     57  C   UNL A   1      47.406  29.393  27.566  1.00  0.00     0.034 A 
ATOM     58  C   UNL A   1      41.352  29.456  30.008  1.00  0.00     0.049 A 
ATOM     59  C   UNL A   1      46.441  28.308  27.972  1.00  0.00     0.074 A 
ATOM     60  C   UNL A   1      40.525  28.379  30.270  1.00  0.00     0.029 A 
ATOM     61  N   UNL A   1      42.542  28.939  29.518  1.00  0.00    -0.354 N 
ATOM     62  N   UNL A   1      45.215  28.418  28.422  1.00  0.00    -0.248 NA
ATOM     63  C   UNL A   1      46.904  26.919  27.828  1.00  0.00     0.031 C 
ATOM     64  C   UNL A   1      41.232  27.207  29.979  1.00  0.00     0.029 A 
ATOM     65  C   UNL A   1      42.480  27.556  29.486  1.00  0.00     0.049 A 
ATOM     66  H   UNL A   1      43.316  29.475  29.235  1.00  0.00     0.167 HD
ATOM     67  C   UNL A   1      44.745  27.118  28.577  1.00  0.00     0.074 A 
ATOM     68  C   UNL A   1      45.816  26.237  28.160  1.00  0.00     0.031 C 
ATOM     69  C   UNL A   1      43.539  26.691  29.029  1.00  0.00     0.034 A 
BRANCH  56  70
ATOM     70  C   UNL A   1      39.777  31.261  30.831  1.00  0.00     0.023 A 
ATOM     71  C   UNL A   1      38.670  31.562  30.011  1.00  0.00     0.012 A 
ATOM     72  C   UNL A   1      39.637  31.327  32.230  1.00  0.00     0.148 A 
ATOM     73  C   UNL A   1      37.459  31.967  30.572  1.00  0.00     0.002 A 
ATOM     74  C   UNL A   1      38.413  31.681  32.784  1.00  0.00     0.091 A 
ATOM     75  F   UNL A   1      40.707  31.063  32.994  1.00  0.00    -0.205 F 
ATOM     76  C   UNL A   1      37.328  32.017  31.957  1.00  0.00     0.022 A 
BRANCH  74  77
ATOM     77  S   UNL A   1      38.122  31.694  34.555  1.00  0.00     0.127 S 
ATOM     78  O   UNL A   1      38.119  30.264  34.863  1.00  0.00    -0.237 OA
ATOM     79  O   UNL A   1      39.290  32.422  35.053  1.00  0.00    -0.237 OA
ATOM     80  O   UNL A   1      36.851  32.378  34.750  1.00  0.00    -0.744 OA
ENDBRANCH  74  77
ENDBRANCH  56  70
BRANCH  57  81
ATOM     81  C   UNL A   1      48.769  29.059  27.065  1.00  0.00     0.023 A 
ATOM     82  C   UNL A   1      49.891  29.286  27.885  1.00  0.00     0.012 A 
ATOM     83  C   UNL A   1      48.954  28.490  25.789  1.00  0.00     0.148 A 
ATOM     84  C   UNL A   1      51.175  28.977  27.434  1.00  0.00     0.002 A 
ATOM     85  C   UNL A   1      50.229  28.132  25.369  1.00  0.00     0.091 A 
ATOM     86  F   UNL A   1      47.874  28.294  25.019  1.00  0.00    -0.205 F 
ATOM     87  C   UNL A   1      51.343  28.391  26.182  1.00  0.00     0.022 A 
BRANCH  85  88
ATOM     88  S   UNL A   1      50.529  27.257  23.829  1.00  0.00     0.127 S 
ATOM     89  O   UNL A   1      49.653  26.097  23.965  1.00  0.00    -0.237 OA
ATOM     90  O   UNL A   1      50.098  28.243  22.837  1.00  0.00    -0.237 OA
ATOM     91  O   UNL A   1      51.956  26.965  23.806  1.00  0.00    -0.744 OA
ENDBRANCH  85  88
ENDBRANCH  57  81
BRANCH  69  92
ATOM     92  C   UNL A   1      43.278  25.205  29.051  1.00  0.00     0.023 A 
ATOM     93  C   UNL A   1      43.841  24.401  30.063  1.00  0.00     0.012 A 
ATOM     94  C   UNL A   1      42.407  24.621  28.110  1.00  0.00     0.148 A 
ATOM     95  C   UNL A   1      43.569  23.034  30.113  1.00  0.00     0.002 A 
ATOM     96  C   UNL A   1      42.099  23.269  28.200  1.00  0.00     0.091 A 
ATOM     97  F   UNL A   1      41.894  25.399  27.146  1.00  0.00    -0.205 F 
ATOM     98  C   UNL A   1      42.690  22.472  29.191  1.00  0.00     0.022 A 
BRANCH  96  99
ATOM     99  S   UNL A   1      40.899  22.480  27.119  1.00  0.00     0.127 S 
ATOM    100  O   UNL A   1      39.808  23.453  27.126  1.00  0.00    -0.237 OA
ATOM    101  O   UNL A   1      41.632  22.395  25.856  1.00  0.00    -0.237 OA
ATOM    102  O   UNL A   1      40.591  21.194  27.729  1.00  0.00    -0.744 OA
ENDBRANCH  96  99
ENDBRANCH  69  92
ENDBRANCH  43  44
ENDBRANCH  36  38
ENDBRANCH  35  36
ENDBRANCH  34  35
ENDBRANCH  33  34
ENDBRANCH  32  33
ENDBRANCH  31  32
ENDBRANCH  30  31
ENDBRANCH  29  30
ENDBRANCH   1  29
TORSDOF 27
ENDMDL
