MODEL 1
REMARK VINA RESULT:      -7.6      0.000      0.000
REMARK SMILES CCCCCCNC(=O)Oc1cccc(-c2ccc([C@@H](C)C(=O)OCCOCCOCCOCCOC(=O)c3ccc(-c4c5nc(c(-c6cccc(S(=O)(=O)[O-])c6F)c6ccc([nH]6)c(-c6cccc(S(=O)(=O)[O-])c6F)c6nc(c(-c7cccc(S(=O)(=O)[O-])c7F)c7ccc4[nH]7)C=C6)C=C5)cc3)cc2C)c1
REMARK SMILES IDX 27 1 26 2 25 3 24 4 22 5 23 6 20 7 21 8 19 9 16 10 17 11
REMARK SMILES IDX 103 12 18 13 102 14 104 15 15 16 11 17 12 18 105 19 13 20
REMARK SMILES IDX 14 21 10 22 8 23 7 24 9 26 6 27 5 28 4 29 3 30 2 31 1 32
REMARK SMILES IDX 28 33 29 34 30 35 31 36 32 37 33 38 34 39 35 40 36 41 37 42
REMARK SMILES IDX 38 43 39 44 40 45 101 46 41 47 100 48 42 49 43 50 44 51
REMARK SMILES IDX 94 52 45 53 99 54 93 55 95 56 46 57 98 58 92 59 91 60 47 62
REMARK SMILES IDX 79 63 59 64 78 65 60 66 63 67 77 68 96 69 61 70 62 71 76 73
REMARK SMILES IDX 97 74 64 75 48 76 49 77 57 78 50 79 52 80 58 81 51 82 53 83
REMARK SMILES IDX 54 84 55 85 56 86 80 87 81 88 89 89 82 90 84 91 90 92 83 93
REMARK SMILES IDX 85 94 86 95 87 96 88 97 65 98 66 99 74 100 67 101 69 102
REMARK SMILES IDX 75 103 68 104 70 105 71 106 72 107 73 108
REMARK H PARENT 7 25 95 61 63 72
REMARK Flexibility Score: inf
ROOT
ATOM      1  O   UNL A   1      31.832  27.440  25.980  1.00  0.00    -0.376 OA
ENDROOT
BRANCH   1   2
ATOM      2  C   UNL A   1      32.804  26.811  25.156  1.00  0.00     0.202 C 
BRANCH   2   3
ATOM      3  C   UNL A   1      34.003  26.082  25.791  1.00  0.00     0.261 C 
BRANCH   3   4
ATOM      4  O   UNL A   1      33.778  24.732  26.251  1.00  0.00    -0.463 OA
BRANCH   4   5
ATOM      5  C   UNL A   1      33.717  23.772  25.300  1.00  0.00     0.313 C 
ATOM      6  O   UNL A   1      32.772  22.990  25.185  1.00  0.00    -0.252 OA
BRANCH   5   7
ATOM      7  C   UNL A   1      34.922  23.676  24.366  1.00  0.00     0.126 C 
ATOM      8  C   UNL A   1      34.456  23.104  23.031  1.00  0.00     0.025 C 
BRANCH   7   9
ATOM      9  C   UNL A   1      36.235  23.036  24.820  1.00  0.00    -0.034 A 
ATOM     10  C   UNL A   1      38.734  21.949  25.754  1.00  0.00    -0.015 A 
ATOM     11  C   UNL A   1      37.892  21.251  24.860  1.00  0.00     0.009 A 
ATOM     12  C   UNL A   1      38.296  23.217  26.194  1.00  0.00    -0.043 A 
ATOM     13  C   UNL A   1      36.672  21.781  24.395  1.00  0.00     0.005 A 
ATOM     14  C   UNL A   1      37.065  23.735  25.722  1.00  0.00     0.008 A 
ATOM     15  C   UNL A   1      39.057  24.058  27.186  1.00  0.00     0.045 C 
BRANCH  10  16
ATOM     16  C   UNL A   1      40.060  21.380  26.105  1.00  0.00    -0.014 A 
ATOM     17  C   UNL A   1      42.487  21.501  26.280  1.00  0.00     0.133 A 
ATOM     18  C   UNL A   1      42.563  20.146  26.593  1.00  0.00     0.047 A 
ATOM     19  C   UNL A   1      41.255  22.127  26.053  1.00  0.00     0.056 A 
ATOM     20  C   UNL A   1      41.391  19.404  26.690  1.00  0.00     0.004 A 
ATOM     21  C   UNL A   1      40.158  20.014  26.441  1.00  0.00     0.009 A 
BRANCH  17  22
ATOM     22  O   UNL A   1      43.724  22.140  26.047  1.00  0.00    -0.410 OA
BRANCH  22  23
ATOM     23  C   UNL A   1      43.856  23.118  25.073  1.00  0.00     0.412 C 
ATOM     24  N   UNL A   1      44.036  24.373  25.591  1.00  0.00    -0.321 N 
ATOM     25  H   UNL A   1      44.124  25.106  24.940  1.00  0.00     0.167 HD
ATOM     26  O   UNL A   1      43.821  22.935  23.863  1.00  0.00    -0.224 OA
BRANCH  24  27
ATOM     27  C   UNL A   1      44.110  24.746  26.992  1.00  0.00     0.119 C 
BRANCH  27  28
ATOM     28  C   UNL A   1      43.481  26.116  27.255  1.00  0.00     0.021 C 
BRANCH  28  29
ATOM     29  C   UNL A   1      42.707  26.232  28.575  1.00  0.00     0.002 C 
BRANCH  29  30
ATOM     30  C   UNL A   1      41.922  27.534  28.771  1.00  0.00    -0.000 C 
BRANCH  30  31
ATOM     31  C   UNL A   1      40.400  27.407  28.672  1.00  0.00    -0.003 C 
ATOM     32  C   UNL A   1      39.788  28.296  27.599  1.00  0.00     0.004 C 
ENDBRANCH  30  31
ENDBRANCH  29  30
ENDBRANCH  28  29
ENDBRANCH  27  28
ENDBRANCH  24  27
ENDBRANCH  22  23
ENDBRANCH  17  22
ENDBRANCH  10  16
ENDBRANCH   7   9
ENDBRANCH   5   7
ENDBRANCH   4   5
ENDBRANCH   3   4
ENDBRANCH   2   3
ENDBRANCH   1   2
BRANCH   1  33
ATOM     33  C   UNL A   1      31.797  28.857  26.107  1.00  0.00     0.188 C 
BRANCH  33  34
ATOM     34  C   UNL A   1      32.602  29.590  27.190  1.00  0.00     0.188 C 
BRANCH  34  35
ATOM     35  O   UNL A   1      32.653  30.993  27.059  1.00  0.00    -0.377 OA
BRANCH  35  36
ATOM     36  C   UNL A   1      33.538  31.677  27.929  1.00  0.00     0.188 C 
BRANCH  36  37
ATOM     37  C   UNL A   1      33.580  33.209  27.791  1.00  0.00     0.188 C 
BRANCH  37  38
ATOM     38  O   UNL A   1      34.575  33.837  28.595  1.00  0.00    -0.376 OA
BRANCH  38  39
ATOM     39  C   UNL A   1      35.940  33.520  28.350  1.00  0.00     0.202 C 
BRANCH  39  40
ATOM     40  C   UNL A   1      36.767  32.924  29.506  1.00  0.00     0.261 C 
BRANCH  40  41
ATOM     41  O   UNL A   1      37.186  33.838  30.527  1.00  0.00    -0.460 OA
BRANCH  41  42
ATOM     42  C   UNL A   1      38.058  33.389  31.457  1.00  0.00     0.338 C 
ATOM     43  O   UNL A   1      37.851  32.554  32.310  1.00  0.00    -0.246 OA
BRANCH  42  44
ATOM     44  C   UNL A   1      39.400  33.911  31.108  1.00  0.00     0.060 A 
ATOM     45  C   UNL A   1      39.633  34.294  29.780  1.00  0.00     0.016 A 
ATOM     46  C   UNL A   1      40.419  34.001  32.059  1.00  0.00     0.016 A 
ATOM     47  C   UNL A   1      40.906  34.700  29.384  1.00  0.00     0.010 A 
ATOM     48  C   UNL A   1      41.703  34.387  31.654  1.00  0.00     0.010 A 
ATOM     49  C   UNL A   1      41.961  34.686  30.304  1.00  0.00    -0.014 A 
BRANCH  49  50
ATOM     50  C   UNL A   1      43.353  34.740  29.785  1.00  0.00     0.031 A 
ATOM     51  C   UNL A   1      44.033  36.084  29.717  1.00  0.00     0.074 A 
ATOM     52  C   UNL A   1      44.027  33.623  29.453  1.00  0.00     0.049 A 
ATOM     53  N   UNL A   1      45.251  36.381  29.347  1.00  0.00    -0.248 NA
ATOM     54  C   UNL A   1      43.232  37.248  30.133  1.00  0.00     0.031 C 
ATOM     55  C   UNL A   1      43.493  32.264  29.503  1.00  0.00     0.029 A 
ATOM     56  N   UNL A   1      45.314  33.465  28.999  1.00  0.00    -0.354 N 
ATOM     57  C   UNL A   1      45.356  37.762  29.466  1.00  0.00     0.074 A 
ATOM     58  C   UNL A   1      44.072  38.249  29.921  1.00  0.00     0.031 C 
ATOM     59  C   UNL A   1      44.442  31.409  29.079  1.00  0.00     0.029 A 
ATOM     60  C   UNL A   1      45.640  32.161  28.709  1.00  0.00     0.049 A 
ATOM     61  H   UNL A   1      45.944  34.214  28.894  1.00  0.00     0.167 HD
ATOM     62  C   UNL A   1      46.429  38.556  29.242  1.00  0.00     0.034 A 
ATOM     63  C   UNL A   1      46.770  31.642  28.188  1.00  0.00     0.034 A 
ATOM     64  C   UNL A   1      47.709  38.074  28.801  1.00  0.00     0.049 A 
ATOM     65  C   UNL A   1      47.933  32.558  27.890  1.00  0.00     0.074 A 
ATOM     66  C   UNL A   1      48.864  38.796  28.562  1.00  0.00     0.029 A 
ATOM     67  N   UNL A   1      47.999  36.749  28.520  1.00  0.00    -0.354 N 
ATOM     68  N   UNL A   1      48.049  33.847  28.103  1.00  0.00    -0.248 NA
ATOM     69  C   UNL A   1      49.134  31.939  27.310  1.00  0.00     0.031 C 
ATOM     70  C   UNL A   1      49.846  37.911  28.106  1.00  0.00     0.029 A 
ATOM     71  C   UNL A   1      49.313  36.631  28.099  1.00  0.00     0.049 A 
ATOM     72  H   UNL A   1      47.366  36.001  28.607  1.00  0.00     0.167 HD
ATOM     73  C   UNL A   1      49.345  34.182  27.725  1.00  0.00     0.074 A 
ATOM     74  C   UNL A   1      49.983  32.958  27.291  1.00  0.00     0.031 C 
ATOM     75  C   UNL A   1      49.952  35.396  27.724  1.00  0.00     0.034 A 
BRANCH  62  76
ATOM     76  C   UNL A   1      46.269  40.034  29.493  1.00  0.00     0.023 A 
ATOM     77  C   UNL A   1      46.017  40.903  28.411  1.00  0.00     0.012 A 
ATOM     78  C   UNL A   1      46.318  40.554  30.801  1.00  0.00     0.148 A 
ATOM     79  C   UNL A   1      45.848  42.270  28.624  1.00  0.00     0.002 A 
ATOM     80  C   UNL A   1      46.103  41.911  31.009  1.00  0.00     0.091 A 
ATOM     81  F   UNL A   1      46.580  39.715  31.814  1.00  0.00    -0.205 F 
ATOM     82  C   UNL A   1      45.880  42.772  29.922  1.00  0.00     0.022 A 
BRANCH  80  83
ATOM     83  S   UNL A   1      46.047  42.645  32.648  1.00  0.00     0.127 S 
ATOM     84  O   UNL A   1      45.440  43.946  32.367  1.00  0.00    -0.237 OA
ATOM     85  O   UNL A   1      45.182  41.714  33.371  1.00  0.00    -0.237 OA
ATOM     86  O   UNL A   1      47.424  42.691  33.117  1.00  0.00    -0.744 OA
ENDBRANCH  80  83
ENDBRANCH  62  76
BRANCH  63  87
ATOM     87  C   UNL A   1      46.883  30.177  27.931  1.00  0.00     0.023 A 
ATOM     88  C   UNL A   1      47.266  29.311  28.976  1.00  0.00     0.012 A 
ATOM     89  C   UNL A   1      46.642  29.639  26.651  1.00  0.00     0.148 A 
ATOM     90  C   UNL A   1      47.449  27.947  28.739  1.00  0.00     0.002 A 
ATOM     91  C   UNL A   1      46.771  28.272  26.437  1.00  0.00     0.091 A 
ATOM     92  F   UNL A   1      46.298  30.479  25.664  1.00  0.00    -0.205 F 
ATOM     93  C   UNL A   1      47.195  27.427  27.474  1.00  0.00     0.022 A 
BRANCH  91  94
ATOM     94  S   UNL A   1      46.350  27.498  24.872  1.00  0.00     0.127 S 
ATOM     95  O   UNL A   1      47.322  28.105  23.967  1.00  0.00    -0.237 OA
ATOM     96  O   UNL A   1      46.580  26.082  25.165  1.00  0.00    -0.237 OA
ATOM     97  O   UNL A   1      44.956  27.841  24.625  1.00  0.00    -0.744 OA
ENDBRANCH  91  94
ENDBRANCH  63  87
BRANCH  75  98
ATOM     98  C   UNL A   1      51.393  35.462  27.288  1.00  0.00     0.023 A 
ATOM     99  C   UNL A   1      52.416  35.601  28.247  1.00  0.00     0.012 A 
ATOM    100  C   UNL A   1      51.738  35.314  25.929  1.00  0.00     0.148 A 
ATOM    101  C   UNL A   1      53.755  35.635  27.857  1.00  0.00     0.002 A 
ATOM    102  C   UNL A   1      53.076  35.294  25.554  1.00  0.00     0.091 A 
ATOM    103  F   UNL A   1      50.751  35.196  25.028  1.00  0.00    -0.205 F 
ATOM    104  C   UNL A   1      54.085  35.470  26.514  1.00  0.00     0.022 A 
BRANCH 102 105
ATOM    105  S   UNL A   1      53.601  34.986  23.863  1.00  0.00     0.127 S 
ATOM    106  O   UNL A   1      52.861  36.014  23.131  1.00  0.00    -0.237 OA
ATOM    107  O   UNL A   1      55.044  35.213  23.942  1.00  0.00    -0.237 OA
ATOM    108  O   UNL A   1      53.219  33.613  23.565  1.00  0.00    -0.744 OA
ENDBRANCH 102 105
ENDBRANCH  75  98
ENDBRANCH  49  50
ENDBRANCH  42  44
ENDBRANCH  41  42
ENDBRANCH  40  41
ENDBRANCH  39  40
ENDBRANCH  38  39
ENDBRANCH  37  38
ENDBRANCH  36  37
ENDBRANCH  35  36
ENDBRANCH  34  35
ENDBRANCH  33  34
ENDBRANCH   1  33
TORSDOF 32
ENDMDL
MODEL 2
REMARK VINA RESULT:      -7.1      7.461      8.496
REMARK SMILES CCCCCCNC(=O)Oc1cccc(-c2ccc([C@@H](C)C(=O)OCCOCCOCCOCCOC(=O)c3ccc(-c4c5nc(c(-c6cccc(S(=O)(=O)[O-])c6F)c6ccc([nH]6)c(-c6cccc(S(=O)(=O)[O-])c6F)c6nc(c(-c7cccc(S(=O)(=O)[O-])c7F)c7ccc4[nH]7)C=C6)C=C5)cc3)cc2C)c1
REMARK SMILES IDX 27 1 26 2 25 3 24 4 22 5 23 6 20 7 21 8 19 9 16 10 17 11
REMARK SMILES IDX 103 12 18 13 102 14 104 15 15 16 11 17 12 18 105 19 13 20
REMARK SMILES IDX 14 21 10 22 8 23 7 24 9 26 6 27 5 28 4 29 3 30 2 31 1 32
REMARK SMILES IDX 28 33 29 34 30 35 31 36 32 37 33 38 34 39 35 40 36 41 37 42
REMARK SMILES IDX 38 43 39 44 40 45 101 46 41 47 100 48 42 49 43 50 44 51
REMARK SMILES IDX 94 52 45 53 99 54 93 55 95 56 46 57 98 58 92 59 91 60 47 62
REMARK SMILES IDX 79 63 59 64 78 65 60 66 63 67 77 68 96 69 61 70 62 71 76 73
REMARK SMILES IDX 97 74 64 75 48 76 49 77 57 78 50 79 52 80 58 81 51 82 53 83
REMARK SMILES IDX 54 84 55 85 56 86 80 87 81 88 89 89 82 90 84 91 90 92 83 93
REMARK SMILES IDX 85 94 86 95 87 96 88 97 65 98 66 99 74 100 67 101 69 102
REMARK SMILES IDX 75 103 68 104 70 105 71 106 72 107 73 108
REMARK H PARENT 7 25 95 61 63 72
REMARK Flexibility Score: inf
ROOT
ATOM      1  O   UNL A   1      32.142  27.366  25.827  1.00  0.00    -0.376 OA
ENDROOT
BRANCH   1   2
ATOM      2  C   UNL A   1      33.156  26.640  25.146  1.00  0.00     0.202 C 
BRANCH   2   3
ATOM      3  C   UNL A   1      33.609  25.264  25.669  1.00  0.00     0.261 C 
BRANCH   3   4
ATOM      4  O   UNL A   1      32.610  24.223  25.722  1.00  0.00    -0.463 OA
BRANCH   4   5
ATOM      5  C   UNL A   1      32.149  23.769  24.534  1.00  0.00     0.313 C 
ATOM      6  O   UNL A   1      30.967  23.835  24.195  1.00  0.00    -0.252 OA
BRANCH   5   7
ATOM      7  C   UNL A   1      33.184  23.121  23.616  1.00  0.00     0.126 C 
ATOM      8  C   UNL A   1      32.471  22.124  22.709  1.00  0.00     0.025 C 
BRANCH   7   9
ATOM      9  C   UNL A   1      34.488  22.542  24.166  1.00  0.00    -0.034 A 
ATOM     10  C   UNL A   1      37.003  21.584  25.195  1.00  0.00    -0.015 A 
ATOM     11  C   UNL A   1      35.895  20.731  24.990  1.00  0.00     0.009 A 
ATOM     12  C   UNL A   1      36.830  22.950  24.884  1.00  0.00    -0.043 A 
ATOM     13  C   UNL A   1      34.665  21.194  24.482  1.00  0.00     0.005 A 
ATOM     14  C   UNL A   1      35.587  23.401  24.378  1.00  0.00     0.008 A 
ATOM     15  C   UNL A   1      37.901  23.989  25.097  1.00  0.00     0.045 C 
BRANCH  10  16
ATOM     16  C   UNL A   1      38.303  21.004  25.619  1.00  0.00    -0.014 A 
ATOM     17  C   UNL A   1      40.576  21.188  26.475  1.00  0.00     0.133 A 
ATOM     18  C   UNL A   1      40.821  19.844  26.202  1.00  0.00     0.047 A 
ATOM     19  C   UNL A   1      39.330  21.769  26.207  1.00  0.00     0.056 A 
ATOM     20  C   UNL A   1      39.804  19.064  25.661  1.00  0.00     0.004 A 
ATOM     21  C   UNL A   1      38.566  19.642  25.368  1.00  0.00     0.009 A 
BRANCH  17  22
ATOM     22  O   UNL A   1      41.702  21.941  26.872  1.00  0.00    -0.410 OA
BRANCH  22  23
ATOM     23  C   UNL A   1      42.598  22.440  25.939  1.00  0.00     0.412 C 
ATOM     24  N   UNL A   1      42.784  23.793  26.040  1.00  0.00    -0.321 N 
ATOM     25  H   UNL A   1      43.404  24.198  25.391  1.00  0.00     0.167 HD
ATOM     26  O   UNL A   1      43.189  21.785  25.089  1.00  0.00    -0.224 OA
BRANCH  24  27
ATOM     27  C   UNL A   1      42.168  24.698  26.994  1.00  0.00     0.119 C 
BRANCH  27  28
ATOM     28  C   UNL A   1      40.838  25.256  26.480  1.00  0.00     0.021 C 
BRANCH  28  29
ATOM     29  C   UNL A   1      39.978  25.960  27.538  1.00  0.00     0.002 C 
BRANCH  29  30
ATOM     30  C   UNL A   1      40.256  27.455  27.729  1.00  0.00    -0.000 C 
BRANCH  30  31
ATOM     31  C   UNL A   1      39.905  28.018  29.109  1.00  0.00    -0.003 C 
ATOM     32  C   UNL A   1      38.934  27.144  29.889  1.00  0.00     0.004 C 
ENDBRANCH  30  31
ENDBRANCH  29  30
ENDBRANCH  28  29
ENDBRANCH  27  28
ENDBRANCH  24  27
ENDBRANCH  22  23
ENDBRANCH  17  22
ENDBRANCH  10  16
ENDBRANCH   7   9
ENDBRANCH   5   7
ENDBRANCH   4   5
ENDBRANCH   3   4
ENDBRANCH   2   3
ENDBRANCH   1   2
BRANCH   1  33
ATOM     33  C   UNL A   1      32.189  28.786  25.895  1.00  0.00     0.188 C 
BRANCH  33  34
ATOM     34  C   UNL A   1      32.804  29.516  27.098  1.00  0.00     0.188 C 
BRANCH  34  35
ATOM     35  O   UNL A   1      33.693  30.565  26.778  1.00  0.00    -0.377 OA
BRANCH  35  36
ATOM     36  C   UNL A   1      34.117  31.382  27.855  1.00  0.00     0.188 C 
BRANCH  36  37
ATOM     37  C   UNL A   1      33.678  32.857  27.803  1.00  0.00     0.188 C 
BRANCH  37  38
ATOM     38  O   UNL A   1      33.902  33.571  29.016  1.00  0.00    -0.376 OA
BRANCH  38  39
ATOM     39  C   UNL A   1      34.581  32.908  30.076  1.00  0.00     0.202 C 
BRANCH  39  40
ATOM     40  C   UNL A   1      34.505  33.523  31.486  1.00  0.00     0.261 C 
BRANCH  40  41
ATOM     41  O   UNL A   1      35.231  34.742  31.689  1.00  0.00    -0.460 OA
BRANCH  41  42
ATOM     42  C   UNL A   1      35.465  35.133  32.961  1.00  0.00     0.338 C 
ATOM     43  O   UNL A   1      34.746  35.811  33.661  1.00  0.00    -0.246 OA
BRANCH  42  44
ATOM     44  C   UNL A   1      36.646  34.386  33.454  1.00  0.00     0.060 A 
ATOM     45  C   UNL A   1      36.503  33.620  34.619  1.00  0.00     0.016 A 
ATOM     46  C   UNL A   1      37.878  34.452  32.799  1.00  0.00     0.016 A 
ATOM     47  C   UNL A   1      37.608  32.979  35.173  1.00  0.00     0.010 A 
ATOM     48  C   UNL A   1      38.993  33.825  33.369  1.00  0.00     0.010 A 
ATOM     49  C   UNL A   1      38.871  33.132  34.587  1.00  0.00    -0.014 A 
BRANCH  49  50
ATOM     50  C   UNL A   1      40.071  32.777  35.388  1.00  0.00     0.031 A 
ATOM     51  C   UNL A   1      40.670  33.838  36.277  1.00  0.00     0.074 A 
ATOM     52  C   UNL A   1      40.577  31.530  35.391  1.00  0.00     0.049 A 
ATOM     53  N   UNL A   1      41.683  33.759  37.099  1.00  0.00    -0.248 NA
ATOM     54  C   UNL A   1      40.031  35.166  36.238  1.00  0.00     0.031 C 
ATOM     55  C   UNL A   1      40.072  30.410  34.601  1.00  0.00     0.029 A 
ATOM     56  N   UNL A   1      41.639  31.004  36.084  1.00  0.00    -0.354 N 
ATOM     57  C   UNL A   1      41.815  35.025  37.660  1.00  0.00     0.074 A 
ATOM     58  C   UNL A   1      40.794  35.861  37.067  1.00  0.00     0.031 C 
ATOM     59  C   UNL A   1      40.836  29.329  34.842  1.00  0.00     0.029 A 
ATOM     60  C   UNL A   1      41.895  29.686  35.784  1.00  0.00     0.049 A 
ATOM     61  H   UNL A   1      42.166  31.520  36.735  1.00  0.00     0.167 HD
ATOM     62  C   UNL A   1      42.690  35.452  38.600  1.00  0.00     0.034 A 
ATOM     63  C   UNL A   1      42.882  28.872  36.212  1.00  0.00     0.034 A 
ATOM     64  C   UNL A   1      43.697  34.620  39.199  1.00  0.00     0.049 A 
ATOM     65  C   UNL A   1      43.882  29.391  37.216  1.00  0.00     0.074 A 
ATOM     66  C   UNL A   1      44.620  34.954  40.173  1.00  0.00     0.029 A 
ATOM     67  N   UNL A   1      43.922  33.293  38.870  1.00  0.00    -0.354 N 
ATOM     68  N   UNL A   1      43.931  30.560  37.810  1.00  0.00    -0.248 NA
ATOM     69  C   UNL A   1      44.944  28.465  37.635  1.00  0.00     0.031 C 
ATOM     70  C   UNL A   1      45.426  33.837  40.413  1.00  0.00     0.029 A 
ATOM     71  C   UNL A   1      44.978  32.795  39.615  1.00  0.00     0.049 A 
ATOM     72  H   UNL A   1      43.409  32.780  38.207  1.00  0.00     0.167 HD
ATOM     73  C   UNL A   1      44.998  30.493  38.700  1.00  0.00     0.074 A 
ATOM     74  C   UNL A   1      45.554  29.161  38.585  1.00  0.00     0.031 C 
ATOM     75  C   UNL A   1      45.484  31.450  39.530  1.00  0.00     0.034 A 
BRANCH  62  76
ATOM     76  C   UNL A   1      42.579  36.884  39.058  1.00  0.00     0.023 A 
ATOM     77  C   UNL A   1      41.674  37.220  40.086  1.00  0.00     0.012 A 
ATOM     78  C   UNL A   1      43.403  37.885  38.507  1.00  0.00     0.148 A 
ATOM     79  C   UNL A   1      41.569  38.535  40.537  1.00  0.00     0.002 A 
ATOM     80  C   UNL A   1      43.325  39.184  38.994  1.00  0.00     0.091 A 
ATOM     81  F   UNL A   1      44.242  37.548  37.517  1.00  0.00    -0.205 F 
ATOM     82  C   UNL A   1      42.401  39.514  39.999  1.00  0.00     0.022 A 
BRANCH  80  83
ATOM     83  S   UNL A   1      44.405  40.501  38.424  1.00  0.00     0.127 S 
ATOM     84  O   UNL A   1      45.433  40.510  39.464  1.00  0.00    -0.237 OA
ATOM     85  O   UNL A   1      44.853  39.990  37.129  1.00  0.00    -0.237 OA
ATOM     86  O   UNL A   1      43.581  41.699  38.356  1.00  0.00    -0.744 OA
ENDBRANCH  80  83
ENDBRANCH  62  76
BRANCH  63  87
ATOM     87  C   UNL A   1      42.972  27.467  35.717  1.00  0.00     0.023 A 
ATOM     88  C   UNL A   1      42.245  26.449  36.367  1.00  0.00     0.012 A 
ATOM     89  C   UNL A   1      43.799  27.129  34.628  1.00  0.00     0.148 A 
ATOM     90  C   UNL A   1      42.372  25.117  35.968  1.00  0.00     0.002 A 
ATOM     91  C   UNL A   1      43.876  25.808  34.200  1.00  0.00     0.091 A 
ATOM     92  F   UNL A   1      44.499  28.105  34.034  1.00  0.00    -0.205 F 
ATOM     93  C   UNL A   1      43.181  24.799  34.881  1.00  0.00     0.022 A 
BRANCH  91  94
ATOM     94  S   UNL A   1      44.799  25.323  32.737  1.00  0.00     0.127 S 
ATOM     95  O   UNL A   1      46.178  25.447  33.199  1.00  0.00    -0.237 OA
ATOM     96  O   UNL A   1      44.337  23.948  32.534  1.00  0.00    -0.237 OA
ATOM     97  O   UNL A   1      44.395  26.252  31.691  1.00  0.00    -0.744 OA
ENDBRANCH  91  94
ENDBRANCH  63  87
BRANCH  75  98
ATOM     98  C   UNL A   1      46.646  31.084  40.420  1.00  0.00     0.023 A 
ATOM     99  C   UNL A   1      46.412  30.535  41.696  1.00  0.00     0.012 A 
ATOM    100  C   UNL A   1      47.971  31.222  39.960  1.00  0.00     0.148 A 
ATOM    101  C   UNL A   1      47.480  30.168  42.517  1.00  0.00     0.002 A 
ATOM    102  C   UNL A   1      49.027  30.805  40.761  1.00  0.00     0.091 A 
ATOM    103  F   UNL A   1      48.175  31.760  38.749  1.00  0.00    -0.205 F 
ATOM    104  C   UNL A   1      48.784  30.291  42.045  1.00  0.00     0.022 A 
BRANCH 102 105
ATOM    105  S   UNL A   1      50.734  30.831  40.200  1.00  0.00     0.127 S 
ATOM    106  O   UNL A   1      51.450  30.416  41.406  1.00  0.00    -0.237 OA
ATOM    107  O   UNL A   1      50.722  29.837  39.127  1.00  0.00    -0.237 OA
ATOM    108  O   UNL A   1      50.994  32.195  39.760  1.00  0.00    -0.744 OA
ENDBRANCH 102 105
ENDBRANCH  75  98
ENDBRANCH  49  50
ENDBRANCH  42  44
ENDBRANCH  41  42
ENDBRANCH  40  41
ENDBRANCH  39  40
ENDBRANCH  38  39
ENDBRANCH  37  38
ENDBRANCH  36  37
ENDBRANCH  35  36
ENDBRANCH  34  35
ENDBRANCH  33  34
ENDBRANCH   1  33
TORSDOF 32
ENDMDL
MODEL 3
REMARK VINA RESULT:      -7.1      3.655      4.199
REMARK SMILES CCCCCCNC(=O)Oc1cccc(-c2ccc([C@@H](C)C(=O)OCCOCCOCCOCCOC(=O)c3ccc(-c4c5nc(c(-c6cccc(S(=O)(=O)[O-])c6F)c6ccc([nH]6)c(-c6cccc(S(=O)(=O)[O-])c6F)c6nc(c(-c7cccc(S(=O)(=O)[O-])c7F)c7ccc4[nH]7)C=C6)C=C5)cc3)cc2C)c1
REMARK SMILES IDX 27 1 26 2 25 3 24 4 22 5 23 6 20 7 21 8 19 9 16 10 17 11
REMARK SMILES IDX 103 12 18 13 102 14 104 15 15 16 11 17 12 18 105 19 13 20
REMARK SMILES IDX 14 21 10 22 8 23 7 24 9 26 6 27 5 28 4 29 3 30 2 31 1 32
REMARK SMILES IDX 28 33 29 34 30 35 31 36 32 37 33 38 34 39 35 40 36 41 37 42
REMARK SMILES IDX 38 43 39 44 40 45 101 46 41 47 100 48 42 49 43 50 44 51
REMARK SMILES IDX 94 52 45 53 99 54 93 55 95 56 46 57 98 58 92 59 91 60 47 62
REMARK SMILES IDX 79 63 59 64 78 65 60 66 63 67 77 68 96 69 61 70 62 71 76 73
REMARK SMILES IDX 97 74 64 75 48 76 49 77 57 78 50 79 52 80 58 81 51 82 53 83
REMARK SMILES IDX 54 84 55 85 56 86 80 87 81 88 89 89 82 90 84 91 90 92 83 93
REMARK SMILES IDX 85 94 86 95 87 96 88 97 65 98 66 99 74 100 67 101 69 102
REMARK SMILES IDX 75 103 68 104 70 105 71 106 72 107 73 108
REMARK H PARENT 7 25 95 61 63 72
REMARK Flexibility Score: inf
ROOT
ATOM      1  O   UNL A   1      32.201  27.396  25.864  1.00  0.00    -0.376 OA
ENDROOT
BRANCH   1   2
ATOM      2  C   UNL A   1      33.231  26.833  25.063  1.00  0.00     0.202 C 
BRANCH   2   3
ATOM      3  C   UNL A   1      34.301  25.926  25.700  1.00  0.00     0.261 C 
BRANCH   3   4
ATOM      4  O   UNL A   1      33.849  24.671  26.253  1.00  0.00    -0.463 OA
BRANCH   4   5
ATOM      5  C   UNL A   1      33.461  23.726  25.366  1.00  0.00     0.313 C 
ATOM      6  O   UNL A   1      32.339  23.220  25.360  1.00  0.00    -0.252 OA
BRANCH   5   7
ATOM      7  C   UNL A   1      34.521  23.273  24.362  1.00  0.00     0.126 C 
ATOM      8  C   UNL A   1      33.865  22.335  23.355  1.00  0.00     0.025 C 
BRANCH   7   9
ATOM      9  C   UNL A   1      35.879  22.739  24.821  1.00  0.00    -0.034 A 
ATOM     10  C   UNL A   1      38.470  21.867  25.729  1.00  0.00    -0.015 A 
ATOM     11  C   UNL A   1      37.547  20.989  25.120  1.00  0.00     0.009 A 
ATOM     12  C   UNL A   1      38.069  23.211  25.893  1.00  0.00    -0.043 A 
ATOM     13  C   UNL A   1      36.281  21.412  24.669  1.00  0.00     0.005 A 
ATOM     14  C   UNL A   1      36.792  23.621  25.438  1.00  0.00     0.008 A 
ATOM     15  C   UNL A   1      38.922  24.253  26.569  1.00  0.00     0.045 C 
BRANCH  10  16
ATOM     16  C   UNL A   1      39.830  21.378  26.069  1.00  0.00    -0.014 A 
ATOM     17  C   UNL A   1      42.186  21.721  26.582  1.00  0.00     0.133 A 
ATOM     18  C   UNL A   1      42.436  20.353  26.500  1.00  0.00     0.047 A 
ATOM     19  C   UNL A   1      40.900  22.239  26.388  1.00  0.00     0.056 A 
ATOM     20  C   UNL A   1      41.384  19.485  26.228  1.00  0.00     0.004 A 
ATOM     21  C   UNL A   1      40.101  19.995  26.008  1.00  0.00     0.009 A 
BRANCH  17  22
ATOM     22  O   UNL A   1      43.330  22.540  26.704  1.00  0.00    -0.410 OA
BRANCH  22  23
ATOM     23  C   UNL A   1      43.529  23.626  25.866  1.00  0.00     0.412 C 
ATOM     24  N   UNL A   1      43.732  24.799  26.544  1.00  0.00    -0.321 N 
ATOM     25  H   UNL A   1      43.868  25.604  25.994  1.00  0.00     0.167 HD
ATOM     26  O   UNL A   1      43.529  23.599  24.642  1.00  0.00    -0.224 OA
BRANCH  24  27
ATOM     27  C   UNL A   1      43.771  24.990  27.983  1.00  0.00     0.119 C 
BRANCH  27  28
ATOM     28  C   UNL A   1      42.451  25.546  28.523  1.00  0.00     0.021 C 
BRANCH  28  29
ATOM     29  C   UNL A   1      42.151  26.999  28.132  1.00  0.00     0.002 C 
BRANCH  29  30
ATOM     30  C   UNL A   1      40.672  27.402  28.166  1.00  0.00    -0.000 C 
BRANCH  30  31
ATOM     31  C   UNL A   1      40.223  28.349  27.049  1.00  0.00    -0.003 C 
ATOM     32  C   UNL A   1      41.380  28.949  26.265  1.00  0.00     0.004 C 
ENDBRANCH  30  31
ENDBRANCH  29  30
ENDBRANCH  28  29
ENDBRANCH  27  28
ENDBRANCH  24  27
ENDBRANCH  22  23
ENDBRANCH  17  22
ENDBRANCH  10  16
ENDBRANCH   7   9
ENDBRANCH   5   7
ENDBRANCH   4   5
ENDBRANCH   3   4
ENDBRANCH   2   3
ENDBRANCH   1   2
BRANCH   1  33
ATOM     33  C   UNL A   1      32.090  28.806  26.015  1.00  0.00     0.188 C 
BRANCH  33  34
ATOM     34  C   UNL A   1      32.793  29.553  27.158  1.00  0.00     0.188 C 
BRANCH  34  35
ATOM     35  O   UNL A   1      33.415  30.766  26.794  1.00  0.00    -0.377 OA
BRANCH  35  36
ATOM     36  C   UNL A   1      34.104  31.455  27.823  1.00  0.00     0.188 C 
BRANCH  36  37
ATOM     37  C   UNL A   1      33.771  32.949  27.982  1.00  0.00     0.188 C 
BRANCH  37  38
ATOM     38  O   UNL A   1      34.072  33.476  29.272  1.00  0.00    -0.376 OA
BRANCH  38  39
ATOM     39  C   UNL A   1      35.022  32.789  30.078  1.00  0.00     0.202 C 
BRANCH  39  40
ATOM     40  C   UNL A   1      35.144  33.192  31.560  1.00  0.00     0.261 C 
BRANCH  40  41
ATOM     41  O   UNL A   1      35.667  34.500  31.824  1.00  0.00    -0.460 OA
BRANCH  41  42
ATOM     42  C   UNL A   1      36.337  34.690  32.982  1.00  0.00     0.338 C 
ATOM     43  O   UNL A   1      35.863  34.960  34.064  1.00  0.00    -0.246 OA
BRANCH  42  44
ATOM     44  C   UNL A   1      37.741  34.271  32.766  1.00  0.00     0.060 A 
ATOM     45  C   UNL A   1      38.361  33.506  33.763  1.00  0.00     0.016 A 
ATOM     46  C   UNL A   1      38.446  34.639  31.618  1.00  0.00     0.016 A 
ATOM     47  C   UNL A   1      39.708  33.169  33.649  1.00  0.00     0.010 A 
ATOM     48  C   UNL A   1      39.805  34.320  31.515  1.00  0.00     0.010 A 
ATOM     49  C   UNL A   1      40.453  33.630  32.556  1.00  0.00    -0.014 A 
BRANCH  49  50
ATOM     50  C   UNL A   1      41.936  33.598  32.646  1.00  0.00     0.031 A 
ATOM     51  C   UNL A   1      42.621  34.673  33.450  1.00  0.00     0.074 A 
ATOM     52  C   UNL A   1      42.656  32.603  32.096  1.00  0.00     0.049 A 
ATOM     53  N   UNL A   1      43.892  34.833  33.712  1.00  0.00    -0.248 NA
ATOM     54  C   UNL A   1      41.753  35.703  34.047  1.00  0.00     0.031 C 
ATOM     55  C   UNL A   1      42.111  31.491  31.321  1.00  0.00     0.029 A 
ATOM     56  N   UNL A   1      44.011  32.379  32.103  1.00  0.00    -0.354 N 
ATOM     57  C   UNL A   1      43.978  35.986  34.485  1.00  0.00     0.074 A 
ATOM     58  C   UNL A   1      42.634  36.500  34.630  1.00  0.00     0.031 C 
ATOM     59  C   UNL A   1      43.126  30.707  30.913  1.00  0.00     0.029 A 
ATOM     60  C   UNL A   1      44.391  31.274  31.378  1.00  0.00     0.049 A 
ATOM     61  H   UNL A   1      44.649  32.953  32.584  1.00  0.00     0.167 HD
ATOM     62  C   UNL A   1      45.070  36.556  35.045  1.00  0.00     0.034 A 
ATOM     63  C   UNL A   1      45.621  30.790  31.109  1.00  0.00     0.034 A 
ATOM     64  C   UNL A   1      46.404  36.040  34.910  1.00  0.00     0.049 A 
ATOM     65  C   UNL A   1      46.828  31.480  31.697  1.00  0.00     0.074 A 
ATOM     66  C   UNL A   1      47.576  36.535  35.454  1.00  0.00     0.029 A 
ATOM     67  N   UNL A   1      46.747  34.920  34.171  1.00  0.00    -0.354 N 
ATOM     68  N   UNL A   1      46.883  32.509  32.507  1.00  0.00    -0.248 NA
ATOM     69  C   UNL A   1      48.144  30.917  31.359  1.00  0.00     0.031 C 
ATOM     70  C   UNL A   1      48.633  35.731  35.017  1.00  0.00     0.029 A 
ATOM     71  C   UNL A   1      48.115  34.712  34.233  1.00  0.00     0.049 A 
ATOM     72  H   UNL A   1      46.113  34.355  33.674  1.00  0.00     0.167 HD
ATOM     73  C   UNL A   1      48.230  32.689  32.808  1.00  0.00     0.074 A 
ATOM     74  C   UNL A   1      48.955  31.648  32.112  1.00  0.00     0.031 C 
ATOM     75  C   UNL A   1      48.817  33.638  33.581  1.00  0.00     0.034 A 
BRANCH  62  76
ATOM     76  C   UNL A   1      44.862  37.796  35.876  1.00  0.00     0.023 A 
ATOM     77  C   UNL A   1      44.731  37.683  37.276  1.00  0.00     0.012 A 
ATOM     78  C   UNL A   1      44.846  39.072  35.280  1.00  0.00     0.148 A 
ATOM     79  C   UNL A   1      44.557  38.819  38.066  1.00  0.00     0.002 A 
ATOM     80  C   UNL A   1      44.717  40.202  36.079  1.00  0.00     0.091 A 
ATOM     81  F   UNL A   1      44.951  39.155  33.946  1.00  0.00    -0.205 F 
ATOM     82  C   UNL A   1      44.560  40.077  37.469  1.00  0.00     0.022 A 
BRANCH  80  83
ATOM     83  S   UNL A   1      44.787  41.871  35.419  1.00  0.00     0.127 S 
ATOM     84  O   UNL A   1      44.362  42.662  36.573  1.00  0.00    -0.237 OA
ATOM     85  O   UNL A   1      46.203  42.005  35.077  1.00  0.00    -0.237 OA
ATOM     86  O   UNL A   1      43.879  41.894  34.282  1.00  0.00    -0.744 OA
ENDBRANCH  80  83
ENDBRANCH  62  76
BRANCH  63  87
ATOM     87  C   UNL A   1      45.788  29.573  30.262  1.00  0.00     0.023 A 
ATOM     88  C   UNL A   1      45.871  28.304  30.869  1.00  0.00     0.012 A 
ATOM     89  C   UNL A   1      45.896  29.669  28.860  1.00  0.00     0.148 A 
ATOM     90  C   UNL A   1      46.101  27.161  30.102  1.00  0.00     0.002 A 
ATOM     91  C   UNL A   1      46.069  28.520  28.098  1.00  0.00     0.091 A 
ATOM     92  F   UNL A   1      45.836  30.886  28.301  1.00  0.00    -0.205 F 
ATOM     93  C   UNL A   1      46.192  27.268  28.717  1.00  0.00     0.022 A 
BRANCH  91  94
ATOM     94  S   UNL A   1      46.078  28.549  26.302  1.00  0.00     0.127 S 
ATOM     95  O   UNL A   1      44.856  29.292  26.008  1.00  0.00    -0.237 OA
ATOM     96  O   UNL A   1      47.321  29.269  26.019  1.00  0.00    -0.237 OA
ATOM     97  O   UNL A   1      46.086  27.153  25.886  1.00  0.00    -0.744 OA
ENDBRANCH  91  94
ENDBRANCH  63  87
BRANCH  75  98
ATOM     98  C   UNL A   1      50.312  33.571  33.760  1.00  0.00     0.023 A 
ATOM     99  C   UNL A   1      50.864  32.812  34.810  1.00  0.00     0.012 A 
ATOM    100  C   UNL A   1      51.173  34.208  32.843  1.00  0.00     0.148 A 
ATOM    101  C   UNL A   1      52.248  32.720  34.969  1.00  0.00     0.002 A 
ATOM    102  C   UNL A   1      52.549  34.069  32.975  1.00  0.00     0.091 A 
ATOM    103  F   UNL A   1      50.630  34.938  31.857  1.00  0.00    -0.205 F 
ATOM    104  C   UNL A   1      53.088  33.338  34.046  1.00  0.00     0.022 A 
BRANCH 102 105
ATOM    105  S   UNL A   1      53.708  34.743  31.779  1.00  0.00     0.127 S 
ATOM    106  O   UNL A   1      53.424  36.175  31.865  1.00  0.00    -0.237 OA
ATOM    107  O   UNL A   1      54.999  34.342  32.340  1.00  0.00    -0.237 OA
ATOM    108  O   UNL A   1      53.382  34.119  30.505  1.00  0.00    -0.744 OA
ENDBRANCH 102 105
ENDBRANCH  75  98
ENDBRANCH  49  50
ENDBRANCH  42  44
ENDBRANCH  41  42
ENDBRANCH  40  41
ENDBRANCH  39  40
ENDBRANCH  38  39
ENDBRANCH  37  38
ENDBRANCH  36  37
ENDBRANCH  35  36
ENDBRANCH  34  35
ENDBRANCH  33  34
ENDBRANCH   1  33
TORSDOF 32
ENDMDL
