MODEL 1
REMARK VINA RESULT:      -8.4      0.000      0.000
REMARK SMILES COC(=O)c1c(NC(=O)[C@@H]2C[C@@H]2C(=O)OCCOCCOCCOCCOC(=O)c2ccc(-c3c4nc(c(-c5cccc(S(=O)(=O)[O-])c5F)c5ccc([nH]5)c(-c5cccc(S(=O)(=O)[O-])c5F)c5nc(c(-c6cccc(S(=O)(=O)[O-])c6F)c6ccc3[nH]6)C=C5)C=C4)cc2)sc2c1CC[N@@H+](Cc1ccccc1)C2
REMARK SMILES IDX 20 1 19 2 18 3 17 4 16 5 15 6 13 7 14 8 12 9 10 10 11 11
REMARK SMILES IDX 8 12 7 13 9 15 6 16 5 17 95 18 93 19 94 20 96 21 106 22
REMARK SMILES IDX 97 23 98 24 3 26 4 27 2 28 1 29 99 30 100 31 101 32 105 33
REMARK SMILES IDX 102 34 104 35 103 36 21 37 22 38 23 39 24 40 25 41 26 42
REMARK SMILES IDX 27 43 28 44 29 45 30 46 31 47 92 48 32 49 91 50 33 51 34 52
REMARK SMILES IDX 35 53 85 54 36 55 90 56 84 57 86 58 37 59 89 60 83 61 82 62
REMARK SMILES IDX 38 64 70 65 50 66 69 67 51 68 54 69 68 70 87 71 52 72 53 73
REMARK SMILES IDX 67 75 88 76 55 77 39 78 40 79 48 80 41 81 43 82 49 83 42 84
REMARK SMILES IDX 44 85 45 86 46 87 47 88 71 89 72 90 80 91 73 92 75 93 81 94
REMARK SMILES IDX 74 95 76 96 77 97 78 98 79 99 56 100 57 101 65 102 58 103
REMARK SMILES IDX 60 104 66 105 59 106 61 107 62 108 63 109 64 110
REMARK H PARENT 7 14 98 25 86 63 54 74
REMARK Flexibility Score: inf
ROOT
ATOM      1  C   UNL A   1      34.808  31.264  28.604  1.00  0.00     0.188 C 
ENDROOT
BRANCH   1   2
ATOM      2  C   UNL A   1      33.762  30.502  27.763  1.00  0.00     0.188 C 
BRANCH   2   3
ATOM      3  O   UNL A   1      34.172  30.344  26.408  1.00  0.00    -0.376 OA
BRANCH   3   4
ATOM      4  C   UNL A   1      34.396  29.012  25.982  1.00  0.00     0.202 C 
BRANCH   4   5
ATOM      5  C   UNL A   1      33.811  28.715  24.601  1.00  0.00     0.261 C 
BRANCH   5   6
ATOM      6  O   UNL A   1      32.926  27.579  24.541  1.00  0.00    -0.463 OA
BRANCH   6   7
ATOM      7  C   UNL A   1      31.618  27.757  24.849  1.00  0.00     0.309 C 
ATOM      8  O   UNL A   1      31.170  28.109  25.929  1.00  0.00    -0.252 OA
BRANCH   7   9
ATOM      9  C   UNL A   1      30.770  27.291  23.743  1.00  0.00     0.112 C 
ATOM     10  C   UNL A   1      31.125  26.394  22.577  1.00  0.00     0.094 C 
ATOM     11  C   UNL A   1      30.799  27.876  22.382  1.00  0.00     0.030 C 
BRANCH  10  12
ATOM     12  C   UNL A   1      32.312  26.007  21.799  1.00  0.00     0.229 C 
ATOM     13  N   UNL A   1      33.263  25.163  22.329  1.00  0.00    -0.317 N 
ATOM     14  H   UNL A   1      34.082  25.124  21.783  1.00  0.00     0.170 HD
ATOM     15  O   UNL A   1      32.436  26.385  20.636  1.00  0.00    -0.274 OA
BRANCH  13  16
ATOM     16  C   UNL A   1      33.330  24.359  23.454  1.00  0.00     0.110 A 
ATOM     17  C   UNL A   1      32.522  23.738  24.397  1.00  0.00     0.098 A 
ATOM     18  C   UNL A   1      33.287  22.810  25.204  1.00  0.00    -0.006 A 
ATOM     19  S   UNL A   1      35.000  23.996  23.742  1.00  0.00    -0.116 S 
ATOM     20  C   UNL A   1      34.617  22.784  24.857  1.00  0.00     0.065 A 
ATOM     21  C   UNL A   1      32.729  21.818  26.188  1.00  0.00     0.099 C 
ATOM     22  C   UNL A   1      35.593  21.757  25.348  1.00  0.00     0.310 C 
ATOM     23  C   UNL A   1      33.775  20.766  26.637  1.00  0.00     0.267 C 
ATOM     24  N   UNL A   1      34.903  20.503  25.724  1.00  0.00    -0.326 N 
ATOM     25  H   UNL A   1      35.576  19.959  26.264  1.00  0.00     0.348 HD
BRANCH  17  26
ATOM     26  C   UNL A   1      31.094  23.870  24.627  1.00  0.00     0.341 C 
ATOM     27  O   UNL A   1      30.264  23.700  23.758  1.00  0.00    -0.246 OA
BRANCH  26  28
ATOM     28  O   UNL A   1      30.804  24.289  25.897  1.00  0.00    -0.465 OA
ATOM     29  C   UNL A   1      29.588  25.031  26.008  1.00  0.00     0.282 C 
ENDBRANCH  26  28
ENDBRANCH  17  26
BRANCH  24  30
ATOM     30  C   UNL A   1      34.637  19.563  24.624  1.00  0.00     0.299 C 
BRANCH  30  31
ATOM     31  C   UNL A   1      34.177  18.159  24.960  1.00  0.00     0.006 A 
ATOM     32  C   UNL A   1      32.854  17.906  25.351  1.00  0.00     0.009 A 
ATOM     33  C   UNL A   1      35.059  17.073  24.852  1.00  0.00     0.009 A 
ATOM     34  C   UNL A   1      32.408  16.597  25.548  1.00  0.00     0.001 A 
ATOM     35  C   UNL A   1      34.608  15.763  25.028  1.00  0.00     0.001 A 
ATOM     36  C   UNL A   1      33.280  15.526  25.367  1.00  0.00     0.000 A 
ENDBRANCH  30  31
ENDBRANCH  24  30
ENDBRANCH  13  16
ENDBRANCH  10  12
ENDBRANCH   7   9
ENDBRANCH   6   7
ENDBRANCH   5   6
ENDBRANCH   4   5
ENDBRANCH   3   4
ENDBRANCH   2   3
ENDBRANCH   1   2
BRANCH   1  37
ATOM     37  O   UNL A   1      34.408  32.398  29.352  1.00  0.00    -0.377 OA
BRANCH  37  38
ATOM     38  C   UNL A   1      34.266  33.596  28.633  1.00  0.00     0.188 C 
BRANCH  38  39
ATOM     39  C   UNL A   1      33.717  34.770  29.466  1.00  0.00     0.188 C 
BRANCH  39  40
ATOM     40  O   UNL A   1      33.462  34.709  30.864  1.00  0.00    -0.376 OA
BRANCH  40  41
ATOM     41  C   UNL A   1      34.380  34.709  31.951  1.00  0.00     0.202 C 
BRANCH  41  42
ATOM     42  C   UNL A   1      35.190  33.542  32.499  1.00  0.00     0.261 C 
BRANCH  42  43
ATOM     43  O   UNL A   1      36.538  33.820  32.720  1.00  0.00    -0.460 OA
BRANCH  43  44
ATOM     44  C   UNL A   1      37.314  33.386  31.717  1.00  0.00     0.338 C 
ATOM     45  O   UNL A   1      36.964  33.021  30.607  1.00  0.00    -0.246 OA
BRANCH  44  46
ATOM     46  C   UNL A   1      38.680  33.308  32.220  1.00  0.00     0.060 A 
ATOM     47  C   UNL A   1      39.013  32.079  32.781  1.00  0.00     0.016 A 
ATOM     48  C   UNL A   1      39.322  34.514  32.547  1.00  0.00     0.016 A 
ATOM     49  C   UNL A   1      39.743  32.112  33.933  1.00  0.00     0.010 A 
ATOM     50  C   UNL A   1      40.024  34.548  33.716  1.00  0.00     0.010 A 
ATOM     51  C   UNL A   1      40.125  33.361  34.434  1.00  0.00    -0.014 A 
BRANCH  51  52
ATOM     52  C   UNL A   1      40.728  33.373  35.737  1.00  0.00     0.031 A 
ATOM     53  C   UNL A   1      39.720  33.555  36.792  1.00  0.00     0.074 A 
ATOM     54  C   UNL A   1      42.044  33.177  35.913  1.00  0.00     0.049 A 
ATOM     55  N   UNL A   1      39.534  34.596  37.532  1.00  0.00    -0.248 NA
ATOM     56  C   UNL A   1      38.644  32.555  36.858  1.00  0.00     0.031 C 
ATOM     57  C   UNL A   1      43.023  32.680  34.943  1.00  0.00     0.029 A 
ATOM     58  N   UNL A   1      42.749  33.237  37.070  1.00  0.00    -0.354 N 
ATOM     59  C   UNL A   1      38.456  34.255  38.342  1.00  0.00     0.074 A 
ATOM     60  C   UNL A   1      37.805  33.145  37.707  1.00  0.00     0.031 C 
ATOM     61  C   UNL A   1      44.109  32.233  35.615  1.00  0.00     0.029 A 
ATOM     62  C   UNL A   1      43.939  32.525  37.029  1.00  0.00     0.049 A 
ATOM     63  H   UNL A   1      42.446  33.737  37.862  1.00  0.00     0.167 HD
ATOM     64  C   UNL A   1      38.397  34.692  39.626  1.00  0.00     0.034 A 
ATOM     65  C   UNL A   1      44.645  32.115  38.110  1.00  0.00     0.034 A 
ATOM     66  C   UNL A   1      39.236  35.854  39.816  1.00  0.00     0.049 A 
ATOM     67  C   UNL A   1      44.167  32.897  39.278  1.00  0.00     0.074 A 
ATOM     68  C   UNL A   1      39.325  37.096  39.216  1.00  0.00     0.029 A 
ATOM     69  N   UNL A   1      40.420  35.673  40.489  1.00  0.00    -0.354 N 
ATOM     70  N   UNL A   1      44.382  34.172  39.444  1.00  0.00    -0.248 NA
ATOM     71  C   UNL A   1      43.083  32.339  40.074  1.00  0.00     0.031 C 
ATOM     72  C   UNL A   1      40.717  37.401  39.192  1.00  0.00     0.029 A 
ATOM     73  C   UNL A   1      41.398  36.356  39.819  1.00  0.00     0.049 A 
ATOM     74  H   UNL A   1      40.543  35.143  41.310  1.00  0.00     0.167 HD
ATOM     75  C   UNL A   1      43.205  34.656  40.005  1.00  0.00     0.074 A 
ATOM     76  C   UNL A   1      42.496  33.469  40.477  1.00  0.00     0.031 C 
ATOM     77  C   UNL A   1      42.782  35.933  39.770  1.00  0.00     0.034 A 
BRANCH  64  78
ATOM     78  C   UNL A   1      37.948  33.824  40.786  1.00  0.00     0.023 A 
ATOM     79  C   UNL A   1      37.110  34.438  41.741  1.00  0.00     0.012 A 
ATOM     80  C   UNL A   1      38.508  32.572  41.148  1.00  0.00     0.148 A 
ATOM     81  C   UNL A   1      36.930  33.897  43.018  1.00  0.00     0.002 A 
ATOM     82  C   UNL A   1      38.267  32.001  42.390  1.00  0.00     0.091 A 
ATOM     83  F   UNL A   1      39.382  31.956  40.355  1.00  0.00    -0.205 F 
ATOM     84  C   UNL A   1      37.511  32.678  43.345  1.00  0.00     0.022 A 
BRANCH  82  85
ATOM     85  S   UNL A   1      38.962  30.403  42.838  1.00  0.00     0.127 S 
ATOM     86  O   UNL A   1      38.358  29.532  41.835  1.00  0.00    -0.237 OA
ATOM     87  O   UNL A   1      40.395  30.646  42.670  1.00  0.00    -0.237 OA
ATOM     88  O   UNL A   1      38.559  30.167  44.219  1.00  0.00    -0.744 OA
ENDBRANCH  82  85
ENDBRANCH  64  78
BRANCH  65  89
ATOM     89  C   UNL A   1      45.505  30.922  38.286  1.00  0.00     0.023 A 
ATOM     90  C   UNL A   1      46.724  31.061  38.978  1.00  0.00     0.012 A 
ATOM     91  C   UNL A   1      45.026  29.617  38.031  1.00  0.00     0.148 A 
ATOM     92  C   UNL A   1      47.422  29.941  39.440  1.00  0.00     0.002 A 
ATOM     93  C   UNL A   1      45.732  28.505  38.480  1.00  0.00     0.091 A 
ATOM     94  F   UNL A   1      43.834  29.465  37.439  1.00  0.00    -0.205 F 
ATOM     95  C   UNL A   1      46.924  28.665  39.199  1.00  0.00     0.022 A 
BRANCH  93  96
ATOM     96  S   UNL A   1      45.143  26.827  38.213  1.00  0.00     0.127 S 
ATOM     97  O   UNL A   1      44.220  26.644  39.334  1.00  0.00    -0.237 OA
ATOM     98  O   UNL A   1      44.504  26.934  36.906  1.00  0.00    -0.237 OA
ATOM     99  O   UNL A   1      46.328  25.978  38.276  1.00  0.00    -0.744 OA
ENDBRANCH  93  96
ENDBRANCH  65  89
BRANCH  77 100
ATOM    100  C   UNL A   1      43.757  36.911  39.164  1.00  0.00     0.023 A 
ATOM    101  C   UNL A   1      44.647  37.677  39.944  1.00  0.00     0.012 A 
ATOM    102  C   UNL A   1      43.887  36.938  37.765  1.00  0.00     0.148 A 
ATOM    103  C   UNL A   1      45.624  38.474  39.339  1.00  0.00     0.002 A 
ATOM    104  C   UNL A   1      44.891  37.691  37.170  1.00  0.00     0.091 A 
ATOM    105  F   UNL A   1      43.032  36.207  37.031  1.00  0.00    -0.205 F 
ATOM    106  C   UNL A   1      45.755  38.469  37.953  1.00  0.00     0.022 A 
BRANCH 104 107
ATOM    107  S   UNL A   1      45.179  37.608  35.401  1.00  0.00     0.127 S 
ATOM    108  O   UNL A   1      43.993  38.269  34.864  1.00  0.00    -0.237 OA
ATOM    109  O   UNL A   1      46.424  38.365  35.241  1.00  0.00    -0.237 OA
ATOM    110  O   UNL A   1      45.310  36.189  35.092  1.00  0.00    -0.744 OA
ENDBRANCH 104 107
ENDBRANCH  77 100
ENDBRANCH  51  52
ENDBRANCH  44  46
ENDBRANCH  43  44
ENDBRANCH  42  43
ENDBRANCH  41  42
ENDBRANCH  40  41
ENDBRANCH  39  40
ENDBRANCH  38  39
ENDBRANCH  37  38
ENDBRANCH   1  37
TORSDOF 29
ENDMDL
MODEL 2
REMARK VINA RESULT:      -8.1      6.457     10.486
REMARK SMILES COC(=O)c1c(NC(=O)[C@@H]2C[C@@H]2C(=O)OCCOCCOCCOCCOC(=O)c2ccc(-c3c4nc(c(-c5cccc(S(=O)(=O)[O-])c5F)c5ccc([nH]5)c(-c5cccc(S(=O)(=O)[O-])c5F)c5nc(c(-c6cccc(S(=O)(=O)[O-])c6F)c6ccc3[nH]6)C=C5)C=C4)cc2)sc2c1CC[N@@H+](Cc1ccccc1)C2
REMARK SMILES IDX 20 1 19 2 18 3 17 4 16 5 15 6 13 7 14 8 12 9 10 10 11 11
REMARK SMILES IDX 8 12 7 13 9 15 6 16 5 17 95 18 93 19 94 20 96 21 106 22
REMARK SMILES IDX 97 23 98 24 3 26 4 27 2 28 1 29 99 30 100 31 101 32 105 33
REMARK SMILES IDX 102 34 104 35 103 36 21 37 22 38 23 39 24 40 25 41 26 42
REMARK SMILES IDX 27 43 28 44 29 45 30 46 31 47 92 48 32 49 91 50 33 51 34 52
REMARK SMILES IDX 35 53 85 54 36 55 90 56 84 57 86 58 37 59 89 60 83 61 82 62
REMARK SMILES IDX 38 64 70 65 50 66 69 67 51 68 54 69 68 70 87 71 52 72 53 73
REMARK SMILES IDX 67 75 88 76 55 77 39 78 40 79 48 80 41 81 43 82 49 83 42 84
REMARK SMILES IDX 44 85 45 86 46 87 47 88 71 89 72 90 80 91 73 92 75 93 81 94
REMARK SMILES IDX 74 95 76 96 77 97 78 98 79 99 56 100 57 101 65 102 58 103
REMARK SMILES IDX 60 104 66 105 59 106 61 107 62 108 63 109 64 110
REMARK H PARENT 7 14 98 25 86 63 54 74
REMARK Flexibility Score: inf
ROOT
ATOM      1  C   UNL A   1      35.355  29.366  27.114  1.00  0.00     0.188 C 
ENDROOT
BRANCH   1   2
ATOM      2  C   UNL A   1      33.907  29.427  27.642  1.00  0.00     0.188 C 
BRANCH   2   3
ATOM      3  O   UNL A   1      33.218  30.591  27.192  1.00  0.00    -0.376 OA
BRANCH   3   4
ATOM      4  C   UNL A   1      32.457  30.440  26.008  1.00  0.00     0.202 C 
BRANCH   4   5
ATOM      5  C   UNL A   1      31.399  29.342  26.107  1.00  0.00     0.261 C 
BRANCH   5   6
ATOM      6  O   UNL A   1      31.696  28.134  25.379  1.00  0.00    -0.463 OA
BRANCH   6   7
ATOM      7  C   UNL A   1      30.685  27.488  24.748  1.00  0.00     0.309 C 
ATOM      8  O   UNL A   1      29.902  26.701  25.255  1.00  0.00    -0.252 OA
BRANCH   7   9
ATOM      9  C   UNL A   1      30.758  27.726  23.300  1.00  0.00     0.112 C 
ATOM     10  C   UNL A   1      31.849  27.345  22.322  1.00  0.00     0.094 C 
ATOM     11  C   UNL A   1      31.566  28.805  22.684  1.00  0.00     0.030 C 
BRANCH  10  12
ATOM     12  C   UNL A   1      33.294  27.070  22.326  1.00  0.00     0.229 C 
ATOM     13  N   UNL A   1      33.843  26.179  23.220  1.00  0.00    -0.317 N 
ATOM     14  H   UNL A   1      34.827  26.215  23.237  1.00  0.00     0.170 HD
ATOM     15  O   UNL A   1      34.022  27.590  21.483  1.00  0.00    -0.274 OA
BRANCH  13  16
ATOM     16  C   UNL A   1      33.327  25.243  24.101  1.00  0.00     0.110 A 
ATOM     17  C   UNL A   1      32.433  24.181  24.161  1.00  0.00     0.098 A 
ATOM     18  C   UNL A   1      32.565  23.463  25.411  1.00  0.00    -0.006 A 
ATOM     19  S   UNL A   1      34.097  25.483  25.635  1.00  0.00    -0.116 S 
ATOM     20  C   UNL A   1      33.518  24.013  26.235  1.00  0.00     0.065 A 
ATOM     21  C   UNL A   1      31.912  22.152  25.757  1.00  0.00     0.099 C 
ATOM     22  C   UNL A   1      34.038  23.350  27.476  1.00  0.00     0.310 C 
ATOM     23  C   UNL A   1      32.510  21.503  27.030  1.00  0.00     0.267 C 
ATOM     24  N   UNL A   1      33.887  21.880  27.399  1.00  0.00    -0.326 N 
ATOM     25  H   UNL A   1      34.027  21.530  28.347  1.00  0.00     0.348 HD
BRANCH  17  26
ATOM     26  C   UNL A   1      31.479  23.715  23.170  1.00  0.00     0.341 C 
ATOM     27  O   UNL A   1      30.339  24.127  23.104  1.00  0.00    -0.246 OA
BRANCH  26  28
ATOM     28  O   UNL A   1      31.981  22.709  22.390  1.00  0.00    -0.465 OA
ATOM     29  C   UNL A   1      32.943  23.139  21.424  1.00  0.00     0.282 C 
ENDBRANCH  26  28
ENDBRANCH  17  26
BRANCH  24  30
ATOM     30  C   UNL A   1      34.962  21.162  26.697  1.00  0.00     0.299 C 
BRANCH  30  31
ATOM     31  C   UNL A   1      35.732  21.884  25.609  1.00  0.00     0.006 A 
ATOM     32  C   UNL A   1      35.299  21.852  24.276  1.00  0.00     0.009 A 
ATOM     33  C   UNL A   1      36.878  22.631  25.920  1.00  0.00     0.009 A 
ATOM     34  C   UNL A   1      35.948  22.612  23.299  1.00  0.00     0.001 A 
ATOM     35  C   UNL A   1      37.514  23.408  24.949  1.00  0.00     0.001 A 
ATOM     36  C   UNL A   1      37.041  23.404  23.641  1.00  0.00     0.000 A 
ENDBRANCH  30  31
ENDBRANCH  24  30
ENDBRANCH  13  16
ENDBRANCH  10  12
ENDBRANCH   7   9
ENDBRANCH   6   7
ENDBRANCH   5   6
ENDBRANCH   4   5
ENDBRANCH   3   4
ENDBRANCH   2   3
ENDBRANCH   1   2
BRANCH   1  37
ATOM     37  O   UNL A   1      36.426  29.702  27.978  1.00  0.00    -0.377 OA
BRANCH  37  38
ATOM     38  C   UNL A   1      36.633  31.072  28.204  1.00  0.00     0.188 C 
BRANCH  38  39
ATOM     39  C   UNL A   1      36.409  31.511  29.665  1.00  0.00     0.188 C 
BRANCH  39  40
ATOM     40  O   UNL A   1      36.362  30.617  30.770  1.00  0.00    -0.376 OA
BRANCH  40  41
ATOM     41  C   UNL A   1      37.308  30.418  31.813  1.00  0.00     0.202 C 
BRANCH  41  42
ATOM     42  C   UNL A   1      38.784  30.793  31.828  1.00  0.00     0.261 C 
BRANCH  42  43
ATOM     43  O   UNL A   1      39.287  31.131  33.084  1.00  0.00    -0.460 OA
BRANCH  43  44
ATOM     44  C   UNL A   1      39.149  30.133  33.968  1.00  0.00     0.338 C 
ATOM     45  O   UNL A   1      38.302  30.018  34.837  1.00  0.00    -0.246 OA
BRANCH  44  46
ATOM     46  C   UNL A   1      40.282  29.232  33.793  1.00  0.00     0.060 A 
ATOM     47  C   UNL A   1      41.501  29.761  34.204  1.00  0.00     0.016 A 
ATOM     48  C   UNL A   1      40.159  28.210  32.838  1.00  0.00     0.016 A 
ATOM     49  C   UNL A   1      42.574  29.519  33.397  1.00  0.00     0.010 A 
ATOM     50  C   UNL A   1      41.224  27.995  32.015  1.00  0.00     0.010 A 
ATOM     51  C   UNL A   1      42.374  28.738  32.253  1.00  0.00    -0.014 A 
BRANCH  51  52
ATOM     52  C   UNL A   1      43.473  28.657  31.332  1.00  0.00     0.031 A 
ATOM     53  C   UNL A   1      43.483  29.801  30.408  1.00  0.00     0.074 A 
ATOM     54  C   UNL A   1      44.379  27.669  31.392  1.00  0.00     0.049 A 
ATOM     55  N   UNL A   1      43.211  29.797  29.147  1.00  0.00    -0.248 NA
ATOM     56  C   UNL A   1      43.567  31.139  31.013  1.00  0.00     0.031 C 
ATOM     57  C   UNL A   1      44.595  26.703  32.472  1.00  0.00     0.029 A 
ATOM     58  N   UNL A   1      45.412  27.432  30.547  1.00  0.00    -0.354 N 
ATOM     59  C   UNL A   1      43.350  31.125  28.760  1.00  0.00     0.074 A 
ATOM     60  C   UNL A   1      43.295  31.907  29.961  1.00  0.00     0.031 C 
ATOM     61  C   UNL A   1      45.835  26.178  32.341  1.00  0.00     0.029 A 
ATOM     62  C   UNL A   1      46.432  26.683  31.116  1.00  0.00     0.049 A 
ATOM     63  H   UNL A   1      45.436  27.760  29.618  1.00  0.00     0.167 HD
ATOM     64  C   UNL A   1      43.838  31.434  27.531  1.00  0.00     0.034 A 
ATOM     65  C   UNL A   1      47.702  26.606  30.650  1.00  0.00     0.034 A 
ATOM     66  C   UNL A   1      43.689  30.322  26.620  1.00  0.00     0.049 A 
ATOM     67  C   UNL A   1      47.694  27.098  29.249  1.00  0.00     0.074 A 
ATOM     68  C   UNL A   1      42.624  29.552  26.192  1.00  0.00     0.029 A 
ATOM     69  N   UNL A   1      44.821  29.608  26.307  1.00  0.00    -0.354 N 
ATOM     70  N   UNL A   1      47.140  26.465  28.253  1.00  0.00    -0.248 NA
ATOM     71  C   UNL A   1      47.953  28.512  29.023  1.00  0.00     0.031 C 
ATOM     72  C   UNL A   1      43.148  28.234  26.052  1.00  0.00     0.029 A 
ATOM     73  C   UNL A   1      44.510  28.276  26.353  1.00  0.00     0.049 A 
ATOM     74  H   UNL A   1      45.703  29.989  26.090  1.00  0.00     0.167 HD
ATOM     75  C   UNL A   1      46.581  27.468  27.469  1.00  0.00     0.074 A 
ATOM     76  C   UNL A   1      47.214  28.702  27.926  1.00  0.00     0.031 C 
ATOM     77  C   UNL A   1      45.451  27.245  26.735  1.00  0.00     0.034 A 
BRANCH  64  78
ATOM     78  C   UNL A   1      44.833  32.552  27.282  1.00  0.00     0.023 A 
ATOM     79  C   UNL A   1      44.551  33.414  26.200  1.00  0.00     0.012 A 
ATOM     80  C   UNL A   1      46.136  32.638  27.836  1.00  0.00     0.148 A 
ATOM     81  C   UNL A   1      45.536  34.229  25.633  1.00  0.00     0.002 A 
ATOM     82  C   UNL A   1      47.089  33.504  27.317  1.00  0.00     0.091 A 
ATOM     83  F   UNL A   1      46.530  31.806  28.797  1.00  0.00    -0.205 F 
ATOM     84  C   UNL A   1      46.807  34.273  26.190  1.00  0.00     0.022 A 
BRANCH  82  85
ATOM     85  S   UNL A   1      48.735  33.626  28.035  1.00  0.00     0.127 S 
ATOM     86  O   UNL A   1      48.422  33.949  29.424  1.00  0.00    -0.237 OA
ATOM     87  O   UNL A   1      49.256  32.277  27.812  1.00  0.00    -0.237 OA
ATOM     88  O   UNL A   1      49.425  34.661  27.277  1.00  0.00    -0.744 OA
ENDBRANCH  82  85
ENDBRANCH  64  78
BRANCH  65  89
ATOM     89  C   UNL A   1      48.971  26.403  31.386  1.00  0.00     0.023 A 
ATOM     90  C   UNL A   1      49.677  25.198  31.198  1.00  0.00     0.012 A 
ATOM     91  C   UNL A   1      49.629  27.467  32.042  1.00  0.00     0.148 A 
ATOM     92  C   UNL A   1      51.007  25.071  31.611  1.00  0.00     0.002 A 
ATOM     93  C   UNL A   1      50.948  27.330  32.464  1.00  0.00     0.091 A 
ATOM     94  F   UNL A   1      49.000  28.644  32.165  1.00  0.00    -0.205 F 
ATOM     95  C   UNL A   1      51.645  26.137  32.236  1.00  0.00     0.022 A 
BRANCH  93  96
ATOM     96  S   UNL A   1      51.837  28.670  33.269  1.00  0.00     0.127 S 
ATOM     97  O   UNL A   1      51.584  29.793  32.365  1.00  0.00    -0.237 OA
ATOM     98  O   UNL A   1      51.156  28.757  34.557  1.00  0.00    -0.237 OA
ATOM     99  O   UNL A   1      53.232  28.247  33.313  1.00  0.00    -0.744 OA
ENDBRANCH  93  96
ENDBRANCH  65  89
BRANCH  77 100
ATOM    100  C   UNL A   1      44.999  25.821  26.529  1.00  0.00     0.023 A 
ATOM    101  C   UNL A   1      45.537  24.992  25.525  1.00  0.00     0.012 A 
ATOM    102  C   UNL A   1      44.127  25.258  27.477  1.00  0.00     0.148 A 
ATOM    103  C   UNL A   1      45.188  23.640  25.449  1.00  0.00     0.002 A 
ATOM    104  C   UNL A   1      43.822  23.903  27.429  1.00  0.00     0.091 A 
ATOM    105  F   UNL A   1      43.618  26.057  28.429  1.00  0.00    -0.205 F 
ATOM    106  C   UNL A   1      44.342  23.093  26.410  1.00  0.00     0.022 A 
BRANCH 104 107
ATOM    107  S   UNL A   1      42.846  23.133  28.723  1.00  0.00     0.127 S 
ATOM    108  O   UNL A   1      43.727  23.246  29.883  1.00  0.00    -0.237 OA
ATOM    109  O   UNL A   1      41.654  23.982  28.777  1.00  0.00    -0.237 OA
ATOM    110  O   UNL A   1      42.581  21.776  28.257  1.00  0.00    -0.744 OA
ENDBRANCH 104 107
ENDBRANCH  77 100
ENDBRANCH  51  52
ENDBRANCH  44  46
ENDBRANCH  43  44
ENDBRANCH  42  43
ENDBRANCH  41  42
ENDBRANCH  40  41
ENDBRANCH  39  40
ENDBRANCH  38  39
ENDBRANCH  37  38
ENDBRANCH   1  37
TORSDOF 29
ENDMDL
MODEL 3
REMARK VINA RESULT:      -8.0      8.330     16.479
REMARK SMILES COC(=O)c1c(NC(=O)[C@@H]2C[C@@H]2C(=O)OCCOCCOCCOCCOC(=O)c2ccc(-c3c4nc(c(-c5cccc(S(=O)(=O)[O-])c5F)c5ccc([nH]5)c(-c5cccc(S(=O)(=O)[O-])c5F)c5nc(c(-c6cccc(S(=O)(=O)[O-])c6F)c6ccc3[nH]6)C=C5)C=C4)cc2)sc2c1CC[N@@H+](Cc1ccccc1)C2
REMARK SMILES IDX 20 1 19 2 18 3 17 4 16 5 15 6 13 7 14 8 12 9 10 10 11 11
REMARK SMILES IDX 8 12 7 13 9 15 6 16 5 17 95 18 93 19 94 20 96 21 106 22
REMARK SMILES IDX 97 23 98 24 3 26 4 27 2 28 1 29 99 30 100 31 101 32 105 33
REMARK SMILES IDX 102 34 104 35 103 36 21 37 22 38 23 39 24 40 25 41 26 42
REMARK SMILES IDX 27 43 28 44 29 45 30 46 31 47 92 48 32 49 91 50 33 51 34 52
REMARK SMILES IDX 35 53 85 54 36 55 90 56 84 57 86 58 37 59 89 60 83 61 82 62
REMARK SMILES IDX 38 64 70 65 50 66 69 67 51 68 54 69 68 70 87 71 52 72 53 73
REMARK SMILES IDX 67 75 88 76 55 77 39 78 40 79 48 80 41 81 43 82 49 83 42 84
REMARK SMILES IDX 44 85 45 86 46 87 47 88 71 89 72 90 80 91 73 92 75 93 81 94
REMARK SMILES IDX 74 95 76 96 77 97 78 98 79 99 56 100 57 101 65 102 58 103
REMARK SMILES IDX 60 104 66 105 59 106 61 107 62 108 63 109 64 110
REMARK H PARENT 7 14 98 25 86 63 54 74
REMARK Flexibility Score: inf
ROOT
ATOM      1  C   UNL A   1      53.235  23.070  37.051  1.00  0.00     0.188 C 
ENDROOT
BRANCH   1   2
ATOM      2  C   UNL A   1      53.267  24.341  36.176  1.00  0.00     0.188 C 
BRANCH   2   3
ATOM      3  O   UNL A   1      54.336  24.321  35.235  1.00  0.00    -0.376 OA
BRANCH   3   4
ATOM      4  C   UNL A   1      53.989  23.949  33.913  1.00  0.00     0.202 C 
BRANCH   4   5
ATOM      5  C   UNL A   1      52.583  24.393  33.511  1.00  0.00     0.261 C 
BRANCH   5   6
ATOM      6  O   UNL A   1      51.941  23.570  32.517  1.00  0.00    -0.463 OA
BRANCH   6   7
ATOM      7  C   UNL A   1      51.665  22.279  32.821  1.00  0.00     0.309 C 
ATOM      8  O   UNL A   1      52.040  21.294  32.204  1.00  0.00    -0.252 OA
BRANCH   7   9
ATOM      9  C   UNL A   1      50.685  22.214  33.914  1.00  0.00     0.112 C 
ATOM     10  C   UNL A   1      50.565  21.202  35.033  1.00  0.00     0.094 C 
ATOM     11  C   UNL A   1      49.519  21.299  33.920  1.00  0.00     0.030 C 
BRANCH  10  12
ATOM     12  C   UNL A   1      50.922  19.800  35.302  1.00  0.00     0.229 C 
ATOM     13  N   UNL A   1      50.491  19.166  36.446  1.00  0.00    -0.317 N 
ATOM     14  H   UNL A   1      50.937  18.300  36.591  1.00  0.00     0.170 HD
ATOM     15  O   UNL A   1      51.561  19.158  34.472  1.00  0.00    -0.274 OA
BRANCH  13  16
ATOM     16  C   UNL A   1      49.573  19.469  37.438  1.00  0.00     0.110 A 
ATOM     17  C   UNL A   1      48.262  19.891  37.616  1.00  0.00     0.098 A 
ATOM     18  C   UNL A   1      47.862  19.769  39.002  1.00  0.00    -0.006 A 
ATOM     19  S   UNL A   1      50.340  19.189  38.967  1.00  0.00    -0.116 S 
ATOM     20  C   UNL A   1      48.873  19.289  39.801  1.00  0.00     0.065 A 
ATOM     21  C   UNL A   1      46.469  19.941  39.544  1.00  0.00     0.099 C 
ATOM     22  C   UNL A   1      48.680  18.835  41.217  1.00  0.00     0.310 C 
ATOM     23  C   UNL A   1      46.325  19.429  40.999  1.00  0.00     0.267 C 
ATOM     24  N   UNL A   1      47.284  18.405  41.454  1.00  0.00    -0.326 N 
ATOM     25  H   UNL A   1      47.172  18.349  42.466  1.00  0.00     0.348 HD
BRANCH  17  26
ATOM     26  C   UNL A   1      47.300  20.368  36.637  1.00  0.00     0.341 C 
ATOM     27  O   UNL A   1      47.116  19.823  35.569  1.00  0.00    -0.246 OA
BRANCH  26  28
ATOM     28  O   UNL A   1      46.700  21.537  37.020  1.00  0.00    -0.465 OA
ATOM     29  C   UNL A   1      45.695  22.004  36.117  1.00  0.00     0.282 C 
ENDBRANCH  26  28
ENDBRANCH  17  26
BRANCH  24  30
ATOM     30  C   UNL A   1      46.970  17.017  41.082  1.00  0.00     0.299 C 
BRANCH  30  31
ATOM     31  C   UNL A   1      45.556  16.679  40.654  1.00  0.00     0.006 A 
ATOM     32  C   UNL A   1      45.218  16.572  39.297  1.00  0.00     0.009 A 
ATOM     33  C   UNL A   1      44.559  16.431  41.609  1.00  0.00     0.009 A 
ATOM     34  C   UNL A   1      43.944  16.149  38.912  1.00  0.00     0.001 A 
ATOM     35  C   UNL A   1      43.291  15.988  41.226  1.00  0.00     0.001 A 
ATOM     36  C   UNL A   1      42.988  15.839  39.877  1.00  0.00     0.000 A 
ENDBRANCH  30  31
ENDBRANCH  24  30
ENDBRANCH  13  16
ENDBRANCH  10  12
ENDBRANCH   7   9
ENDBRANCH   6   7
ENDBRANCH   5   6
ENDBRANCH   4   5
ENDBRANCH   3   4
ENDBRANCH   2   3
ENDBRANCH   1   2
BRANCH   1  37
ATOM     37  O   UNL A   1      52.589  23.108  38.310  1.00  0.00    -0.377 OA
BRANCH  37  38
ATOM     38  C   UNL A   1      51.246  22.696  38.330  1.00  0.00     0.188 C 
BRANCH  38  39
ATOM     39  C   UNL A   1      50.488  23.081  39.616  1.00  0.00     0.188 C 
BRANCH  39  40
ATOM     40  O   UNL A   1      49.670  24.237  39.746  1.00  0.00    -0.376 OA
BRANCH  40  41
ATOM     41  C   UNL A   1      48.277  24.390  39.504  1.00  0.00     0.202 C 
BRANCH  41  42
ATOM     42  C   UNL A   1      47.582  24.724  38.191  1.00  0.00     0.261 C 
BRANCH  42  43
ATOM     43  O   UNL A   1      48.336  25.505  37.314  1.00  0.00    -0.460 OA
BRANCH  43  44
ATOM     44  C   UNL A   1      47.973  25.321  36.037  1.00  0.00     0.338 C 
ATOM     45  O   UNL A   1      48.143  24.328  35.349  1.00  0.00    -0.246 OA
BRANCH  44  46
ATOM     46  C   UNL A   1      47.427  26.581  35.549  1.00  0.00     0.060 A 
ATOM     47  C   UNL A   1      46.042  26.677  35.640  1.00  0.00     0.016 A 
ATOM     48  C   UNL A   1      48.200  27.314  34.633  1.00  0.00     0.016 A 
ATOM     49  C   UNL A   1      45.398  27.234  34.574  1.00  0.00     0.010 A 
ATOM     50  C   UNL A   1      47.554  27.841  33.554  1.00  0.00     0.010 A 
ATOM     51  C   UNL A   1      46.172  27.692  33.503  1.00  0.00    -0.014 A 
BRANCH  51  52
ATOM     52  C   UNL A   1      45.461  28.100  32.325  1.00  0.00     0.031 A 
ATOM     53  C   UNL A   1      45.495  27.056  31.289  1.00  0.00     0.074 A 
ATOM     54  C   UNL A   1      44.814  29.273  32.255  1.00  0.00     0.049 A 
ATOM     55  N   UNL A   1      46.142  27.075  30.173  1.00  0.00    -0.248 NA
ATOM     56  C   UNL A   1      44.943  25.743  31.655  1.00  0.00     0.031 C 
ATOM     57  C   UNL A   1      44.483  30.190  33.349  1.00  0.00     0.029 A 
ATOM     58  N   UNL A   1      44.172  29.812  31.189  1.00  0.00    -0.354 N 
ATOM     59  C   UNL A   1      45.850  25.850  29.583  1.00  0.00     0.074 A 
ATOM     60  C   UNL A   1      45.359  25.002  30.631  1.00  0.00     0.031 C 
ATOM     61  C   UNL A   1      43.488  31.011  32.940  1.00  0.00     0.029 A 
ATOM     62  C   UNL A   1      43.210  30.749  31.537  1.00  0.00     0.049 A 
ATOM     63  H   UNL A   1      44.369  29.561  30.258  1.00  0.00     0.167 HD
ATOM     64  C   UNL A   1      45.716  25.751  28.236  1.00  0.00     0.034 A 
ATOM     65  C   UNL A   1      42.196  31.165  30.741  1.00  0.00     0.034 A 
ATOM     66  C   UNL A   1      46.376  26.850  27.568  1.00  0.00     0.049 A 
ATOM     67  C   UNL A   1      42.536  30.778  29.348  1.00  0.00     0.074 A 
ATOM     68  C   UNL A   1      47.660  27.362  27.575  1.00  0.00     0.029 A 
ATOM     69  N   UNL A   1      45.578  27.838  27.043  1.00  0.00    -0.354 N 
ATOM     70  N   UNL A   1      43.495  31.320  28.650  1.00  0.00    -0.248 NA
ATOM     71  C   UNL A   1      42.065  29.489  28.865  1.00  0.00     0.031 C 
ATOM     72  C   UNL A   1      47.500  28.774  27.472  1.00  0.00     0.029 A 
ATOM     73  C   UNL A   1      46.136  29.047  27.359  1.00  0.00     0.049 A 
ATOM     74  H   UNL A   1      44.748  27.700  26.531  1.00  0.00     0.167 HD
ATOM     75  C   UNL A   1      44.043  30.264  27.931  1.00  0.00     0.074 A 
ATOM     76  C   UNL A   1      43.051  29.195  28.012  1.00  0.00     0.031 C 
ATOM     77  C   UNL A   1      45.366  30.250  27.591  1.00  0.00     0.034 A 
BRANCH  64  78
ATOM     78  C   UNL A   1      44.634  24.930  27.561  1.00  0.00     0.023 A 
ATOM     79  C   UNL A   1      43.326  25.075  28.071  1.00  0.00     0.012 A 
ATOM     80  C   UNL A   1      44.852  23.840  26.679  1.00  0.00     0.148 A 
ATOM     81  C   UNL A   1      42.326  24.133  27.810  1.00  0.00     0.002 A 
ATOM     82  C   UNL A   1      43.835  22.948  26.364  1.00  0.00     0.091 A 
ATOM     83  F   UNL A   1      46.069  23.563  26.217  1.00  0.00    -0.205 F 
ATOM     84  C   UNL A   1      42.581  23.066  26.958  1.00  0.00     0.022 A 
BRANCH  82  85
ATOM     85  S   UNL A   1      44.109  21.578  25.229  1.00  0.00     0.127 S 
ATOM     86  O   UNL A   1      42.917  20.768  25.460  1.00  0.00    -0.237 OA
ATOM     87  O   UNL A   1      44.153  22.267  23.939  1.00  0.00    -0.237 OA
ATOM     88  O   UNL A   1      45.378  20.980  25.626  1.00  0.00    -0.744 OA
ENDBRANCH  82  85
ENDBRANCH  64  78
BRANCH  65  89
ATOM     89  C   UNL A   1      40.835  31.625  31.100  1.00  0.00     0.023 A 
ATOM     90  C   UNL A   1      40.395  32.875  30.624  1.00  0.00     0.012 A 
ATOM     91  C   UNL A   1      39.879  30.749  31.660  1.00  0.00     0.148 A 
ATOM     92  C   UNL A   1      39.042  33.226  30.664  1.00  0.00     0.002 A 
ATOM     93  C   UNL A   1      38.535  31.109  31.712  1.00  0.00     0.091 A 
ATOM     94  F   UNL A   1      40.265  29.528  32.052  1.00  0.00    -0.205 F 
ATOM     95  C   UNL A   1      38.111  32.342  31.200  1.00  0.00     0.022 A 
BRANCH  93  96
ATOM     96  S   UNL A   1      37.277  30.012  32.382  1.00  0.00     0.127 S 
ATOM     97  O   UNL A   1      37.868  29.613  33.661  1.00  0.00    -0.237 OA
ATOM     98  O   UNL A   1      36.126  30.901  32.491  1.00  0.00    -0.237 OA
ATOM     99  O   UNL A   1      37.152  28.922  31.422  1.00  0.00    -0.744 OA
ENDBRANCH  93  96
ENDBRANCH  65  89
BRANCH  77 100
ATOM    100  C   UNL A   1      46.152  31.531  27.721  1.00  0.00     0.023 A 
ATOM    101  C   UNL A   1      46.207  32.496  26.695  1.00  0.00     0.012 A 
ATOM    102  C   UNL A   1      46.717  31.839  28.971  1.00  0.00     0.148 A 
ATOM    103  C   UNL A   1      46.838  33.726  26.902  1.00  0.00     0.002 A 
ATOM    104  C   UNL A   1      47.298  33.082  29.189  1.00  0.00     0.091 A 
ATOM    105  F   UNL A   1      46.662  30.912  29.942  1.00  0.00    -0.205 F 
ATOM    106  C   UNL A   1      47.370  34.025  28.154  1.00  0.00     0.022 A 
BRANCH 104 107
ATOM    107  S   UNL A   1      47.873  33.556  30.822  1.00  0.00     0.127 S 
ATOM    108  O   UNL A   1      48.584  34.802  30.548  1.00  0.00    -0.237 OA
ATOM    109  O   UNL A   1      46.624  33.717  31.569  1.00  0.00    -0.237 OA
ATOM    110  O   UNL A   1      48.696  32.444  31.284  1.00  0.00    -0.744 OA
ENDBRANCH 104 107
ENDBRANCH  77 100
ENDBRANCH  51  52
ENDBRANCH  44  46
ENDBRANCH  43  44
ENDBRANCH  42  43
ENDBRANCH  41  42
ENDBRANCH  40  41
ENDBRANCH  39  40
ENDBRANCH  38  39
ENDBRANCH  37  38
ENDBRANCH   1  37
TORSDOF 29
ENDMDL
