MODEL 1
REMARK VINA RESULT:     -10.2      0.000      0.000
REMARK SMILES O=C(OCCOCCOCCOCCOC(=O)c1ccc(-c2c3nc(c(-c4cccc(S(=O)(=O)[O-])c4F)c4ccc([nH]4)c(-c4cccc(S(=O)(=O)[O-])c4F)c4nc(c(-c5cccc(S(=O)(=O)[O-])c5F)c5ccc2[nH]5)C=C4)C=C3)cc1)C1=Cc2cc(Cl)ccc2O[C@@H]1C(F)(F)F
REMARK SMILES IDX 10 1 9 2 8 3 7 4 6 5 5 6 4 7 3 8 2 9 1 10 81 11 82 12 91 13
REMARK SMILES IDX 83 14 90 15 84 16 89 17 85 18 88 19 86 20 87 21 92 22 93 23
REMARK SMILES IDX 94 24 95 25 11 26 12 27 13 28 14 29 15 30 16 31 17 32 18 33
REMARK SMILES IDX 19 34 80 35 20 36 79 37 21 38 22 39 23 40 73 41 24 42 78 43
REMARK SMILES IDX 72 44 74 45 25 46 77 47 71 48 70 49 26 51 58 52 38 53 57 54
REMARK SMILES IDX 39 55 42 56 56 57 75 58 40 59 41 60 55 62 76 63 43 64 27 65
REMARK SMILES IDX 28 66 36 67 29 68 31 69 37 70 30 71 32 72 33 73 34 74 35 75
REMARK SMILES IDX 59 76 60 77 68 78 61 79 63 80 69 81 62 82 64 83 65 84 66 85
REMARK SMILES IDX 67 86 44 87 45 88 53 89 46 90 48 91 54 92 47 93 49 94 50 95
REMARK SMILES IDX 51 96 52 97
REMARK H PARENT 74 50 42 61
REMARK Flexibility Score: inf
ROOT
ATOM      1  C   UNL A   1      35.891  20.214  24.985  1.00  0.00     0.188 C 
ENDROOT
BRANCH   1   2
ATOM      2  O   UNL A   1      34.667  20.754  24.503  1.00  0.00    -0.377 OA
BRANCH   2   3
ATOM      3  C   UNL A   1      33.494  20.146  25.026  1.00  0.00     0.188 C 
BRANCH   3   4
ATOM      4  C   UNL A   1      32.541  19.713  23.924  1.00  0.00     0.188 C 
BRANCH   4   5
ATOM      5  O   UNL A   1      32.538  20.578  22.796  1.00  0.00    -0.376 OA
BRANCH   5   6
ATOM      6  C   UNL A   1      31.918  21.851  22.910  1.00  0.00     0.202 C 
BRANCH   6   7
ATOM      7  C   UNL A   1      32.797  23.049  22.549  1.00  0.00     0.261 C 
BRANCH   7   8
ATOM      8  O   UNL A   1      32.142  24.303  22.818  1.00  0.00    -0.460 OA
BRANCH   8   9
ATOM      9  C   UNL A   1      32.865  25.262  23.436  1.00  0.00     0.338 C 
ATOM     10  O   UNL A   1      33.530  26.087  22.828  1.00  0.00    -0.246 OA
BRANCH   9  11
ATOM     11  C   UNL A   1      32.939  25.107  24.911  1.00  0.00     0.087 C 
ATOM     12  C   UNL A   1      33.886  25.891  25.456  1.00  0.00     0.027 C 
ATOM     13  C   UNL A   1      31.673  24.774  25.658  1.00  0.00     0.316 C 
ATOM     14  C   UNL A   1      33.306  27.016  26.206  1.00  0.00     0.019 A 
ATOM     15  O   UNL A   1      31.224  25.810  26.572  1.00  0.00    -0.475 OA
ATOM     16  C   UNL A   1      34.047  28.188  26.366  1.00  0.00     0.032 A 
ATOM     17  C   UNL A   1      31.983  26.948  26.655  1.00  0.00     0.128 A 
ATOM     18  C   UNL A   1      33.435  29.315  26.911  1.00  0.00     0.041 A 
ATOM     19  C   UNL A   1      31.374  28.084  27.190  1.00  0.00     0.048 A 
ATOM     20  Cl  UNL A   1      34.338  30.769  27.091  1.00  0.00    -0.084 Cl
ATOM     21  C   UNL A   1      32.095  29.278  27.293  1.00  0.00     0.024 A 
BRANCH  13  22
ATOM     22  C   UNL A   1      31.750  23.406  26.339  1.00  0.00     0.430 C 
ATOM     23  F   UNL A   1      30.786  22.569  25.884  1.00  0.00    -0.167 F 
ATOM     24  F   UNL A   1      32.936  22.796  26.083  1.00  0.00    -0.167 F 
ATOM     25  F   UNL A   1      31.625  23.485  27.682  1.00  0.00    -0.167 F 
ENDBRANCH  13  22
ENDBRANCH   9  11
ENDBRANCH   8   9
ENDBRANCH   7   8
ENDBRANCH   6   7
ENDBRANCH   5   6
ENDBRANCH   4   5
ENDBRANCH   3   4
ENDBRANCH   2   3
ENDBRANCH   1   2
BRANCH   1  26
ATOM     26  C   UNL A   1      37.172  21.024  24.673  1.00  0.00     0.188 C 
BRANCH  26  27
ATOM     27  O   UNL A   1      38.412  20.822  25.343  1.00  0.00    -0.376 OA
BRANCH  27  28
ATOM     28  C   UNL A   1      38.859  19.507  25.606  1.00  0.00     0.202 C 
BRANCH  28  29
ATOM     29  C   UNL A   1      40.376  19.278  25.521  1.00  0.00     0.261 C 
BRANCH  29  30
ATOM     30  O   UNL A   1      41.179  20.342  26.056  1.00  0.00    -0.460 OA
BRANCH  30  31
ATOM     31  C   UNL A   1      41.126  20.512  27.409  1.00  0.00     0.338 C 
ATOM     32  O   UNL A   1      41.088  19.644  28.246  1.00  0.00    -0.246 OA
BRANCH  31  33
ATOM     33  C   UNL A   1      41.332  21.959  27.729  1.00  0.00     0.060 A 
ATOM     34  C   UNL A   1      40.602  22.898  26.984  1.00  0.00     0.016 A 
ATOM     35  C   UNL A   1      42.157  22.395  28.770  1.00  0.00     0.016 A 
ATOM     36  C   UNL A   1      40.699  24.265  27.269  1.00  0.00     0.010 A 
ATOM     37  C   UNL A   1      42.272  23.767  29.039  1.00  0.00     0.010 A 
ATOM     38  C   UNL A   1      41.564  24.713  28.273  1.00  0.00    -0.014 A 
BRANCH  38  39
ATOM     39  C   UNL A   1      41.905  26.158  28.370  1.00  0.00     0.031 A 
ATOM     40  C   UNL A   1      43.236  26.601  27.817  1.00  0.00     0.074 A 
ATOM     41  C   UNL A   1      41.084  27.065  28.935  1.00  0.00     0.049 A 
ATOM     42  N   UNL A   1      43.799  27.779  27.851  1.00  0.00    -0.248 NA
ATOM     43  C   UNL A   1      44.037  25.569  27.136  1.00  0.00     0.031 C 
ATOM     44  C   UNL A   1      39.760  26.787  29.488  1.00  0.00     0.029 A 
ATOM     45  N   UNL A   1      41.268  28.409  29.167  1.00  0.00    -0.354 N 
ATOM     46  C   UNL A   1      45.034  27.624  27.234  1.00  0.00     0.074 A 
ATOM     47  C   UNL A   1      45.137  26.239  26.829  1.00  0.00     0.031 C 
ATOM     48  C   UNL A   1      39.270  27.915  30.034  1.00  0.00     0.029 A 
ATOM     49  C   UNL A   1      40.257  28.988  29.901  1.00  0.00     0.049 A 
ATOM     50  H   UNL A   1      42.050  28.910  28.839  1.00  0.00     0.167 HD
ATOM     51  C   UNL A   1      45.999  28.547  27.018  1.00  0.00     0.034 A 
ATOM     52  C   UNL A   1      40.158  30.224  30.436  1.00  0.00     0.034 A 
ATOM     53  C   UNL A   1      45.899  29.928  27.398  1.00  0.00     0.049 A 
ATOM     54  C   UNL A   1      41.272  31.223  30.219  1.00  0.00     0.074 A 
ATOM     55  C   UNL A   1      46.806  30.948  27.164  1.00  0.00     0.029 A 
ATOM     56  N   UNL A   1      44.848  30.480  28.109  1.00  0.00    -0.354 N 
ATOM     57  N   UNL A   1      42.374  31.096  29.521  1.00  0.00    -0.248 NA
ATOM     58  C   UNL A   1      41.117  32.546  30.847  1.00  0.00     0.031 C 
ATOM     59  C   UNL A   1      46.320  32.109  27.771  1.00  0.00     0.029 A 
ATOM     60  C   UNL A   1      45.095  31.821  28.348  1.00  0.00     0.049 A 
ATOM     61  H   UNL A   1      44.045  29.992  28.401  1.00  0.00     0.167 HD
ATOM     62  C   UNL A   1      43.025  32.324  29.602  1.00  0.00     0.074 A 
ATOM     63  C   UNL A   1      42.181  33.194  30.391  1.00  0.00     0.031 C 
ATOM     64  C   UNL A   1      44.224  32.694  29.088  1.00  0.00     0.034 A 
BRANCH  51  65
ATOM     65  C   UNL A   1      47.258  28.099  26.329  1.00  0.00     0.023 A 
ATOM     66  C   UNL A   1      48.311  27.541  27.082  1.00  0.00     0.012 A 
ATOM     67  C   UNL A   1      47.360  28.154  24.926  1.00  0.00     0.148 A 
ATOM     68  C   UNL A   1      49.454  27.059  26.448  1.00  0.00     0.002 A 
ATOM     69  C   UNL A   1      48.482  27.631  24.298  1.00  0.00     0.091 A 
ATOM     70  F   UNL A   1      46.355  28.711  24.235  1.00  0.00    -0.205 F 
ATOM     71  C   UNL A   1      49.534  27.092  25.057  1.00  0.00     0.022 A 
BRANCH  69  72
ATOM     72  S   UNL A   1      48.647  27.553  22.512  1.00  0.00     0.127 S 
ATOM     73  O   UNL A   1      47.451  28.272  22.074  1.00  0.00    -0.237 OA
ATOM     74  O   UNL A   1      49.904  28.269  22.292  1.00  0.00    -0.237 OA
ATOM     75  O   UNL A   1      48.679  26.139  22.169  1.00  0.00    -0.744 OA
ENDBRANCH  69  72
ENDBRANCH  51  65
BRANCH  52  76
ATOM     76  C   UNL A   1      38.969  30.606  31.256  1.00  0.00     0.023 A 
ATOM     77  C   UNL A   1      38.879  30.195  32.601  1.00  0.00     0.012 A 
ATOM     78  C   UNL A   1      37.905  31.340  30.695  1.00  0.00     0.148 A 
ATOM     79  C   UNL A   1      37.737  30.469  33.357  1.00  0.00     0.002 A 
ATOM     80  C   UNL A   1      36.799  31.663  31.471  1.00  0.00     0.091 A 
ATOM     81  F   UNL A   1      37.990  31.699  29.407  1.00  0.00    -0.205 F 
ATOM     82  C   UNL A   1      36.701  31.211  32.795  1.00  0.00     0.022 A 
BRANCH  80  83
ATOM     83  S   UNL A   1      35.487  32.733  30.869  1.00  0.00     0.127 S 
ATOM     84  O   UNL A   1      35.316  32.257  29.499  1.00  0.00    -0.237 OA
ATOM     85  O   UNL A   1      34.390  32.407  31.780  1.00  0.00    -0.237 OA
ATOM     86  O   UNL A   1      35.995  34.091  31.012  1.00  0.00    -0.744 OA
ENDBRANCH  80  83
ENDBRANCH  52  76
BRANCH  64  87
ATOM     87  C   UNL A   1      44.693  34.108  29.327  1.00  0.00     0.023 A 
ATOM     88  C   UNL A   1      45.378  34.428  30.517  1.00  0.00     0.012 A 
ATOM     89  C   UNL A   1      44.533  35.097  28.336  1.00  0.00     0.148 A 
ATOM     90  C   UNL A   1      45.865  35.717  30.730  1.00  0.00     0.002 A 
ATOM     91  C   UNL A   1      45.066  36.366  28.534  1.00  0.00     0.091 A 
ATOM     92  F   UNL A   1      43.870  34.778  27.215  1.00  0.00    -0.205 F 
ATOM     93  C   UNL A   1      45.720  36.682  29.736  1.00  0.00     0.022 A 
BRANCH  91  94
ATOM     94  S   UNL A   1      45.014  37.646  27.273  1.00  0.00     0.127 S 
ATOM     95  O   UNL A   1      45.622  38.777  27.971  1.00  0.00    -0.237 OA
ATOM     96  O   UNL A   1      45.840  37.068  26.212  1.00  0.00    -0.237 OA
ATOM     97  O   UNL A   1      43.609  37.811  26.925  1.00  0.00    -0.744 OA
ENDBRANCH  91  94
ENDBRANCH  64  87
ENDBRANCH  38  39
ENDBRANCH  31  33
ENDBRANCH  30  31
ENDBRANCH  29  30
ENDBRANCH  28  29
ENDBRANCH  27  28
ENDBRANCH  26  27
ENDBRANCH   1  26
TORSDOF 24
ENDMDL
MODEL 2
REMARK VINA RESULT:      -9.8      2.059      2.758
REMARK SMILES O=C(OCCOCCOCCOCCOC(=O)c1ccc(-c2c3nc(c(-c4cccc(S(=O)(=O)[O-])c4F)c4ccc([nH]4)c(-c4cccc(S(=O)(=O)[O-])c4F)c4nc(c(-c5cccc(S(=O)(=O)[O-])c5F)c5ccc2[nH]5)C=C4)C=C3)cc1)C1=Cc2cc(Cl)ccc2O[C@@H]1C(F)(F)F
REMARK SMILES IDX 10 1 9 2 8 3 7 4 6 5 5 6 4 7 3 8 2 9 1 10 81 11 82 12 91 13
REMARK SMILES IDX 83 14 90 15 84 16 89 17 85 18 88 19 86 20 87 21 92 22 93 23
REMARK SMILES IDX 94 24 95 25 11 26 12 27 13 28 14 29 15 30 16 31 17 32 18 33
REMARK SMILES IDX 19 34 80 35 20 36 79 37 21 38 22 39 23 40 73 41 24 42 78 43
REMARK SMILES IDX 72 44 74 45 25 46 77 47 71 48 70 49 26 51 58 52 38 53 57 54
REMARK SMILES IDX 39 55 42 56 56 57 75 58 40 59 41 60 55 62 76 63 43 64 27 65
REMARK SMILES IDX 28 66 36 67 29 68 31 69 37 70 30 71 32 72 33 73 34 74 35 75
REMARK SMILES IDX 59 76 60 77 68 78 61 79 63 80 69 81 62 82 64 83 65 84 66 85
REMARK SMILES IDX 67 86 44 87 45 88 53 89 46 90 48 91 54 92 47 93 49 94 50 95
REMARK SMILES IDX 51 96 52 97
REMARK H PARENT 74 50 42 61
REMARK Flexibility Score: inf
ROOT
ATOM      1  C   UNL A   1      35.087  20.954  25.521  1.00  0.00     0.188 C 
ENDROOT
BRANCH   1   2
ATOM      2  O   UNL A   1      34.194  20.261  24.658  1.00  0.00    -0.377 OA
BRANCH   2   3
ATOM      3  C   UNL A   1      33.024  20.983  24.299  1.00  0.00     0.188 C 
BRANCH   3   4
ATOM      4  C   UNL A   1      33.325  22.090  23.302  1.00  0.00     0.188 C 
BRANCH   4   5
ATOM      5  O   UNL A   1      32.164  22.699  22.754  1.00  0.00    -0.376 OA
BRANCH   5   6
ATOM      6  C   UNL A   1      32.093  24.117  22.702  1.00  0.00     0.202 C 
BRANCH   6   7
ATOM      7  C   UNL A   1      33.401  24.833  22.362  1.00  0.00     0.261 C 
BRANCH   7   8
ATOM      8  O   UNL A   1      34.017  25.420  23.525  1.00  0.00    -0.460 OA
BRANCH   8   9
ATOM      9  C   UNL A   1      33.642  26.671  23.863  1.00  0.00     0.338 C 
ATOM     10  O   UNL A   1      34.037  27.665  23.272  1.00  0.00    -0.246 OA
BRANCH   9  11
ATOM     11  C   UNL A   1      32.870  26.750  25.130  1.00  0.00     0.087 C 
ATOM     12  C   UNL A   1      33.608  27.237  26.143  1.00  0.00     0.027 C 
ATOM     13  C   UNL A   1      31.387  27.005  25.046  1.00  0.00     0.316 C 
ATOM     14  C   UNL A   1      33.202  28.601  26.513  1.00  0.00     0.019 A 
ATOM     15  O   UNL A   1      30.963  28.271  25.620  1.00  0.00    -0.475 OA
ATOM     16  C   UNL A   1      34.131  29.454  27.113  1.00  0.00     0.032 A 
ATOM     17  C   UNL A   1      31.932  29.073  26.164  1.00  0.00     0.128 A 
ATOM     18  C   UNL A   1      33.809  30.797  27.295  1.00  0.00     0.041 A 
ATOM     19  C   UNL A   1      31.621  30.421  26.339  1.00  0.00     0.048 A 
ATOM     20  Cl  UNL A   1      34.958  31.856  28.014  1.00  0.00    -0.084 Cl
ATOM     21  C   UNL A   1      32.572  31.291  26.882  1.00  0.00     0.024 A 
BRANCH  13  22
ATOM     22  C   UNL A   1      30.569  25.831  25.585  1.00  0.00     0.430 C 
ATOM     23  F   UNL A   1      31.361  24.782  25.912  1.00  0.00    -0.167 F 
ATOM     24  F   UNL A   1      29.905  26.174  26.719  1.00  0.00    -0.167 F 
ATOM     25  F   UNL A   1      29.645  25.390  24.703  1.00  0.00    -0.167 F 
ENDBRANCH  13  22
ENDBRANCH   9  11
ENDBRANCH   8   9
ENDBRANCH   7   8
ENDBRANCH   6   7
ENDBRANCH   5   6
ENDBRANCH   4   5
ENDBRANCH   3   4
ENDBRANCH   2   3
ENDBRANCH   1   2
BRANCH   1  26
ATOM     26  C   UNL A   1      36.596  20.813  25.207  1.00  0.00     0.188 C 
BRANCH  26  27
ATOM     27  O   UNL A   1      37.586  21.718  25.686  1.00  0.00    -0.376 OA
BRANCH  27  28
ATOM     28  C   UNL A   1      38.955  21.397  25.540  1.00  0.00     0.202 C 
BRANCH  28  29
ATOM     29  C   UNL A   1      39.404  20.058  26.146  1.00  0.00     0.261 C 
BRANCH  29  30
ATOM     30  O   UNL A   1      40.478  19.408  25.448  1.00  0.00    -0.460 OA
BRANCH  30  31
ATOM     31  C   UNL A   1      41.676  19.361  26.099  1.00  0.00     0.338 C 
ATOM     32  O   UNL A   1      42.310  18.373  26.378  1.00  0.00    -0.246 OA
BRANCH  31  33
ATOM     33  C   UNL A   1      42.209  20.751  26.244  1.00  0.00     0.060 A 
ATOM     34  C   UNL A   1      42.419  21.233  27.546  1.00  0.00     0.016 A 
ATOM     35  C   UNL A   1      42.565  21.545  25.150  1.00  0.00     0.016 A 
ATOM     36  C   UNL A   1      42.972  22.501  27.757  1.00  0.00     0.010 A 
ATOM     37  C   UNL A   1      43.097  22.826  25.362  1.00  0.00     0.010 A 
ATOM     38  C   UNL A   1      43.280  23.323  26.667  1.00  0.00    -0.014 A 
BRANCH  38  39
ATOM     39  C   UNL A   1      43.567  24.767  26.883  1.00  0.00     0.031 A 
ATOM     40  C   UNL A   1      44.979  25.240  26.654  1.00  0.00     0.074 A 
ATOM     41  C   UNL A   1      42.627  25.646  27.282  1.00  0.00     0.049 A 
ATOM     42  N   UNL A   1      45.502  26.422  26.850  1.00  0.00    -0.248 NA
ATOM     43  C   UNL A   1      45.928  24.240  26.134  1.00  0.00     0.031 C 
ATOM     44  C   UNL A   1      41.218  25.337  27.518  1.00  0.00     0.029 A 
ATOM     45  N   UNL A   1      42.733  26.982  27.592  1.00  0.00    -0.354 N 
ATOM     46  C   UNL A   1      46.845  26.299  26.517  1.00  0.00     0.074 A 
ATOM     47  C   UNL A   1      47.058  24.931  26.101  1.00  0.00     0.031 C 
ATOM     48  C   UNL A   1      40.601  26.441  27.978  1.00  0.00     0.029 A 
ATOM     49  C   UNL A   1      41.575  27.527  28.101  1.00  0.00     0.049 A 
ATOM     50  H   UNL A   1      43.560  27.502  27.462  1.00  0.00     0.167 HD
ATOM     51  C   UNL A   1      47.818  27.237  26.550  1.00  0.00     0.034 A 
ATOM     52  C   UNL A   1      41.340  28.742  28.640  1.00  0.00     0.034 A 
ATOM     53  C   UNL A   1      47.614  28.603  26.943  1.00  0.00     0.049 A 
ATOM     54  C   UNL A   1      42.457  29.758  28.708  1.00  0.00     0.074 A 
ATOM     55  C   UNL A   1      48.533  29.639  26.949  1.00  0.00     0.029 A 
ATOM     56  N   UNL A   1      46.424  29.121  27.420  1.00  0.00    -0.354 N 
ATOM     57  N   UNL A   1      43.689  29.665  28.268  1.00  0.00    -0.248 NA
ATOM     58  C   UNL A   1      42.146  31.056  29.329  1.00  0.00     0.031 C 
ATOM     59  C   UNL A   1      47.907  30.774  27.470  1.00  0.00     0.029 A 
ATOM     60  C   UNL A   1      46.589  30.455  27.751  1.00  0.00     0.049 A 
ATOM     61  H   UNL A   1      45.583  28.616  27.511  1.00  0.00     0.167 HD
ATOM     62  C   UNL A   1      44.285  30.896  28.532  1.00  0.00     0.074 A 
ATOM     63  C   UNL A   1      43.273  31.729  29.141  1.00  0.00     0.031 C 
ATOM     64  C   UNL A   1      45.561  31.294  28.308  1.00  0.00     0.034 A 
BRANCH  51  65
ATOM     65  C   UNL A   1      49.206  26.826  26.144  1.00  0.00     0.023 A 
ATOM     66  C   UNL A   1      49.957  25.969  26.973  1.00  0.00     0.012 A 
ATOM     67  C   UNL A   1      49.729  27.221  24.898  1.00  0.00     0.148 A 
ATOM     68  C   UNL A   1      51.216  25.525  26.575  1.00  0.00     0.002 A 
ATOM     69  C   UNL A   1      50.965  26.738  24.488  1.00  0.00     0.091 A 
ATOM     70  F   UNL A   1      49.005  28.055  24.138  1.00  0.00    -0.205 F 
ATOM     71  C   UNL A   1      51.713  25.898  25.328  1.00  0.00     0.022 A 
BRANCH  69  72
ATOM     72  S   UNL A   1      51.657  27.095  22.870  1.00  0.00     0.127 S 
ATOM     73  O   UNL A   1      52.986  26.495  22.979  1.00  0.00    -0.237 OA
ATOM     74  O   UNL A   1      50.737  26.384  21.982  1.00  0.00    -0.237 OA
ATOM     75  O   UNL A   1      51.643  28.545  22.734  1.00  0.00    -0.744 OA
ENDBRANCH  69  72
ENDBRANCH  51  65
BRANCH  52  76
ATOM     76  C   UNL A   1      39.992  29.084  29.189  1.00  0.00     0.023 A 
ATOM     77  C   UNL A   1      38.993  29.594  28.336  1.00  0.00     0.012 A 
ATOM     78  C   UNL A   1      39.712  28.947  30.562  1.00  0.00     0.148 A 
ATOM     79  C   UNL A   1      37.758  30.001  28.846  1.00  0.00     0.002 A 
ATOM     80  C   UNL A   1      38.458  29.294  31.053  1.00  0.00     0.091 A 
ATOM     81  F   UNL A   1      40.680  28.488  31.367  1.00  0.00    -0.205 F 
ATOM     82  C   UNL A   1      37.487  29.843  30.202  1.00  0.00     0.022 A 
BRANCH  80  83
ATOM     83  S   UNL A   1      37.980  28.991  32.759  1.00  0.00     0.127 S 
ATOM     84  O   UNL A   1      39.056  29.651  33.494  1.00  0.00    -0.237 OA
ATOM     85  O   UNL A   1      36.680  29.658  32.830  1.00  0.00    -0.237 OA
ATOM     86  O   UNL A   1      37.914  27.541  32.892  1.00  0.00    -0.744 OA
ENDBRANCH  80  83
ENDBRANCH  52  76
BRANCH  64  87
ATOM     87  C   UNL A   1      45.943  32.703  28.690  1.00  0.00     0.023 A 
ATOM     88  C   UNL A   1      46.572  32.947  29.928  1.00  0.00     0.012 A 
ATOM     89  C   UNL A   1      45.759  33.769  27.788  1.00  0.00     0.148 A 
ATOM     90  C   UNL A   1      46.979  34.235  30.274  1.00  0.00     0.002 A 
ATOM     91  C   UNL A   1      46.213  35.041  28.118  1.00  0.00     0.091 A 
ATOM     92  F   UNL A   1      45.149  33.520  26.619  1.00  0.00    -0.205 F 
ATOM     93  C   UNL A   1      46.811  35.279  29.366  1.00  0.00     0.022 A 
BRANCH  91  94
ATOM     94  S   UNL A   1      46.128  36.426  26.977  1.00  0.00     0.127 S 
ATOM     95  O   UNL A   1      44.684  36.607  26.836  1.00  0.00    -0.237 OA
ATOM     96  O   UNL A   1      46.806  37.485  27.726  1.00  0.00    -0.237 OA
ATOM     97  O   UNL A   1      46.823  35.998  25.770  1.00  0.00    -0.744 OA
ENDBRANCH  91  94
ENDBRANCH  64  87
ENDBRANCH  38  39
ENDBRANCH  31  33
ENDBRANCH  30  31
ENDBRANCH  29  30
ENDBRANCH  28  29
ENDBRANCH  27  28
ENDBRANCH  26  27
ENDBRANCH   1  26
TORSDOF 24
ENDMDL
MODEL 3
REMARK VINA RESULT:      -9.7      2.926      3.697
REMARK SMILES O=C(OCCOCCOCCOCCOC(=O)c1ccc(-c2c3nc(c(-c4cccc(S(=O)(=O)[O-])c4F)c4ccc([nH]4)c(-c4cccc(S(=O)(=O)[O-])c4F)c4nc(c(-c5cccc(S(=O)(=O)[O-])c5F)c5ccc2[nH]5)C=C4)C=C3)cc1)C1=Cc2cc(Cl)ccc2O[C@@H]1C(F)(F)F
REMARK SMILES IDX 10 1 9 2 8 3 7 4 6 5 5 6 4 7 3 8 2 9 1 10 81 11 82 12 91 13
REMARK SMILES IDX 83 14 90 15 84 16 89 17 85 18 88 19 86 20 87 21 92 22 93 23
REMARK SMILES IDX 94 24 95 25 11 26 12 27 13 28 14 29 15 30 16 31 17 32 18 33
REMARK SMILES IDX 19 34 80 35 20 36 79 37 21 38 22 39 23 40 73 41 24 42 78 43
REMARK SMILES IDX 72 44 74 45 25 46 77 47 71 48 70 49 26 51 58 52 38 53 57 54
REMARK SMILES IDX 39 55 42 56 56 57 75 58 40 59 41 60 55 62 76 63 43 64 27 65
REMARK SMILES IDX 28 66 36 67 29 68 31 69 37 70 30 71 32 72 33 73 34 74 35 75
REMARK SMILES IDX 59 76 60 77 68 78 61 79 63 80 69 81 62 82 64 83 65 84 66 85
REMARK SMILES IDX 67 86 44 87 45 88 53 89 46 90 48 91 54 92 47 93 49 94 50 95
REMARK SMILES IDX 51 96 52 97
REMARK H PARENT 74 50 42 61
REMARK Flexibility Score: inf
ROOT
ATOM      1  C   UNL A   1      37.051  20.793  24.728  1.00  0.00     0.188 C 
ENDROOT
BRANCH   1   2
ATOM      2  O   UNL A   1      35.679  21.160  24.791  1.00  0.00    -0.377 OA
BRANCH   2   3
ATOM      3  C   UNL A   1      35.423  22.431  25.376  1.00  0.00     0.188 C 
BRANCH   3   4
ATOM      4  C   UNL A   1      33.936  22.679  25.562  1.00  0.00     0.188 C 
BRANCH   4   5
ATOM      5  O   UNL A   1      33.570  22.994  26.899  1.00  0.00    -0.376 OA
BRANCH   5   6
ATOM      6  C   UNL A   1      32.228  22.781  27.311  1.00  0.00     0.202 C 
BRANCH   6   7
ATOM      7  C   UNL A   1      31.153  23.208  26.311  1.00  0.00     0.261 C 
BRANCH   7   8
ATOM      8  O   UNL A   1      30.761  24.583  26.490  1.00  0.00    -0.460 OA
BRANCH   8   9
ATOM      9  C   UNL A   1      31.449  25.521  25.807  1.00  0.00     0.338 C 
ATOM     10  O   UNL A   1      32.050  26.434  26.355  1.00  0.00    -0.246 OA
BRANCH   9  11
ATOM     11  C   UNL A   1      31.253  25.465  24.336  1.00  0.00     0.087 C 
ATOM     12  C   UNL A   1      30.004  25.811  23.978  1.00  0.00     0.027 C 
ATOM     13  C   UNL A   1      32.434  25.761  23.448  1.00  0.00     0.316 C 
ATOM     14  C   UNL A   1      29.962  27.130  23.329  1.00  0.00     0.019 A 
ATOM     15  O   UNL A   1      32.289  26.958  22.637  1.00  0.00    -0.475 OA
ATOM     16  C   UNL A   1      28.788  27.884  23.383  1.00  0.00     0.032 A 
ATOM     17  C   UNL A   1      31.123  27.668  22.763  1.00  0.00     0.128 A 
ATOM     18  C   UNL A   1      28.801  29.203  22.933  1.00  0.00     0.041 A 
ATOM     19  C   UNL A   1      31.131  28.992  22.325  1.00  0.00     0.048 A 
ATOM     20  Cl  UNL A   1      27.362  30.143  23.016  1.00  0.00    -0.084 Cl
ATOM     21  C   UNL A   1      29.974  29.769  22.435  1.00  0.00     0.024 A 
BRANCH  13  22
ATOM     22  C   UNL A   1      32.842  24.549  22.609  1.00  0.00     0.430 C 
ATOM     23  F   UNL A   1      32.588  24.747  21.293  1.00  0.00    -0.167 F 
ATOM     24  F   UNL A   1      34.175  24.310  22.708  1.00  0.00    -0.167 F 
ATOM     25  F   UNL A   1      32.206  23.417  22.985  1.00  0.00    -0.167 F 
ENDBRANCH  13  22
ENDBRANCH   9  11
ENDBRANCH   8   9
ENDBRANCH   7   8
ENDBRANCH   6   7
ENDBRANCH   5   6
ENDBRANCH   4   5
ENDBRANCH   3   4
ENDBRANCH   2   3
ENDBRANCH   1   2
BRANCH   1  26
ATOM     26  C   UNL A   1      38.073  21.871  25.160  1.00  0.00     0.188 C 
BRANCH  26  27
ATOM     27  O   UNL A   1      38.689  21.901  26.444  1.00  0.00    -0.376 OA
BRANCH  27  28
ATOM     28  C   UNL A   1      40.043  21.518  26.579  1.00  0.00     0.202 C 
BRANCH  28  29
ATOM     29  C   UNL A   1      40.399  20.108  26.083  1.00  0.00     0.261 C 
BRANCH  29  30
ATOM     30  O   UNL A   1      41.684  19.624  26.506  1.00  0.00    -0.460 OA
BRANCH  30  31
ATOM     31  C   UNL A   1      42.736  19.924  25.691  1.00  0.00     0.338 C 
ATOM     32  O   UNL A   1      43.192  19.231  24.814  1.00  0.00    -0.246 OA
BRANCH  31  33
ATOM     33  C   UNL A   1      43.127  21.352  25.901  1.00  0.00     0.060 A 
ATOM     34  C   UNL A   1      43.481  21.742  27.203  1.00  0.00     0.016 A 
ATOM     35  C   UNL A   1      43.218  22.275  24.856  1.00  0.00     0.016 A 
ATOM     36  C   UNL A   1      43.916  23.046  27.463  1.00  0.00     0.010 A 
ATOM     37  C   UNL A   1      43.630  23.590  25.123  1.00  0.00     0.010 A 
ATOM     38  C   UNL A   1      43.957  23.991  26.432  1.00  0.00    -0.014 A 
BRANCH  38  39
ATOM     39  C   UNL A   1      44.113  25.435  26.754  1.00  0.00     0.031 A 
ATOM     40  C   UNL A   1      45.489  26.035  26.630  1.00  0.00     0.074 A 
ATOM     41  C   UNL A   1      43.084  26.207  27.158  1.00  0.00     0.049 A 
ATOM     42  N   UNL A   1      45.901  27.239  26.928  1.00  0.00    -0.248 NA
ATOM     43  C   UNL A   1      46.542  25.152  26.098  1.00  0.00     0.031 C 
ATOM     44  C   UNL A   1      41.697  25.770  27.300  1.00  0.00     0.029 A 
ATOM     45  N   UNL A   1      43.063  27.524  27.557  1.00  0.00    -0.354 N 
ATOM     46  C   UNL A   1      47.264  27.247  26.659  1.00  0.00     0.074 A 
ATOM     47  C   UNL A   1      47.610  25.932  26.168  1.00  0.00     0.031 C 
ATOM     48  C   UNL A   1      40.968  26.788  27.796  1.00  0.00     0.029 A 
ATOM     49  C   UNL A   1      41.841  27.938  28.039  1.00  0.00     0.049 A 
ATOM     50  H   UNL A   1      43.849  28.115  27.504  1.00  0.00     0.167 HD
ATOM     51  C   UNL A   1      48.153  28.257  26.802  1.00  0.00     0.034 A 
ATOM     52  C   UNL A   1      41.480  29.091  28.641  1.00  0.00     0.034 A 
ATOM     53  C   UNL A   1      47.817  29.572  27.269  1.00  0.00     0.049 A 
ATOM     54  C   UNL A   1      42.504  30.186  28.832  1.00  0.00     0.074 A 
ATOM     55  C   UNL A   1      48.645  30.675  27.389  1.00  0.00     0.029 A 
ATOM     56  N   UNL A   1      46.566  29.959  27.716  1.00  0.00    -0.354 N 
ATOM     57  N   UNL A   1      43.759  30.222  28.451  1.00  0.00    -0.248 NA
ATOM     58  C   UNL A   1      42.056  31.411  29.516  1.00  0.00     0.031 C 
ATOM     59  C   UNL A   1      47.902  31.719  27.947  1.00  0.00     0.029 A 
ATOM     60  C   UNL A   1      46.603  31.276  28.139  1.00  0.00     0.049 A 
ATOM     61  H   UNL A   1      45.768  29.383  27.730  1.00  0.00     0.167 HD
ATOM     62  C   UNL A   1      44.237  31.477  28.823  1.00  0.00     0.074 A 
ATOM     63  C   UNL A   1      43.131  32.183  29.430  1.00  0.00     0.031 C 
ATOM     64  C   UNL A   1      45.484  31.991  28.693  1.00  0.00     0.034 A 
BRANCH  51  65
ATOM     65  C   UNL A   1      49.588  27.986  26.444  1.00  0.00     0.023 A 
ATOM     66  C   UNL A   1      50.006  28.077  25.101  1.00  0.00     0.012 A 
ATOM     67  C   UNL A   1      50.537  27.728  27.451  1.00  0.00     0.148 A 
ATOM     68  C   UNL A   1      51.346  27.897  24.765  1.00  0.00     0.002 A 
ATOM     69  C   UNL A   1      51.877  27.595  27.115  1.00  0.00     0.091 A 
ATOM     70  F   UNL A   1      50.109  27.625  28.718  1.00  0.00    -0.205 F 
ATOM     71  C   UNL A   1      52.282  27.669  25.772  1.00  0.00     0.022 A 
BRANCH  69  72
ATOM     72  S   UNL A   1      53.169  27.380  28.343  1.00  0.00     0.127 S 
ATOM     73  O   UNL A   1      54.354  27.231  27.501  1.00  0.00    -0.237 OA
ATOM     74  O   UNL A   1      53.099  28.641  29.081  1.00  0.00    -0.237 OA
ATOM     75  O   UNL A   1      52.804  26.199  29.112  1.00  0.00    -0.744 OA
ENDBRANCH  69  72
ENDBRANCH  51  65
BRANCH  52  76
ATOM     76  C   UNL A   1      40.084  29.286  29.139  1.00  0.00     0.023 A 
ATOM     77  C   UNL A   1      39.060  29.645  28.240  1.00  0.00     0.012 A 
ATOM     78  C   UNL A   1      39.778  29.159  30.507  1.00  0.00     0.148 A 
ATOM     79  C   UNL A   1      37.769  29.917  28.700  1.00  0.00     0.002 A 
ATOM     80  C   UNL A   1      38.477  29.369  30.950  1.00  0.00     0.091 A 
ATOM     81  F   UNL A   1      40.767  28.846  31.355  1.00  0.00    -0.205 F 
ATOM     82  C   UNL A   1      37.475  29.769  30.053  1.00  0.00     0.022 A 
BRANCH  80  83
ATOM     83  S   UNL A   1      37.984  29.065  32.651  1.00  0.00     0.127 S 
ATOM     84  O   UNL A   1      38.959  29.858  33.394  1.00  0.00    -0.237 OA
ATOM     85  O   UNL A   1      36.618  29.588  32.667  1.00  0.00    -0.237 OA
ATOM     86  O   UNL A   1      38.070  27.621  32.828  1.00  0.00    -0.744 OA
ENDBRANCH  80  83
ENDBRANCH  52  76
BRANCH  64  87
ATOM     87  C   UNL A   1      45.729  33.397  29.183  1.00  0.00     0.023 A 
ATOM     88  C   UNL A   1      46.238  33.608  30.480  1.00  0.00     0.012 A 
ATOM     89  C   UNL A   1      45.536  34.501  28.329  1.00  0.00     0.148 A 
ATOM     90  C   UNL A   1      46.519  34.898  30.930  1.00  0.00     0.002 A 
ATOM     91  C   UNL A   1      45.867  35.779  28.767  1.00  0.00     0.091 A 
ATOM     92  F   UNL A   1      45.041  34.282  27.102  1.00  0.00    -0.205 F 
ATOM     93  C   UNL A   1      46.345  35.981  30.071  1.00  0.00     0.022 A 
BRANCH  91  94
ATOM     94  S   UNL A   1      45.768  37.222  27.701  1.00  0.00     0.127 S 
ATOM     95  O   UNL A   1      45.831  38.314  28.672  1.00  0.00    -0.237 OA
ATOM     96  O   UNL A   1      46.963  37.076  26.871  1.00  0.00    -0.237 OA
ATOM     97  O   UNL A   1      44.509  37.104  26.977  1.00  0.00    -0.744 OA
ENDBRANCH  91  94
ENDBRANCH  64  87
ENDBRANCH  38  39
ENDBRANCH  31  33
ENDBRANCH  30  31
ENDBRANCH  29  30
ENDBRANCH  28  29
ENDBRANCH  27  28
ENDBRANCH  26  27
ENDBRANCH   1  26
TORSDOF 24
ENDMDL
