MODEL 1
REMARK VINA RESULT:     -11.3      0.000      0.000
REMARK SMILES Cc1cccc(OCC(=O)Nc2cc(C(=O)OCCOCCOCCOCCOC(=O)c3ccc(-c4c5nc(c(-c6cccc(S(=O)(=O)[O-])c6F)c6ccc([nH]6)c(-c6cccc(S(=O)(=O)[O-])c6F)c6nc(c(-c7cccc(S(=O)(=O)[O-])c7F)c7ccc4[nH]7)C=C6)C=C5)cc3)c(Cl)cc2Cl)c1
REMARK SMILES IDX 22 1 21 2 20 3 19 4 18 5 17 6 15 7 16 8 14 9 12 10 13 11
REMARK SMILES IDX 98 12 97 13 99 14 95 15 96 16 11 17 9 18 10 19 8 21 7 22
REMARK SMILES IDX 6 23 1 24 2 25 3 26 100 27 4 28 5 29 23 30 24 31 25 32 26 33
REMARK SMILES IDX 27 34 28 35 29 36 30 37 31 38 32 39 33 40 94 41 34 42 93 43
REMARK SMILES IDX 35 44 36 45 37 46 87 47 38 48 92 49 86 50 88 51 39 52 91 53
REMARK SMILES IDX 85 54 84 55 40 57 72 58 52 59 71 60 53 61 56 62 70 63 89 64
REMARK SMILES IDX 54 65 55 66 69 68 90 69 57 70 41 71 42 72 50 73 43 74 45 75
REMARK SMILES IDX 51 76 44 77 46 78 47 79 48 80 49 81 73 82 74 83 82 84 75 85
REMARK SMILES IDX 77 86 83 87 76 88 78 89 79 90 80 91 81 92 58 93 59 94 67 95
REMARK SMILES IDX 60 96 62 97 68 98 61 99 63 100 64 101 65 102 66 103
REMARK H PARENT 11 20 88 56 56 67
REMARK Flexibility Score: inf
ROOT
ATOM      1  C   UNL A   1      38.991  31.266  30.921  1.00  0.00     0.188 C 
ENDROOT
BRANCH   1   2
ATOM      2  C   UNL A   1      39.015  30.647  29.541  1.00  0.00     0.188 C 
BRANCH   2   3
ATOM      3  O   UNL A   1      37.863  29.393  29.214  1.00  0.00    -0.376 OA
BRANCH   3   4
ATOM      4  C   UNL A   1      36.593  29.331  27.941  1.00  0.00     0.202 C 
BRANCH   4   5
ATOM      5  C   UNL A   1      34.934  30.202  27.778  1.00  0.00     0.261 C 
BRANCH   5   6
ATOM      6  O   UNL A   1      33.649  29.911  26.458  1.00  0.00    -0.460 OA
BRANCH   6   7
ATOM      7  C   UNL A   1      32.751  28.765  25.718  1.00  0.00     0.339 C 
ATOM      8  O   UNL A   1      31.543  29.005  25.625  1.00  0.00    -0.246 OA
BRANCH   7   9
ATOM      9  C   UNL A   1      33.217  27.199  25.003  1.00  0.00     0.080 A 
ATOM     10  C   UNL A   1      33.626  24.578  25.161  1.00  0.00     0.061 A 
ATOM     11  C   UNL A   1      33.461  25.889  25.651  1.00  0.00     0.045 A 
ATOM     12  C   UNL A   1      34.047  24.613  23.844  1.00  0.00     0.066 A 
ATOM     13  C   UNL A   1      34.096  25.841  23.136  1.00  0.00     0.044 A 
ATOM     14  Cl  UNL A   1      34.703  23.195  23.094  1.00  0.00    -0.082 Cl
ATOM     15  C   UNL A   1      33.645  27.097  23.679  1.00  0.00     0.057 A 
ATOM     16  Cl  UNL A   1      33.842  28.439  22.612  1.00  0.00    -0.083 Cl
BRANCH  10  17
ATOM     17  N   UNL A   1      33.775  23.364  25.944  1.00  0.00    -0.322 N 
ATOM     18  C   UNL A   1      33.282  22.091  26.179  1.00  0.00     0.262 C 
ATOM     19  O   UNL A   1      33.603  21.643  27.299  1.00  0.00    -0.271 OA
ATOM     20  H   UNL A   1      34.534  23.502  26.557  1.00  0.00     0.170 HD
BRANCH  18  21
ATOM     21  C   UNL A   1      32.685  21.031  25.166  1.00  0.00     0.329 C 
BRANCH  21  22
ATOM     22  O   UNL A   1      32.154  19.726  25.391  1.00  0.00    -0.484 OA
BRANCH  22  23
ATOM     23  C   UNL A   1      32.750  18.519  25.152  1.00  0.00     0.120 A 
ATOM     24  C   UNL A   1      32.742  14.734  25.610  1.00  0.00     0.044 C 
ATOM     25  C   UNL A   1      33.011  16.105  25.070  1.00  0.00    -0.047 A 
ATOM     26  C   UNL A   1      33.901  16.202  23.992  1.00  0.00     0.003 A 
ATOM     27  C   UNL A   1      32.397  17.264  25.615  1.00  0.00     0.049 A 
ATOM     28  C   UNL A   1      34.364  17.444  23.625  1.00  0.00     0.004 A 
ATOM     29  C   UNL A   1      33.840  18.570  24.266  1.00  0.00     0.046 A 
ENDBRANCH  22  23
ENDBRANCH  21  22
ENDBRANCH  18  21
ENDBRANCH  10  17
ENDBRANCH   7   9
ENDBRANCH   6   7
ENDBRANCH   5   6
ENDBRANCH   4   5
ENDBRANCH   3   4
ENDBRANCH   2   3
ENDBRANCH   1   2
BRANCH   1  30
ATOM     30  O   UNL A   1      38.048  30.670  31.755  1.00  0.00    -0.377 OA
BRANCH  30  31
ATOM     31  C   UNL A   1      36.810  31.337  31.660  1.00  0.00     0.188 C 
BRANCH  31  32
ATOM     32  C   UNL A   1      36.483  32.369  32.798  1.00  0.00     0.188 C 
BRANCH  32  33
ATOM     33  O   UNL A   1      36.892  32.012  34.084  1.00  0.00    -0.376 OA
BRANCH  33  34
ATOM     34  C   UNL A   1      37.890  32.912  34.508  1.00  0.00     0.202 C 
BRANCH  34  35
ATOM     35  C   UNL A   1      38.671  32.628  35.907  1.00  0.00     0.261 C 
BRANCH  35  36
ATOM     36  O   UNL A   1      39.763  33.720  36.445  1.00  0.00    -0.460 OA
BRANCH  36  37
ATOM     37  C   UNL A   1      41.129  33.732  36.895  1.00  0.00     0.338 C 
ATOM     38  O   UNL A   1      41.392  33.938  38.076  1.00  0.00    -0.246 OA
BRANCH  37  39
ATOM     39  C   UNL A   1      42.335  33.282  35.920  1.00  0.00     0.060 A 
ATOM     40  C   UNL A   1      43.687  33.396  36.236  1.00  0.00     0.016 A 
ATOM     41  C   UNL A   1      42.183  32.852  34.599  1.00  0.00     0.016 A 
ATOM     42  C   UNL A   1      44.671  33.504  35.184  1.00  0.00     0.010 A 
ATOM     43  C   UNL A   1      43.106  33.289  33.569  1.00  0.00     0.010 A 
ATOM     44  C   UNL A   1      44.314  33.923  33.876  1.00  0.00    -0.014 A 
BRANCH  44  45
ATOM     45  C   UNL A   1      45.231  35.038  32.771  1.00  0.00     0.031 A 
ATOM     46  C   UNL A   1      44.308  36.425  33.245  1.00  0.00     0.074 A 
ATOM     47  C   UNL A   1      46.209  34.760  31.367  1.00  0.00     0.049 A 
ATOM     48  N   UNL A   1      43.729  37.254  32.418  1.00  0.00    -0.248 NA
ATOM     49  C   UNL A   1      43.724  36.683  34.581  1.00  0.00     0.031 C 
ATOM     50  C   UNL A   1      46.649  35.563  29.977  1.00  0.00     0.029 A 
ATOM     51  N   UNL A   1      46.749  33.477  30.605  1.00  0.00    -0.354 N 
ATOM     52  C   UNL A   1      43.333  38.351  33.081  1.00  0.00     0.074 A 
ATOM     53  C   UNL A   1      43.020  37.804  34.364  1.00  0.00     0.031 C 
ATOM     54  C   UNL A   1      47.112  34.870  28.940  1.00  0.00     0.029 A 
ATOM     55  C   UNL A   1      46.672  33.585  29.188  1.00  0.00     0.049 A 
ATOM     56  H   UNL A   1      47.104  32.684  31.069  1.00  0.00     0.167 HD
ATOM     57  C   UNL A   1      43.624  39.572  32.547  1.00  0.00     0.034 A 
ATOM     58  C   UNL A   1      45.699  33.127  28.334  1.00  0.00     0.034 A 
ATOM     59  C   UNL A   1      44.299  39.472  31.185  1.00  0.00     0.049 A 
ATOM     60  C   UNL A   1      44.928  34.411  27.637  1.00  0.00     0.074 A 
ATOM     61  C   UNL A   1      45.580  39.769  30.726  1.00  0.00     0.029 A 
ATOM     62  N   UNL A   1      43.723  38.730  30.123  1.00  0.00    -0.354 N 
ATOM     63  N   UNL A   1      44.927  35.642  28.140  1.00  0.00    -0.248 NA
ATOM     64  C   UNL A   1      44.352  34.482  26.305  1.00  0.00     0.031 C 
ATOM     65  C   UNL A   1      45.774  39.178  29.423  1.00  0.00     0.029 A 
ATOM     66  C   UNL A   1      44.613  38.497  29.046  1.00  0.00     0.049 A 
ATOM     67  H   UNL A   1      42.793  38.408  30.134  1.00  0.00     0.167 HD
ATOM     68  C   UNL A   1      44.372  36.611  27.350  1.00  0.00     0.074 A 
ATOM     69  C   UNL A   1      44.142  35.809  26.148  1.00  0.00     0.031 C 
ATOM     70  C   UNL A   1      44.127  37.935  27.739  1.00  0.00     0.034 A 
BRANCH  57  71
ATOM     71  C   UNL A   1      43.657  40.797  33.477  1.00  0.00     0.023 A 
ATOM     72  C   UNL A   1      42.479  41.552  33.637  1.00  0.00     0.012 A 
ATOM     73  C   UNL A   1      44.790  41.290  34.187  1.00  0.00     0.148 A 
ATOM     74  C   UNL A   1      42.447  42.754  34.363  1.00  0.00     0.002 A 
ATOM     75  C   UNL A   1      44.776  42.511  34.871  1.00  0.00     0.091 A 
ATOM     76  F   UNL A   1      45.889  40.541  34.297  1.00  0.00    -0.205 F 
ATOM     77  C   UNL A   1      43.600  43.250  34.957  1.00  0.00     0.022 A 
BRANCH  75  78
ATOM     78  S   UNL A   1      46.245  43.206  35.662  1.00  0.00     0.127 S 
ATOM     79  O   UNL A   1      45.988  44.646  35.596  1.00  0.00    -0.237 OA
ATOM     80  O   UNL A   1      46.171  42.641  37.009  1.00  0.00    -0.237 OA
ATOM     81  O   UNL A   1      47.389  42.772  34.868  1.00  0.00    -0.744 OA
ENDBRANCH  75  78
ENDBRANCH  57  71
BRANCH  58  82
ATOM     82  C   UNL A   1      45.228  31.724  28.700  1.00  0.00     0.023 A 
ATOM     83  C   UNL A   1      44.704  31.521  30.022  1.00  0.00     0.012 A 
ATOM     84  C   UNL A   1      44.950  30.739  27.751  1.00  0.00     0.148 A 
ATOM     85  C   UNL A   1      43.776  30.518  30.315  1.00  0.00     0.002 A 
ATOM     86  C   UNL A   1      43.998  29.750  28.044  1.00  0.00     0.091 A 
ATOM     87  F   UNL A   1      45.477  30.868  26.527  1.00  0.00    -0.205 F 
ATOM     88  C   UNL A   1      43.386  29.656  29.305  1.00  0.00     0.022 A 
BRANCH  86  89
ATOM     89  S   UNL A   1      43.367  28.723  26.713  1.00  0.00     0.127 S 
ATOM     90  O   UNL A   1      44.600  28.271  26.080  1.00  0.00    -0.237 OA
ATOM     91  O   UNL A   1      42.616  27.683  27.416  1.00  0.00    -0.237 OA
ATOM     92  O   UNL A   1      42.531  29.643  25.948  1.00  0.00    -0.744 OA
ENDBRANCH  86  89
ENDBRANCH  58  82
BRANCH  70  93
ATOM     93  C   UNL A   1      43.297  38.947  26.910  1.00  0.00     0.023 A 
ATOM     94  C   UNL A   1      41.895  38.977  26.929  1.00  0.00     0.012 A 
ATOM     95  C   UNL A   1      43.910  39.990  26.149  1.00  0.00     0.148 A 
ATOM     96  C   UNL A   1      41.144  39.965  26.289  1.00  0.00     0.002 A 
ATOM     97  C   UNL A   1      43.170  41.029  25.596  1.00  0.00     0.091 A 
ATOM     98  F   UNL A   1      45.223  39.977  25.893  1.00  0.00    -0.205 F 
ATOM     99  C   UNL A   1      41.779  41.014  25.653  1.00  0.00     0.022 A 
BRANCH  97 100
ATOM    100  S   UNL A   1      43.935  42.490  24.878  1.00  0.00     0.127 S 
ATOM    101  O   UNL A   1      44.477  43.150  26.050  1.00  0.00    -0.237 OA
ATOM    102  O   UNL A   1      44.919  41.905  23.976  1.00  0.00    -0.237 OA
ATOM    103  O   UNL A   1      42.846  43.208  24.189  1.00  0.00    -0.744 OA
ENDBRANCH  97 100
ENDBRANCH  70  93
ENDBRANCH  44  45
ENDBRANCH  37  39
ENDBRANCH  36  37
ENDBRANCH  35  36
ENDBRANCH  34  35
ENDBRANCH  33  34
ENDBRANCH  32  33
ENDBRANCH  31  32
ENDBRANCH  30  31
ENDBRANCH   1  30
TORSDOF 27
ENDMDL
MODEL 2
REMARK VINA RESULT:     -10.2      4.049      8.209
REMARK SMILES Cc1cccc(OCC(=O)Nc2cc(C(=O)OCCOCCOCCOCCOC(=O)c3ccc(-c4c5nc(c(-c6cccc(S(=O)(=O)[O-])c6F)c6ccc([nH]6)c(-c6cccc(S(=O)(=O)[O-])c6F)c6nc(c(-c7cccc(S(=O)(=O)[O-])c7F)c7ccc4[nH]7)C=C6)C=C5)cc3)c(Cl)cc2Cl)c1
REMARK SMILES IDX 22 1 21 2 20 3 19 4 18 5 17 6 15 7 16 8 14 9 12 10 13 11
REMARK SMILES IDX 98 12 97 13 99 14 95 15 96 16 11 17 9 18 10 19 8 21 7 22
REMARK SMILES IDX 6 23 1 24 2 25 3 26 100 27 4 28 5 29 23 30 24 31 25 32 26 33
REMARK SMILES IDX 27 34 28 35 29 36 30 37 31 38 32 39 33 40 94 41 34 42 93 43
REMARK SMILES IDX 35 44 36 45 37 46 87 47 38 48 92 49 86 50 88 51 39 52 91 53
REMARK SMILES IDX 85 54 84 55 40 57 72 58 52 59 71 60 53 61 56 62 70 63 89 64
REMARK SMILES IDX 54 65 55 66 69 68 90 69 57 70 41 71 42 72 50 73 43 74 45 75
REMARK SMILES IDX 51 76 44 77 46 78 47 79 48 80 49 81 73 82 74 83 82 84 75 85
REMARK SMILES IDX 77 86 83 87 76 88 78 89 79 90 80 91 81 92 58 93 59 94 67 95
REMARK SMILES IDX 60 96 62 97 68 98 61 99 63 100 64 101 65 102 66 103
REMARK H PARENT 11 20 88 56 56 67
REMARK Flexibility Score: inf
ROOT
ATOM      1  C   UNL A   1      43.591  22.866  27.384  1.00  0.00     0.188 C 
ENDROOT
BRANCH   1   2
ATOM      2  C   UNL A   1      43.460  21.754  26.365  1.00  0.00     0.188 C 
BRANCH   2   3
ATOM      3  O   UNL A   1      42.284  20.520  26.686  1.00  0.00    -0.376 OA
BRANCH   3   4
ATOM      4  C   UNL A   1      40.501  20.679  26.863  1.00  0.00     0.202 C 
BRANCH   4   5
ATOM      5  C   UNL A   1      39.180  21.361  25.711  1.00  0.00     0.261 C 
BRANCH   5   6
ATOM      6  O   UNL A   1      37.931  22.688  26.111  1.00  0.00    -0.460 OA
BRANCH   6   7
ATOM      7  C   UNL A   1      36.338  23.043  26.119  1.00  0.00     0.339 C 
ATOM      8  O   UNL A   1      35.919  23.617  27.129  1.00  0.00    -0.246 OA
BRANCH   7   9
ATOM      9  C   UNL A   1      35.070  22.744  24.901  1.00  0.00     0.080 A 
ATOM     10  C   UNL A   1      33.817  23.323  22.629  1.00  0.00     0.061 A 
ATOM     11  C   UNL A   1      34.647  23.566  23.742  1.00  0.00     0.045 A 
ATOM     12  C   UNL A   1      32.934  22.296  22.911  1.00  0.00     0.066 A 
ATOM     13  C   UNL A   1      33.059  21.548  24.109  1.00  0.00     0.044 A 
ATOM     14  Cl  UNL A   1      31.549  22.029  21.904  1.00  0.00    -0.082 Cl
ATOM     15  C   UNL A   1      34.127  21.728  25.059  1.00  0.00     0.057 A 
ATOM     16  Cl  UNL A   1      34.022  20.703  26.443  1.00  0.00    -0.083 Cl
BRANCH  10  17
ATOM     17  N   UNL A   1      33.565  24.219  21.514  1.00  0.00    -0.322 N 
ATOM     18  C   UNL A   1      32.702  25.165  20.985  1.00  0.00     0.262 C 
ATOM     19  O   UNL A   1      32.833  25.306  19.751  1.00  0.00    -0.271 OA
ATOM     20  H   UNL A   1      34.307  24.108  20.876  1.00  0.00     0.170 HD
BRANCH  18  21
ATOM     21  C   UNL A   1      31.852  26.284  21.713  1.00  0.00     0.329 C 
BRANCH  21  22
ATOM     22  O   UNL A   1      30.929  26.191  22.797  1.00  0.00    -0.484 OA
BRANCH  22  23
ATOM     23  C   UNL A   1      31.148  25.701  24.054  1.00  0.00     0.120 A 
ATOM     24  C   UNL A   1      30.487  22.996  26.657  1.00  0.00     0.044 C 
ATOM     25  C   UNL A   1      31.119  24.123  25.901  1.00  0.00    -0.047 A 
ATOM     26  C   UNL A   1      32.266  24.701  26.460  1.00  0.00     0.003 A 
ATOM     27  C   UNL A   1      30.591  24.594  24.668  1.00  0.00     0.049 A 
ATOM     28  C   UNL A   1      32.734  25.884  25.936  1.00  0.00     0.004 A 
ATOM     29  C   UNL A   1      32.118  26.401  24.793  1.00  0.00     0.046 A 
ENDBRANCH  22  23
ENDBRANCH  21  22
ENDBRANCH  18  21
ENDBRANCH  10  17
ENDBRANCH   7   9
ENDBRANCH   6   7
ENDBRANCH   5   6
ENDBRANCH   4   5
ENDBRANCH   3   4
ENDBRANCH   2   3
ENDBRANCH   1   2
BRANCH   1  30
ATOM     30  O   UNL A   1      44.769  23.593  27.230  1.00  0.00    -0.377 OA
BRANCH  30  31
ATOM     31  C   UNL A   1      45.211  23.544  25.893  1.00  0.00     0.188 C 
BRANCH  31  32
ATOM     32  C   UNL A   1      46.225  24.659  25.452  1.00  0.00     0.188 C 
BRANCH  32  33
ATOM     33  O   UNL A   1      45.699  25.693  24.675  1.00  0.00    -0.376 OA
BRANCH  33  34
ATOM     34  C   UNL A   1      45.242  26.715  25.531  1.00  0.00     0.202 C 
BRANCH  34  35
ATOM     35  C   UNL A   1      43.654  26.819  25.865  1.00  0.00     0.261 C 
BRANCH  35  36
ATOM     36  O   UNL A   1      43.001  28.283  26.184  1.00  0.00    -0.460 OA
BRANCH  36  37
ATOM     37  C   UNL A   1      43.098  29.298  27.198  1.00  0.00     0.338 C 
ATOM     38  O   UNL A   1      42.133  29.560  27.910  1.00  0.00    -0.246 OA
BRANCH  37  39
ATOM     39  C   UNL A   1      44.514  29.980  27.566  1.00  0.00     0.060 A 
ATOM     40  C   UNL A   1      45.325  29.585  28.628  1.00  0.00     0.016 A 
ATOM     41  C   UNL A   1      45.038  31.124  26.959  1.00  0.00     0.016 A 
ATOM     42  C   UNL A   1      46.246  30.525  29.225  1.00  0.00     0.010 A 
ATOM     43  C   UNL A   1      45.697  32.146  27.750  1.00  0.00     0.010 A 
ATOM     44  C   UNL A   1      46.074  31.926  29.079  1.00  0.00    -0.014 A 
BRANCH  44  45
ATOM     45  C   UNL A   1      46.313  33.218  30.335  1.00  0.00     0.031 A 
ATOM     46  C   UNL A   1      44.626  33.289  30.724  1.00  0.00     0.074 A 
ATOM     47  C   UNL A   1      47.585  34.361  30.619  1.00  0.00     0.049 A 
ATOM     48  N   UNL A   1      43.917  34.385  30.772  1.00  0.00    -0.248 NA
ATOM     49  C   UNL A   1      43.665  32.164  30.692  1.00  0.00     0.031 C 
ATOM     50  C   UNL A   1      47.771  35.876  31.281  1.00  0.00     0.029 A 
ATOM     51  N   UNL A   1      49.016  34.634  29.991  1.00  0.00    -0.354 N 
ATOM     52  C   UNL A   1      42.736  34.134  31.356  1.00  0.00     0.074 A 
ATOM     53  C   UNL A   1      42.502  32.785  30.947  1.00  0.00     0.031 C 
ATOM     54  C   UNL A   1      48.845  36.598  30.969  1.00  0.00     0.029 A 
ATOM     55  C   UNL A   1      49.298  36.016  29.802  1.00  0.00     0.049 A 
ATOM     56  H   UNL A   1      49.648  33.916  29.757  1.00  0.00     0.167 HD
ATOM     57  C   UNL A   1      42.301  34.982  32.332  1.00  0.00     0.034 A 
ATOM     58  C   UNL A   1      49.154  36.784  28.673  1.00  0.00     0.034 A 
ATOM     59  C   UNL A   1      43.233  36.171  32.534  1.00  0.00     0.049 A 
ATOM     60  C   UNL A   1      47.977  37.916  28.924  1.00  0.00     0.074 A 
ATOM     61  C   UNL A   1      44.074  36.565  33.572  1.00  0.00     0.029 A 
ATOM     62  N   UNL A   1      43.612  37.009  31.455  1.00  0.00    -0.354 N 
ATOM     63  N   UNL A   1      47.033  37.817  29.855  1.00  0.00    -0.248 NA
ATOM     64  C   UNL A   1      47.907  39.258  28.370  1.00  0.00     0.031 C 
ATOM     65  C   UNL A   1      44.968  37.596  33.103  1.00  0.00     0.029 A 
ATOM     66  C   UNL A   1      44.700  37.865  31.758  1.00  0.00     0.049 A 
ATOM     67  H   UNL A   1      43.163  36.996  30.580  1.00  0.00     0.167 HD
ATOM     68  C   UNL A   1      46.239  38.918  30.023  1.00  0.00     0.074 A 
ATOM     69  C   UNL A   1      46.942  39.835  29.124  1.00  0.00     0.031 C 
ATOM     70  C   UNL A   1      45.096  38.981  30.831  1.00  0.00     0.034 A 
BRANCH  57  71
ATOM     71  C   UNL A   1      41.263  34.474  33.346  1.00  0.00     0.023 A 
ATOM     72  C   UNL A   1      41.716  34.006  34.595  1.00  0.00     0.012 A 
ATOM     73  C   UNL A   1      39.855  34.383  33.143  1.00  0.00     0.148 A 
ATOM     74  C   UNL A   1      40.858  33.408  35.532  1.00  0.00     0.002 A 
ATOM     75  C   UNL A   1      39.003  33.745  34.052  1.00  0.00     0.091 A 
ATOM     76  F   UNL A   1      39.288  34.999  32.104  1.00  0.00    -0.205 F 
ATOM     77  C   UNL A   1      39.507  33.250  35.252  1.00  0.00     0.022 A 
BRANCH  75  78
ATOM     78  S   UNL A   1      37.239  33.511  33.741  1.00  0.00     0.127 S 
ATOM     79  O   UNL A   1      36.830  32.664  34.862  1.00  0.00    -0.237 OA
ATOM     80  O   UNL A   1      36.727  34.879  33.799  1.00  0.00    -0.237 OA
ATOM     81  O   UNL A   1      37.129  32.862  32.439  1.00  0.00    -0.744 OA
ENDBRANCH  75  78
ENDBRANCH  57  71
BRANCH  58  82
ATOM     82  C   UNL A   1      49.627  36.058  27.420  1.00  0.00     0.023 A 
ATOM     83  C   UNL A   1      48.625  35.537  26.532  1.00  0.00     0.012 A 
ATOM     84  C   UNL A   1      50.923  36.172  26.913  1.00  0.00     0.148 A 
ATOM     85  C   UNL A   1      48.853  35.359  25.165  1.00  0.00     0.002 A 
ATOM     86  C   UNL A   1      51.139  36.017  25.535  1.00  0.00     0.091 A 
ATOM     87  F   UNL A   1      51.892  36.595  27.735  1.00  0.00    -0.205 F 
ATOM     88  C   UNL A   1      50.108  35.646  24.656  1.00  0.00     0.022 A 
BRANCH  86  89
ATOM     89  S   UNL A   1      52.711  36.530  24.833  1.00  0.00     0.127 S 
ATOM     90  O   UNL A   1      53.639  35.618  25.492  1.00  0.00    -0.237 OA
ATOM     91  O   UNL A   1      52.531  36.301  23.400  1.00  0.00    -0.237 OA
ATOM     92  O   UNL A   1      52.797  37.939  25.202  1.00  0.00    -0.744 OA
ENDBRANCH  86  89
ENDBRANCH  58  82
BRANCH  70  93
ATOM     93  C   UNL A   1      44.092  40.161  30.830  1.00  0.00     0.023 A 
ATOM     94  C   UNL A   1      42.866  40.115  30.151  1.00  0.00     0.012 A 
ATOM     95  C   UNL A   1      44.302  41.339  31.612  1.00  0.00     0.148 A 
ATOM     96  C   UNL A   1      41.901  41.119  30.250  1.00  0.00     0.002 A 
ATOM     97  C   UNL A   1      43.305  42.290  31.791  1.00  0.00     0.091 A 
ATOM     98  F   UNL A   1      45.495  41.598  32.160  1.00  0.00    -0.205 F 
ATOM     99  C   UNL A   1      42.101  42.190  31.099  1.00  0.00     0.022 A 
BRANCH  97 100
ATOM    100  S   UNL A   1      43.444  43.628  32.984  1.00  0.00     0.127 S 
ATOM    101  O   UNL A   1      42.176  44.311  32.818  1.00  0.00    -0.237 OA
ATOM    102  O   UNL A   1      43.606  42.902  34.237  1.00  0.00    -0.237 OA
ATOM    103  O   UNL A   1      44.639  44.395  32.580  1.00  0.00    -0.744 OA
ENDBRANCH  97 100
ENDBRANCH  70  93
ENDBRANCH  44  45
ENDBRANCH  37  39
ENDBRANCH  36  37
ENDBRANCH  35  36
ENDBRANCH  34  35
ENDBRANCH  33  34
ENDBRANCH  32  33
ENDBRANCH  31  32
ENDBRANCH  30  31
ENDBRANCH   1  30
TORSDOF 27
ENDMDL
MODEL 3
REMARK VINA RESULT:     -10.0      6.556     11.340
REMARK SMILES Cc1cccc(OCC(=O)Nc2cc(C(=O)OCCOCCOCCOCCOC(=O)c3ccc(-c4c5nc(c(-c6cccc(S(=O)(=O)[O-])c6F)c6ccc([nH]6)c(-c6cccc(S(=O)(=O)[O-])c6F)c6nc(c(-c7cccc(S(=O)(=O)[O-])c7F)c7ccc4[nH]7)C=C6)C=C5)cc3)c(Cl)cc2Cl)c1
REMARK SMILES IDX 22 1 21 2 20 3 19 4 18 5 17 6 15 7 16 8 14 9 12 10 13 11
REMARK SMILES IDX 98 12 97 13 99 14 95 15 96 16 11 17 9 18 10 19 8 21 7 22
REMARK SMILES IDX 6 23 1 24 2 25 3 26 100 27 4 28 5 29 23 30 24 31 25 32 26 33
REMARK SMILES IDX 27 34 28 35 29 36 30 37 31 38 32 39 33 40 94 41 34 42 93 43
REMARK SMILES IDX 35 44 36 45 37 46 87 47 38 48 92 49 86 50 88 51 39 52 91 53
REMARK SMILES IDX 85 54 84 55 40 57 72 58 52 59 71 60 53 61 56 62 70 63 89 64
REMARK SMILES IDX 54 65 55 66 69 68 90 69 57 70 41 71 42 72 50 73 43 74 45 75
REMARK SMILES IDX 51 76 44 77 46 78 47 79 48 80 49 81 73 82 74 83 82 84 75 85
REMARK SMILES IDX 77 86 83 87 76 88 78 89 79 90 80 91 81 92 58 93 59 94 67 95
REMARK SMILES IDX 60 96 62 97 68 98 61 99 63 100 64 101 65 102 66 103
REMARK H PARENT 11 20 88 56 56 67
REMARK Flexibility Score: inf
ROOT
ATOM      1  C   UNL A   1      47.407  31.148  30.198  1.00  0.00     0.188 C 
ENDROOT
BRANCH   1   2
ATOM      2  C   UNL A   1      47.512  30.929  31.692  1.00  0.00     0.188 C 
BRANCH   2   3
ATOM      3  O   UNL A   1      47.025  29.381  32.302  1.00  0.00    -0.376 OA
BRANCH   3   4
ATOM      4  C   UNL A   1      45.687  28.317  31.743  1.00  0.00     0.202 C 
BRANCH   4   5
ATOM      5  C   UNL A   1      44.453  28.486  30.334  1.00  0.00     0.261 C 
BRANCH   5   6
ATOM      6  O   UNL A   1      43.430  27.121  29.580  1.00  0.00    -0.460 OA
BRANCH   6   7
ATOM      7  C   UNL A   1      42.865  26.517  28.172  1.00  0.00     0.339 C 
ATOM      8  O   UNL A   1      42.999  27.243  27.182  1.00  0.00    -0.246 OA
BRANCH   7   9
ATOM      9  C   UNL A   1      42.074  24.961  27.804  1.00  0.00     0.080 A 
ATOM     10  C   UNL A   1      42.139  22.434  26.984  1.00  0.00     0.061 A 
ATOM     11  C   UNL A   1      42.610  23.754  27.132  1.00  0.00     0.045 A 
ATOM     12  C   UNL A   1      40.764  22.401  27.133  1.00  0.00     0.066 A 
ATOM     13  C   UNL A   1      40.058  23.556  27.552  1.00  0.00     0.044 A 
ATOM     14  Cl  UNL A   1      39.860  21.011  26.628  1.00  0.00    -0.082 Cl
ATOM     15  C   UNL A   1      40.695  24.793  27.930  1.00  0.00     0.057 A 
ATOM     16  Cl  UNL A   1      39.597  26.046  28.375  1.00  0.00    -0.083 Cl
BRANCH  10  17
ATOM     17  N   UNL A   1      42.833  21.322  26.357  1.00  0.00    -0.322 N 
ATOM     18  C   UNL A   1      43.740  20.952  25.378  1.00  0.00     0.262 C 
ATOM     19  O   UNL A   1      43.639  19.751  25.050  1.00  0.00    -0.271 OA
ATOM     20  H   UNL A   1      42.540  20.500  26.812  1.00  0.00     0.170 HD
BRANCH  18  21
ATOM     21  C   UNL A   1      45.047  21.688  24.873  1.00  0.00     0.329 C 
BRANCH  21  22
ATOM     22  O   UNL A   1      46.143  22.241  25.601  1.00  0.00    -0.484 OA
BRANCH  22  23
ATOM     23  C   UNL A   1      46.317  23.533  26.013  1.00  0.00     0.120 A 
ATOM     24  C   UNL A   1      46.691  26.015  28.882  1.00  0.00     0.044 C 
ATOM     25  C   UNL A   1      46.755  25.382  27.526  1.00  0.00    -0.047 A 
ATOM     26  C   UNL A   1      47.252  26.168  26.479  1.00  0.00     0.003 A 
ATOM     27  C   UNL A   1      46.335  24.044  27.298  1.00  0.00     0.049 A 
ATOM     28  C   UNL A   1      47.102  25.722  25.187  1.00  0.00     0.004 A 
ATOM     29  C   UNL A   1      46.565  24.449  24.976  1.00  0.00     0.046 A 
ENDBRANCH  22  23
ENDBRANCH  21  22
ENDBRANCH  18  21
ENDBRANCH  10  17
ENDBRANCH   7   9
ENDBRANCH   6   7
ENDBRANCH   5   6
ENDBRANCH   4   5
ENDBRANCH   3   4
ENDBRANCH   2   3
ENDBRANCH   1   2
BRANCH   1  30
ATOM     30  O   UNL A   1      46.902  32.406  29.878  1.00  0.00    -0.377 OA
BRANCH  30  31
ATOM     31  C   UNL A   1      47.767  33.077  28.991  1.00  0.00     0.188 C 
BRANCH  31  32
ATOM     32  C   UNL A   1      47.112  34.159  28.061  1.00  0.00     0.188 C 
BRANCH  32  33
ATOM     33  O   UNL A   1      47.226  33.937  26.688  1.00  0.00    -0.376 OA
BRANCH  33  34
ATOM     34  C   UNL A   1      46.058  34.405  26.054  1.00  0.00     0.202 C 
BRANCH  34  35
ATOM     35  C   UNL A   1      45.524  35.905  26.384  1.00  0.00     0.261 C 
BRANCH  35  36
ATOM     36  O   UNL A   1      43.967  36.115  26.837  1.00  0.00    -0.460 OA
BRANCH  36  37
ATOM     37  C   UNL A   1      43.056  35.577  27.810  1.00  0.00     0.338 C 
ATOM     38  O   UNL A   1      41.874  35.909  27.807  1.00  0.00    -0.246 OA
BRANCH  37  39
ATOM     39  C   UNL A   1      43.501  34.383  28.802  1.00  0.00     0.060 A 
ATOM     40  C   UNL A   1      43.293  33.029  28.546  1.00  0.00     0.016 A 
ATOM     41  C   UNL A   1      44.022  34.557  30.087  1.00  0.00     0.016 A 
ATOM     42  C   UNL A   1      43.200  32.091  29.641  1.00  0.00     0.010 A 
ATOM     43  C   UNL A   1      43.603  33.698  31.178  1.00  0.00     0.010 A 
ATOM     44  C   UNL A   1      42.886  32.517  30.958  1.00  0.00    -0.014 A 
BRANCH  44  45
ATOM     45  C   UNL A   1      41.796  31.705  32.165  1.00  0.00     0.031 A 
ATOM     46  C   UNL A   1      40.540  32.882  31.969  1.00  0.00     0.074 A 
ATOM     47  C   UNL A   1      42.094  30.577  33.446  1.00  0.00     0.049 A 
ATOM     48  N   UNL A   1      39.953  33.516  32.949  1.00  0.00    -0.248 NA
ATOM     49  C   UNL A   1      40.202  33.614  30.728  1.00  0.00     0.031 C 
ATOM     50  C   UNL A   1      41.432  30.156  34.914  1.00  0.00     0.029 A 
ATOM     51  N   UNL A   1      43.357  29.768  33.965  1.00  0.00    -0.354 N 
ATOM     52  C   UNL A   1      38.860  34.145  32.490  1.00  0.00     0.074 A 
ATOM     53  C   UNL A   1      39.264  34.473  31.159  1.00  0.00     0.031 C 
ATOM     54  C   UNL A   1      42.173  29.497  35.801  1.00  0.00     0.029 A 
ATOM     55  C   UNL A   1      43.468  29.739  35.384  1.00  0.00     0.049 A 
ATOM     56  H   UNL A   1      44.000  29.328  33.363  1.00  0.00     0.167 HD
ATOM     57  C   UNL A   1      37.695  34.014  33.188  1.00  0.00     0.034 A 
ATOM     58  C   UNL A   1      44.207  30.545  36.214  1.00  0.00     0.034 A 
ATOM     59  C   UNL A   1      37.868  33.216  34.475  1.00  0.00     0.049 A 
ATOM     60  C   UNL A   1      43.192  31.453  37.147  1.00  0.00     0.074 A 
ATOM     61  C   UNL A   1      37.418  31.966  34.895  1.00  0.00     0.029 A 
ATOM     62  N   UNL A   1      38.843  33.567  35.441  1.00  0.00    -0.354 N 
ATOM     63  N   UNL A   1      41.922  31.702  36.843  1.00  0.00    -0.248 NA
ATOM     64  C   UNL A   1      43.414  31.916  38.507  1.00  0.00     0.031 C 
ATOM     65  C   UNL A   1      38.146  31.565  36.076  1.00  0.00     0.029 A 
ATOM     66  C   UNL A   1      39.067  32.560  36.413  1.00  0.00     0.049 A 
ATOM     67  H   UNL A   1      39.320  34.428  35.437  1.00  0.00     0.167 HD
ATOM     68  C   UNL A   1      41.188  32.339  37.806  1.00  0.00     0.074 A 
ATOM     69  C   UNL A   1      42.181  32.328  38.881  1.00  0.00     0.031 C 
ATOM     70  C   UNL A   1      39.887  32.832  37.644  1.00  0.00     0.034 A 
BRANCH  57  71
ATOM     71  C   UNL A   1      36.364  34.265  32.460  1.00  0.00     0.023 A 
ATOM     72  C   UNL A   1      36.115  33.574  31.258  1.00  0.00     0.012 A 
ATOM     73  C   UNL A   1      35.340  35.174  32.857  1.00  0.00     0.148 A 
ATOM     74  C   UNL A   1      34.987  33.832  30.461  1.00  0.00     0.002 A 
ATOM     75  C   UNL A   1      34.240  35.470  32.044  1.00  0.00     0.091 A 
ATOM     76  F   UNL A   1      35.357  35.708  34.080  1.00  0.00    -0.205 F 
ATOM     77  C   UNL A   1      34.064  34.799  30.837  1.00  0.00     0.022 A 
BRANCH  75  78
ATOM     78  S   UNL A   1      33.008  36.716  32.481  1.00  0.00     0.127 S 
ATOM     79  O   UNL A   1      33.436  37.128  33.819  1.00  0.00    -0.237 OA
ATOM     80  O   UNL A   1      33.206  37.729  31.446  1.00  0.00    -0.237 OA
ATOM     81  O   UNL A   1      31.712  36.046  32.455  1.00  0.00    -0.744 OA
ENDBRANCH  75  78
ENDBRANCH  57  71
BRANCH  58  82
ATOM     82  C   UNL A   1      45.604  30.807  35.663  1.00  0.00     0.023 A 
ATOM     83  C   UNL A   1      45.894  32.130  35.185  1.00  0.00     0.012 A 
ATOM     84  C   UNL A   1      46.694  29.973  35.914  1.00  0.00     0.148 A 
ATOM     85  C   UNL A   1      47.188  32.658  35.176  1.00  0.00     0.002 A 
ATOM     86  C   UNL A   1      47.988  30.516  35.929  1.00  0.00     0.091 A 
ATOM     87  F   UNL A   1      46.455  28.713  36.301  1.00  0.00    -0.205 F 
ATOM     88  C   UNL A   1      48.236  31.858  35.596  1.00  0.00     0.022 A 
BRANCH  86  89
ATOM     89  S   UNL A   1      49.336  29.546  36.614  1.00  0.00     0.127 S 
ATOM     90  O   UNL A   1      49.068  28.229  36.049  1.00  0.00    -0.237 OA
ATOM     91  O   UNL A   1      50.530  30.212  36.093  1.00  0.00    -0.237 OA
ATOM     92  O   UNL A   1      49.156  29.695  38.055  1.00  0.00    -0.744 OA
ENDBRANCH  86  89
ENDBRANCH  58  82
BRANCH  70  93
ATOM     93  C   UNL A   1      39.166  33.743  38.669  1.00  0.00     0.023 A 
ATOM     94  C   UNL A   1      38.226  33.257  39.589  1.00  0.00     0.012 A 
ATOM     95  C   UNL A   1      39.491  35.127  38.817  1.00  0.00     0.148 A 
ATOM     96  C   UNL A   1      37.669  34.044  40.599  1.00  0.00     0.002 A 
ATOM     97  C   UNL A   1      39.015  35.885  39.880  1.00  0.00     0.091 A 
ATOM     98  F   UNL A   1      40.228  35.763  37.899  1.00  0.00    -0.205 F 
ATOM     99  C   UNL A   1      38.090  35.348  40.771  1.00  0.00     0.022 A 
BRANCH  97 100
ATOM    100  S   UNL A   1      39.625  37.537  40.243  1.00  0.00     0.127 S 
ATOM    101  O   UNL A   1      38.697  38.369  39.501  1.00  0.00    -0.237 OA
ATOM    102  O   UNL A   1      39.498  37.595  41.693  1.00  0.00    -0.237 OA
ATOM    103  O   UNL A   1      41.021  37.557  39.765  1.00  0.00    -0.744 OA
ENDBRANCH  97 100
ENDBRANCH  70  93
ENDBRANCH  44  45
ENDBRANCH  37  39
ENDBRANCH  36  37
ENDBRANCH  35  36
ENDBRANCH  34  35
ENDBRANCH  33  34
ENDBRANCH  32  33
ENDBRANCH  31  32
ENDBRANCH  30  31
ENDBRANCH   1  30
TORSDOF 27
ENDMDL
