MODEL 1
REMARK VINA RESULT:      -8.2      0.000      0.000
REMARK SMILES O=C(CCCC[C@@H]1CCSS1)OCCOCCOCCOCCOC(=O)c1ccc(-c2c3nc(c(-c4cccc(S(=O)(=O)[O-])c4F)c4ccc([nH]4)c(-c4cccc(S(=O)(=O)[O-])c4F)c4nc(c(-c5cccc(S(=O)(=O)[O-])c5F)c5ccc2[nH]5)C=C4)C=C3)cc1
REMARK SMILES IDX 17 1 16 2 15 3 14 4 13 5 12 6 2 7 1 8 3 9 4 10 5 11 6 12
REMARK SMILES IDX 7 13 8 14 11 15 9 16 10 17 18 18 19 19 20 20 21 21 22 22
REMARK SMILES IDX 23 23 24 24 25 25 26 26 27 27 28 28 89 29 29 30 88 31 30 32
REMARK SMILES IDX 31 33 32 34 82 35 33 36 87 37 81 38 83 39 34 40 86 41 80 42
REMARK SMILES IDX 79 43 35 45 67 46 47 47 66 48 48 49 51 50 65 51 84 52 49 53
REMARK SMILES IDX 50 54 64 56 85 57 52 58 36 59 37 60 45 61 38 62 40 63 46 64
REMARK SMILES IDX 39 65 41 66 42 67 43 68 44 69 68 70 69 71 77 72 70 73 72 74
REMARK SMILES IDX 78 75 71 76 73 77 74 78 75 79 76 80 53 81 54 82 62 83 55 84
REMARK SMILES IDX 57 85 63 86 56 87 58 88 59 89 60 90 61 91
REMARK H PARENT 83 44 51 55
REMARK Flexibility Score: inf
ROOT
ATOM      1  C   UNL A   1      33.594  20.761  24.393  1.00  0.00     0.188 C 
ENDROOT
BRANCH   1   2
ATOM      2  C   UNL A   1      32.286  21.289  23.813  1.00  0.00     0.188 C 
BRANCH   2   3
ATOM      3  O   UNL A   1      32.222  22.701  23.612  1.00  0.00    -0.376 OA
BRANCH   3   4
ATOM      4  C   UNL A   1      31.040  23.230  23.029  1.00  0.00     0.202 C 
BRANCH   4   5
ATOM      5  C   UNL A   1      30.987  24.737  23.123  1.00  0.00     0.261 C 
BRANCH   5   6
ATOM      6  O   UNL A   1      31.465  25.407  21.945  1.00  0.00    -0.463 OA
BRANCH   6   7
ATOM      7  C   UNL A   1      32.721  25.755  21.609  1.00  0.00     0.305 C 
ATOM      8  O   UNL A   1      33.081  25.563  20.444  1.00  0.00    -0.252 OA
BRANCH   7   9
ATOM      9  C   UNL A   1      33.740  26.270  22.611  1.00  0.00     0.123 C 
BRANCH   9  10
ATOM     10  C   UNL A   1      34.344  25.316  23.634  1.00  0.00     0.012 C 
BRANCH  10  11
ATOM     11  C   UNL A   1      33.911  25.452  25.100  1.00  0.00     0.002 C 
BRANCH  11  12
ATOM     12  C   UNL A   1      33.899  26.869  25.697  1.00  0.00     0.015 C 
BRANCH  12  13
ATOM     13  C   UNL A   1      32.591  27.695  25.698  1.00  0.00     0.059 C 
ATOM     14  C   UNL A   1      32.769  28.988  24.870  1.00  0.00     0.027 C 
ATOM     15  S   UNL A   1      31.901  28.141  27.328  1.00  0.00    -0.091 SA
ATOM     16  C   UNL A   1      31.761  30.063  25.251  1.00  0.00     0.083 C 
ATOM     17  S   UNL A   1      31.845  30.161  27.048  1.00  0.00    -0.094 SA
ENDBRANCH  12  13
ENDBRANCH  11  12
ENDBRANCH  10  11
ENDBRANCH   9  10
ENDBRANCH   7   9
ENDBRANCH   6   7
ENDBRANCH   5   6
ENDBRANCH   4   5
ENDBRANCH   3   4
ENDBRANCH   2   3
ENDBRANCH   1   2
BRANCH   1  18
ATOM     18  O   UNL A   1      33.738  20.734  25.806  1.00  0.00    -0.377 OA
BRANCH  18  19
ATOM     19  C   UNL A   1      34.716  21.526  26.451  1.00  0.00     0.188 C 
BRANCH  19  20
ATOM     20  C   UNL A   1      36.037  21.675  25.682  1.00  0.00     0.188 C 
BRANCH  20  21
ATOM     21  O   UNL A   1      36.697  20.500  25.235  1.00  0.00    -0.376 OA
BRANCH  21  22
ATOM     22  C   UNL A   1      38.102  20.565  24.992  1.00  0.00     0.202 C 
BRANCH  22  23
ATOM     23  C   UNL A   1      39.060  21.206  26.024  1.00  0.00     0.261 C 
BRANCH  23  24
ATOM     24  O   UNL A   1      39.962  20.296  26.687  1.00  0.00    -0.460 OA
BRANCH  24  25
ATOM     25  C   UNL A   1      41.242  20.284  26.239  1.00  0.00     0.338 C 
ATOM     26  O   UNL A   1      41.737  19.456  25.497  1.00  0.00    -0.246 OA
BRANCH  25  27
ATOM     27  C   UNL A   1      41.937  21.551  26.578  1.00  0.00     0.060 A 
ATOM     28  C   UNL A   1      42.140  21.829  27.939  1.00  0.00     0.016 A 
ATOM     29  C   UNL A   1      42.308  22.488  25.614  1.00  0.00     0.016 A 
ATOM     30  C   UNL A   1      42.674  23.052  28.341  1.00  0.00     0.010 A 
ATOM     31  C   UNL A   1      42.812  23.736  26.022  1.00  0.00     0.010 A 
ATOM     32  C   UNL A   1      42.955  24.039  27.389  1.00  0.00    -0.014 A 
BRANCH  32  33
ATOM     33  C   UNL A   1      43.162  25.433  27.864  1.00  0.00     0.031 A 
ATOM     34  C   UNL A   1      44.563  25.991  27.855  1.00  0.00     0.074 A 
ATOM     35  C   UNL A   1      42.133  26.224  28.219  1.00  0.00     0.049 A 
ATOM     36  N   UNL A   1      44.982  27.194  28.156  1.00  0.00    -0.248 NA
ATOM     37  C   UNL A   1      45.636  25.068  27.445  1.00  0.00     0.031 C 
ATOM     38  C   UNL A   1      40.730  25.820  28.263  1.00  0.00     0.029 A 
ATOM     39  N   UNL A   1      42.117  27.538  28.624  1.00  0.00    -0.354 N 
ATOM     40  C   UNL A   1      46.362  27.170  27.981  1.00  0.00     0.074 A 
ATOM     41  C   UNL A   1      46.713  25.827  27.575  1.00  0.00     0.031 C 
ATOM     42  C   UNL A   1      39.992  26.855  28.702  1.00  0.00     0.029 A 
ATOM     43  C   UNL A   1      40.870  27.992  28.982  1.00  0.00     0.049 A 
ATOM     44  H   UNL A   1      42.924  28.102  28.653  1.00  0.00     0.167 HD
ATOM     45  C   UNL A   1      47.257  28.176  28.123  1.00  0.00     0.034 A 
ATOM     46  C   UNL A   1      40.484  29.179  29.493  1.00  0.00     0.034 A 
ATOM     47  C   UNL A   1      46.916  29.513  28.530  1.00  0.00     0.049 A 
ATOM     48  C   UNL A   1      41.506  30.274  29.678  1.00  0.00     0.074 A 
ATOM     49  C   UNL A   1      47.753  30.604  28.686  1.00  0.00     0.029 A 
ATOM     50  N   UNL A   1      45.640  29.939  28.861  1.00  0.00    -0.354 N 
ATOM     51  N   UNL A   1      42.789  30.265  29.407  1.00  0.00    -0.248 NA
ATOM     52  C   UNL A   1      41.015  31.559  30.201  1.00  0.00     0.031 C 
ATOM     53  C   UNL A   1      46.986  31.682  29.142  1.00  0.00     0.029 A 
ATOM     54  C   UNL A   1      45.666  31.273  29.226  1.00  0.00     0.049 A 
ATOM     55  H   UNL A   1      44.834  29.375  28.837  1.00  0.00     0.167 HD
ATOM     56  C   UNL A   1      43.250  31.547  29.692  1.00  0.00     0.074 A 
ATOM     57  C   UNL A   1      42.102  32.314  30.127  1.00  0.00     0.031 C 
ATOM     58  C   UNL A   1      44.511  32.042  29.618  1.00  0.00     0.034 A 
BRANCH  45  59
ATOM     59  C   UNL A   1      48.700  27.871  27.810  1.00  0.00     0.023 A 
ATOM     60  C   UNL A   1      49.542  27.366  28.821  1.00  0.00     0.012 A 
ATOM     61  C   UNL A   1      49.209  28.037  26.506  1.00  0.00     0.148 A 
ATOM     62  C   UNL A   1      50.875  27.061  28.550  1.00  0.00     0.002 A 
ATOM     63  C   UNL A   1      50.525  27.685  26.233  1.00  0.00     0.091 A 
ATOM     64  F   UNL A   1      48.398  28.536  25.562  1.00  0.00    -0.205 F 
ATOM     65  C   UNL A   1      51.363  27.211  27.255  1.00  0.00     0.022 A 
BRANCH  63  66
ATOM     66  S   UNL A   1      51.228  27.764  24.581  1.00  0.00     0.127 S 
ATOM     67  O   UNL A   1      50.159  27.174  23.777  1.00  0.00    -0.237 OA
ATOM     68  O   UNL A   1      51.408  29.204  24.396  1.00  0.00    -0.237 OA
ATOM     69  O   UNL A   1      52.465  26.996  24.632  1.00  0.00    -0.744 OA
ENDBRANCH  63  66
ENDBRANCH  45  59
BRANCH  46  70
ATOM     70  C   UNL A   1      39.057  29.407  29.869  1.00  0.00     0.023 A 
ATOM     71  C   UNL A   1      38.597  29.057  31.153  1.00  0.00     0.012 A 
ATOM     72  C   UNL A   1      38.151  29.957  28.943  1.00  0.00     0.148 A 
ATOM     73  C   UNL A   1      37.252  29.212  31.493  1.00  0.00     0.002 A 
ATOM     74  C   UNL A   1      36.827  30.169  29.309  1.00  0.00     0.091 A 
ATOM     75  F   UNL A   1      38.602  30.264  27.718  1.00  0.00    -0.205 F 
ATOM     76  C   UNL A   1      36.370  29.778  30.576  1.00  0.00     0.022 A 
BRANCH  74  77
ATOM     77  S   UNL A   1      35.660  31.018  28.241  1.00  0.00     0.127 S 
ATOM     78  O   UNL A   1      35.415  30.016  27.208  1.00  0.00    -0.237 OA
ATOM     79  O   UNL A   1      34.540  31.254  29.153  1.00  0.00    -0.237 OA
ATOM     80  O   UNL A   1      36.339  32.229  27.801  1.00  0.00    -0.744 OA
ENDBRANCH  74  77
ENDBRANCH  46  70
BRANCH  58  81
ATOM     81  C   UNL A   1      44.715  33.494  29.974  1.00  0.00     0.023 A 
ATOM     82  C   UNL A   1      45.062  33.859  31.291  1.00  0.00     0.012 A 
ATOM     83  C   UNL A   1      44.598  34.498  28.991  1.00  0.00     0.148 A 
ATOM     84  C   UNL A   1      45.235  35.200  31.635  1.00  0.00     0.002 A 
ATOM     85  C   UNL A   1      44.827  35.827  29.329  1.00  0.00     0.091 A 
ATOM     86  F   UNL A   1      44.254  34.138  27.746  1.00  0.00    -0.205 F 
ATOM     87  C   UNL A   1      45.127  36.182  30.654  1.00  0.00     0.022 A 
BRANCH  85  88
ATOM     88  S   UNL A   1      44.804  37.148  28.111  1.00  0.00     0.127 S 
ATOM     89  O   UNL A   1      43.402  37.149  27.699  1.00  0.00    -0.237 OA
ATOM     90  O   UNL A   1      45.207  38.309  28.905  1.00  0.00    -0.237 OA
ATOM     91  O   UNL A   1      45.759  36.760  27.082  1.00  0.00    -0.744 OA
ENDBRANCH  85  88
ENDBRANCH  58  81
ENDBRANCH  32  33
ENDBRANCH  25  27
ENDBRANCH  24  25
ENDBRANCH  23  24
ENDBRANCH  22  23
ENDBRANCH  21  22
ENDBRANCH  20  21
ENDBRANCH  19  20
ENDBRANCH  18  19
ENDBRANCH   1  18
TORSDOF 27
ENDMDL
MODEL 2
REMARK VINA RESULT:      -7.6      2.070      2.628
REMARK SMILES O=C(CCCC[C@@H]1CCSS1)OCCOCCOCCOCCOC(=O)c1ccc(-c2c3nc(c(-c4cccc(S(=O)(=O)[O-])c4F)c4ccc([nH]4)c(-c4cccc(S(=O)(=O)[O-])c4F)c4nc(c(-c5cccc(S(=O)(=O)[O-])c5F)c5ccc2[nH]5)C=C4)C=C3)cc1
REMARK SMILES IDX 17 1 16 2 15 3 14 4 13 5 12 6 2 7 1 8 3 9 4 10 5 11 6 12
REMARK SMILES IDX 7 13 8 14 11 15 9 16 10 17 18 18 19 19 20 20 21 21 22 22
REMARK SMILES IDX 23 23 24 24 25 25 26 26 27 27 28 28 89 29 29 30 88 31 30 32
REMARK SMILES IDX 31 33 32 34 82 35 33 36 87 37 81 38 83 39 34 40 86 41 80 42
REMARK SMILES IDX 79 43 35 45 67 46 47 47 66 48 48 49 51 50 65 51 84 52 49 53
REMARK SMILES IDX 50 54 64 56 85 57 52 58 36 59 37 60 45 61 38 62 40 63 46 64
REMARK SMILES IDX 39 65 41 66 42 67 43 68 44 69 68 70 69 71 77 72 70 73 72 74
REMARK SMILES IDX 78 75 71 76 73 77 74 78 75 79 76 80 53 81 54 82 62 83 55 84
REMARK SMILES IDX 57 85 63 86 56 87 58 88 59 89 60 90 61 91
REMARK H PARENT 83 44 51 55
REMARK Flexibility Score: inf
ROOT
ATOM      1  C   UNL A   1      33.475  21.744  23.703  1.00  0.00     0.188 C 
ENDROOT
BRANCH   1   2
ATOM      2  C   UNL A   1      32.270  22.553  23.235  1.00  0.00     0.188 C 
BRANCH   2   3
ATOM      3  O   UNL A   1      31.929  23.681  24.042  1.00  0.00    -0.376 OA
BRANCH   3   4
ATOM      4  C   UNL A   1      30.830  23.545  24.930  1.00  0.00     0.202 C 
BRANCH   4   5
ATOM      5  C   UNL A   1      31.225  23.801  26.366  1.00  0.00     0.261 C 
BRANCH   5   6
ATOM      6  O   UNL A   1      30.997  25.152  26.797  1.00  0.00    -0.463 OA
BRANCH   6   7
ATOM      7  C   UNL A   1      31.655  26.279  26.466  1.00  0.00     0.305 C 
ATOM      8  O   UNL A   1      31.652  27.208  27.278  1.00  0.00    -0.252 OA
BRANCH   7   9
ATOM      9  C   UNL A   1      32.303  26.498  25.110  1.00  0.00     0.123 C 
BRANCH   9  10
ATOM     10  C   UNL A   1      32.052  27.797  24.352  1.00  0.00     0.012 C 
BRANCH  10  11
ATOM     11  C   UNL A   1      30.601  28.198  24.056  1.00  0.00     0.002 C 
BRANCH  11  12
ATOM     12  C   UNL A   1      30.316  29.695  23.850  1.00  0.00     0.015 C 
BRANCH  12  13
ATOM     13  C   UNL A   1      29.053  30.141  23.078  1.00  0.00     0.059 C 
ATOM     14  C   UNL A   1      29.341  30.202  21.560  1.00  0.00     0.027 C 
ATOM     15  S   UNL A   1      28.294  31.722  23.588  1.00  0.00    -0.091 SA
ATOM     16  C   UNL A   1      28.367  31.110  20.822  1.00  0.00     0.083 C 
ATOM     17  S   UNL A   1      28.353  32.643  21.768  1.00  0.00    -0.094 SA
ENDBRANCH  12  13
ENDBRANCH  11  12
ENDBRANCH  10  11
ENDBRANCH   9  10
ENDBRANCH   7   9
ENDBRANCH   6   7
ENDBRANCH   5   6
ENDBRANCH   4   5
ENDBRANCH   3   4
ENDBRANCH   2   3
ENDBRANCH   1   2
BRANCH   1  18
ATOM     18  O   UNL A   1      33.371  21.035  24.929  1.00  0.00    -0.377 OA
BRANCH  18  19
ATOM     19  C   UNL A   1      34.164  21.395  26.044  1.00  0.00     0.188 C 
BRANCH  19  20
ATOM     20  C   UNL A   1      35.679  21.360  25.799  1.00  0.00     0.188 C 
BRANCH  20  21
ATOM     21  O   UNL A   1      36.221  20.280  25.053  1.00  0.00    -0.376 OA
BRANCH  21  22
ATOM     22  C   UNL A   1      37.566  20.386  24.590  1.00  0.00     0.202 C 
BRANCH  22  23
ATOM     23  C   UNL A   1      38.589  21.292  25.314  1.00  0.00     0.261 C 
BRANCH  23  24
ATOM     24  O   UNL A   1      39.230  20.712  26.469  1.00  0.00    -0.460 OA
BRANCH  24  25
ATOM     25  C   UNL A   1      40.547  20.416  26.342  1.00  0.00     0.338 C 
ATOM     26  O   UNL A   1      41.015  19.414  25.833  1.00  0.00    -0.246 OA
BRANCH  25  27
ATOM     27  C   UNL A   1      41.392  21.584  26.698  1.00  0.00     0.060 A 
ATOM     28  C   UNL A   1      41.511  21.900  28.060  1.00  0.00     0.016 A 
ATOM     29  C   UNL A   1      41.986  22.404  25.739  1.00  0.00     0.016 A 
ATOM     30  C   UNL A   1      42.185  23.051  28.465  1.00  0.00     0.010 A 
ATOM     31  C   UNL A   1      42.633  23.584  26.146  1.00  0.00     0.010 A 
ATOM     32  C   UNL A   1      42.697  23.934  27.508  1.00  0.00    -0.014 A 
BRANCH  32  33
ATOM     33  C   UNL A   1      43.068  25.306  27.947  1.00  0.00     0.031 A 
ATOM     34  C   UNL A   1      44.532  25.659  28.030  1.00  0.00     0.074 A 
ATOM     35  C   UNL A   1      42.141  26.251  28.190  1.00  0.00     0.049 A 
ATOM     36  N   UNL A   1      45.097  26.803  28.320  1.00  0.00    -0.248 NA
ATOM     37  C   UNL A   1      45.486  24.575  27.740  1.00  0.00     0.031 C 
ATOM     38  C   UNL A   1      40.694  26.052  28.137  1.00  0.00     0.029 A 
ATOM     39  N   UNL A   1      42.286  27.571  28.545  1.00  0.00    -0.354 N 
ATOM     40  C   UNL A   1      46.468  26.576  28.256  1.00  0.00     0.074 A 
ATOM     41  C   UNL A   1      46.649  25.179  27.928  1.00  0.00     0.031 C 
ATOM     42  C   UNL A   1      40.084  27.200  28.478  1.00  0.00     0.029 A 
ATOM     43  C   UNL A   1      41.094  28.213  28.785  1.00  0.00     0.049 A 
ATOM     44  H   UNL A   1      43.161  28.016  28.617  1.00  0.00     0.167 HD
ATOM     45  C   UNL A   1      47.487  27.450  28.432  1.00  0.00     0.034 A 
ATOM     46  C   UNL A   1      40.848  29.466  29.221  1.00  0.00     0.034 A 
ATOM     47  C   UNL A   1      47.314  28.840  28.762  1.00  0.00     0.049 A 
ATOM     48  C   UNL A   1      42.001  30.413  29.447  1.00  0.00     0.074 A 
ATOM     49  C   UNL A   1      48.286  29.808  28.944  1.00  0.00     0.029 A 
ATOM     50  N   UNL A   1      46.092  29.457  28.974  1.00  0.00    -0.354 N 
ATOM     51  N   UNL A   1      43.285  30.210  29.280  1.00  0.00    -0.248 NA
ATOM     52  C   UNL A   1      41.665  31.778  29.882  1.00  0.00     0.031 C 
ATOM     53  C   UNL A   1      47.652  31.004  29.298  1.00  0.00     0.029 A 
ATOM     54  C   UNL A   1      46.284  30.791  29.292  1.00  0.00     0.049 A 
ATOM     55  H   UNL A   1      45.216  29.013  28.907  1.00  0.00     0.167 HD
ATOM     56  C   UNL A   1      43.905  31.426  29.554  1.00  0.00     0.074 A 
ATOM     57  C   UNL A   1      42.852  32.367  29.867  1.00  0.00     0.031 C 
ATOM     58  C   UNL A   1      45.227  31.733  29.562  1.00  0.00     0.034 A 
BRANCH  45  59
ATOM     59  C   UNL A   1      48.889  26.930  28.246  1.00  0.00     0.023 A 
ATOM     60  C   UNL A   1      49.497  26.178  29.272  1.00  0.00     0.012 A 
ATOM     61  C   UNL A   1      49.586  27.141  27.040  1.00  0.00     0.148 A 
ATOM     62  C   UNL A   1      50.786  25.672  29.116  1.00  0.00     0.002 A 
ATOM     63  C   UNL A   1      50.852  26.592  26.872  1.00  0.00     0.091 A 
ATOM     64  F   UNL A   1      49.000  27.875  26.083  1.00  0.00    -0.205 F 
ATOM     65  C   UNL A   1      51.459  25.871  27.913  1.00  0.00     0.022 A 
BRANCH  63  66
ATOM     66  S   UNL A   1      51.771  26.722  25.334  1.00  0.00     0.127 S 
ATOM     67  O   UNL A   1      52.907  25.838  25.594  1.00  0.00    -0.237 OA
ATOM     68  O   UNL A   1      50.809  26.209  24.360  1.00  0.00    -0.237 OA
ATOM     69  O   UNL A   1      52.103  28.132  25.180  1.00  0.00    -0.744 OA
ENDBRANCH  63  66
ENDBRANCH  45  59
BRANCH  46  70
ATOM     70  C   UNL A   1      39.445  29.911  29.473  1.00  0.00     0.023 A 
ATOM     71  C   UNL A   1      38.606  30.255  28.395  1.00  0.00     0.012 A 
ATOM     72  C   UNL A   1      38.949  30.010  30.786  1.00  0.00     0.148 A 
ATOM     73  C   UNL A   1      37.312  30.728  28.624  1.00  0.00     0.002 A 
ATOM     74  C   UNL A   1      37.639  30.420  31.004  1.00  0.00     0.091 A 
ATOM     75  F   UNL A   1      39.768  29.699  31.800  1.00  0.00    -0.205 F 
ATOM     76  C   UNL A   1      36.825  30.800  29.927  1.00  0.00     0.022 A 
BRANCH  74  77
ATOM     77  S   UNL A   1      36.888  30.407  32.635  1.00  0.00     0.127 S 
ATOM     78  O   UNL A   1      37.746  31.335  33.367  1.00  0.00    -0.237 OA
ATOM     79  O   UNL A   1      35.543  30.905  32.347  1.00  0.00    -0.237 OA
ATOM     80  O   UNL A   1      36.931  29.020  33.078  1.00  0.00    -0.744 OA
ENDBRANCH  74  77
ENDBRANCH  46  70
BRANCH  58  81
ATOM     81  C   UNL A   1      45.612  33.157  29.880  1.00  0.00     0.023 A 
ATOM     82  C   UNL A   1      45.803  33.557  31.219  1.00  0.00     0.012 A 
ATOM     83  C   UNL A   1      45.822  34.092  28.847  1.00  0.00     0.148 A 
ATOM     84  C   UNL A   1      46.141  34.876  31.525  1.00  0.00     0.002 A 
ATOM     85  C   UNL A   1      46.214  35.389  29.157  1.00  0.00     0.091 A 
ATOM     86  F   UNL A   1      45.624  33.702  27.579  1.00  0.00    -0.205 F 
ATOM     87  C   UNL A   1      46.356  35.788  30.496  1.00  0.00     0.022 A 
BRANCH  85  88
ATOM     88  S   UNL A   1      46.605  36.605  27.893  1.00  0.00     0.127 S 
ATOM     89  O   UNL A   1      47.381  37.584  28.651  1.00  0.00    -0.237 OA
ATOM     90  O   UNL A   1      47.384  35.817  26.937  1.00  0.00    -0.237 OA
ATOM     91  O   UNL A   1      45.326  37.079  27.383  1.00  0.00    -0.744 OA
ENDBRANCH  85  88
ENDBRANCH  58  81
ENDBRANCH  32  33
ENDBRANCH  25  27
ENDBRANCH  24  25
ENDBRANCH  23  24
ENDBRANCH  22  23
ENDBRANCH  21  22
ENDBRANCH  20  21
ENDBRANCH  19  20
ENDBRANCH  18  19
ENDBRANCH   1  18
TORSDOF 27
ENDMDL
MODEL 3
REMARK VINA RESULT:      -7.4      4.252      6.286
REMARK SMILES O=C(CCCC[C@@H]1CCSS1)OCCOCCOCCOCCOC(=O)c1ccc(-c2c3nc(c(-c4cccc(S(=O)(=O)[O-])c4F)c4ccc([nH]4)c(-c4cccc(S(=O)(=O)[O-])c4F)c4nc(c(-c5cccc(S(=O)(=O)[O-])c5F)c5ccc2[nH]5)C=C4)C=C3)cc1
REMARK SMILES IDX 17 1 16 2 15 3 14 4 13 5 12 6 2 7 1 8 3 9 4 10 5 11 6 12
REMARK SMILES IDX 7 13 8 14 11 15 9 16 10 17 18 18 19 19 20 20 21 21 22 22
REMARK SMILES IDX 23 23 24 24 25 25 26 26 27 27 28 28 89 29 29 30 88 31 30 32
REMARK SMILES IDX 31 33 32 34 82 35 33 36 87 37 81 38 83 39 34 40 86 41 80 42
REMARK SMILES IDX 79 43 35 45 67 46 47 47 66 48 48 49 51 50 65 51 84 52 49 53
REMARK SMILES IDX 50 54 64 56 85 57 52 58 36 59 37 60 45 61 38 62 40 63 46 64
REMARK SMILES IDX 39 65 41 66 42 67 43 68 44 69 68 70 69 71 77 72 70 73 72 74
REMARK SMILES IDX 78 75 71 76 73 77 74 78 75 79 76 80 53 81 54 82 62 83 55 84
REMARK SMILES IDX 57 85 63 86 56 87 58 88 59 89 60 90 61 91
REMARK H PARENT 83 44 51 55
REMARK Flexibility Score: inf
ROOT
ATOM      1  C   UNL A   1      36.130  21.893  25.407  1.00  0.00     0.188 C 
ENDROOT
BRANCH   1   2
ATOM      2  C   UNL A   1      35.391  22.193  24.107  1.00  0.00     0.188 C 
BRANCH   2   3
ATOM      3  O   UNL A   1      34.027  21.775  24.057  1.00  0.00    -0.376 OA
BRANCH   3   4
ATOM      4  C   UNL A   1      33.043  22.769  23.816  1.00  0.00     0.202 C 
BRANCH   4   5
ATOM      5  C   UNL A   1      33.640  24.030  23.235  1.00  0.00     0.261 C 
BRANCH   5   6
ATOM      6  O   UNL A   1      33.186  24.325  21.905  1.00  0.00    -0.463 OA
BRANCH   6   7
ATOM      7  C   UNL A   1      32.854  25.509  21.356  1.00  0.00     0.305 C 
ATOM      8  O   UNL A   1      32.984  25.635  20.136  1.00  0.00    -0.252 OA
BRANCH   7   9
ATOM      9  C   UNL A   1      32.434  26.717  22.173  1.00  0.00     0.123 C 
BRANCH   9  10
ATOM     10  C   UNL A   1      30.967  26.910  22.541  1.00  0.00     0.012 C 
BRANCH  10  11
ATOM     11  C   UNL A   1      30.632  27.736  23.789  1.00  0.00     0.002 C 
BRANCH  11  12
ATOM     12  C   UNL A   1      30.509  29.259  23.608  1.00  0.00     0.015 C 
BRANCH  12  13
ATOM     13  C   UNL A   1      29.172  29.873  23.134  1.00  0.00     0.059 C 
ATOM     14  C   UNL A   1      29.119  29.923  21.589  1.00  0.00     0.027 C 
ATOM     15  S   UNL A   1      28.752  31.528  23.781  1.00  0.00    -0.091 SA
ATOM     16  C   UNL A   1      28.127  30.958  21.076  1.00  0.00     0.083 C 
ATOM     17  S   UNL A   1      28.518  32.465  21.983  1.00  0.00    -0.094 SA
ENDBRANCH  12  13
ENDBRANCH  11  12
ENDBRANCH  10  11
ENDBRANCH   9  10
ENDBRANCH   7   9
ENDBRANCH   6   7
ENDBRANCH   5   6
ENDBRANCH   4   5
ENDBRANCH   3   4
ENDBRANCH   2   3
ENDBRANCH   1   2
BRANCH   1  18
ATOM     18  O   UNL A   1      37.296  22.647  25.705  1.00  0.00    -0.377 OA
BRANCH  18  19
ATOM     19  C   UNL A   1      38.539  22.008  25.919  1.00  0.00     0.188 C 
BRANCH  19  20
ATOM     20  C   UNL A   1      39.577  22.848  26.677  1.00  0.00     0.188 C 
BRANCH  20  21
ATOM     21  O   UNL A   1      39.235  24.176  27.046  1.00  0.00    -0.376 OA
BRANCH  21  22
ATOM     22  C   UNL A   1      40.040  24.834  28.023  1.00  0.00     0.202 C 
BRANCH  22  23
ATOM     23  C   UNL A   1      41.515  25.192  27.730  1.00  0.00     0.261 C 
BRANCH  23  24
ATOM     24  O   UNL A   1      42.490  24.215  28.150  1.00  0.00    -0.460 OA
BRANCH  24  25
ATOM     25  C   UNL A   1      43.335  23.757  27.193  1.00  0.00     0.338 C 
ATOM     26  O   UNL A   1      43.156  22.789  26.477  1.00  0.00    -0.246 OA
BRANCH  25  27
ATOM     27  C   UNL A   1      44.435  24.723  26.948  1.00  0.00     0.060 A 
ATOM     28  C   UNL A   1      45.072  25.272  28.072  1.00  0.00     0.016 A 
ATOM     29  C   UNL A   1      44.789  25.153  25.669  1.00  0.00     0.016 A 
ATOM     30  C   UNL A   1      46.029  26.275  27.926  1.00  0.00     0.010 A 
ATOM     31  C   UNL A   1      45.727  26.191  25.525  1.00  0.00     0.010 A 
ATOM     32  C   UNL A   1      46.318  26.786  26.656  1.00  0.00    -0.014 A 
BRANCH  32  33
ATOM     33  C   UNL A   1      47.045  28.081  26.569  1.00  0.00     0.031 A 
ATOM     34  C   UNL A   1      48.542  28.050  26.393  1.00  0.00     0.074 A 
ATOM     35  C   UNL A   1      46.398  29.261  26.563  1.00  0.00     0.049 A 
ATOM     36  N   UNL A   1      49.381  29.040  26.225  1.00  0.00    -0.248 NA
ATOM     37  C   UNL A   1      49.177  26.721  26.400  1.00  0.00     0.031 C 
ATOM     38  C   UNL A   1      44.955  29.437  26.713  1.00  0.00     0.029 A 
ATOM     39  N   UNL A   1      46.881  30.542  26.435  1.00  0.00    -0.354 N 
ATOM     40  C   UNL A   1      50.639  28.457  26.117  1.00  0.00     0.074 A 
ATOM     41  C   UNL A   1      50.457  27.030  26.265  1.00  0.00     0.031 C 
ATOM     42  C   UNL A   1      44.674  30.752  26.700  1.00  0.00     0.029 A 
ATOM     43  C   UNL A   1      45.915  31.512  26.553  1.00  0.00     0.049 A 
ATOM     44  H   UNL A   1      47.831  30.744  26.272  1.00  0.00     0.167 HD
ATOM     45  C   UNL A   1      51.837  29.048  25.893  1.00  0.00     0.034 A 
ATOM     46  C   UNL A   1      46.022  32.857  26.560  1.00  0.00     0.034 A 
ATOM     47  C   UNL A   1      52.025  30.467  25.748  1.00  0.00     0.049 A 
ATOM     48  C   UNL A   1      47.373  33.495  26.345  1.00  0.00     0.074 A 
ATOM     49  C   UNL A   1      53.200  31.157  25.502  1.00  0.00     0.029 A 
ATOM     50  N   UNL A   1      51.020  31.414  25.850  1.00  0.00    -0.354 N 
ATOM     51  N   UNL A   1      48.535  32.924  26.139  1.00  0.00    -0.248 NA
ATOM     52  C   UNL A   1      47.417  34.965  26.322  1.00  0.00     0.031 C 
ATOM     53  C   UNL A   1      52.907  32.526  25.487  1.00  0.00     0.029 A 
ATOM     54  C   UNL A   1      51.545  32.683  25.679  1.00  0.00     0.049 A 
ATOM     55  H   UNL A   1      50.071  31.213  26.018  1.00  0.00     0.167 HD
ATOM     56  C   UNL A   1      49.440  33.962  25.928  1.00  0.00     0.074 A 
ATOM     57  C   UNL A   1      48.683  35.193  26.000  1.00  0.00     0.031 C 
ATOM     58  C   UNL A   1      50.777  33.903  25.711  1.00  0.00     0.034 A 
BRANCH  45  59
ATOM     59  C   UNL A   1      53.041  28.151  25.765  1.00  0.00     0.023 A 
ATOM     60  C   UNL A   1      53.446  27.703  24.491  1.00  0.00     0.012 A 
ATOM     61  C   UNL A   1      53.801  27.793  26.896  1.00  0.00     0.148 A 
ATOM     62  C   UNL A   1      54.566  26.886  24.347  1.00  0.00     0.002 A 
ATOM     63  C   UNL A   1      54.944  27.019  26.739  1.00  0.00     0.091 A 
ATOM     64  F   UNL A   1      53.390  28.213  28.102  1.00  0.00    -0.205 F 
ATOM     65  C   UNL A   1      55.321  26.554  25.469  1.00  0.00     0.022 A 
BRANCH  63  66
ATOM     66  S   UNL A   1      56.030  26.600  28.109  1.00  0.00     0.127 S 
ATOM     67  O   UNL A   1      55.149  25.784  28.944  1.00  0.00    -0.237 OA
ATOM     68  O   UNL A   1      57.094  25.856  27.436  1.00  0.00    -0.237 OA
ATOM     69  O   UNL A   1      56.446  27.866  28.696  1.00  0.00    -0.744 OA
ENDBRANCH  63  66
ENDBRANCH  45  59
BRANCH  46  70
ATOM     70  C   UNL A   1      44.813  33.705  26.774  1.00  0.00     0.023 A 
ATOM     71  C   UNL A   1      44.127  34.255  25.673  1.00  0.00     0.012 A 
ATOM     72  C   UNL A   1      44.351  33.981  28.075  1.00  0.00     0.148 A 
ATOM     73  C   UNL A   1      43.030  35.096  25.865  1.00  0.00     0.002 A 
ATOM     74  C   UNL A   1      43.219  34.767  28.258  1.00  0.00     0.091 A 
ATOM     75  F   UNL A   1      45.027  33.467  29.111  1.00  0.00    -0.205 F 
ATOM     76  C   UNL A   1      42.570  35.344  27.156  1.00  0.00     0.022 A 
BRANCH  74  77
ATOM     77  S   UNL A   1      42.477  35.021  29.873  1.00  0.00     0.127 S 
ATOM     78  O   UNL A   1      43.223  36.175  30.367  1.00  0.00    -0.237 OA
ATOM     79  O   UNL A   1      41.083  35.289  29.521  1.00  0.00    -0.237 OA
ATOM     80  O   UNL A   1      42.683  33.776  30.600  1.00  0.00    -0.744 OA
ENDBRANCH  74  77
ENDBRANCH  46  70
BRANCH  58  81
ATOM     81  C   UNL A   1      51.508  35.205  25.492  1.00  0.00     0.023 A 
ATOM     82  C   UNL A   1      51.720  35.689  24.184  1.00  0.00     0.012 A 
ATOM     83  C   UNL A   1      51.955  35.971  26.588  1.00  0.00     0.148 A 
ATOM     84  C   UNL A   1      52.411  36.882  23.971  1.00  0.00     0.002 A 
ATOM     85  C   UNL A   1      52.593  37.186  26.369  1.00  0.00     0.091 A 
ATOM     86  F   UNL A   1      51.759  35.493  27.826  1.00  0.00    -0.205 F 
ATOM     87  C   UNL A   1      52.838  37.635  25.061  1.00  0.00     0.022 A 
BRANCH  85  88
ATOM     88  S   UNL A   1      53.092  38.268  27.714  1.00  0.00     0.127 S 
ATOM     89  O   UNL A   1      54.416  37.745  28.041  1.00  0.00    -0.237 OA
ATOM     90  O   UNL A   1      53.098  39.582  27.069  1.00  0.00    -0.237 OA
ATOM     91  O   UNL A   1      52.082  38.110  28.751  1.00  0.00    -0.744 OA
ENDBRANCH  85  88
ENDBRANCH  58  81
ENDBRANCH  32  33
ENDBRANCH  25  27
ENDBRANCH  24  25
ENDBRANCH  23  24
ENDBRANCH  22  23
ENDBRANCH  21  22
ENDBRANCH  20  21
ENDBRANCH  19  20
ENDBRANCH  18  19
ENDBRANCH   1  18
TORSDOF 27
ENDMDL
