MODEL 1
REMARK VINA RESULT:      -7.4      0.000      0.000
REMARK SMILES O=C(CCOc1cccc(/C=C2\CCn3c2nc2cc(Cl)ccc2c3=O)c1)OCCOCCOCCOCCOC(=O)c1ccc(-c2c3nc(c(-c4cccc(S(=O)(=O)[O-])c4F)c4ccc([nH]4)c(-c4cccc(S(=O)(=O)[O-])c4F)c4nc(c(-c5cccc(S(=O)(=O)[O-])c5F)c5ccc2[nH]5)C=C4)C=C3)cc1
REMARK SMILES IDX 33 1 32 2 31 3 30 4 29 5 28 6 2 7 1 8 3 9 4 10 5 11 6 12
REMARK SMILES IDX 7 13 27 14 8 15 10 16 9 17 11 18 12 19 13 20 16 21 14 22
REMARK SMILES IDX 15 23 17 24 25 25 18 26 24 27 26 28 19 29 23 30 20 31 22 32
REMARK SMILES IDX 21 33 34 34 35 35 36 36 37 37 38 38 39 39 40 40 41 41 42 42
REMARK SMILES IDX 43 43 44 44 105 45 45 46 104 47 46 48 47 49 48 50 98 51
REMARK SMILES IDX 49 52 103 53 97 54 99 55 50 56 102 57 96 58 95 59 51 61
REMARK SMILES IDX 83 62 63 63 82 64 64 65 67 66 81 67 100 68 65 69 66 70 80 72
REMARK SMILES IDX 101 73 68 74 52 75 53 76 61 77 54 78 56 79 62 80 55 81 57 82
REMARK SMILES IDX 58 83 59 84 60 85 84 86 85 87 93 88 86 89 88 90 94 91 87 92
REMARK SMILES IDX 89 93 90 94 91 95 92 96 69 97 70 98 78 99 71 100 73 101
REMARK SMILES IDX 79 102 72 103 74 104 75 105 76 106 77 107
REMARK H PARENT 99 60 67 71
REMARK Flexibility Score: inf
ROOT
ATOM      1  C   UNL A   1      38.296  34.491  32.283  1.00  0.00     0.188 C 
ENDROOT
BRANCH   1   2
ATOM      2  C   UNL A   1      36.866  34.796  32.762  1.00  0.00     0.188 C 
BRANCH   2   3
ATOM      3  O   UNL A   1      35.808  33.904  32.377  1.00  0.00    -0.376 OA
BRANCH   3   4
ATOM      4  C   UNL A   1      34.991  34.330  31.287  1.00  0.00     0.202 C 
BRANCH   4   5
ATOM      5  C   UNL A   1      34.392  33.153  30.502  1.00  0.00     0.261 C 
BRANCH   5   6
ATOM      6  O   UNL A   1      35.277  32.637  29.486  1.00  0.00    -0.463 OA
BRANCH   6   7
ATOM      7  C   UNL A   1      35.989  31.498  29.642  1.00  0.00     0.309 C 
ATOM      8  O   UNL A   1      36.113  30.972  30.748  1.00  0.00    -0.252 OA
BRANCH   7   9
ATOM      9  C   UNL A   1      36.507  30.826  28.408  1.00  0.00     0.164 C 
BRANCH   9  10
ATOM     10  C   UNL A   1      38.020  30.706  28.482  1.00  0.00     0.241 C 
BRANCH  10  11
ATOM     11  O   UNL A   1      38.459  29.486  29.077  1.00  0.00    -0.493 OA
BRANCH  11  12
ATOM     12  C   UNL A   1      39.431  28.726  28.480  1.00  0.00     0.119 A 
ATOM     13  C   UNL A   1      39.713  29.123  27.173  1.00  0.00     0.046 A 
ATOM     14  C   UNL A   1      40.064  27.586  28.999  1.00  0.00     0.054 A 
ATOM     15  C   UNL A   1      40.600  28.393  26.394  1.00  0.00     0.004 A 
ATOM     16  C   UNL A   1      40.902  26.777  28.196  1.00  0.00    -0.022 A 
ATOM     17  C   UNL A   1      41.181  27.230  26.903  1.00  0.00     0.008 A 
BRANCH  16  18
ATOM     18  C   UNL A   1      41.200  25.393  28.671  1.00  0.00     0.015 C 
ATOM     19  C   UNL A   1      42.350  24.892  29.176  1.00  0.00    -0.003 C 
ATOM     20  C   UNL A   1      43.636  25.508  29.647  1.00  0.00     0.061 C 
ATOM     21  C   UNL A   1      42.795  23.680  28.414  1.00  0.00     0.139 A 
ATOM     22  C   UNL A   1      44.512  25.292  28.421  1.00  0.00     0.132 C 
ATOM     23  N   UNL A   1      43.991  24.073  27.831  1.00  0.00    -0.292 N 
ATOM     24  N   UNL A   1      42.213  22.553  28.196  1.00  0.00    -0.230 NA
ATOM     25  C   UNL A   1      44.392  23.542  26.635  1.00  0.00     0.261 A 
ATOM     26  C   UNL A   1      42.829  21.725  27.232  1.00  0.00     0.080 A 
ATOM     27  C   UNL A   1      43.785  22.227  26.344  1.00  0.00     0.066 A 
ATOM     28  O   UNL A   1      45.134  24.080  25.832  1.00  0.00    -0.269 OA
ATOM     29  C   UNL A   1      42.407  20.403  27.069  1.00  0.00     0.049 A 
ATOM     30  C   UNL A   1      44.196  21.493  25.233  1.00  0.00     0.017 A 
ATOM     31  C   UNL A   1      42.866  19.646  25.985  1.00  0.00     0.043 A 
ATOM     32  C   UNL A   1      43.725  20.202  25.039  1.00  0.00     0.021 A 
ATOM     33  Cl  UNL A   1      42.351  18.016  25.789  1.00  0.00    -0.084 Cl
ENDBRANCH  16  18
ENDBRANCH  11  12
ENDBRANCH  10  11
ENDBRANCH   9  10
ENDBRANCH   7   9
ENDBRANCH   6   7
ENDBRANCH   5   6
ENDBRANCH   4   5
ENDBRANCH   3   4
ENDBRANCH   2   3
ENDBRANCH   1   2
BRANCH   1  34
ATOM     34  O   UNL A   1      39.210  34.359  33.363  1.00  0.00    -0.377 OA
BRANCH  34  35
ATOM     35  C   UNL A   1      38.748  34.697  34.658  1.00  0.00     0.188 C 
BRANCH  35  36
ATOM     36  C   UNL A   1      39.804  35.225  35.639  1.00  0.00     0.188 C 
BRANCH  36  37
ATOM     37  O   UNL A   1      39.404  35.566  36.962  1.00  0.00    -0.376 OA
BRANCH  37  38
ATOM     38  C   UNL A   1      39.702  34.697  38.046  1.00  0.00     0.202 C 
BRANCH  38  39
ATOM     39  C   UNL A   1      38.628  33.718  38.519  1.00  0.00     0.261 C 
BRANCH  39  40
ATOM     40  O   UNL A   1      38.904  32.364  38.118  1.00  0.00    -0.460 OA
BRANCH  40  41
ATOM     41  C   UNL A   1      38.393  32.002  36.919  1.00  0.00     0.338 C 
ATOM     42  O   UNL A   1      37.292  32.303  36.473  1.00  0.00    -0.246 OA
BRANCH  41  43
ATOM     43  C   UNL A   1      39.421  31.336  36.100  1.00  0.00     0.060 A 
ATOM     44  C   UNL A   1      40.748  31.411  36.539  1.00  0.00     0.016 A 
ATOM     45  C   UNL A   1      39.110  30.707  34.892  1.00  0.00     0.016 A 
ATOM     46  C   UNL A   1      41.775  30.920  35.739  1.00  0.00     0.010 A 
ATOM     47  C   UNL A   1      40.142  30.188  34.101  1.00  0.00     0.010 A 
ATOM     48  C   UNL A   1      41.483  30.359  34.489  1.00  0.00    -0.014 A 
BRANCH  48  49
ATOM     49  C   UNL A   1      42.587  30.221  33.505  1.00  0.00     0.031 A 
ATOM     50  C   UNL A   1      43.394  28.946  33.522  1.00  0.00     0.074 A 
ATOM     51  C   UNL A   1      42.818  31.148  32.558  1.00  0.00     0.049 A 
ATOM     52  N   UNL A   1      44.326  28.544  32.698  1.00  0.00    -0.248 NA
ATOM     53  C   UNL A   1      43.102  27.994  34.608  1.00  0.00     0.031 C 
ATOM     54  C   UNL A   1      42.112  32.419  32.425  1.00  0.00     0.029 A 
ATOM     55  N   UNL A   1      43.725  31.158  31.527  1.00  0.00    -0.354 N 
ATOM     56  C   UNL A   1      44.728  27.298  33.165  1.00  0.00     0.074 A 
ATOM     57  C   UNL A   1      43.978  27.030  34.370  1.00  0.00     0.031 C 
ATOM     58  C   UNL A   1      42.630  33.100  31.389  1.00  0.00     0.029 A 
ATOM     59  C   UNL A   1      43.703  32.313  30.784  1.00  0.00     0.049 A 
ATOM     60  H   UNL A   1      44.333  30.407  31.337  1.00  0.00     0.167 HD
ATOM     61  C   UNL A   1      45.612  26.430  32.622  1.00  0.00     0.034 A 
ATOM     62  C   UNL A   1      44.463  32.691  29.736  1.00  0.00     0.034 A 
ATOM     63  C   UNL A   1      46.355  26.682  31.419  1.00  0.00     0.049 A 
ATOM     64  C   UNL A   1      45.465  31.720  29.164  1.00  0.00     0.074 A 
ATOM     65  C   UNL A   1      47.262  25.859  30.780  1.00  0.00     0.029 A 
ATOM     66  N   UNL A   1      46.280  27.851  30.678  1.00  0.00    -0.354 N 
ATOM     67  N   UNL A   1      45.740  30.495  29.544  1.00  0.00    -0.248 NA
ATOM     68  C   UNL A   1      46.225  32.165  27.986  1.00  0.00     0.031 C 
ATOM     69  C   UNL A   1      47.754  26.539  29.661  1.00  0.00     0.029 A 
ATOM     70  C   UNL A   1      47.130  27.773  29.589  1.00  0.00     0.049 A 
ATOM     71  H   UNL A   1      45.708  28.622  30.895  1.00  0.00     0.167 HD
ATOM     72  C   UNL A   1      46.673  30.012  28.633  1.00  0.00     0.074 A 
ATOM     73  C   UNL A   1      46.896  31.066  27.666  1.00  0.00     0.031 C 
ATOM     74  C   UNL A   1      47.303  28.811  28.606  1.00  0.00     0.034 A 
BRANCH  61  75
ATOM     75  C   UNL A   1      45.786  25.103  33.310  1.00  0.00     0.023 A 
ATOM     76  C   UNL A   1      44.842  24.078  33.086  1.00  0.00     0.012 A 
ATOM     77  C   UNL A   1      46.891  24.856  34.145  1.00  0.00     0.148 A 
ATOM     78  C   UNL A   1      44.979  22.839  33.708  1.00  0.00     0.002 A 
ATOM     79  C   UNL A   1      47.046  23.603  34.725  1.00  0.00     0.091 A 
ATOM     80  F   UNL A   1      47.760  25.853  34.366  1.00  0.00    -0.205 F 
ATOM     81  C   UNL A   1      46.086  22.597  34.518  1.00  0.00     0.022 A 
BRANCH  79  82
ATOM     82  S   UNL A   1      48.472  23.168  35.725  1.00  0.00     0.127 S 
ATOM     83  O   UNL A   1      48.278  24.017  36.900  1.00  0.00    -0.237 OA
ATOM     84  O   UNL A   1      48.255  21.741  35.962  1.00  0.00    -0.237 OA
ATOM     85  O   UNL A   1      49.641  23.481  34.916  1.00  0.00    -0.744 OA
ENDBRANCH  79  82
ENDBRANCH  61  75
BRANCH  62  86
ATOM     86  C   UNL A   1      44.280  34.043  29.133  1.00  0.00     0.023 A 
ATOM     87  C   UNL A   1      43.218  34.286  28.240  1.00  0.00     0.012 A 
ATOM     88  C   UNL A   1      45.160  35.096  29.450  1.00  0.00     0.148 A 
ATOM     89  C   UNL A   1      43.064  35.537  27.641  1.00  0.00     0.002 A 
ATOM     90  C   UNL A   1      44.956  36.359  28.907  1.00  0.00     0.091 A 
ATOM     91  F   UNL A   1      46.181  34.847  30.282  1.00  0.00    -0.205 F 
ATOM     92  C   UNL A   1      43.925  36.577  27.982  1.00  0.00     0.022 A 
BRANCH  90  93
ATOM     93  S   UNL A   1      45.909  37.781  29.449  1.00  0.00     0.127 S 
ATOM     94  O   UNL A   1      46.214  38.441  28.184  1.00  0.00    -0.237 OA
ATOM     95  O   UNL A   1      44.951  38.483  30.303  1.00  0.00    -0.237 OA
ATOM     96  O   UNL A   1      47.043  37.226  30.182  1.00  0.00    -0.744 OA
ENDBRANCH  90  93
ENDBRANCH  62  86
BRANCH  74  97
ATOM     97  C   UNL A   1      48.272  28.554  27.479  1.00  0.00     0.023 A 
ATOM     98  C   UNL A   1      49.649  28.774  27.674  1.00  0.00     0.012 A 
ATOM     99  C   UNL A   1      47.822  28.039  26.246  1.00  0.00     0.148 A 
ATOM    100  C   UNL A   1      50.560  28.530  26.647  1.00  0.00     0.002 A 
ATOM    101  C   UNL A   1      48.741  27.749  25.245  1.00  0.00     0.091 A 
ATOM    102  F   UNL A   1      46.507  27.851  26.071  1.00  0.00    -0.205 F 
ATOM    103  C   UNL A   1      50.108  28.008  25.438  1.00  0.00     0.022 A 
BRANCH 101 104
ATOM    104  S   UNL A   1      48.258  26.986  23.692  1.00  0.00     0.127 S 
ATOM    105  O   UNL A   1      47.657  25.734  24.149  1.00  0.00    -0.237 OA
ATOM    106  O   UNL A   1      47.305  27.957  23.151  1.00  0.00    -0.237 OA
ATOM    107  O   UNL A   1      49.483  26.851  22.916  1.00  0.00    -0.744 OA
ENDBRANCH 101 104
ENDBRANCH  74  97
ENDBRANCH  48  49
ENDBRANCH  41  43
ENDBRANCH  40  41
ENDBRANCH  39  40
ENDBRANCH  38  39
ENDBRANCH  37  38
ENDBRANCH  36  37
ENDBRANCH  35  36
ENDBRANCH  34  35
ENDBRANCH   1  34
TORSDOF 27
ENDMDL
MODEL 2
REMARK VINA RESULT:      -6.8      4.420     11.031
REMARK SMILES O=C(CCOc1cccc(/C=C2\CCn3c2nc2cc(Cl)ccc2c3=O)c1)OCCOCCOCCOCCOC(=O)c1ccc(-c2c3nc(c(-c4cccc(S(=O)(=O)[O-])c4F)c4ccc([nH]4)c(-c4cccc(S(=O)(=O)[O-])c4F)c4nc(c(-c5cccc(S(=O)(=O)[O-])c5F)c5ccc2[nH]5)C=C4)C=C3)cc1
REMARK SMILES IDX 33 1 32 2 31 3 30 4 29 5 28 6 2 7 1 8 3 9 4 10 5 11 6 12
REMARK SMILES IDX 7 13 27 14 8 15 10 16 9 17 11 18 12 19 13 20 16 21 14 22
REMARK SMILES IDX 15 23 17 24 25 25 18 26 24 27 26 28 19 29 23 30 20 31 22 32
REMARK SMILES IDX 21 33 34 34 35 35 36 36 37 37 38 38 39 39 40 40 41 41 42 42
REMARK SMILES IDX 43 43 44 44 105 45 45 46 104 47 46 48 47 49 48 50 98 51
REMARK SMILES IDX 49 52 103 53 97 54 99 55 50 56 102 57 96 58 95 59 51 61
REMARK SMILES IDX 83 62 63 63 82 64 64 65 67 66 81 67 100 68 65 69 66 70 80 72
REMARK SMILES IDX 101 73 68 74 52 75 53 76 61 77 54 78 56 79 62 80 55 81 57 82
REMARK SMILES IDX 58 83 59 84 60 85 84 86 85 87 93 88 86 89 88 90 94 91 87 92
REMARK SMILES IDX 89 93 90 94 91 95 92 96 69 97 70 98 78 99 71 100 73 101
REMARK SMILES IDX 79 102 72 103 74 104 75 105 76 106 77 107
REMARK H PARENT 99 60 67 71
REMARK Flexibility Score: inf
ROOT
ATOM      1  C   UNL A   1      47.810  27.628  37.545  1.00  0.00     0.188 C 
ENDROOT
BRANCH   1   2
ATOM      2  C   UNL A   1      46.686  27.257  36.561  1.00  0.00     0.188 C 
BRANCH   2   3
ATOM      3  O   UNL A   1      45.332  27.587  36.909  1.00  0.00    -0.376 OA
BRANCH   3   4
ATOM      4  C   UNL A   1      44.814  26.959  38.083  1.00  0.00     0.202 C 
BRANCH   4   5
ATOM      5  C   UNL A   1      43.962  25.721  37.763  1.00  0.00     0.261 C 
BRANCH   5   6
ATOM      6  O   UNL A   1      42.990  25.953  36.723  1.00  0.00    -0.463 OA
BRANCH   6   7
ATOM      7  C   UNL A   1      43.224  25.670  35.422  1.00  0.00     0.309 C 
ATOM      8  O   UNL A   1      44.088  24.856  35.095  1.00  0.00    -0.252 OA
BRANCH   7   9
ATOM      9  C   UNL A   1      42.313  26.276  34.401  1.00  0.00     0.164 C 
BRANCH   9  10
ATOM     10  C   UNL A   1      42.138  27.759  34.680  1.00  0.00     0.241 C 
BRANCH  10  11
ATOM     11  O   UNL A   1      40.783  28.195  34.578  1.00  0.00    -0.493 OA
BRANCH  11  12
ATOM     12  C   UNL A   1      40.428  29.179  33.693  1.00  0.00     0.119 A 
ATOM     13  C   UNL A   1      39.290  29.884  34.083  1.00  0.00     0.046 A 
ATOM     14  C   UNL A   1      41.014  29.462  32.450  1.00  0.00     0.054 A 
ATOM     15  C   UNL A   1      38.739  30.845  33.246  1.00  0.00     0.004 A 
ATOM     16  C   UNL A   1      40.421  30.373  31.544  1.00  0.00    -0.022 A 
ATOM     17  C   UNL A   1      39.299  31.079  31.989  1.00  0.00     0.008 A 
BRANCH  16  18
ATOM     18  C   UNL A   1      40.851  30.318  30.115  1.00  0.00     0.015 C 
ATOM     19  C   UNL A   1      40.112  30.075  29.009  1.00  0.00    -0.003 C 
ATOM     20  C   UNL A   1      38.636  29.991  28.740  1.00  0.00     0.061 C 
ATOM     21  C   UNL A   1      40.683  28.943  28.212  1.00  0.00     0.139 A 
ATOM     22  C   UNL A   1      38.438  28.482  28.754  1.00  0.00     0.132 C 
ATOM     23  N   UNL A   1      39.706  27.960  28.281  1.00  0.00    -0.292 N 
ATOM     24  N   UNL A   1      41.839  28.784  27.667  1.00  0.00    -0.230 NA
ATOM     25  C   UNL A   1      40.044  26.634  28.233  1.00  0.00     0.261 A 
ATOM     26  C   UNL A   1      42.117  27.484  27.191  1.00  0.00     0.080 A 
ATOM     27  C   UNL A   1      41.348  26.384  27.585  1.00  0.00     0.066 A 
ATOM     28  O   UNL A   1      39.396  25.718  28.707  1.00  0.00    -0.269 OA
ATOM     29  C   UNL A   1      43.245  27.251  26.401  1.00  0.00     0.049 A 
ATOM     30  C   UNL A   1      41.771  25.080  27.335  1.00  0.00     0.017 A 
ATOM     31  C   UNL A   1      43.636  25.942  26.102  1.00  0.00     0.043 A 
ATOM     32  C   UNL A   1      42.929  24.852  26.604  1.00  0.00     0.021 A 
ATOM     33  Cl  UNL A   1      45.024  25.656  25.124  1.00  0.00    -0.084 Cl
ENDBRANCH  16  18
ENDBRANCH  11  12
ENDBRANCH  10  11
ENDBRANCH   9  10
ENDBRANCH   7   9
ENDBRANCH   6   7
ENDBRANCH   5   6
ENDBRANCH   4   5
ENDBRANCH   3   4
ENDBRANCH   2   3
ENDBRANCH   1   2
BRANCH   1  34
ATOM     34  O   UNL A   1      48.654  28.652  37.038  1.00  0.00    -0.377 OA
BRANCH  34  35
ATOM     35  C   UNL A   1      49.785  28.256  36.284  1.00  0.00     0.188 C 
BRANCH  35  36
ATOM     36  C   UNL A   1      51.152  28.453  36.957  1.00  0.00     0.188 C 
BRANCH  36  37
ATOM     37  O   UNL A   1      52.115  29.290  36.324  1.00  0.00    -0.376 OA
BRANCH  37  38
ATOM     38  C   UNL A   1      51.727  30.152  35.263  1.00  0.00     0.202 C 
BRANCH  38  39
ATOM     39  C   UNL A   1      51.414  31.613  35.580  1.00  0.00     0.261 C 
BRANCH  39  40
ATOM     40  O   UNL A   1      50.016  31.921  35.427  1.00  0.00    -0.460 OA
BRANCH  40  41
ATOM     41  C   UNL A   1      49.707  33.238  35.477  1.00  0.00     0.338 C 
ATOM     42  O   UNL A   1      50.480  34.176  35.325  1.00  0.00    -0.246 OA
BRANCH  41  43
ATOM     43  C   UNL A   1      48.247  33.421  35.551  1.00  0.00     0.060 A 
ATOM     44  C   UNL A   1      47.438  32.336  35.197  1.00  0.00     0.016 A 
ATOM     45  C   UNL A   1      47.673  34.648  35.894  1.00  0.00     0.016 A 
ATOM     46  C   UNL A   1      46.058  32.491  35.116  1.00  0.00     0.010 A 
ATOM     47  C   UNL A   1      46.282  34.797  35.840  1.00  0.00     0.010 A 
ATOM     48  C   UNL A   1      45.477  33.738  35.380  1.00  0.00    -0.014 A 
BRANCH  48  49
ATOM     49  C   UNL A   1      44.092  33.984  34.904  1.00  0.00     0.031 A 
ATOM     50  C   UNL A   1      43.889  34.276  33.439  1.00  0.00     0.074 A 
ATOM     51  C   UNL A   1      43.026  33.862  35.717  1.00  0.00     0.049 A 
ATOM     52  N   UNL A   1      42.776  34.412  32.766  1.00  0.00    -0.248 NA
ATOM     53  C   UNL A   1      45.105  34.425  32.620  1.00  0.00     0.031 C 
ATOM     54  C   UNL A   1      43.080  33.578  37.148  1.00  0.00     0.029 A 
ATOM     55  N   UNL A   1      41.685  33.967  35.444  1.00  0.00    -0.354 N 
ATOM     56  C   UNL A   1      43.158  34.660  31.453  1.00  0.00     0.074 A 
ATOM     57  C   UNL A   1      44.602  34.707  31.429  1.00  0.00     0.031 C 
ATOM     58  C   UNL A   1      41.828  33.560  37.636  1.00  0.00     0.029 A 
ATOM     59  C   UNL A   1      40.884  33.828  36.553  1.00  0.00     0.049 A 
ATOM     60  H   UNL A   1      41.329  34.127  34.541  1.00  0.00     0.167 HD
ATOM     61  C   UNL A   1      42.384  34.796  30.352  1.00  0.00     0.034 A 
ATOM     62  C   UNL A   1      39.543  33.909  36.677  1.00  0.00     0.034 A 
ATOM     63  C   UNL A   1      40.949  34.741  30.364  1.00  0.00     0.049 A 
ATOM     64  C   UNL A   1      38.700  34.093  35.441  1.00  0.00     0.074 A 
ATOM     65  C   UNL A   1      40.075  34.852  29.298  1.00  0.00     0.029 A 
ATOM     66  N   UNL A   1      40.177  34.566  31.501  1.00  0.00    -0.354 N 
ATOM     67  N   UNL A   1      39.076  34.198  34.189  1.00  0.00    -0.248 NA
ATOM     68  C   UNL A   1      37.241  34.117  35.629  1.00  0.00     0.031 C 
ATOM     69  C   UNL A   1      38.770  34.766  29.795  1.00  0.00     0.029 A 
ATOM     70  C   UNL A   1      38.834  34.571  31.165  1.00  0.00     0.049 A 
ATOM     71  H   UNL A   1      40.531  34.455  32.413  1.00  0.00     0.167 HD
ATOM     72  C   UNL A   1      37.907  34.263  33.440  1.00  0.00     0.074 A 
ATOM     73  C   UNL A   1      36.806  34.156  34.376  1.00  0.00     0.031 C 
ATOM     74  C   UNL A   1      37.753  34.413  32.101  1.00  0.00     0.034 A 
BRANCH  61  75
ATOM     75  C   UNL A   1      43.087  34.975  29.033  1.00  0.00     0.023 A 
ATOM     76  C   UNL A   1      43.427  36.274  28.601  1.00  0.00     0.012 A 
ATOM     77  C   UNL A   1      43.440  33.866  28.242  1.00  0.00     0.148 A 
ATOM     78  C   UNL A   1      44.081  36.468  27.385  1.00  0.00     0.002 A 
ATOM     79  C   UNL A   1      44.132  34.065  27.053  1.00  0.00     0.091 A 
ATOM     80  F   UNL A   1      43.082  32.643  28.658  1.00  0.00    -0.205 F 
ATOM     81  C   UNL A   1      44.443  35.365  26.618  1.00  0.00     0.022 A 
BRANCH  79  82
ATOM     82  S   UNL A   1      44.707  32.708  26.029  1.00  0.00     0.127 S 
ATOM     83  O   UNL A   1      44.156  33.070  24.723  1.00  0.00    -0.237 OA
ATOM     84  O   UNL A   1      46.161  32.839  26.135  1.00  0.00    -0.237 OA
ATOM     85  O   UNL A   1      44.161  31.496  26.622  1.00  0.00    -0.744 OA
ENDBRANCH  79  82
ENDBRANCH  61  75
BRANCH  62  86
ATOM     86  C   UNL A   1      38.910  33.780  38.021  1.00  0.00     0.023 A 
ATOM     87  C   UNL A   1      39.036  34.815  38.968  1.00  0.00     0.012 A 
ATOM     88  C   UNL A   1      38.175  32.628  38.361  1.00  0.00     0.148 A 
ATOM     89  C   UNL A   1      38.479  34.685  40.242  1.00  0.00     0.002 A 
ATOM     90  C   UNL A   1      37.562  32.537  39.605  1.00  0.00     0.091 A 
ATOM     91  F   UNL A   1      38.083  31.640  37.460  1.00  0.00    -0.205 F 
ATOM     92  C   UNL A   1      37.733  33.553  40.557  1.00  0.00     0.022 A 
BRANCH  90  93
ATOM     93  S   UNL A   1      36.435  31.198  40.002  1.00  0.00     0.127 S 
ATOM     94  O   UNL A   1      37.055  30.068  39.318  1.00  0.00    -0.237 OA
ATOM     95  O   UNL A   1      36.511  31.158  41.463  1.00  0.00    -0.237 OA
ATOM     96  O   UNL A   1      35.135  31.628  39.498  1.00  0.00    -0.744 OA
ENDBRANCH  90  93
ENDBRANCH  62  86
BRANCH  74  97
ATOM     97  C   UNL A   1      36.346  34.440  31.557  1.00  0.00     0.023 A 
ATOM     98  C   UNL A   1      35.371  35.247  32.175  1.00  0.00     0.012 A 
ATOM     99  C   UNL A   1      36.007  33.710  30.399  1.00  0.00     0.148 A 
ATOM    100  C   UNL A   1      34.069  35.293  31.677  1.00  0.00     0.002 A 
ATOM    101  C   UNL A   1      34.722  33.802  29.879  1.00  0.00     0.091 A 
ATOM    102  F   UNL A   1      36.942  32.935  29.834  1.00  0.00    -0.205 F 
ATOM    103  C   UNL A   1      33.748  34.580  30.525  1.00  0.00     0.022 A 
BRANCH 101 104
ATOM    104  S   UNL A   1      34.248  32.993  28.347  1.00  0.00     0.127 S 
ATOM    105  O   UNL A   1      34.086  31.607  28.778  1.00  0.00    -0.237 OA
ATOM    106  O   UNL A   1      32.999  33.676  28.007  1.00  0.00    -0.237 OA
ATOM    107  O   UNL A   1      35.340  33.238  27.413  1.00  0.00    -0.744 OA
ENDBRANCH 101 104
ENDBRANCH  74  97
ENDBRANCH  48  49
ENDBRANCH  41  43
ENDBRANCH  40  41
ENDBRANCH  39  40
ENDBRANCH  38  39
ENDBRANCH  37  38
ENDBRANCH  36  37
ENDBRANCH  35  36
ENDBRANCH  34  35
ENDBRANCH   1  34
TORSDOF 27
ENDMDL
MODEL 3
REMARK VINA RESULT:      -6.6      5.725     10.698
REMARK SMILES O=C(CCOc1cccc(/C=C2\CCn3c2nc2cc(Cl)ccc2c3=O)c1)OCCOCCOCCOCCOC(=O)c1ccc(-c2c3nc(c(-c4cccc(S(=O)(=O)[O-])c4F)c4ccc([nH]4)c(-c4cccc(S(=O)(=O)[O-])c4F)c4nc(c(-c5cccc(S(=O)(=O)[O-])c5F)c5ccc2[nH]5)C=C4)C=C3)cc1
REMARK SMILES IDX 33 1 32 2 31 3 30 4 29 5 28 6 2 7 1 8 3 9 4 10 5 11 6 12
REMARK SMILES IDX 7 13 27 14 8 15 10 16 9 17 11 18 12 19 13 20 16 21 14 22
REMARK SMILES IDX 15 23 17 24 25 25 18 26 24 27 26 28 19 29 23 30 20 31 22 32
REMARK SMILES IDX 21 33 34 34 35 35 36 36 37 37 38 38 39 39 40 40 41 41 42 42
REMARK SMILES IDX 43 43 44 44 105 45 45 46 104 47 46 48 47 49 48 50 98 51
REMARK SMILES IDX 49 52 103 53 97 54 99 55 50 56 102 57 96 58 95 59 51 61
REMARK SMILES IDX 83 62 63 63 82 64 64 65 67 66 81 67 100 68 65 69 66 70 80 72
REMARK SMILES IDX 101 73 68 74 52 75 53 76 61 77 54 78 56 79 62 80 55 81 57 82
REMARK SMILES IDX 58 83 59 84 60 85 84 86 85 87 93 88 86 89 88 90 94 91 87 92
REMARK SMILES IDX 89 93 90 94 91 95 92 96 69 97 70 98 78 99 71 100 73 101
REMARK SMILES IDX 79 102 72 103 74 104 75 105 76 106 77 107
REMARK H PARENT 99 60 67 71
REMARK Flexibility Score: inf
ROOT
ATOM      1  C   UNL A   1      39.160  33.411  33.692  1.00  0.00     0.188 C 
ENDROOT
BRANCH   1   2
ATOM      2  C   UNL A   1      38.406  34.398  32.783  1.00  0.00     0.188 C 
BRANCH   2   3
ATOM      3  O   UNL A   1      38.558  34.274  31.360  1.00  0.00    -0.376 OA
BRANCH   3   4
ATOM      4  C   UNL A   1      37.448  33.717  30.656  1.00  0.00     0.202 C 
BRANCH   4   5
ATOM      5  C   UNL A   1      37.618  33.791  29.131  1.00  0.00     0.261 C 
BRANCH   5   6
ATOM      6  O   UNL A   1      36.664  32.982  28.412  1.00  0.00    -0.463 OA
BRANCH   6   7
ATOM      7  C   UNL A   1      35.331  33.199  28.462  1.00  0.00     0.309 C 
ATOM      8  O   UNL A   1      34.862  34.321  28.266  1.00  0.00    -0.252 OA
BRANCH   7   9
ATOM      9  C   UNL A   1      34.437  32.011  28.630  1.00  0.00     0.164 C 
BRANCH   9  10
ATOM     10  C   UNL A   1      34.565  31.093  27.426  1.00  0.00     0.241 C 
BRANCH  10  11
ATOM     11  O   UNL A   1      33.502  30.147  27.324  1.00  0.00    -0.493 OA
BRANCH  11  12
ATOM     12  C   UNL A   1      33.058  29.722  26.098  1.00  0.00     0.119 A 
ATOM     13  C   UNL A   1      31.724  30.046  25.855  1.00  0.00     0.046 A 
ATOM     14  C   UNL A   1      33.755  28.947  25.159  1.00  0.00     0.054 A 
ATOM     15  C   UNL A   1      31.092  29.598  24.703  1.00  0.00     0.004 A 
ATOM     16  C   UNL A   1      33.108  28.406  24.022  1.00  0.00    -0.022 A 
ATOM     17  C   UNL A   1      31.779  28.783  23.803  1.00  0.00     0.008 A 
BRANCH  16  18
ATOM     18  C   UNL A   1      33.779  27.280  23.306  1.00  0.00     0.015 C 
ATOM     19  C   UNL A   1      33.237  26.329  22.512  1.00  0.00    -0.003 C 
ATOM     20  C   UNL A   1      31.887  26.145  21.880  1.00  0.00     0.061 C 
ATOM     21  C   UNL A   1      33.597  24.955  22.988  1.00  0.00     0.139 A 
ATOM     22  C   UNL A   1      31.255  25.165  22.858  1.00  0.00     0.132 C 
ATOM     23  N   UNL A   1      32.381  24.403  23.364  1.00  0.00    -0.292 N 
ATOM     24  N   UNL A   1      34.739  24.386  23.159  1.00  0.00    -0.230 NA
ATOM     25  C   UNL A   1      32.316  23.473  24.366  1.00  0.00     0.261 A 
ATOM     26  C   UNL A   1      34.711  23.155  23.851  1.00  0.00     0.080 A 
ATOM     27  C   UNL A   1      33.591  22.759  24.587  1.00  0.00     0.066 A 
ATOM     28  O   UNL A   1      31.346  23.251  25.069  1.00  0.00    -0.269 OA
ATOM     29  C   UNL A   1      35.855  22.356  23.908  1.00  0.00     0.049 A 
ATOM     30  C   UNL A   1      33.651  21.687  25.476  1.00  0.00     0.017 A 
ATOM     31  C   UNL A   1      35.895  21.245  24.758  1.00  0.00     0.043 A 
ATOM     32  C   UNL A   1      34.813  20.933  25.578  1.00  0.00     0.021 A 
ATOM     33  Cl  UNL A   1      37.304  20.257  24.823  1.00  0.00    -0.084 Cl
ENDBRANCH  16  18
ENDBRANCH  11  12
ENDBRANCH  10  11
ENDBRANCH   9  10
ENDBRANCH   7   9
ENDBRANCH   6   7
ENDBRANCH   5   6
ENDBRANCH   4   5
ENDBRANCH   3   4
ENDBRANCH   2   3
ENDBRANCH   1   2
BRANCH   1  34
ATOM     34  O   UNL A   1      39.181  32.094  33.158  1.00  0.00    -0.377 OA
BRANCH  34  35
ATOM     35  C   UNL A   1      40.433  31.569  32.758  1.00  0.00     0.188 C 
BRANCH  35  36
ATOM     36  C   UNL A   1      40.469  30.066  32.446  1.00  0.00     0.188 C 
BRANCH  36  37
ATOM     37  O   UNL A   1      39.845  29.595  31.255  1.00  0.00    -0.376 OA
BRANCH  37  38
ATOM     38  C   UNL A   1      39.789  28.203  30.979  1.00  0.00     0.202 C 
BRANCH  38  39
ATOM     39  C   UNL A   1      40.156  27.716  29.578  1.00  0.00     0.261 C 
BRANCH  39  40
ATOM     40  O   UNL A   1      40.742  28.754  28.772  1.00  0.00    -0.460 OA
BRANCH  40  41
ATOM     41  C   UNL A   1      41.956  28.463  28.248  1.00  0.00     0.338 C 
ATOM     42  O   UNL A   1      42.321  27.377  27.812  1.00  0.00    -0.246 OA
BRANCH  41  43
ATOM     43  C   UNL A   1      42.754  29.690  28.082  1.00  0.00     0.060 A 
ATOM     44  C   UNL A   1      43.141  30.041  26.784  1.00  0.00     0.016 A 
ATOM     45  C   UNL A   1      43.176  30.450  29.176  1.00  0.00     0.016 A 
ATOM     46  C   UNL A   1      44.007  31.110  26.579  1.00  0.00     0.010 A 
ATOM     47  C   UNL A   1      44.025  31.543  28.967  1.00  0.00     0.010 A 
ATOM     48  C   UNL A   1      44.501  31.831  27.675  1.00  0.00    -0.014 A 
BRANCH  48  49
ATOM     49  C   UNL A   1      45.705  32.677  27.475  1.00  0.00     0.031 A 
ATOM     50  C   UNL A   1      45.527  34.174  27.485  1.00  0.00     0.074 A 
ATOM     51  C   UNL A   1      46.939  32.149  27.379  1.00  0.00     0.049 A 
ATOM     52  N   UNL A   1      46.431  35.118  27.445  1.00  0.00    -0.248 NA
ATOM     53  C   UNL A   1      44.143  34.675  27.561  1.00  0.00     0.031 C 
ATOM     54  C   UNL A   1      47.252  30.724  27.361  1.00  0.00     0.029 A 
ATOM     55  N   UNL A   1      48.163  32.764  27.276  1.00  0.00    -0.354 N 
ATOM     56  C   UNL A   1      45.728  36.315  27.492  1.00  0.00     0.074 A 
ATOM     57  C   UNL A   1      44.322  35.985  27.513  1.00  0.00     0.031 C 
ATOM     58  C   UNL A   1      48.581  30.570  27.224  1.00  0.00     0.029 A 
ATOM     59  C   UNL A   1      49.212  31.886  27.147  1.00  0.00     0.049 A 
ATOM     60  H   UNL A   1      48.278  33.742  27.293  1.00  0.00     0.167 HD
ATOM     61  C   UNL A   1      46.203  37.581  27.555  1.00  0.00     0.034 A 
ATOM     62  C   UNL A   1      50.530  32.121  26.985  1.00  0.00     0.034 A 
ATOM     63  C   UNL A   1      47.599  37.918  27.545  1.00  0.00     0.049 A 
ATOM     64  C   UNL A   1      51.037  33.540  27.026  1.00  0.00     0.074 A 
ATOM     65  C   UNL A   1      48.182  39.169  27.622  1.00  0.00     0.029 A 
ATOM     66  N   UNL A   1      48.632  36.999  27.447  1.00  0.00    -0.354 N 
ATOM     67  N   UNL A   1      50.366  34.653  27.200  1.00  0.00    -0.248 NA
ATOM     68  C   UNL A   1      52.490  33.732  26.902  1.00  0.00     0.031 C 
ATOM     69  C   UNL A   1      49.569  39.009  27.547  1.00  0.00     0.029 A 
ATOM     70  C   UNL A   1      49.850  37.656  27.455  1.00  0.00     0.049 A 
ATOM     71  H   UNL A   1      48.516  36.024  27.380  1.00  0.00     0.167 HD
ATOM     72  C   UNL A   1      51.314  35.670  27.243  1.00  0.00     0.074 A 
ATOM     73  C   UNL A   1      52.610  35.037  27.106  1.00  0.00     0.031 C 
ATOM     74  C   UNL A   1      51.132  37.008  27.368  1.00  0.00     0.034 A 
BRANCH  61  75
ATOM     75  C   UNL A   1      45.195  38.690  27.685  1.00  0.00     0.023 A 
ATOM     76  C   UNL A   1      44.592  39.216  26.523  1.00  0.00     0.012 A 
ATOM     77  C   UNL A   1      44.819  39.187  28.947  1.00  0.00     0.148 A 
ATOM     78  C   UNL A   1      43.653  40.242  26.614  1.00  0.00     0.002 A 
ATOM     79  C   UNL A   1      43.849  40.178  29.032  1.00  0.00     0.091 A 
ATOM     80  F   UNL A   1      45.426  38.692  30.035  1.00  0.00    -0.205 F 
ATOM     81  C   UNL A   1      43.273  40.715  27.867  1.00  0.00     0.022 A 
BRANCH  79  82
ATOM     82  S   UNL A   1      43.238  40.803  30.600  1.00  0.00     0.127 S 
ATOM     83  O   UNL A   1      41.838  41.081  30.281  1.00  0.00    -0.237 OA
ATOM     84  O   UNL A   1      43.446  39.659  31.487  1.00  0.00    -0.237 OA
ATOM     85  O   UNL A   1      44.050  41.971  30.911  1.00  0.00    -0.744 OA
ENDBRANCH  79  82
ENDBRANCH  61  75
BRANCH  62  86
ATOM     86  C   UNL A   1      51.473  30.979  26.805  1.00  0.00     0.023 A 
ATOM     87  C   UNL A   1      51.847  30.563  25.512  1.00  0.00     0.012 A 
ATOM     88  C   UNL A   1      52.007  30.305  27.920  1.00  0.00     0.148 A 
ATOM     89  C   UNL A   1      52.697  29.470  25.334  1.00  0.00     0.002 A 
ATOM     90  C   UNL A   1      52.911  29.265  27.737  1.00  0.00     0.091 A 
ATOM     91  F   UNL A   1      51.625  30.695  29.145  1.00  0.00    -0.205 F 
ATOM     92  C   UNL A   1      53.238  28.829  26.445  1.00  0.00     0.022 A 
BRANCH  90  93
ATOM     93  S   UNL A   1      53.786  28.526  29.118  1.00  0.00     0.127 S 
ATOM     94  O   UNL A   1      54.976  27.987  28.469  1.00  0.00    -0.237 OA
ATOM     95  O   UNL A   1      54.019  29.681  29.986  1.00  0.00    -0.237 OA
ATOM     96  O   UNL A   1      52.858  27.552  29.684  1.00  0.00    -0.744 OA
ENDBRANCH  90  93
ENDBRANCH  62  86
BRANCH  74  97
ATOM     97  C   UNL A   1      52.361  37.882  27.395  1.00  0.00     0.023 A 
ATOM     98  C   UNL A   1      52.958  38.215  28.627  1.00  0.00     0.012 A 
ATOM     99  C   UNL A   1      52.957  38.325  26.197  1.00  0.00     0.148 A 
ATOM    100  C   UNL A   1      54.102  39.011  28.670  1.00  0.00     0.002 A 
ATOM    101  C   UNL A   1      54.126  39.075  26.245  1.00  0.00     0.091 A 
ATOM    102  F   UNL A   1      52.367  38.014  25.034  1.00  0.00    -0.205 F 
ATOM    103  C   UNL A   1      54.691  39.432  27.480  1.00  0.00     0.022 A 
BRANCH 101 104
ATOM    104  S   UNL A   1      55.004  39.577  24.761  1.00  0.00     0.127 S 
ATOM    105  O   UNL A   1      56.121  40.337  25.317  1.00  0.00    -0.237 OA
ATOM    106  O   UNL A   1      55.377  38.292  24.168  1.00  0.00    -0.237 OA
ATOM    107  O   UNL A   1      54.049  40.346  23.974  1.00  0.00    -0.744 OA
ENDBRANCH 101 104
ENDBRANCH  74  97
ENDBRANCH  48  49
ENDBRANCH  41  43
ENDBRANCH  40  41
ENDBRANCH  39  40
ENDBRANCH  38  39
ENDBRANCH  37  38
ENDBRANCH  36  37
ENDBRANCH  35  36
ENDBRANCH  34  35
ENDBRANCH   1  34
TORSDOF 27
ENDMDL
