MODEL 1
REMARK VINA RESULT:      -9.3      0.000      0.000
REMARK SMILES C[C@H]([NH3+])C(=O)N1CCC[C@H]1C(=O)OCCOCCOCCOCCOC(=O)c1ccc(-c2c3nc(c(-c4cccc(S(=O)(=O)[O-])c4F)c4ccc([nH]4)c(-c4cccc(S(=O)(=O)[O-])c4F)c4nc(c(-c5cccc(S(=O)(=O)[O-])c5F)c5ccc2[nH]5)C=C4)C=C3)cc1
REMARK SMILES IDX 19 1 18 2 17 3 16 4 15 5 14 6 13 7 11 8 12 9 10 10 6 11 7 12
REMARK SMILES IDX 8 13 9 14 4 15 5 16 2 17 1 18 3 19 20 23 21 24 22 25 23 26
REMARK SMILES IDX 24 27 25 28 26 29 27 30 28 31 29 32 90 33 30 34 89 35 31 36
REMARK SMILES IDX 32 37 33 38 83 39 34 40 88 41 82 42 84 43 35 44 87 45 81 46
REMARK SMILES IDX 80 47 36 49 68 50 48 51 67 52 49 53 52 54 66 55 85 56 50 57
REMARK SMILES IDX 51 58 65 60 86 61 53 62 37 63 38 64 46 65 39 66 41 67 47 68
REMARK SMILES IDX 40 69 42 70 43 71 44 72 45 73 69 74 70 75 78 76 71 77 73 78
REMARK SMILES IDX 79 79 72 80 74 81 75 82 76 83 77 84 54 85 55 86 63 87 56 88
REMARK SMILES IDX 58 89 64 90 57 91 59 92 60 93 61 94 62 95
REMARK H PARENT 3 20 3 21 3 22 84 48 52 59
REMARK Flexibility Score: inf
ROOT
ATOM      1  O   UNL A   1      29.933  27.079  22.803  1.00  0.00    -0.377 OA
ENDROOT
BRANCH   1   2
ATOM      2  C   UNL A   1      31.060  27.392  22.011  1.00  0.00     0.188 C 
BRANCH   2   3
ATOM      3  C   UNL A   1      32.322  26.578  22.345  1.00  0.00     0.188 C 
BRANCH   3   4
ATOM      4  O   UNL A   1      32.231  25.436  23.182  1.00  0.00    -0.376 OA
BRANCH   4   5
ATOM      5  C   UNL A   1      32.779  25.457  24.494  1.00  0.00     0.202 C 
BRANCH   5   6
ATOM      6  C   UNL A   1      32.256  24.567  25.643  1.00  0.00     0.261 C 
BRANCH   6   7
ATOM      7  O   UNL A   1      33.164  24.343  26.730  1.00  0.00    -0.462 OA
BRANCH   7   8
ATOM      8  C   UNL A   1      33.475  23.059  27.028  1.00  0.00     0.328 C 
ATOM      9  O   UNL A   1      32.920  22.405  27.905  1.00  0.00    -0.250 OA
BRANCH   8  10
ATOM     10  C   UNL A   1      34.554  22.469  26.084  1.00  0.00     0.195 C 
ATOM     11  N   UNL A   1      34.088  21.948  24.787  1.00  0.00    -0.324 N 
ATOM     12  C   UNL A   1      34.822  22.504  23.672  1.00  0.00     0.121 C 
ATOM     13  C   UNL A   1      36.082  23.093  24.273  1.00  0.00     0.024 C 
ATOM     14  C   UNL A   1      35.751  23.372  25.741  1.00  0.00     0.039 C 
BRANCH  11  15
ATOM     15  C   UNL A   1      33.185  20.911  24.737  1.00  0.00     0.281 C 
ATOM     16  O   UNL A   1      31.973  21.111  24.807  1.00  0.00    -0.268 OA
BRANCH  15  17
ATOM     17  C   UNL A   1      33.713  19.466  24.650  1.00  0.00     0.268 C 
ATOM     18  C   UNL A   1      32.831  18.490  25.423  1.00  0.00     0.086 C 
BRANCH  17  19
ATOM     19  N   UNL A   1      35.139  19.356  25.000  1.00  0.00    -0.348 N 
ATOM     20  H   UNL A   1      35.644  20.156  24.621  1.00  0.00     0.345 HD
ATOM     21  H   UNL A   1      35.520  18.496  24.606  1.00  0.00     0.345 HD
ATOM     22  H   UNL A   1      35.240  19.339  26.015  1.00  0.00     0.345 HD
ENDBRANCH  17  19
ENDBRANCH  15  17
ENDBRANCH  11  15
ENDBRANCH   8  10
ENDBRANCH   7   8
ENDBRANCH   6   7
ENDBRANCH   5   6
ENDBRANCH   4   5
ENDBRANCH   3   4
ENDBRANCH   2   3
ENDBRANCH   1   2
BRANCH   1  23
ATOM     23  C   UNL A   1      29.596  28.010  23.819  1.00  0.00     0.188 C 
BRANCH  23  24
ATOM     24  C   UNL A   1      29.908  29.498  23.564  1.00  0.00     0.188 C 
BRANCH  24  25
ATOM     25  O   UNL A   1      30.730  30.102  24.559  1.00  0.00    -0.376 OA
BRANCH  25  26
ATOM     26  C   UNL A   1      32.024  29.568  24.797  1.00  0.00     0.202 C 
BRANCH  26  27
ATOM     27  C   UNL A   1      32.352  29.066  26.215  1.00  0.00     0.261 C 
BRANCH  27  28
ATOM     28  O   UNL A   1      32.234  30.015  27.284  1.00  0.00    -0.460 OA
BRANCH  28  29
ATOM     29  C   UNL A   1      32.911  31.181  27.180  1.00  0.00     0.338 C 
ATOM     30  O   UNL A   1      32.453  32.266  26.899  1.00  0.00    -0.246 OA
BRANCH  29  31
ATOM     31  C   UNL A   1      34.287  30.941  27.675  1.00  0.00     0.060 A 
ATOM     32  C   UNL A   1      34.726  29.620  27.837  1.00  0.00     0.016 A 
ATOM     33  C   UNL A   1      35.140  32.009  27.960  1.00  0.00     0.016 A 
ATOM     34  C   UNL A   1      36.009  29.363  28.325  1.00  0.00     0.010 A 
ATOM     35  C   UNL A   1      36.415  31.750  28.471  1.00  0.00     0.010 A 
ATOM     36  C   UNL A   1      36.841  30.428  28.691  1.00  0.00    -0.014 A 
BRANCH  36  37
ATOM     37  C   UNL A   1      38.055  30.173  29.505  1.00  0.00     0.031 A 
ATOM     38  C   UNL A   1      39.094  29.234  28.946  1.00  0.00     0.074 A 
ATOM     39  C   UNL A   1      38.238  30.748  30.708  1.00  0.00     0.049 A 
ATOM     40  N   UNL A   1      40.190  28.787  29.496  1.00  0.00    -0.248 NA
ATOM     41  C   UNL A   1      38.857  28.733  27.580  1.00  0.00     0.031 C 
ATOM     42  C   UNL A   1      37.323  31.693  31.343  1.00  0.00     0.029 A 
ATOM     43  N   UNL A   1      39.251  30.591  31.622  1.00  0.00    -0.354 N 
ATOM     44  C   UNL A   1      40.759  27.931  28.560  1.00  0.00     0.074 A 
ATOM     45  C   UNL A   1      39.881  27.911  27.411  1.00  0.00     0.031 C 
ATOM     46  C   UNL A   1      37.800  32.006  32.562  1.00  0.00     0.029 A 
ATOM     47  C   UNL A   1      39.034  31.260  32.803  1.00  0.00     0.049 A 
ATOM     48  H   UNL A   1      40.056  30.051  31.447  1.00  0.00     0.167 HD
ATOM     49  C   UNL A   1      41.917  27.236  28.640  1.00  0.00     0.034 A 
ATOM     50  C   UNL A   1      39.735  31.242  33.956  1.00  0.00     0.034 A 
ATOM     51  C   UNL A   1      42.793  27.263  29.778  1.00  0.00     0.049 A 
ATOM     52  C   UNL A   1      40.992  30.408  34.040  1.00  0.00     0.074 A 
ATOM     53  C   UNL A   1      44.000  26.608  29.950  1.00  0.00     0.029 A 
ATOM     54  N   UNL A   1      42.555  27.975  30.943  1.00  0.00    -0.354 N 
ATOM     55  N   UNL A   1      41.563  29.673  33.116  1.00  0.00    -0.248 NA
ATOM     56  C   UNL A   1      41.716  30.424  35.321  1.00  0.00     0.031 C 
ATOM     57  C   UNL A   1      44.474  26.898  31.232  1.00  0.00     0.029 A 
ATOM     58  C   UNL A   1      43.586  27.771  31.840  1.00  0.00     0.049 A 
ATOM     59  H   UNL A   1      41.767  28.542  31.107  1.00  0.00     0.167 HD
ATOM     60  C   UNL A   1      42.735  29.185  33.686  1.00  0.00     0.074 A 
ATOM     61  C   UNL A   1      42.801  29.718  35.029  1.00  0.00     0.031 C 
ATOM     62  C   UNL A   1      43.671  28.363  33.150  1.00  0.00     0.034 A 
BRANCH  49  63
ATOM     63  C   UNL A   1      42.317  26.397  27.455  1.00  0.00     0.023 A 
ATOM     64  C   UNL A   1      43.137  26.953  26.453  1.00  0.00     0.012 A 
ATOM     65  C   UNL A   1      41.938  25.044  27.369  1.00  0.00     0.148 A 
ATOM     66  C   UNL A   1      43.553  26.181  25.369  1.00  0.00     0.002 A 
ATOM     67  C   UNL A   1      42.396  24.268  26.312  1.00  0.00     0.091 A 
ATOM     68  F   UNL A   1      41.141  24.542  28.324  1.00  0.00    -0.205 F 
ATOM     69  C   UNL A   1      43.193  24.836  25.305  1.00  0.00     0.022 A 
BRANCH  67  70
ATOM     70  S   UNL A   1      42.053  22.510  26.178  1.00  0.00     0.127 S 
ATOM     71  O   UNL A   1      42.775  22.162  24.955  1.00  0.00    -0.237 OA
ATOM     72  O   UNL A   1      42.651  21.989  27.408  1.00  0.00    -0.237 OA
ATOM     73  O   UNL A   1      40.605  22.385  26.100  1.00  0.00    -0.744 OA
ENDBRANCH  67  70
ENDBRANCH  49  63
BRANCH  50  74
ATOM     74  C   UNL A   1      39.284  32.040  35.134  1.00  0.00     0.023 A 
ATOM     75  C   UNL A   1      38.330  31.499  36.018  1.00  0.00     0.012 A 
ATOM     76  C   UNL A   1      39.766  33.343  35.362  1.00  0.00     0.148 A 
ATOM     77  C   UNL A   1      37.826  32.258  37.075  1.00  0.00     0.002 A 
ATOM     78  C   UNL A   1      39.303  34.073  36.451  1.00  0.00     0.091 A 
ATOM     79  F   UNL A   1      40.659  33.850  34.502  1.00  0.00    -0.205 F 
ATOM     80  C   UNL A   1      38.317  33.540  37.296  1.00  0.00     0.022 A 
BRANCH  78  81
ATOM     81  S   UNL A   1      39.965  35.686  36.881  1.00  0.00     0.127 S 
ATOM     82  O   UNL A   1      41.391  35.398  37.014  1.00  0.00    -0.237 OA
ATOM     83  O   UNL A   1      39.603  36.482  35.707  1.00  0.00    -0.237 OA
ATOM     84  O   UNL A   1      39.282  36.079  38.105  1.00  0.00    -0.744 OA
ENDBRANCH  78  81
ENDBRANCH  50  74
BRANCH  62  85
ATOM     85  C   UNL A   1      44.888  28.040  33.978  1.00  0.00     0.023 A 
ATOM     86  C   UNL A   1      46.035  28.855  33.907  1.00  0.00     0.012 A 
ATOM     87  C   UNL A   1      44.856  26.970  34.896  1.00  0.00     0.148 A 
ATOM     88  C   UNL A   1      47.143  28.589  34.711  1.00  0.00     0.002 A 
ATOM     89  C   UNL A   1      45.943  26.745  35.732  1.00  0.00     0.091 A 
ATOM     90  F   UNL A   1      43.760  26.199  34.940  1.00  0.00    -0.205 F 
ATOM     91  C   UNL A   1      47.092  27.544  35.630  1.00  0.00     0.022 A 
BRANCH  89  92
ATOM     92  S   UNL A   1      45.929  25.489  37.017  1.00  0.00     0.127 S 
ATOM     93  O   UNL A   1      47.299  25.567  37.523  1.00  0.00    -0.237 OA
ATOM     94  O   UNL A   1      44.910  25.999  37.935  1.00  0.00    -0.237 OA
ATOM     95  O   UNL A   1      45.580  24.239  36.356  1.00  0.00    -0.744 OA
ENDBRANCH  89  92
ENDBRANCH  62  85
ENDBRANCH  36  37
ENDBRANCH  29  31
ENDBRANCH  28  29
ENDBRANCH  27  28
ENDBRANCH  26  27
ENDBRANCH  25  26
ENDBRANCH  24  25
ENDBRANCH  23  24
ENDBRANCH   1  23
TORSDOF 26
ENDMDL
MODEL 2
REMARK VINA RESULT:      -9.3      4.719      7.958
REMARK SMILES C[C@H]([NH3+])C(=O)N1CCC[C@H]1C(=O)OCCOCCOCCOCCOC(=O)c1ccc(-c2c3nc(c(-c4cccc(S(=O)(=O)[O-])c4F)c4ccc([nH]4)c(-c4cccc(S(=O)(=O)[O-])c4F)c4nc(c(-c5cccc(S(=O)(=O)[O-])c5F)c5ccc2[nH]5)C=C4)C=C3)cc1
REMARK SMILES IDX 19 1 18 2 17 3 16 4 15 5 14 6 13 7 11 8 12 9 10 10 6 11 7 12
REMARK SMILES IDX 8 13 9 14 4 15 5 16 2 17 1 18 3 19 20 23 21 24 22 25 23 26
REMARK SMILES IDX 24 27 25 28 26 29 27 30 28 31 29 32 90 33 30 34 89 35 31 36
REMARK SMILES IDX 32 37 33 38 83 39 34 40 88 41 82 42 84 43 35 44 87 45 81 46
REMARK SMILES IDX 80 47 36 49 68 50 48 51 67 52 49 53 52 54 66 55 85 56 50 57
REMARK SMILES IDX 51 58 65 60 86 61 53 62 37 63 38 64 46 65 39 66 41 67 47 68
REMARK SMILES IDX 40 69 42 70 43 71 44 72 45 73 69 74 70 75 78 76 71 77 73 78
REMARK SMILES IDX 79 79 72 80 74 81 75 82 76 83 77 84 54 85 55 86 63 87 56 88
REMARK SMILES IDX 58 89 64 90 57 91 59 92 60 93 61 94 62 95
REMARK H PARENT 3 20 3 21 3 22 84 48 52 59
REMARK Flexibility Score: inf
ROOT
ATOM      1  O   UNL A   1      33.517  21.463  25.346  1.00  0.00    -0.377 OA
ENDROOT
BRANCH   1   2
ATOM      2  C   UNL A   1      32.342  21.965  25.946  1.00  0.00     0.188 C 
BRANCH   2   3
ATOM      3  C   UNL A   1      32.541  23.252  26.765  1.00  0.00     0.188 C 
BRANCH   3   4
ATOM      4  O   UNL A   1      31.416  24.007  27.189  1.00  0.00    -0.376 OA
BRANCH   4   5
ATOM      5  C   UNL A   1      31.007  25.161  26.465  1.00  0.00     0.202 C 
BRANCH   5   6
ATOM      6  C   UNL A   1      30.450  25.102  25.026  1.00  0.00     0.261 C 
BRANCH   6   7
ATOM      7  O   UNL A   1      29.970  26.340  24.485  1.00  0.00    -0.462 OA
BRANCH   7   8
ATOM      8  C   UNL A   1      30.722  26.934  23.527  1.00  0.00     0.328 C 
ATOM      9  O   UNL A   1      30.284  27.315  22.448  1.00  0.00    -0.250 OA
BRANCH   8  10
ATOM     10  C   UNL A   1      32.190  27.160  23.974  1.00  0.00     0.195 C 
ATOM     11  N   UNL A   1      33.212  27.169  22.913  1.00  0.00    -0.324 N 
ATOM     12  C   UNL A   1      34.050  28.347  22.962  1.00  0.00     0.121 C 
ATOM     13  C   UNL A   1      33.843  28.931  24.344  1.00  0.00     0.024 C 
ATOM     14  C   UNL A   1      32.479  28.417  24.813  1.00  0.00     0.039 C 
BRANCH  11  15
ATOM     15  C   UNL A   1      33.408  26.057  22.125  1.00  0.00     0.281 C 
ATOM     16  O   UNL A   1      33.210  26.088  20.911  1.00  0.00    -0.268 OA
BRANCH  15  17
ATOM     17  C   UNL A   1      33.827  24.734  22.795  1.00  0.00     0.268 C 
ATOM     18  C   UNL A   1      32.729  23.679  22.705  1.00  0.00     0.086 C 
BRANCH  17  19
ATOM     19  N   UNL A   1      34.337  24.921  24.163  1.00  0.00    -0.348 N 
ATOM     20  H   UNL A   1      34.949  24.143  24.407  1.00  0.00     0.345 HD
ATOM     21  H   UNL A   1      33.554  24.956  24.815  1.00  0.00     0.345 HD
ATOM     22  H   UNL A   1      34.861  25.795  24.214  1.00  0.00     0.345 HD
ENDBRANCH  17  19
ENDBRANCH  15  17
ENDBRANCH  11  15
ENDBRANCH   8  10
ENDBRANCH   7   8
ENDBRANCH   6   7
ENDBRANCH   5   6
ENDBRANCH   4   5
ENDBRANCH   3   4
ENDBRANCH   2   3
ENDBRANCH   1   2
BRANCH   1  23
ATOM     23  C   UNL A   1      34.670  21.400  26.170  1.00  0.00     0.188 C 
BRANCH  23  24
ATOM     24  C   UNL A   1      36.040  21.248  25.480  1.00  0.00     0.188 C 
BRANCH  24  25
ATOM     25  O   UNL A   1      36.275  19.956  24.926  1.00  0.00    -0.376 OA
BRANCH  25  26
ATOM     26  C   UNL A   1      37.592  19.614  24.519  1.00  0.00     0.202 C 
BRANCH  26  27
ATOM     27  C   UNL A   1      38.658  19.408  25.609  1.00  0.00     0.261 C 
BRANCH  27  28
ATOM     28  O   UNL A   1      39.673  20.414  25.726  1.00  0.00    -0.460 OA
BRANCH  28  29
ATOM     29  C   UNL A   1      40.460  20.402  26.826  1.00  0.00     0.338 C 
ATOM     30  O   UNL A   1      41.031  19.446  27.301  1.00  0.00    -0.246 OA
BRANCH  29  31
ATOM     31  C   UNL A   1      40.673  21.810  27.235  1.00  0.00     0.060 A 
ATOM     32  C   UNL A   1      39.965  22.821  26.572  1.00  0.00     0.016 A 
ATOM     33  C   UNL A   1      41.550  22.127  28.274  1.00  0.00     0.016 A 
ATOM     34  C   UNL A   1      40.163  24.159  26.919  1.00  0.00     0.010 A 
ATOM     35  C   UNL A   1      41.766  23.468  28.604  1.00  0.00     0.010 A 
ATOM     36  C   UNL A   1      41.102  24.491  27.903  1.00  0.00    -0.014 A 
BRANCH  36  37
ATOM     37  C   UNL A   1      41.557  25.896  28.049  1.00  0.00     0.031 A 
ATOM     38  C   UNL A   1      42.909  26.260  27.494  1.00  0.00     0.074 A 
ATOM     39  C   UNL A   1      40.801  26.827  28.659  1.00  0.00     0.049 A 
ATOM     40  N   UNL A   1      43.562  27.388  27.570  1.00  0.00    -0.248 NA
ATOM     41  C   UNL A   1      43.620  25.202  26.753  1.00  0.00     0.031 C 
ATOM     42  C   UNL A   1      39.466  26.608  29.211  1.00  0.00     0.029 A 
ATOM     43  N   UNL A   1      41.071  28.144  28.940  1.00  0.00    -0.354 N 
ATOM     44  C   UNL A   1      44.769  27.170  26.916  1.00  0.00     0.074 A 
ATOM     45  C   UNL A   1      44.766  25.798  26.460  1.00  0.00     0.031 C 
ATOM     46  C   UNL A   1      39.047  27.744  29.797  1.00  0.00     0.029 A 
ATOM     47  C   UNL A   1      40.095  28.758  29.689  1.00  0.00     0.049 A 
ATOM     48  H   UNL A   1      41.886  28.605  28.633  1.00  0.00     0.167 HD
ATOM     49  C   UNL A   1      45.785  28.038  26.699  1.00  0.00     0.034 A 
ATOM     50  C   UNL A   1      40.069  29.985  30.249  1.00  0.00     0.034 A 
ATOM     51  C   UNL A   1      45.784  29.403  27.145  1.00  0.00     0.049 A 
ATOM     52  C   UNL A   1      41.244  30.913  30.044  1.00  0.00     0.074 A 
ATOM     53  C   UNL A   1      46.758  30.368  26.959  1.00  0.00     0.029 A 
ATOM     54  N   UNL A   1      44.766  29.996  27.874  1.00  0.00    -0.354 N 
ATOM     55  N   UNL A   1      42.339  30.722  29.349  1.00  0.00    -0.248 NA
ATOM     56  C   UNL A   1      41.163  32.238  30.678  1.00  0.00     0.031 C 
ATOM     57  C   UNL A   1      46.342  31.536  27.605  1.00  0.00     0.029 A 
ATOM     58  C   UNL A   1      45.089  31.311  28.152  1.00  0.00     0.049 A 
ATOM     59  H   UNL A   1      43.935  29.547  28.152  1.00  0.00     0.167 HD
ATOM     60  C   UNL A   1      43.050  31.916  29.420  1.00  0.00     0.074 A 
ATOM     61  C   UNL A   1      42.256  32.829  30.213  1.00  0.00     0.031 C 
ATOM     62  C   UNL A   1      44.257  32.228  28.885  1.00  0.00     0.034 A 
BRANCH  49  63
ATOM     63  C   UNL A   1      46.979  27.542  25.927  1.00  0.00     0.023 A 
ATOM     64  C   UNL A   1      47.069  27.793  24.543  1.00  0.00     0.012 A 
ATOM     65  C   UNL A   1      48.041  26.891  26.583  1.00  0.00     0.148 A 
ATOM     66  C   UNL A   1      48.185  27.379  23.819  1.00  0.00     0.002 A 
ATOM     67  C   UNL A   1      49.172  26.525  25.864  1.00  0.00     0.091 A 
ATOM     68  F   UNL A   1      47.926  26.645  27.897  1.00  0.00    -0.205 F 
ATOM     69  C   UNL A   1      49.242  26.758  24.481  1.00  0.00     0.022 A 
BRANCH  67  70
ATOM     70  S   UNL A   1      50.617  25.789  26.635  1.00  0.00     0.127 S 
ATOM     71  O   UNL A   1      51.454  25.495  25.472  1.00  0.00    -0.237 OA
ATOM     72  O   UNL A   1      51.104  26.883  27.476  1.00  0.00    -0.237 OA
ATOM     73  O   UNL A   1      50.138  24.623  27.364  1.00  0.00    -0.744 OA
ENDBRANCH  67  70
ENDBRANCH  49  63
BRANCH  50  74
ATOM     74  C   UNL A   1      38.895  30.430  31.057  1.00  0.00     0.023 A 
ATOM     75  C   UNL A   1      38.851  30.147  32.436  1.00  0.00     0.012 A 
ATOM     76  C   UNL A   1      37.807  31.095  30.460  1.00  0.00     0.148 A 
ATOM     77  C   UNL A   1      37.726  30.472  33.195  1.00  0.00     0.002 A 
ATOM     78  C   UNL A   1      36.713  31.468  31.234  1.00  0.00     0.091 A 
ATOM     79  F   UNL A   1      37.856  31.340  29.144  1.00  0.00    -0.205 F 
ATOM     80  C   UNL A   1      36.662  31.138  32.597  1.00  0.00     0.022 A 
BRANCH  78  81
ATOM     81  S   UNL A   1      35.351  32.433  30.572  1.00  0.00     0.127 S 
ATOM     82  O   UNL A   1      35.969  33.744  30.399  1.00  0.00    -0.237 OA
ATOM     83  O   UNL A   1      35.055  31.721  29.328  1.00  0.00    -0.237 OA
ATOM     84  O   UNL A   1      34.294  32.358  31.572  1.00  0.00    -0.744 OA
ENDBRANCH  78  81
ENDBRANCH  50  74
BRANCH  62  85
ATOM     85  C   UNL A   1      44.769  33.634  29.068  1.00  0.00     0.023 A 
ATOM     86  C   UNL A   1      45.827  33.896  29.961  1.00  0.00     0.012 A 
ATOM     87  C   UNL A   1      44.253  34.685  28.283  1.00  0.00     0.148 A 
ATOM     88  C   UNL A   1      46.338  35.186  30.095  1.00  0.00     0.002 A 
ATOM     89  C   UNL A   1      44.804  35.956  28.381  1.00  0.00     0.091 A 
ATOM     90  F   UNL A   1      43.238  34.418  27.448  1.00  0.00    -0.205 F 
ATOM     91  C   UNL A   1      45.837  36.212  29.297  1.00  0.00     0.022 A 
BRANCH  89  92
ATOM     92  S   UNL A   1      44.294  37.315  27.322  1.00  0.00     0.127 S 
ATOM     93  O   UNL A   1      45.546  37.653  26.648  1.00  0.00    -0.237 OA
ATOM     94  O   UNL A   1      43.292  36.679  26.466  1.00  0.00    -0.237 OA
ATOM     95  O   UNL A   1      43.769  38.344  28.210  1.00  0.00    -0.744 OA
ENDBRANCH  89  92
ENDBRANCH  62  85
ENDBRANCH  36  37
ENDBRANCH  29  31
ENDBRANCH  28  29
ENDBRANCH  27  28
ENDBRANCH  26  27
ENDBRANCH  25  26
ENDBRANCH  24  25
ENDBRANCH  23  24
ENDBRANCH   1  23
TORSDOF 26
ENDMDL
MODEL 3
REMARK VINA RESULT:      -9.1      1.525      2.022
REMARK SMILES C[C@H]([NH3+])C(=O)N1CCC[C@H]1C(=O)OCCOCCOCCOCCOC(=O)c1ccc(-c2c3nc(c(-c4cccc(S(=O)(=O)[O-])c4F)c4ccc([nH]4)c(-c4cccc(S(=O)(=O)[O-])c4F)c4nc(c(-c5cccc(S(=O)(=O)[O-])c5F)c5ccc2[nH]5)C=C4)C=C3)cc1
REMARK SMILES IDX 19 1 18 2 17 3 16 4 15 5 14 6 13 7 11 8 12 9 10 10 6 11 7 12
REMARK SMILES IDX 8 13 9 14 4 15 5 16 2 17 1 18 3 19 20 23 21 24 22 25 23 26
REMARK SMILES IDX 24 27 25 28 26 29 27 30 28 31 29 32 90 33 30 34 89 35 31 36
REMARK SMILES IDX 32 37 33 38 83 39 34 40 88 41 82 42 84 43 35 44 87 45 81 46
REMARK SMILES IDX 80 47 36 49 68 50 48 51 67 52 49 53 52 54 66 55 85 56 50 57
REMARK SMILES IDX 51 58 65 60 86 61 53 62 37 63 38 64 46 65 39 66 41 67 47 68
REMARK SMILES IDX 40 69 42 70 43 71 44 72 45 73 69 74 70 75 78 76 71 77 73 78
REMARK SMILES IDX 79 79 72 80 74 81 75 82 76 83 77 84 54 85 55 86 63 87 56 88
REMARK SMILES IDX 58 89 64 90 57 91 59 92 60 93 61 94 62 95
REMARK H PARENT 3 20 3 21 3 22 84 48 52 59
REMARK Flexibility Score: inf
ROOT
ATOM      1  O   UNL A   1      30.970  26.174  23.211  1.00  0.00    -0.377 OA
ENDROOT
BRANCH   1   2
ATOM      2  C   UNL A   1      31.590  26.665  22.041  1.00  0.00     0.188 C 
BRANCH   2   3
ATOM      3  C   UNL A   1      33.112  26.444  21.982  1.00  0.00     0.188 C 
BRANCH   3   4
ATOM      4  O   UNL A   1      33.639  25.126  21.967  1.00  0.00    -0.376 OA
BRANCH   4   5
ATOM      5  C   UNL A   1      34.282  24.593  23.119  1.00  0.00     0.202 C 
BRANCH   5   6
ATOM      6  C   UNL A   1      33.596  24.492  24.499  1.00  0.00     0.261 C 
BRANCH   6   7
ATOM      7  O   UNL A   1      32.279  23.926  24.508  1.00  0.00    -0.462 OA
BRANCH   7   8
ATOM      8  C   UNL A   1      32.179  22.580  24.393  1.00  0.00     0.328 C 
ATOM      9  O   UNL A   1      31.988  21.994  23.334  1.00  0.00    -0.250 OA
BRANCH   8  10
ATOM     10  C   UNL A   1      32.415  21.845  25.739  1.00  0.00     0.195 C 
ATOM     11  N   UNL A   1      33.806  21.481  26.059  1.00  0.00    -0.324 N 
ATOM     12  C   UNL A   1      34.211  21.943  27.369  1.00  0.00     0.121 C 
ATOM     13  C   UNL A   1      32.922  22.260  28.100  1.00  0.00     0.024 C 
ATOM     14  C   UNL A   1      31.881  22.527  27.010  1.00  0.00     0.039 C 
BRANCH  11  15
ATOM     15  C   UNL A   1      34.511  20.632  25.237  1.00  0.00     0.281 C 
ATOM     16  O   UNL A   1      33.944  19.777  24.558  1.00  0.00    -0.268 OA
BRANCH  15  17
ATOM     17  C   UNL A   1      36.050  20.722  25.216  1.00  0.00     0.268 C 
ATOM     18  C   UNL A   1      36.543  21.797  24.253  1.00  0.00     0.086 C 
BRANCH  17  19
ATOM     19  N   UNL A   1      36.697  19.417  25.003  1.00  0.00    -0.348 N 
ATOM     20  H   UNL A   1      37.707  19.543  24.951  1.00  0.00     0.345 HD
ATOM     21  H   UNL A   1      36.360  19.009  24.131  1.00  0.00     0.345 HD
ATOM     22  H   UNL A   1      36.471  18.795  25.779  1.00  0.00     0.345 HD
ENDBRANCH  17  19
ENDBRANCH  15  17
ENDBRANCH  11  15
ENDBRANCH   8  10
ENDBRANCH   7   8
ENDBRANCH   6   7
ENDBRANCH   5   6
ENDBRANCH   4   5
ENDBRANCH   3   4
ENDBRANCH   2   3
ENDBRANCH   1   2
BRANCH   1  23
ATOM     23  C   UNL A   1      30.450  27.145  24.106  1.00  0.00     0.188 C 
BRANCH  23  24
ATOM     24  C   UNL A   1      30.324  28.596  23.600  1.00  0.00     0.188 C 
BRANCH  24  25
ATOM     25  O   UNL A   1      30.852  29.574  24.491  1.00  0.00    -0.376 OA
BRANCH  25  26
ATOM     26  C   UNL A   1      32.260  29.680  24.637  1.00  0.00     0.202 C 
BRANCH  26  27
ATOM     27  C   UNL A   1      32.867  29.416  26.027  1.00  0.00     0.261 C 
BRANCH  27  28
ATOM     28  O   UNL A   1      32.448  30.278  27.094  1.00  0.00    -0.460 OA
BRANCH  28  29
ATOM     29  C   UNL A   1      33.117  31.440  27.275  1.00  0.00     0.338 C 
ATOM     30  O   UNL A   1      32.662  32.560  27.207  1.00  0.00    -0.246 OA
BRANCH  29  31
ATOM     31  C   UNL A   1      34.468  31.100  27.780  1.00  0.00     0.060 A 
ATOM     32  C   UNL A   1      34.729  29.783  28.179  1.00  0.00     0.016 A 
ATOM     33  C   UNL A   1      35.472  32.069  27.842  1.00  0.00     0.016 A 
ATOM     34  C   UNL A   1      35.986  29.439  28.681  1.00  0.00     0.010 A 
ATOM     35  C   UNL A   1      36.722  31.729  28.368  1.00  0.00     0.010 A 
ATOM     36  C   UNL A   1      36.972  30.422  28.824  1.00  0.00    -0.014 A 
BRANCH  36  37
ATOM     37  C   UNL A   1      38.176  30.150  29.648  1.00  0.00     0.031 A 
ATOM     38  C   UNL A   1      39.203  29.195  29.099  1.00  0.00     0.074 A 
ATOM     39  C   UNL A   1      38.358  30.724  30.851  1.00  0.00     0.049 A 
ATOM     40  N   UNL A   1      40.289  28.731  29.658  1.00  0.00    -0.248 NA
ATOM     41  C   UNL A   1      38.970  28.695  27.732  1.00  0.00     0.031 C 
ATOM     42  C   UNL A   1      37.453  31.684  31.478  1.00  0.00     0.029 A 
ATOM     43  N   UNL A   1      39.362  30.553  31.773  1.00  0.00    -0.354 N 
ATOM     44  C   UNL A   1      40.852  27.865  28.727  1.00  0.00     0.074 A 
ATOM     45  C   UNL A   1      39.982  27.856  27.572  1.00  0.00     0.031 C 
ATOM     46  C   UNL A   1      37.925  31.992  32.700  1.00  0.00     0.029 A 
ATOM     47  C   UNL A   1      39.145  31.227  32.952  1.00  0.00     0.049 A 
ATOM     48  H   UNL A   1      40.159  30.000  31.605  1.00  0.00     0.167 HD
ATOM     49  C   UNL A   1      41.998  27.152  28.818  1.00  0.00     0.034 A 
ATOM     50  C   UNL A   1      39.838  31.200  34.109  1.00  0.00     0.034 A 
ATOM     51  C   UNL A   1      42.866  27.168  29.962  1.00  0.00     0.049 A 
ATOM     52  C   UNL A   1      41.081  30.347  34.205  1.00  0.00     0.074 A 
ATOM     53  C   UNL A   1      44.060  26.494  30.144  1.00  0.00     0.029 A 
ATOM     54  N   UNL A   1      42.629  27.885  31.124  1.00  0.00    -0.354 N 
ATOM     55  N   UNL A   1      41.647  29.603  33.287  1.00  0.00    -0.248 NA
ATOM     56  C   UNL A   1      41.796  30.355  35.491  1.00  0.00     0.031 C 
ATOM     57  C   UNL A   1      44.530  26.779  31.429  1.00  0.00     0.029 A 
ATOM     58  C   UNL A   1      43.651  27.666  32.029  1.00  0.00     0.049 A 
ATOM     59  H   UNL A   1      41.849  28.465  31.280  1.00  0.00     0.167 HD
ATOM     60  C   UNL A   1      42.808  29.097  33.866  1.00  0.00     0.074 A 
ATOM     61  C   UNL A   1      42.871  29.632  35.209  1.00  0.00     0.031 C 
ATOM     62  C   UNL A   1      43.734  28.260  33.338  1.00  0.00     0.034 A 
BRANCH  49  63
ATOM     63  C   UNL A   1      42.394  26.305  27.637  1.00  0.00     0.023 A 
ATOM     64  C   UNL A   1      43.217  26.851  26.632  1.00  0.00     0.012 A 
ATOM     65  C   UNL A   1      42.009  24.953  27.558  1.00  0.00     0.148 A 
ATOM     66  C   UNL A   1      43.628  26.072  25.551  1.00  0.00     0.002 A 
ATOM     67  C   UNL A   1      42.462  24.170  26.505  1.00  0.00     0.091 A 
ATOM     68  F   UNL A   1      41.208  24.460  28.515  1.00  0.00    -0.205 F 
ATOM     69  C   UNL A   1      43.262  24.729  25.495  1.00  0.00     0.022 A 
BRANCH  67  70
ATOM     70  S   UNL A   1      42.111  22.413  26.380  1.00  0.00     0.127 S 
ATOM     71  O   UNL A   1      40.649  22.407  26.333  1.00  0.00    -0.237 OA
ATOM     72  O   UNL A   1      42.762  22.061  25.118  1.00  0.00    -0.237 OA
ATOM     73  O   UNL A   1      42.695  21.798  27.564  1.00  0.00    -0.744 OA
ENDBRANCH  67  70
ENDBRANCH  49  63
BRANCH  50  74
ATOM     74  C   UNL A   1      39.391  32.007  35.283  1.00  0.00     0.023 A 
ATOM     75  C   UNL A   1      38.470  31.457  36.197  1.00  0.00     0.012 A 
ATOM     76  C   UNL A   1      39.841  33.327  35.478  1.00  0.00     0.148 A 
ATOM     77  C   UNL A   1      37.968  32.221  37.251  1.00  0.00     0.002 A 
ATOM     78  C   UNL A   1      39.381  34.064  36.564  1.00  0.00     0.091 A 
ATOM     79  F   UNL A   1      40.702  33.842  34.589  1.00  0.00    -0.205 F 
ATOM     80  C   UNL A   1      38.428  33.520  37.439  1.00  0.00     0.022 A 
BRANCH  78  81
ATOM     81  S   UNL A   1      40.008  35.702  36.950  1.00  0.00     0.127 S 
ATOM     82  O   UNL A   1      41.436  35.444  37.119  1.00  0.00    -0.237 OA
ATOM     83  O   UNL A   1      39.655  36.451  35.743  1.00  0.00    -0.237 OA
ATOM     84  O   UNL A   1      39.295  36.124  38.148  1.00  0.00    -0.744 OA
ENDBRANCH  78  81
ENDBRANCH  50  74
BRANCH  62  85
ATOM     85  C   UNL A   1      44.940  27.919  34.177  1.00  0.00     0.023 A 
ATOM     86  C   UNL A   1      44.996  26.701  34.882  1.00  0.00     0.012 A 
ATOM     87  C   UNL A   1      46.058  28.779  34.192  1.00  0.00     0.148 A 
ATOM     88  C   UNL A   1      46.131  26.361  35.617  1.00  0.00     0.002 A 
ATOM     89  C   UNL A   1      47.205  28.407  34.881  1.00  0.00     0.091 A 
ATOM     90  F   UNL A   1      45.980  29.939  33.525  1.00  0.00    -0.205 F 
ATOM     91  C   UNL A   1      47.238  27.205  35.606  1.00  0.00     0.022 A 
BRANCH  89  92
ATOM     92  S   UNL A   1      48.715  29.381  34.841  1.00  0.00     0.127 S 
ATOM     93  O   UNL A   1      49.139  29.212  33.452  1.00  0.00    -0.237 OA
ATOM     94  O   UNL A   1      48.226  30.720  35.172  1.00  0.00    -0.237 OA
ATOM     95  O   UNL A   1      49.601  28.794  35.837  1.00  0.00    -0.744 OA
ENDBRANCH  89  92
ENDBRANCH  62  85
ENDBRANCH  36  37
ENDBRANCH  29  31
ENDBRANCH  28  29
ENDBRANCH  27  28
ENDBRANCH  26  27
ENDBRANCH  25  26
ENDBRANCH  24  25
ENDBRANCH  23  24
ENDBRANCH   1  23
TORSDOF 26
ENDMDL
