MODEL 1
REMARK VINA RESULT:     -10.2      0.000      0.000
REMARK SMILES CC(=O)c1nnn(-c2ccc(C(=O)OCCOCCOCCOCCOC(=O)c3ccc(-c4c5nc(c(-c6cccc(S(=O)(=O)[O-])c6F)c6ccc([nH]6)c(-c6cccc(S(=O)(=O)[O-])c6F)c6nc(c(-c7cccc(S(=O)(=O)[O-])c7F)c7ccc4[nH]7)C=C6)C=C5)cc3)cc2)c1C
REMARK SMILES IDX 21 1 20 2 19 3 18 4 17 5 16 6 15 7 14 8 12 9 13 10 11 11
REMARK SMILES IDX 8 12 9 13 93 14 10 15 92 16 7 17 4 18 5 19 94 20 6 21 95 22
REMARK SMILES IDX 2 23 1 24 3 25 22 26 23 27 24 28 25 29 26 30 27 31 28 32
REMARK SMILES IDX 29 33 30 34 91 35 31 36 90 37 32 38 33 39 34 40 84 41 35 42
REMARK SMILES IDX 89 43 83 44 85 45 36 46 88 47 82 48 81 49 37 51 69 52 49 53
REMARK SMILES IDX 68 54 50 55 53 56 67 57 86 58 51 59 52 60 66 62 87 63 54 64
REMARK SMILES IDX 38 65 39 66 47 67 40 68 42 69 48 70 41 71 43 72 44 73 45 74
REMARK SMILES IDX 46 75 70 76 71 77 79 78 72 79 74 80 80 81 73 82 75 83 76 84
REMARK SMILES IDX 77 85 78 86 55 87 56 88 64 89 57 90 59 91 65 92 58 93 60 94
REMARK SMILES IDX 61 95 62 96 63 97
REMARK H PARENT 85 50 53 61
REMARK Flexibility Score: inf
ROOT
ATOM      1  C   UNL A   1      35.310  23.233  23.760  1.00  0.00     0.188 C 
ENDROOT
BRANCH   1   2
ATOM      2  O   UNL A   1      34.515  23.754  24.824  1.00  0.00    -0.377 OA
BRANCH   2   3
ATOM      3  C   UNL A   1      34.784  25.097  25.186  1.00  0.00     0.188 C 
BRANCH   3   4
ATOM      4  C   UNL A   1      33.907  26.137  24.450  1.00  0.00     0.188 C 
BRANCH   4   5
ATOM      5  O   UNL A   1      33.817  27.495  24.869  1.00  0.00    -0.376 OA
BRANCH   5   6
ATOM      6  C   UNL A   1      32.587  28.198  24.927  1.00  0.00     0.202 C 
BRANCH   6   7
ATOM      7  C   UNL A   1      31.326  27.740  24.182  1.00  0.00     0.261 C 
BRANCH   7   8
ATOM      8  O   UNL A   1      30.261  27.248  24.989  1.00  0.00    -0.460 OA
BRANCH   8   9
ATOM      9  C   UNL A   1      29.538  26.246  24.449  1.00  0.00     0.338 C 
ATOM     10  O   UNL A   1      28.444  26.324  23.913  1.00  0.00    -0.246 OA
BRANCH   9  11
ATOM     11  C   UNL A   1      30.357  25.016  24.473  1.00  0.00     0.060 A 
ATOM     12  C   UNL A   1      31.653  22.580  24.417  1.00  0.00     0.067 A 
ATOM     13  C   UNL A   1      31.469  23.267  23.214  1.00  0.00     0.029 A 
ATOM     14  C   UNL A   1      31.359  23.178  25.650  1.00  0.00     0.029 A 
ATOM     15  C   UNL A   1      30.787  24.479  23.247  1.00  0.00     0.018 A 
ATOM     16  C   UNL A   1      30.709  24.405  25.679  1.00  0.00     0.018 A 
BRANCH  12  17
ATOM     17  N   UNL A   1      31.869  21.189  24.371  1.00  0.00    -0.217 N 
ATOM     18  C   UNL A   1      32.374  19.179  23.692  1.00  0.00     0.151 A 
ATOM     19  N   UNL A   1      32.372  19.209  25.065  1.00  0.00    -0.126 NA
ATOM     20  C   UNL A   1      32.110  20.453  23.215  1.00  0.00     0.073 A 
ATOM     21  N   UNL A   1      32.189  20.462  25.458  1.00  0.00    -0.061 NA
ATOM     22  C   UNL A   1      32.148  21.062  21.860  1.00  0.00     0.069 C 
BRANCH  18  23
ATOM     23  C   UNL A   1      32.701  17.963  22.960  1.00  0.00     0.181 C 
ATOM     24  C   UNL A   1      33.689  17.000  23.573  1.00  0.00     0.095 C 
ATOM     25  O   UNL A   1      32.156  17.683  21.892  1.00  0.00    -0.293 OA
ENDBRANCH  18  23
ENDBRANCH  12  17
ENDBRANCH   9  11
ENDBRANCH   8   9
ENDBRANCH   7   8
ENDBRANCH   6   7
ENDBRANCH   5   6
ENDBRANCH   4   5
ENDBRANCH   3   4
ENDBRANCH   2   3
ENDBRANCH   1   2
BRANCH   1  26
ATOM     26  C   UNL A   1      36.835  23.516  23.782  1.00  0.00     0.188 C 
BRANCH  26  27
ATOM     27  O   UNL A   1      37.483  23.198  25.008  1.00  0.00    -0.376 OA
BRANCH  27  28
ATOM     28  C   UNL A   1      37.677  21.860  25.436  1.00  0.00     0.202 C 
BRANCH  28  29
ATOM     29  C   UNL A   1      38.963  21.542  26.189  1.00  0.00     0.261 C 
BRANCH  29  30
ATOM     30  O   UNL A   1      39.982  22.494  25.977  1.00  0.00    -0.460 OA
BRANCH  30  31
ATOM     31  C   UNL A   1      40.668  22.843  27.073  1.00  0.00     0.338 C 
ATOM     32  O   UNL A   1      40.863  22.162  28.080  1.00  0.00    -0.246 OA
BRANCH  31  33
ATOM     33  C   UNL A   1      41.061  24.236  26.930  1.00  0.00     0.060 A 
ATOM     34  C   UNL A   1      42.238  24.612  27.573  1.00  0.00     0.016 A 
ATOM     35  C   UNL A   1      40.080  25.156  26.521  1.00  0.00     0.016 A 
ATOM     36  C   UNL A   1      42.295  25.885  28.077  1.00  0.00     0.010 A 
ATOM     37  C   UNL A   1      40.126  26.414  27.048  1.00  0.00     0.010 A 
ATOM     38  C   UNL A   1      41.182  26.713  27.901  1.00  0.00    -0.014 A 
BRANCH  38  39
ATOM     39  C   UNL A   1      41.168  27.966  28.605  1.00  0.00     0.031 A 
ATOM     40  C   UNL A   1      42.219  28.873  28.119  1.00  0.00     0.074 A 
ATOM     41  C   UNL A   1      40.234  28.242  29.531  1.00  0.00     0.049 A 
ATOM     42  N   UNL A   1      43.305  29.206  28.733  1.00  0.00    -0.248 NA
ATOM     43  C   UNL A   1      42.176  29.264  26.701  1.00  0.00     0.031 C 
ATOM     44  C   UNL A   1      39.012  27.488  29.836  1.00  0.00     0.029 A 
ATOM     45  N   UNL A   1      40.110  29.353  30.298  1.00  0.00    -0.354 N 
ATOM     46  C   UNL A   1      43.938  30.083  27.863  1.00  0.00     0.074 A 
ATOM     47  C   UNL A   1      43.353  29.872  26.566  1.00  0.00     0.031 C 
ATOM     48  C   UNL A   1      38.163  28.291  30.517  1.00  0.00     0.029 A 
ATOM     49  C   UNL A   1      38.829  29.551  30.795  1.00  0.00     0.049 A 
ATOM     50  H   UNL A   1      40.860  29.963  30.485  1.00  0.00     0.167 HD
ATOM     51  C   UNL A   1      44.640  31.141  28.341  1.00  0.00     0.034 A 
ATOM     52  C   UNL A   1      38.343  30.716  31.291  1.00  0.00     0.034 A 
ATOM     53  C   UNL A   1      44.983  30.966  29.730  1.00  0.00     0.049 A 
ATOM     54  C   UNL A   1      39.507  31.565  31.642  1.00  0.00     0.074 A 
ATOM     55  C   UNL A   1      45.670  30.007  30.448  1.00  0.00     0.029 A 
ATOM     56  N   UNL A   1      44.236  31.668  30.645  1.00  0.00    -0.354 N 
ATOM     57  N   UNL A   1      40.341  31.281  32.603  1.00  0.00    -0.248 NA
ATOM     58  C   UNL A   1      40.005  32.492  30.637  1.00  0.00     0.031 C 
ATOM     59  C   UNL A   1      44.961  29.888  31.678  1.00  0.00     0.029 A 
ATOM     60  C   UNL A   1      43.922  30.821  31.675  1.00  0.00     0.049 A 
ATOM     61  H   UNL A   1      43.972  32.614  30.574  1.00  0.00     0.167 HD
ATOM     62  C   UNL A   1      41.589  31.607  32.084  1.00  0.00     0.074 A 
ATOM     63  C   UNL A   1      41.309  32.454  30.927  1.00  0.00     0.031 C 
ATOM     64  C   UNL A   1      42.707  30.916  32.456  1.00  0.00     0.034 A 
BRANCH  51  65
ATOM     65  C   UNL A   1      44.657  32.492  27.674  1.00  0.00     0.023 A 
ATOM     66  C   UNL A   1      45.777  32.806  26.880  1.00  0.00     0.012 A 
ATOM     67  C   UNL A   1      43.775  33.554  27.991  1.00  0.00     0.148 A 
ATOM     68  C   UNL A   1      46.022  34.115  26.452  1.00  0.00     0.002 A 
ATOM     69  C   UNL A   1      43.969  34.830  27.482  1.00  0.00     0.091 A 
ATOM     70  F   UNL A   1      42.817  33.388  28.908  1.00  0.00    -0.205 F 
ATOM     71  C   UNL A   1      45.111  35.124  26.738  1.00  0.00     0.022 A 
BRANCH  69  72
ATOM     72  S   UNL A   1      42.777  36.142  27.774  1.00  0.00     0.127 S 
ATOM     73  O   UNL A   1      43.004  36.435  29.185  1.00  0.00    -0.237 OA
ATOM     74  O   UNL A   1      43.235  37.173  26.842  1.00  0.00    -0.237 OA
ATOM     75  O   UNL A   1      41.478  35.571  27.435  1.00  0.00    -0.744 OA
ENDBRANCH  69  72
ENDBRANCH  51  65
BRANCH  52  76
ATOM     76  C   UNL A   1      36.972  31.271  31.205  1.00  0.00     0.023 A 
ATOM     77  C   UNL A   1      36.343  31.751  32.371  1.00  0.00     0.012 A 
ATOM     78  C   UNL A   1      36.392  31.593  29.957  1.00  0.00     0.148 A 
ATOM     79  C   UNL A   1      35.197  32.552  32.297  1.00  0.00     0.002 A 
ATOM     80  C   UNL A   1      35.247  32.380  29.888  1.00  0.00     0.091 A 
ATOM     81  F   UNL A   1      37.016  31.209  28.835  1.00  0.00    -0.205 F 
ATOM     82  C   UNL A   1      34.654  32.873  31.056  1.00  0.00     0.022 A 
BRANCH  80  83
ATOM     83  S   UNL A   1      34.507  32.854  28.319  1.00  0.00     0.127 S 
ATOM     84  O   UNL A   1      34.093  31.559  27.777  1.00  0.00    -0.237 OA
ATOM     85  O   UNL A   1      33.411  33.716  28.752  1.00  0.00    -0.237 OA
ATOM     86  O   UNL A   1      35.565  33.510  27.561  1.00  0.00    -0.744 OA
ENDBRANCH  80  83
ENDBRANCH  52  76
BRANCH  64  87
ATOM     87  C   UNL A   1      42.598  29.977  33.634  1.00  0.00     0.023 A 
ATOM     88  C   UNL A   1      42.029  28.689  33.529  1.00  0.00     0.012 A 
ATOM     89  C   UNL A   1      43.240  30.337  34.830  1.00  0.00     0.148 A 
ATOM     90  C   UNL A   1      42.078  27.794  34.602  1.00  0.00     0.002 A 
ATOM     91  C   UNL A   1      43.331  29.429  35.876  1.00  0.00     0.091 A 
ATOM     92  F   UNL A   1      43.780  31.563  34.913  1.00  0.00    -0.205 F 
ATOM     93  C   UNL A   1      42.742  28.159  35.771  1.00  0.00     0.022 A 
BRANCH  91  94
ATOM     94  S   UNL A   1      44.284  29.793  37.350  1.00  0.00     0.127 S 
ATOM     95  O   UNL A   1      43.399  30.707  38.069  1.00  0.00    -0.237 OA
ATOM     96  O   UNL A   1      44.431  28.473  37.965  1.00  0.00    -0.237 OA
ATOM     97  O   UNL A   1      45.539  30.371  36.882  1.00  0.00    -0.744 OA
ENDBRANCH  91  94
ENDBRANCH  64  87
ENDBRANCH  38  39
ENDBRANCH  31  33
ENDBRANCH  30  31
ENDBRANCH  29  30
ENDBRANCH  28  29
ENDBRANCH  27  28
ENDBRANCH  26  27
ENDBRANCH   1  26
TORSDOF 25
ENDMDL
MODEL 2
REMARK VINA RESULT:      -9.4      2.502      4.375
REMARK SMILES CC(=O)c1nnn(-c2ccc(C(=O)OCCOCCOCCOCCOC(=O)c3ccc(-c4c5nc(c(-c6cccc(S(=O)(=O)[O-])c6F)c6ccc([nH]6)c(-c6cccc(S(=O)(=O)[O-])c6F)c6nc(c(-c7cccc(S(=O)(=O)[O-])c7F)c7ccc4[nH]7)C=C6)C=C5)cc3)cc2)c1C
REMARK SMILES IDX 21 1 20 2 19 3 18 4 17 5 16 6 15 7 14 8 12 9 13 10 11 11
REMARK SMILES IDX 8 12 9 13 93 14 10 15 92 16 7 17 4 18 5 19 94 20 6 21 95 22
REMARK SMILES IDX 2 23 1 24 3 25 22 26 23 27 24 28 25 29 26 30 27 31 28 32
REMARK SMILES IDX 29 33 30 34 91 35 31 36 90 37 32 38 33 39 34 40 84 41 35 42
REMARK SMILES IDX 89 43 83 44 85 45 36 46 88 47 82 48 81 49 37 51 69 52 49 53
REMARK SMILES IDX 68 54 50 55 53 56 67 57 86 58 51 59 52 60 66 62 87 63 54 64
REMARK SMILES IDX 38 65 39 66 47 67 40 68 42 69 48 70 41 71 43 72 44 73 45 74
REMARK SMILES IDX 46 75 70 76 71 77 79 78 72 79 74 80 80 81 73 82 75 83 76 84
REMARK SMILES IDX 77 85 78 86 55 87 56 88 64 89 57 90 59 91 65 92 58 93 60 94
REMARK SMILES IDX 61 95 62 96 63 97
REMARK H PARENT 85 50 53 61
REMARK Flexibility Score: inf
ROOT
ATOM      1  C   UNL A   1      37.712  20.605  24.899  1.00  0.00     0.188 C 
ENDROOT
BRANCH   1   2
ATOM      2  O   UNL A   1      37.412  21.948  25.278  1.00  0.00    -0.377 OA
BRANCH   2   3
ATOM      3  C   UNL A   1      36.274  22.109  26.106  1.00  0.00     0.188 C 
BRANCH   3   4
ATOM      4  C   UNL A   1      35.074  21.218  25.709  1.00  0.00     0.188 C 
BRANCH   4   5
ATOM      5  O   UNL A   1      33.907  21.741  25.084  1.00  0.00    -0.376 OA
BRANCH   5   6
ATOM      6  C   UNL A   1      33.861  22.077  23.707  1.00  0.00     0.202 C 
BRANCH   6   7
ATOM      7  C   UNL A   1      34.773  23.139  23.076  1.00  0.00     0.261 C 
BRANCH   7   8
ATOM      8  O   UNL A   1      34.214  24.439  22.922  1.00  0.00    -0.460 OA
BRANCH   8   9
ATOM      9  C   UNL A   1      34.002  25.119  24.066  1.00  0.00     0.338 C 
ATOM     10  O   UNL A   1      34.795  25.313  24.974  1.00  0.00    -0.246 OA
BRANCH   9  11
ATOM     11  C   UNL A   1      32.664  25.745  23.997  1.00  0.00     0.060 A 
ATOM     12  C   UNL A   1      30.276  27.086  23.668  1.00  0.00     0.067 A 
ATOM     13  C   UNL A   1      30.648  26.141  22.709  1.00  0.00     0.029 A 
ATOM     14  C   UNL A   1      30.990  27.232  24.865  1.00  0.00     0.029 A 
ATOM     15  C   UNL A   1      31.869  25.492  22.866  1.00  0.00     0.018 A 
ATOM     16  C   UNL A   1      32.191  26.554  25.032  1.00  0.00     0.018 A 
BRANCH  12  17
ATOM     17  N   UNL A   1      29.349  28.083  23.304  1.00  0.00    -0.217 N 
ATOM     18  C   UNL A   1      28.415  29.828  22.388  1.00  0.00     0.151 A 
ATOM     19  N   UNL A   1      27.440  28.989  22.867  1.00  0.00    -0.126 NA
ATOM     20  C   UNL A   1      29.654  29.245  22.602  1.00  0.00     0.073 A 
ATOM     21  N   UNL A   1      28.018  27.879  23.305  1.00  0.00    -0.061 NA
ATOM     22  C   UNL A   1      31.031  29.587  22.162  1.00  0.00     0.069 C 
BRANCH  18  23
ATOM     23  C   UNL A   1      28.079  31.069  21.702  1.00  0.00     0.181 C 
ATOM     24  C   UNL A   1      28.293  32.373  22.432  1.00  0.00     0.095 C 
ATOM     25  O   UNL A   1      27.680  31.077  20.538  1.00  0.00    -0.293 OA
ENDBRANCH  18  23
ENDBRANCH  12  17
ENDBRANCH   9  11
ENDBRANCH   8   9
ENDBRANCH   7   8
ENDBRANCH   6   7
ENDBRANCH   5   6
ENDBRANCH   4   5
ENDBRANCH   3   4
ENDBRANCH   2   3
ENDBRANCH   1   2
BRANCH   1  26
ATOM     26  C   UNL A   1      38.875  19.883  25.630  1.00  0.00     0.188 C 
BRANCH  26  27
ATOM     27  O   UNL A   1      39.487  20.638  26.669  1.00  0.00    -0.376 OA
BRANCH  27  28
ATOM     28  C   UNL A   1      40.893  20.801  26.758  1.00  0.00     0.202 C 
BRANCH  28  29
ATOM     29  C   UNL A   1      41.415  21.943  27.620  1.00  0.00     0.261 C 
BRANCH  29  30
ATOM     30  O   UNL A   1      41.256  23.211  27.021  1.00  0.00    -0.460 OA
BRANCH  30  31
ATOM     31  C   UNL A   1      42.185  23.527  26.110  1.00  0.00     0.338 C 
ATOM     32  O   UNL A   1      42.853  22.753  25.424  1.00  0.00    -0.246 OA
BRANCH  31  33
ATOM     33  C   UNL A   1      42.370  24.970  26.141  1.00  0.00     0.060 A 
ATOM     34  C   UNL A   1      43.497  25.432  26.815  1.00  0.00     0.016 A 
ATOM     35  C   UNL A   1      41.255  25.779  25.860  1.00  0.00     0.016 A 
ATOM     36  C   UNL A   1      43.384  26.627  27.474  1.00  0.00     0.010 A 
ATOM     37  C   UNL A   1      41.134  26.955  26.541  1.00  0.00     0.010 A 
ATOM     38  C   UNL A   1      42.159  27.298  27.415  1.00  0.00    -0.014 A 
BRANCH  38  39
ATOM     39  C   UNL A   1      41.983  28.438  28.272  1.00  0.00     0.031 A 
ATOM     40  C   UNL A   1      42.941  29.509  27.953  1.00  0.00     0.074 A 
ATOM     41  C   UNL A   1      40.996  28.489  29.183  1.00  0.00     0.049 A 
ATOM     42  N   UNL A   1      43.963  29.873  28.652  1.00  0.00    -0.248 NA
ATOM     43  C   UNL A   1      42.897  30.076  26.596  1.00  0.00     0.031 C 
ATOM     44  C   UNL A   1      39.858  27.575  29.334  1.00  0.00     0.029 A 
ATOM     45  N   UNL A   1      40.726  29.470  30.079  1.00  0.00    -0.354 N 
ATOM     46  C   UNL A   1      44.521  30.918  27.930  1.00  0.00     0.074 A 
ATOM     47  C   UNL A   1      44.003  30.820  26.592  1.00  0.00     0.031 C 
ATOM     48  C   UNL A   1      38.904  28.186  30.074  1.00  0.00     0.029 A 
ATOM     49  C   UNL A   1      39.416  29.463  30.540  1.00  0.00     0.049 A 
ATOM     50  H   UNL A   1      41.397  30.127  30.376  1.00  0.00     0.167 HD
ATOM     51  C   UNL A   1      45.086  31.973  28.570  1.00  0.00     0.034 A 
ATOM     52  C   UNL A   1      38.789  30.494  31.159  1.00  0.00     0.034 A 
ATOM     53  C   UNL A   1      45.403  31.655  29.939  1.00  0.00     0.049 A 
ATOM     54  C   UNL A   1      39.840  31.409  31.666  1.00  0.00     0.074 A 
ATOM     55  C   UNL A   1      46.171  30.688  30.558  1.00  0.00     0.029 A 
ATOM     56  N   UNL A   1      44.555  32.146  30.902  1.00  0.00    -0.354 N 
ATOM     57  N   UNL A   1      40.671  31.092  32.619  1.00  0.00    -0.248 NA
ATOM     58  C   UNL A   1      40.261  32.508  30.810  1.00  0.00     0.031 C 
ATOM     59  C   UNL A   1      45.443  30.334  31.730  1.00  0.00     0.029 A 
ATOM     60  C   UNL A   1      44.307  31.142  31.800  1.00  0.00     0.049 A 
ATOM     61  H   UNL A   1      44.190  33.060  30.940  1.00  0.00     0.167 HD
ATOM     62  C   UNL A   1      41.889  31.614  32.202  1.00  0.00     0.074 A 
ATOM     63  C   UNL A   1      41.552  32.571  31.151  1.00  0.00     0.031 C 
ATOM     64  C   UNL A   1      43.066  31.003  32.532  1.00  0.00     0.034 A 
BRANCH  51  65
ATOM     65  C   UNL A   1      44.971  33.394  28.082  1.00  0.00     0.023 A 
ATOM     66  C   UNL A   1      43.679  33.878  27.800  1.00  0.00     0.012 A 
ATOM     67  C   UNL A   1      46.063  34.181  27.641  1.00  0.00     0.148 A 
ATOM     68  C   UNL A   1      43.486  35.066  27.088  1.00  0.00     0.002 A 
ATOM     69  C   UNL A   1      45.866  35.407  27.022  1.00  0.00     0.091 A 
ATOM     70  F   UNL A   1      47.307  33.694  27.676  1.00  0.00    -0.205 F 
ATOM     71  C   UNL A   1      44.577  35.840  26.713  1.00  0.00     0.022 A 
BRANCH  69  72
ATOM     72  S   UNL A   1      47.251  36.465  26.585  1.00  0.00     0.127 S 
ATOM     73  O   UNL A   1      47.870  36.691  27.886  1.00  0.00    -0.237 OA
ATOM     74  O   UNL A   1      48.008  35.602  25.676  1.00  0.00    -0.237 OA
ATOM     75  O   UNL A   1      46.661  37.632  25.939  1.00  0.00    -0.744 OA
ENDBRANCH  69  72
ENDBRANCH  51  65
BRANCH  52  76
ATOM     76  C   UNL A   1      37.368  30.906  31.083  1.00  0.00     0.023 A 
ATOM     77  C   UNL A   1      36.659  31.173  32.271  1.00  0.00     0.012 A 
ATOM     78  C   UNL A   1      36.790  31.311  29.858  1.00  0.00     0.148 A 
ATOM     79  C   UNL A   1      35.433  31.850  32.245  1.00  0.00     0.002 A 
ATOM     80  C   UNL A   1      35.567  31.974  29.836  1.00  0.00     0.091 A 
ATOM     81  F   UNL A   1      37.482  31.134  28.726  1.00  0.00    -0.205 F 
ATOM     82  C   UNL A   1      34.892  32.258  31.029  1.00  0.00     0.022 A 
BRANCH  80  83
ATOM     83  S   UNL A   1      34.822  32.552  28.305  1.00  0.00     0.127 S 
ATOM     84  O   UNL A   1      33.881  33.563  28.790  1.00  0.00    -0.237 OA
ATOM     85  O   UNL A   1      35.978  33.085  27.589  1.00  0.00    -0.237 OA
ATOM     86  O   UNL A   1      34.190  31.385  27.704  1.00  0.00    -0.744 OA
ENDBRANCH  80  83
ENDBRANCH  52  76
BRANCH  64  87
ATOM     87  C   UNL A   1      43.027  29.912  33.575  1.00  0.00     0.023 A 
ATOM     88  C   UNL A   1      42.658  28.583  33.271  1.00  0.00     0.012 A 
ATOM     89  C   UNL A   1      43.539  30.196  34.851  1.00  0.00     0.148 A 
ATOM     90  C   UNL A   1      42.775  27.569  34.226  1.00  0.00     0.002 A 
ATOM     91  C   UNL A   1      43.701  29.178  35.782  1.00  0.00     0.091 A 
ATOM     92  F   UNL A   1      43.890  31.462  35.124  1.00  0.00    -0.205 F 
ATOM     93  C   UNL A   1      43.310  27.864  35.479  1.00  0.00     0.022 A 
BRANCH  91  94
ATOM     94  S   UNL A   1      44.505  29.472  37.358  1.00  0.00     0.127 S 
ATOM     95  O   UNL A   1      43.633  30.475  37.964  1.00  0.00    -0.237 OA
ATOM     96  O   UNL A   1      44.452  28.152  37.990  1.00  0.00    -0.237 OA
ATOM     97  O   UNL A   1      45.855  29.922  37.040  1.00  0.00    -0.744 OA
ENDBRANCH  91  94
ENDBRANCH  64  87
ENDBRANCH  38  39
ENDBRANCH  31  33
ENDBRANCH  30  31
ENDBRANCH  29  30
ENDBRANCH  28  29
ENDBRANCH  27  28
ENDBRANCH  26  27
ENDBRANCH   1  26
TORSDOF 25
ENDMDL
MODEL 3
REMARK VINA RESULT:      -9.2      1.948      2.188
REMARK SMILES CC(=O)c1nnn(-c2ccc(C(=O)OCCOCCOCCOCCOC(=O)c3ccc(-c4c5nc(c(-c6cccc(S(=O)(=O)[O-])c6F)c6ccc([nH]6)c(-c6cccc(S(=O)(=O)[O-])c6F)c6nc(c(-c7cccc(S(=O)(=O)[O-])c7F)c7ccc4[nH]7)C=C6)C=C5)cc3)cc2)c1C
REMARK SMILES IDX 21 1 20 2 19 3 18 4 17 5 16 6 15 7 14 8 12 9 13 10 11 11
REMARK SMILES IDX 8 12 9 13 93 14 10 15 92 16 7 17 4 18 5 19 94 20 6 21 95 22
REMARK SMILES IDX 2 23 1 24 3 25 22 26 23 27 24 28 25 29 26 30 27 31 28 32
REMARK SMILES IDX 29 33 30 34 91 35 31 36 90 37 32 38 33 39 34 40 84 41 35 42
REMARK SMILES IDX 89 43 83 44 85 45 36 46 88 47 82 48 81 49 37 51 69 52 49 53
REMARK SMILES IDX 68 54 50 55 53 56 67 57 86 58 51 59 52 60 66 62 87 63 54 64
REMARK SMILES IDX 38 65 39 66 47 67 40 68 42 69 48 70 41 71 43 72 44 73 45 74
REMARK SMILES IDX 46 75 70 76 71 77 79 78 72 79 74 80 80 81 73 82 75 83 76 84
REMARK SMILES IDX 77 85 78 86 55 87 56 88 64 89 57 90 59 91 65 92 58 93 60 94
REMARK SMILES IDX 61 95 62 96 63 97
REMARK H PARENT 85 50 53 61
REMARK Flexibility Score: inf
ROOT
ATOM      1  C   UNL A   1      35.544  22.433  24.208  1.00  0.00     0.188 C 
ENDROOT
BRANCH   1   2
ATOM      2  O   UNL A   1      34.832  23.325  25.064  1.00  0.00    -0.377 OA
BRANCH   2   3
ATOM      3  C   UNL A   1      34.989  24.704  24.775  1.00  0.00     0.188 C 
BRANCH   3   4
ATOM      4  C   UNL A   1      33.681  25.522  24.877  1.00  0.00     0.188 C 
BRANCH   4   5
ATOM      5  O   UNL A   1      33.659  26.943  24.790  1.00  0.00    -0.376 OA
BRANCH   5   6
ATOM      6  C   UNL A   1      32.561  27.721  25.234  1.00  0.00     0.202 C 
BRANCH   6   7
ATOM      7  C   UNL A   1      31.132  27.169  25.335  1.00  0.00     0.261 C 
BRANCH   7   8
ATOM      8  O   UNL A   1      30.778  26.560  26.572  1.00  0.00    -0.460 OA
BRANCH   8   9
ATOM      9  C   UNL A   1      29.944  25.505  26.482  1.00  0.00     0.338 C 
ATOM     10  O   UNL A   1      28.729  25.505  26.604  1.00  0.00    -0.246 OA
BRANCH   9  11
ATOM     11  C   UNL A   1      30.726  24.325  26.056  1.00  0.00     0.060 A 
ATOM     12  C   UNL A   1      31.937  21.986  25.236  1.00  0.00     0.067 A 
ATOM     13  C   UNL A   1      31.318  22.790  24.275  1.00  0.00     0.029 A 
ATOM     14  C   UNL A   1      32.108  22.426  26.555  1.00  0.00     0.029 A 
ATOM     15  C   UNL A   1      30.683  23.952  24.701  1.00  0.00     0.018 A 
ATOM     16  C   UNL A   1      31.502  23.605  26.968  1.00  0.00     0.018 A 
BRANCH  12  17
ATOM     17  N   UNL A   1      32.135  20.622  24.943  1.00  0.00    -0.217 N 
ATOM     18  C   UNL A   1      32.587  18.755  23.910  1.00  0.00     0.151 A 
ATOM     19  N   UNL A   1      32.646  18.550  25.266  1.00  0.00    -0.126 NA
ATOM     20  C   UNL A   1      32.317  20.093  23.669  1.00  0.00     0.073 A 
ATOM     21  N   UNL A   1      32.495  19.719  25.875  1.00  0.00    -0.061 NA
ATOM     22  C   UNL A   1      32.302  20.924  22.437  1.00  0.00     0.069 C 
BRANCH  18  23
ATOM     23  C   UNL A   1      32.867  17.680  22.967  1.00  0.00     0.181 C 
ATOM     24  C   UNL A   1      33.832  16.596  23.382  1.00  0.00     0.095 C 
ATOM     25  O   UNL A   1      32.302  17.612  21.876  1.00  0.00    -0.293 OA
ENDBRANCH  18  23
ENDBRANCH  12  17
ENDBRANCH   9  11
ENDBRANCH   8   9
ENDBRANCH   7   8
ENDBRANCH   6   7
ENDBRANCH   5   6
ENDBRANCH   4   5
ENDBRANCH   3   4
ENDBRANCH   2   3
ENDBRANCH   1   2
BRANCH   1  26
ATOM     26  C   UNL A   1      37.044  22.724  23.935  1.00  0.00     0.188 C 
BRANCH  26  27
ATOM     27  O   UNL A   1      37.882  22.658  25.083  1.00  0.00    -0.376 OA
BRANCH  27  28
ATOM     28  C   UNL A   1      38.185  21.432  25.729  1.00  0.00     0.202 C 
BRANCH  28  29
ATOM     29  C   UNL A   1      39.604  21.243  26.249  1.00  0.00     0.261 C 
BRANCH  29  30
ATOM     30  O   UNL A   1      40.504  22.223  25.780  1.00  0.00    -0.460 OA
BRANCH  30  31
ATOM     31  C   UNL A   1      41.170  22.884  26.736  1.00  0.00     0.338 C 
ATOM     32  O   UNL A   1      41.915  22.408  27.592  1.00  0.00    -0.246 OA
BRANCH  31  33
ATOM     33  C   UNL A   1      40.772  24.282  26.673  1.00  0.00     0.060 A 
ATOM     34  C   UNL A   1      41.718  25.169  26.166  1.00  0.00     0.016 A 
ATOM     35  C   UNL A   1      39.679  24.688  27.458  1.00  0.00     0.016 A 
ATOM     36  C   UNL A   1      41.738  26.431  26.697  1.00  0.00     0.010 A 
ATOM     37  C   UNL A   1      39.718  25.937  28.007  1.00  0.00     0.010 A 
ATOM     38  C   UNL A   1      40.807  26.741  27.693  1.00  0.00    -0.014 A 
BRANCH  38  39
ATOM     39  C   UNL A   1      40.966  27.990  28.386  1.00  0.00     0.031 A 
ATOM     40  C   UNL A   1      42.154  28.722  27.919  1.00  0.00     0.074 A 
ATOM     41  C   UNL A   1      40.063  28.416  29.286  1.00  0.00     0.049 A 
ATOM     42  N   UNL A   1      43.263  28.895  28.557  1.00  0.00    -0.248 NA
ATOM     43  C   UNL A   1      42.204  29.098  26.497  1.00  0.00     0.031 C 
ATOM     44  C   UNL A   1      38.735  27.859  29.566  1.00  0.00     0.029 A 
ATOM     45  N   UNL A   1      40.091  29.542  30.040  1.00  0.00    -0.354 N 
ATOM     46  C   UNL A   1      44.042  29.655  27.695  1.00  0.00     0.074 A 
ATOM     47  C   UNL A   1      43.463  29.519  26.386  1.00  0.00     0.031 C 
ATOM     48  C   UNL A   1      38.001  28.790  30.219  1.00  0.00     0.029 A 
ATOM     49  C   UNL A   1      38.843  29.938  30.503  1.00  0.00     0.049 A 
ATOM     50  H   UNL A   1      40.920  30.035  30.240  1.00  0.00     0.167 HD
ATOM     51  C   UNL A   1      44.885  30.600  28.182  1.00  0.00     0.034 A 
ATOM     52  C   UNL A   1      38.528  31.169  30.977  1.00  0.00     0.034 A 
ATOM     53  C   UNL A   1      45.164  30.393  29.580  1.00  0.00     0.049 A 
ATOM     54  C   UNL A   1      39.799  31.837  31.349  1.00  0.00     0.074 A 
ATOM     55  C   UNL A   1      45.681  29.350  30.323  1.00  0.00     0.029 A 
ATOM     56  N   UNL A   1      44.511  31.211  30.470  1.00  0.00    -0.354 N 
ATOM     57  N   UNL A   1      40.558  31.442  32.333  1.00  0.00    -0.248 NA
ATOM     58  C   UNL A   1      40.455  32.665  30.349  1.00  0.00     0.031 C 
ATOM     59  C   UNL A   1      44.934  29.355  31.536  1.00  0.00     0.029 A 
ATOM     60  C   UNL A   1      44.048  30.434  31.499  1.00  0.00     0.049 A 
ATOM     61  H   UNL A   1      44.395  32.185  30.384  1.00  0.00     0.167 HD
ATOM     62  C   UNL A   1      41.852  31.568  31.843  1.00  0.00     0.074 A 
ATOM     63  C   UNL A   1      41.731  32.434  30.672  1.00  0.00     0.031 C 
ATOM     64  C   UNL A   1      42.844  30.721  32.249  1.00  0.00     0.034 A 
BRANCH  51  65
ATOM     65  C   UNL A   1      45.122  31.925  27.504  1.00  0.00     0.023 A 
ATOM     66  C   UNL A   1      44.029  32.513  26.836  1.00  0.00     0.012 A 
ATOM     67  C   UNL A   1      46.400  32.487  27.265  1.00  0.00     0.148 A 
ATOM     68  C   UNL A   1      44.206  33.582  25.952  1.00  0.00     0.002 A 
ATOM     69  C   UNL A   1      46.556  33.610  26.465  1.00  0.00     0.091 A 
ATOM     70  F   UNL A   1      47.503  31.862  27.684  1.00  0.00    -0.205 F 
ATOM     71  C   UNL A   1      45.466  34.142  25.779  1.00  0.00     0.022 A 
BRANCH  69  72
ATOM     72  S   UNL A   1      48.158  34.400  26.272  1.00  0.00     0.127 S 
ATOM     73  O   UNL A   1      48.570  34.571  27.660  1.00  0.00    -0.237 OA
ATOM     74  O   UNL A   1      48.901  33.387  25.521  1.00  0.00    -0.237 OA
ATOM     75  O   UNL A   1      47.900  35.623  25.520  1.00  0.00    -0.744 OA
ENDBRANCH  69  72
ENDBRANCH  51  65
BRANCH  52  76
ATOM     76  C   UNL A   1      37.260  31.924  30.851  1.00  0.00     0.023 A 
ATOM     77  C   UNL A   1      36.512  31.829  29.660  1.00  0.00     0.012 A 
ATOM     78  C   UNL A   1      36.640  32.503  31.981  1.00  0.00     0.148 A 
ATOM     79  C   UNL A   1      35.182  32.265  29.606  1.00  0.00     0.002 A 
ATOM     80  C   UNL A   1      35.322  32.944  31.920  1.00  0.00     0.091 A 
ATOM     81  F   UNL A   1      37.308  32.534  33.141  1.00  0.00    -0.205 F 
ATOM     82  C   UNL A   1      34.584  32.814  30.737  1.00  0.00     0.022 A 
BRANCH  80  83
ATOM     83  S   UNL A   1      34.480  33.640  33.349  1.00  0.00     0.127 S 
ATOM     84  O   UNL A   1      34.571  35.077  33.082  1.00  0.00    -0.237 OA
ATOM     85  O   UNL A   1      33.140  33.076  33.212  1.00  0.00    -0.237 OA
ATOM     86  O   UNL A   1      35.238  33.198  34.512  1.00  0.00    -0.744 OA
ENDBRANCH  80  83
ENDBRANCH  52  76
BRANCH  64  87
ATOM     87  C   UNL A   1      42.566  29.824  33.431  1.00  0.00     0.023 A 
ATOM     88  C   UNL A   1      41.792  28.648  33.328  1.00  0.00     0.012 A 
ATOM     89  C   UNL A   1      43.244  30.084  34.633  1.00  0.00     0.148 A 
ATOM     90  C   UNL A   1      41.678  27.767  34.408  1.00  0.00     0.002 A 
ATOM     91  C   UNL A   1      43.171  29.182  35.687  1.00  0.00     0.091 A 
ATOM     92  F   UNL A   1      43.980  31.204  34.715  1.00  0.00    -0.205 F 
ATOM     93  C   UNL A   1      42.380  28.027  35.583  1.00  0.00     0.022 A 
BRANCH  91  94
ATOM     94  S   UNL A   1      44.154  29.397  37.171  1.00  0.00     0.127 S 
ATOM     95  O   UNL A   1      43.446  30.478  37.853  1.00  0.00    -0.237 OA
ATOM     96  O   UNL A   1      44.040  28.088  37.817  1.00  0.00    -0.237 OA
ATOM     97  O   UNL A   1      45.501  29.716  36.716  1.00  0.00    -0.744 OA
ENDBRANCH  91  94
ENDBRANCH  64  87
ENDBRANCH  38  39
ENDBRANCH  31  33
ENDBRANCH  30  31
ENDBRANCH  29  30
ENDBRANCH  28  29
ENDBRANCH  27  28
ENDBRANCH  26  27
ENDBRANCH   1  26
TORSDOF 25
ENDMDL
