MODEL 1
REMARK VINA RESULT:      -7.7      0.000      0.000
REMARK SMILES C[C@@H]1Cc2ccccc2N1c1ccc(F)cc1C(=O)OCCOCCOCCOCCOC(=O)c1ccc(-c2c3nc(c(-c4cccc(S(=O)(=O)[O-])c4F)c4ccc([nH]4)c(-c4cccc(S(=O)(=O)[O-])c4F)c4nc(c(-c5cccc(S(=O)(=O)[O-])c5F)c5ccc2[nH]5)C=C4)C=C3)cc1
REMARK SMILES IDX 27 1 26 2 25 3 24 4 23 5 22 6 21 7 20 8 18 9 19 10 17 11
REMARK SMILES IDX 11 12 12 13 13 14 16 15 14 16 15 17 10 18 1 19 2 20 3 21
REMARK SMILES IDX 4 22 9 23 5 24 8 25 6 26 7 27 28 28 29 29 30 30 31 31 32 32
REMARK SMILES IDX 33 33 34 34 35 35 36 36 97 37 37 38 96 39 38 40 39 41 40 42
REMARK SMILES IDX 90 43 41 44 95 45 89 46 91 47 42 48 94 49 88 50 87 51 43 53
REMARK SMILES IDX 75 54 55 55 74 56 56 57 59 58 73 59 92 60 57 61 58 62 72 64
REMARK SMILES IDX 93 65 60 66 44 67 45 68 53 69 46 70 48 71 54 72 47 73 49 74
REMARK SMILES IDX 50 75 51 76 52 77 76 78 77 79 85 80 78 81 80 82 86 83 79 84
REMARK SMILES IDX 81 85 82 86 83 87 84 88 61 89 62 90 70 91 63 92 65 93 71 94
REMARK SMILES IDX 64 95 66 96 67 97 68 98 69 99
REMARK H PARENT 91 52 59 63
REMARK Flexibility Score: inf
ROOT
ATOM      1  C   UNL A   1      35.766  33.015  30.528  1.00  0.00     0.188 C 
ENDROOT
BRANCH   1   2
ATOM      2  O   UNL A   1      35.584  31.646  30.191  1.00  0.00    -0.377 OA
BRANCH   2   3
ATOM      3  C   UNL A   1      36.677  31.059  29.502  1.00  0.00     0.188 C 
BRANCH   3   4
ATOM      4  C   UNL A   1      37.011  29.606  29.880  1.00  0.00     0.188 C 
BRANCH   4   5
ATOM      5  O   UNL A   1      38.013  29.023  29.051  1.00  0.00    -0.376 OA
BRANCH   5   6
ATOM      6  C   UNL A   1      38.652  27.847  29.531  1.00  0.00     0.202 C 
BRANCH   6   7
ATOM      7  C   UNL A   1      40.050  27.615  28.957  1.00  0.00     0.261 C 
BRANCH   7   8
ATOM      8  O   UNL A   1      40.131  27.855  27.547  1.00  0.00    -0.460 OA
BRANCH   8   9
ATOM      9  C   UNL A   1      40.934  27.065  26.813  1.00  0.00     0.340 C 
ATOM     10  O   UNL A   1      40.570  26.121  26.129  1.00  0.00    -0.246 OA
BRANCH   9  11
ATOM     11  C   UNL A   1      42.326  27.595  26.803  1.00  0.00     0.086 A 
ATOM     12  C   UNL A   1      43.504  26.844  27.046  1.00  0.00     0.056 A 
ATOM     13  C   UNL A   1      44.735  27.540  26.972  1.00  0.00     0.030 A 
ATOM     14  C   UNL A   1      44.799  28.924  26.794  1.00  0.00     0.041 A 
ATOM     15  C   UNL A   1      42.401  28.992  26.618  1.00  0.00     0.057 A 
ATOM     16  C   UNL A   1      43.626  29.639  26.646  1.00  0.00     0.124 A 
ATOM     17  F   UNL A   1      43.673  30.974  26.545  1.00  0.00    -0.207 F 
BRANCH  12  18
ATOM     18  N   UNL A   1      43.519  25.508  27.481  1.00  0.00    -0.337 N 
ATOM     19  C   UNL A   1      43.369  25.652  30.025  1.00  0.00     0.032 C 
ATOM     20  C   UNL A   1      42.826  25.066  28.732  1.00  0.00     0.089 C 
ATOM     21  C   UNL A   1      42.942  23.517  28.785  1.00  0.00     0.063 C 
ATOM     22  C   UNL A   1      43.082  23.195  27.341  1.00  0.00    -0.022 A 
ATOM     23  C   UNL A   1      43.443  24.347  26.641  1.00  0.00     0.045 A 
ATOM     24  C   UNL A   1      42.943  21.964  26.717  1.00  0.00     0.006 A 
ATOM     25  C   UNL A   1      43.677  24.267  25.274  1.00  0.00     0.026 A 
ATOM     26  C   UNL A   1      43.138  21.896  25.339  1.00  0.00     0.000 A 
ATOM     27  C   UNL A   1      43.501  23.043  24.619  1.00  0.00     0.002 A 
ENDBRANCH  12  18
ENDBRANCH   9  11
ENDBRANCH   8   9
ENDBRANCH   7   8
ENDBRANCH   6   7
ENDBRANCH   5   6
ENDBRANCH   4   5
ENDBRANCH   3   4
ENDBRANCH   2   3
ENDBRANCH   1   2
BRANCH   1  28
ATOM     28  C   UNL A   1      34.456  33.833  30.572  1.00  0.00     0.188 C 
BRANCH  28  29
ATOM     29  O   UNL A   1      34.177  34.791  31.593  1.00  0.00    -0.376 OA
BRANCH  29  30
ATOM     30  C   UNL A   1      35.129  35.089  32.595  1.00  0.00     0.202 C 
BRANCH  30  31
ATOM     31  C   UNL A   1      35.019  34.397  33.963  1.00  0.00     0.261 C 
BRANCH  31  32
ATOM     32  O   UNL A   1      35.713  33.154  34.102  1.00  0.00    -0.460 OA
BRANCH  32  33
ATOM     33  C   UNL A   1      36.649  33.110  35.079  1.00  0.00     0.338 C 
ATOM     34  O   UNL A   1      36.519  33.460  36.240  1.00  0.00    -0.246 OA
BRANCH  33  35
ATOM     35  C   UNL A   1      37.841  32.415  34.545  1.00  0.00     0.060 A 
ATOM     36  C   UNL A   1      37.745  31.586  33.424  1.00  0.00     0.016 A 
ATOM     37  C   UNL A   1      39.070  32.590  35.194  1.00  0.00     0.016 A 
ATOM     38  C   UNL A   1      38.891  30.959  32.932  1.00  0.00     0.010 A 
ATOM     39  C   UNL A   1      40.210  31.942  34.717  1.00  0.00     0.010 A 
ATOM     40  C   UNL A   1      40.132  31.149  33.565  1.00  0.00    -0.014 A 
BRANCH  40  41
ATOM     41  C   UNL A   1      41.375  30.719  32.886  1.00  0.00     0.031 A 
ATOM     42  C   UNL A   1      42.026  31.523  31.807  1.00  0.00     0.074 A 
ATOM     43  C   UNL A   1      41.889  29.527  33.248  1.00  0.00     0.049 A 
ATOM     44  N   UNL A   1      43.168  31.305  31.211  1.00  0.00    -0.248 NA
ATOM     45  C   UNL A   1      41.307  32.711  31.323  1.00  0.00     0.031 C 
ATOM     46  C   UNL A   1      41.288  28.625  34.235  1.00  0.00     0.029 A 
ATOM     47  N   UNL A   1      43.014  28.867  32.831  1.00  0.00    -0.354 N 
ATOM     48  C   UNL A   1      43.307  32.312  30.269  1.00  0.00     0.074 A 
ATOM     49  C   UNL A   1      42.124  33.144  30.368  1.00  0.00     0.031 C 
ATOM     50  C   UNL A   1      42.058  27.535  34.357  1.00  0.00     0.029 A 
ATOM     51  C   UNL A   1      43.201  27.659  33.457  1.00  0.00     0.049 A 
ATOM     52  H   UNL A   1      43.628  29.224  32.149  1.00  0.00     0.167 HD
ATOM     53  C   UNL A   1      44.337  32.525  29.416  1.00  0.00     0.034 A 
ATOM     54  C   UNL A   1      44.191  26.755  33.341  1.00  0.00     0.034 A 
ATOM     55  C   UNL A   1      45.517  31.701  29.342  1.00  0.00     0.049 A 
ATOM     56  C   UNL A   1      45.341  27.039  32.424  1.00  0.00     0.074 A 
ATOM     57  C   UNL A   1      46.662  31.908  28.593  1.00  0.00     0.029 A 
ATOM     58  N   UNL A   1      45.693  30.503  30.017  1.00  0.00    -0.354 N 
ATOM     59  N   UNL A   1      45.549  28.097  31.678  1.00  0.00    -0.248 NA
ATOM     60  C   UNL A   1      46.405  26.030  32.352  1.00  0.00     0.031 C 
ATOM     61  C   UNL A   1      47.522  30.825  28.798  1.00  0.00     0.029 A 
ATOM     62  C   UNL A   1      46.918  29.948  29.686  1.00  0.00     0.049 A 
ATOM     63  H   UNL A   1      45.044  30.103  30.640  1.00  0.00     0.167 HD
ATOM     64  C   UNL A   1      46.774  27.891  31.060  1.00  0.00     0.074 A 
ATOM     65  C   UNL A   1      47.269  26.611  31.528  1.00  0.00     0.031 C 
ATOM     66  C   UNL A   1      47.420  28.689  30.176  1.00  0.00     0.034 A 
BRANCH  53  67
ATOM     67  C   UNL A   1      44.282  33.731  28.519  1.00  0.00     0.023 A 
ATOM     68  C   UNL A   1      43.801  33.584  27.203  1.00  0.00     0.012 A 
ATOM     69  C   UNL A   1      44.582  35.016  29.011  1.00  0.00     0.148 A 
ATOM     70  C   UNL A   1      43.625  34.698  26.385  1.00  0.00     0.002 A 
ATOM     71  C   UNL A   1      44.380  36.125  28.197  1.00  0.00     0.091 A 
ATOM     72  F   UNL A   1      45.049  35.128  30.262  1.00  0.00    -0.205 F 
ATOM     73  C   UNL A   1      43.904  35.967  26.885  1.00  0.00     0.022 A 
BRANCH  71  74
ATOM     74  S   UNL A   1      44.657  37.808  28.759  1.00  0.00     0.127 S 
ATOM     75  O   UNL A   1      46.119  37.864  28.802  1.00  0.00    -0.237 OA
ATOM     76  O   UNL A   1      44.049  38.595  27.685  1.00  0.00    -0.237 OA
ATOM     77  O   UNL A   1      43.992  37.919  30.049  1.00  0.00    -0.744 OA
ENDBRANCH  71  74
ENDBRANCH  53  67
BRANCH  54  78
ATOM     78  C   UNL A   1      44.157  25.552  34.211  1.00  0.00     0.023 A 
ATOM     79  C   UNL A   1      43.708  24.333  33.670  1.00  0.00     0.012 A 
ATOM     80  C   UNL A   1      44.692  25.581  35.513  1.00  0.00     0.148 A 
ATOM     81  C   UNL A   1      43.796  23.157  34.413  1.00  0.00     0.002 A 
ATOM     82  C   UNL A   1      44.810  24.399  36.233  1.00  0.00     0.091 A 
ATOM     83  F   UNL A   1      45.124  26.757  35.992  1.00  0.00    -0.205 F 
ATOM     84  C   UNL A   1      44.357  23.188  35.688  1.00  0.00     0.022 A 
BRANCH  82  85
ATOM     85  S   UNL A   1      45.614  24.315  37.836  1.00  0.00     0.127 S 
ATOM     86  O   UNL A   1      44.703  25.100  38.668  1.00  0.00    -0.237 OA
ATOM     87  O   UNL A   1      45.602  22.876  38.098  1.00  0.00    -0.237 OA
ATOM     88  O   UNL A   1      46.937  24.894  37.651  1.00  0.00    -0.744 OA
ENDBRANCH  82  85
ENDBRANCH  54  78
BRANCH  66  89
ATOM     89  C   UNL A   1      48.740  28.217  29.633  1.00  0.00     0.023 A 
ATOM     90  C   UNL A   1      49.932  28.666  30.233  1.00  0.00     0.012 A 
ATOM     91  C   UNL A   1      48.797  27.242  28.619  1.00  0.00     0.148 A 
ATOM     92  C   UNL A   1      51.164  28.155  29.828  1.00  0.00     0.002 A 
ATOM     93  C   UNL A   1      50.025  26.711  28.243  1.00  0.00     0.091 A 
ATOM     94  F   UNL A   1      47.648  26.838  28.057  1.00  0.00    -0.205 F 
ATOM     95  C   UNL A   1      51.210  27.170  28.843  1.00  0.00     0.022 A 
BRANCH  93  96
ATOM     96  S   UNL A   1      50.183  25.386  27.040  1.00  0.00     0.127 S 
ATOM     97  O   UNL A   1      51.633  25.198  26.992  1.00  0.00    -0.237 OA
ATOM     98  O   UNL A   1      49.447  24.297  27.683  1.00  0.00    -0.237 OA
ATOM     99  O   UNL A   1      49.583  25.883  25.809  1.00  0.00    -0.744 OA
ENDBRANCH  93  96
ENDBRANCH  66  89
ENDBRANCH  40  41
ENDBRANCH  33  35
ENDBRANCH  32  33
ENDBRANCH  31  32
ENDBRANCH  30  31
ENDBRANCH  29  30
ENDBRANCH  28  29
ENDBRANCH   1  28
TORSDOF 24
ENDMDL
MODEL 2
REMARK VINA RESULT:      -7.6      5.143      7.623
REMARK SMILES C[C@@H]1Cc2ccccc2N1c1ccc(F)cc1C(=O)OCCOCCOCCOCCOC(=O)c1ccc(-c2c3nc(c(-c4cccc(S(=O)(=O)[O-])c4F)c4ccc([nH]4)c(-c4cccc(S(=O)(=O)[O-])c4F)c4nc(c(-c5cccc(S(=O)(=O)[O-])c5F)c5ccc2[nH]5)C=C4)C=C3)cc1
REMARK SMILES IDX 27 1 26 2 25 3 24 4 23 5 22 6 21 7 20 8 18 9 19 10 17 11
REMARK SMILES IDX 11 12 12 13 13 14 16 15 14 16 15 17 10 18 1 19 2 20 3 21
REMARK SMILES IDX 4 22 9 23 5 24 8 25 6 26 7 27 28 28 29 29 30 30 31 31 32 32
REMARK SMILES IDX 33 33 34 34 35 35 36 36 97 37 37 38 96 39 38 40 39 41 40 42
REMARK SMILES IDX 90 43 41 44 95 45 89 46 91 47 42 48 94 49 88 50 87 51 43 53
REMARK SMILES IDX 75 54 55 55 74 56 56 57 59 58 73 59 92 60 57 61 58 62 72 64
REMARK SMILES IDX 93 65 60 66 44 67 45 68 53 69 46 70 48 71 54 72 47 73 49 74
REMARK SMILES IDX 50 75 51 76 52 77 76 78 77 79 85 80 78 81 80 82 86 83 79 84
REMARK SMILES IDX 81 85 82 86 83 87 84 88 61 89 62 90 70 91 63 92 65 93 71 94
REMARK SMILES IDX 64 95 66 96 67 97 68 98 69 99
REMARK H PARENT 91 52 59 63
REMARK Flexibility Score: inf
ROOT
ATOM      1  C   UNL A   1      35.181  34.008  28.739  1.00  0.00     0.188 C 
ENDROOT
BRANCH   1   2
ATOM      2  O   UNL A   1      34.958  33.187  27.600  1.00  0.00    -0.377 OA
BRANCH   2   3
ATOM      3  C   UNL A   1      34.452  31.895  27.895  1.00  0.00     0.188 C 
BRANCH   3   4
ATOM      4  C   UNL A   1      32.985  31.641  27.510  1.00  0.00     0.188 C 
BRANCH   4   5
ATOM      5  O   UNL A   1      32.665  30.257  27.385  1.00  0.00    -0.376 OA
BRANCH   5   6
ATOM      6  C   UNL A   1      33.751  29.346  27.281  1.00  0.00     0.202 C 
BRANCH   6   7
ATOM      7  C   UNL A   1      33.649  28.381  26.099  1.00  0.00     0.261 C 
BRANCH   7   8
ATOM      8  O   UNL A   1      33.224  27.066  26.476  1.00  0.00    -0.460 OA
BRANCH   8   9
ATOM      9  C   UNL A   1      31.906  26.804  26.492  1.00  0.00     0.340 C 
ATOM     10  O   UNL A   1      31.074  27.379  27.177  1.00  0.00    -0.246 OA
BRANCH   9  11
ATOM     11  C   UNL A   1      31.553  25.820  25.430  1.00  0.00     0.086 A 
ATOM     12  C   UNL A   1      31.319  26.119  24.064  1.00  0.00     0.056 A 
ATOM     13  C   UNL A   1      31.012  25.030  23.212  1.00  0.00     0.030 A 
ATOM     14  C   UNL A   1      30.820  23.735  23.699  1.00  0.00     0.041 A 
ATOM     15  C   UNL A   1      31.363  24.508  25.912  1.00  0.00     0.057 A 
ATOM     16  C   UNL A   1      30.972  23.494  25.051  1.00  0.00     0.124 A 
ATOM     17  F   UNL A   1      30.722  22.271  25.538  1.00  0.00    -0.207 F 
BRANCH  12  18
ATOM     18  N   UNL A   1      31.241  27.419  23.538  1.00  0.00    -0.337 N 
ATOM     19  C   UNL A   1      33.659  28.060  23.029  1.00  0.00     0.032 C 
ATOM     20  C   UNL A   1      32.226  27.938  22.537  1.00  0.00     0.089 C 
ATOM     21  C   UNL A   1      31.718  29.337  22.091  1.00  0.00     0.063 C 
ATOM     22  C   UNL A   1      30.260  29.203  22.346  1.00  0.00    -0.022 A 
ATOM     23  C   UNL A   1      30.036  28.121  23.200  1.00  0.00     0.045 A 
ATOM     24  C   UNL A   1      29.229  30.011  21.890  1.00  0.00     0.006 A 
ATOM     25  C   UNL A   1      28.740  27.839  23.614  1.00  0.00     0.026 A 
ATOM     26  C   UNL A   1      27.926  29.699  22.275  1.00  0.00     0.000 A 
ATOM     27  C   UNL A   1      27.682  28.616  23.131  1.00  0.00     0.002 A 
ENDBRANCH  12  18
ENDBRANCH   9  11
ENDBRANCH   8   9
ENDBRANCH   7   8
ENDBRANCH   6   7
ENDBRANCH   5   6
ENDBRANCH   4   5
ENDBRANCH   3   4
ENDBRANCH   2   3
ENDBRANCH   1   2
BRANCH   1  28
ATOM     28  C   UNL A   1      33.893  34.603  29.350  1.00  0.00     0.188 C 
BRANCH  28  29
ATOM     29  O   UNL A   1      33.560  34.471  30.732  1.00  0.00    -0.376 OA
BRANCH  29  30
ATOM     30  C   UNL A   1      34.564  34.276  31.709  1.00  0.00     0.202 C 
BRANCH  30  31
ATOM     31  C   UNL A   1      34.954  32.843  32.108  1.00  0.00     0.261 C 
BRANCH  31  32
ATOM     32  O   UNL A   1      36.185  32.350  31.573  1.00  0.00    -0.460 OA
BRANCH  32  33
ATOM     33  C   UNL A   1      37.286  32.579  32.328  1.00  0.00     0.338 C 
ATOM     34  O   UNL A   1      37.329  33.099  33.430  1.00  0.00    -0.246 OA
BRANCH  33  35
ATOM     35  C   UNL A   1      38.445  31.950  31.656  1.00  0.00     0.060 A 
ATOM     36  C   UNL A   1      38.416  31.675  30.286  1.00  0.00     0.016 A 
ATOM     37  C   UNL A   1      39.570  31.617  32.422  1.00  0.00     0.016 A 
ATOM     38  C   UNL A   1      39.533  31.099  29.677  1.00  0.00     0.010 A 
ATOM     39  C   UNL A   1      40.674  31.017  31.818  1.00  0.00     0.010 A 
ATOM     40  C   UNL A   1      40.673  30.784  30.436  1.00  0.00    -0.014 A 
BRANCH  40  41
ATOM     41  C   UNL A   1      41.939  30.441  29.750  1.00  0.00     0.031 A 
ATOM     42  C   UNL A   1      42.926  31.476  29.312  1.00  0.00     0.074 A 
ATOM     43  C   UNL A   1      42.158  29.139  29.485  1.00  0.00     0.049 A 
ATOM     44  N   UNL A   1      44.114  31.295  28.798  1.00  0.00    -0.248 NA
ATOM     45  C   UNL A   1      42.535  32.886  29.454  1.00  0.00     0.031 C 
ATOM     46  C   UNL A   1      41.221  28.056  29.798  1.00  0.00     0.029 A 
ATOM     47  N   UNL A   1      43.217  28.506  28.890  1.00  0.00    -0.354 N 
ATOM     48  C   UNL A   1      44.614  32.561  28.535  1.00  0.00     0.074 A 
ATOM     49  C   UNL A   1      43.594  33.507  28.943  1.00  0.00     0.031 C 
ATOM     50  C   UNL A   1      41.754  26.890  29.405  1.00  0.00     0.029 A 
ATOM     51  C   UNL A   1      43.063  27.144  28.810  1.00  0.00     0.049 A 
ATOM     52  H   UNL A   1      44.010  28.981  28.553  1.00  0.00     0.167 HD
ATOM     53  C   UNL A   1      45.819  32.894  28.016  1.00  0.00     0.034 A 
ATOM     54  C   UNL A   1      43.889  26.194  28.332  1.00  0.00     0.034 A 
ATOM     55  C   UNL A   1      46.832  31.944  27.633  1.00  0.00     0.049 A 
ATOM     56  C   UNL A   1      45.235  26.589  27.807  1.00  0.00     0.074 A 
ATOM     57  C   UNL A   1      48.126  32.193  27.210  1.00  0.00     0.029 A 
ATOM     58  N   UNL A   1      46.659  30.568  27.599  1.00  0.00    -0.354 N 
ATOM     59  N   UNL A   1      45.769  27.784  27.744  1.00  0.00    -0.248 NA
ATOM     60  C   UNL A   1      46.105  25.511  27.319  1.00  0.00     0.031 C 
ATOM     61  C   UNL A   1      48.729  30.971  26.899  1.00  0.00     0.029 A 
ATOM     62  C   UNL A   1      47.815  29.957  27.142  1.00  0.00     0.049 A 
ATOM     63  H   UNL A   1      45.837  30.095  27.860  1.00  0.00     0.167 HD
ATOM     64  C   UNL A   1      47.043  27.603  27.224  1.00  0.00     0.074 A 
ATOM     65  C   UNL A   1      47.207  26.181  27.002  1.00  0.00     0.031 C 
ATOM     66  C   UNL A   1      47.984  28.539  26.948  1.00  0.00     0.034 A 
BRANCH  53  67
ATOM     67  C   UNL A   1      46.156  34.353  27.877  1.00  0.00     0.023 A 
ATOM     68  C   UNL A   1      45.810  35.026  26.688  1.00  0.00     0.012 A 
ATOM     69  C   UNL A   1      46.693  35.081  28.957  1.00  0.00     0.148 A 
ATOM     70  C   UNL A   1      45.999  36.401  26.572  1.00  0.00     0.002 A 
ATOM     71  C   UNL A   1      46.855  36.457  28.843  1.00  0.00     0.091 A 
ATOM     72  F   UNL A   1      47.025  34.416  30.073  1.00  0.00    -0.205 F 
ATOM     73  C   UNL A   1      46.512  37.117  27.651  1.00  0.00     0.022 A 
BRANCH  71  74
ATOM     74  S   UNL A   1      47.457  37.482  30.189  1.00  0.00     0.127 S 
ATOM     75  O   UNL A   1      47.569  38.786  29.535  1.00  0.00    -0.237 OA
ATOM     76  O   UNL A   1      46.370  37.380  31.163  1.00  0.00    -0.237 OA
ATOM     77  O   UNL A   1      48.717  36.890  30.615  1.00  0.00    -0.744 OA
ENDBRANCH  71  74
ENDBRANCH  53  67
BRANCH  54  78
ATOM     78  C   UNL A   1      43.472  24.773  28.442  1.00  0.00     0.023 A 
ATOM     79  C   UNL A   1      43.792  24.059  29.612  1.00  0.00     0.012 A 
ATOM     80  C   UNL A   1      42.651  24.178  27.466  1.00  0.00     0.148 A 
ATOM     81  C   UNL A   1      43.296  22.772  29.811  1.00  0.00     0.002 A 
ATOM     82  C   UNL A   1      42.131  22.910  27.687  1.00  0.00     0.091 A 
ATOM     83  F   UNL A   1      42.354  24.891  26.370  1.00  0.00    -0.205 F 
ATOM     84  C   UNL A   1      42.457  22.202  28.855  1.00  0.00     0.022 A 
BRANCH  82  85
ATOM     85  S   UNL A   1      40.959  22.132  26.571  1.00  0.00     0.127 S 
ATOM     86  O   UNL A   1      41.783  21.901  25.386  1.00  0.00    -0.237 OA
ATOM     87  O   UNL A   1      40.597  20.926  27.315  1.00  0.00    -0.237 OA
ATOM     88  O   UNL A   1      39.878  23.092  26.396  1.00  0.00    -0.744 OA
ENDBRANCH  82  85
ENDBRANCH  54  78
BRANCH  66  89
ATOM     89  C   UNL A   1      49.289  28.075  26.363  1.00  0.00     0.023 A 
ATOM     90  C   UNL A   1      49.411  27.949  24.966  1.00  0.00     0.012 A 
ATOM     91  C   UNL A   1      50.420  27.887  27.180  1.00  0.00     0.148 A 
ATOM     92  C   UNL A   1      50.640  27.636  24.389  1.00  0.00     0.002 A 
ATOM     93  C   UNL A   1      51.650  27.608  26.597  1.00  0.00     0.091 A 
ATOM     94  F   UNL A   1      50.275  28.003  28.507  1.00  0.00    -0.205 F 
ATOM     95  C   UNL A   1      51.761  27.478  25.202  1.00  0.00     0.022 A 
BRANCH  93  96
ATOM     96  S   UNL A   1      53.166  27.463  27.550  1.00  0.00     0.127 S 
ATOM     97  O   UNL A   1      54.186  27.575  26.507  1.00  0.00    -0.237 OA
ATOM     98  O   UNL A   1      53.079  28.616  28.445  1.00  0.00    -0.237 OA
ATOM     99  O   UNL A   1      53.103  26.169  28.216  1.00  0.00    -0.744 OA
ENDBRANCH  93  96
ENDBRANCH  66  89
ENDBRANCH  40  41
ENDBRANCH  33  35
ENDBRANCH  32  33
ENDBRANCH  31  32
ENDBRANCH  30  31
ENDBRANCH  29  30
ENDBRANCH  28  29
ENDBRANCH   1  28
TORSDOF 24
ENDMDL
MODEL 3
REMARK VINA RESULT:      -7.4      5.588     11.992
REMARK SMILES C[C@@H]1Cc2ccccc2N1c1ccc(F)cc1C(=O)OCCOCCOCCOCCOC(=O)c1ccc(-c2c3nc(c(-c4cccc(S(=O)(=O)[O-])c4F)c4ccc([nH]4)c(-c4cccc(S(=O)(=O)[O-])c4F)c4nc(c(-c5cccc(S(=O)(=O)[O-])c5F)c5ccc2[nH]5)C=C4)C=C3)cc1
REMARK SMILES IDX 27 1 26 2 25 3 24 4 23 5 22 6 21 7 20 8 18 9 19 10 17 11
REMARK SMILES IDX 11 12 12 13 13 14 16 15 14 16 15 17 10 18 1 19 2 20 3 21
REMARK SMILES IDX 4 22 9 23 5 24 8 25 6 26 7 27 28 28 29 29 30 30 31 31 32 32
REMARK SMILES IDX 33 33 34 34 35 35 36 36 97 37 37 38 96 39 38 40 39 41 40 42
REMARK SMILES IDX 90 43 41 44 95 45 89 46 91 47 42 48 94 49 88 50 87 51 43 53
REMARK SMILES IDX 75 54 55 55 74 56 56 57 59 58 73 59 92 60 57 61 58 62 72 64
REMARK SMILES IDX 93 65 60 66 44 67 45 68 53 69 46 70 48 71 54 72 47 73 49 74
REMARK SMILES IDX 50 75 51 76 52 77 76 78 77 79 85 80 78 81 80 82 86 83 79 84
REMARK SMILES IDX 81 85 82 86 83 87 84 88 61 89 62 90 70 91 63 92 65 93 71 94
REMARK SMILES IDX 64 95 66 96 67 97 68 98 69 99
REMARK H PARENT 91 52 59 63
REMARK Flexibility Score: inf
ROOT
ATOM      1  C   UNL A   1      41.960  19.579  26.768  1.00  0.00     0.188 C 
ENDROOT
BRANCH   1   2
ATOM      2  O   UNL A   1      41.543  20.634  27.625  1.00  0.00    -0.377 OA
BRANCH   2   3
ATOM      3  C   UNL A   1      40.563  21.495  27.067  1.00  0.00     0.188 C 
BRANCH   3   4
ATOM      4  C   UNL A   1      39.570  20.843  26.089  1.00  0.00     0.188 C 
BRANCH   4   5
ATOM      5  O   UNL A   1      38.555  21.736  25.636  1.00  0.00    -0.376 OA
BRANCH   5   6
ATOM      6  C   UNL A   1      38.540  23.042  26.199  1.00  0.00     0.202 C 
BRANCH   6   7
ATOM      7  C   UNL A   1      37.201  23.766  26.062  1.00  0.00     0.261 C 
BRANCH   7   8
ATOM      8  O   UNL A   1      36.097  22.881  25.839  1.00  0.00    -0.460 OA
BRANCH   8   9
ATOM      9  C   UNL A   1      35.547  22.848  24.613  1.00  0.00     0.340 C 
ATOM     10  O   UNL A   1      35.963  23.441  23.630  1.00  0.00    -0.246 OA
BRANCH   9  11
ATOM     11  C   UNL A   1      34.446  21.845  24.559  1.00  0.00     0.086 A 
ATOM     12  C   UNL A   1      33.059  22.134  24.512  1.00  0.00     0.056 A 
ATOM     13  C   UNL A   1      32.175  21.030  24.447  1.00  0.00     0.030 A 
ATOM     14  C   UNL A   1      32.622  19.711  24.550  1.00  0.00     0.041 A 
ATOM     15  C   UNL A   1      34.889  20.509  24.657  1.00  0.00     0.057 A 
ATOM     16  C   UNL A   1      33.976  19.466  24.682  1.00  0.00     0.124 A 
ATOM     17  F   UNL A   1      34.408  18.211  24.852  1.00  0.00    -0.207 F 
BRANCH  12  18
ATOM     18  N   UNL A   1      32.510  23.419  24.659  1.00  0.00    -0.337 N 
ATOM     19  C   UNL A   1      31.788  23.541  27.104  1.00  0.00     0.032 C 
ATOM     20  C   UNL A   1      32.560  24.168  25.954  1.00  0.00     0.089 C 
ATOM     21  C   UNL A   1      31.995  25.588  25.674  1.00  0.00     0.063 C 
ATOM     22  C   UNL A   1      32.287  25.727  24.224  1.00  0.00    -0.022 A 
ATOM     23  C   UNL A   1      32.541  24.467  23.679  1.00  0.00     0.045 A 
ATOM     24  C   UNL A   1      32.278  26.879  23.452  1.00  0.00     0.006 A 
ATOM     25  C   UNL A   1      32.792  24.353  22.317  1.00  0.00     0.026 A 
ATOM     26  C   UNL A   1      32.571  26.765  22.093  1.00  0.00     0.000 A 
ATOM     27  C   UNL A   1      32.829  25.509  21.528  1.00  0.00     0.002 A 
ENDBRANCH  12  18
ENDBRANCH   9  11
ENDBRANCH   8   9
ENDBRANCH   7   8
ENDBRANCH   6   7
ENDBRANCH   5   6
ENDBRANCH   4   5
ENDBRANCH   3   4
ENDBRANCH   2   3
ENDBRANCH   1   2
BRANCH   1  28
ATOM     28  C   UNL A   1      43.120  19.957  25.820  1.00  0.00     0.188 C 
BRANCH  28  29
ATOM     29  O   UNL A   1      43.840  18.990  25.056  1.00  0.00    -0.376 OA
BRANCH  29  30
ATOM     30  C   UNL A   1      45.047  19.328  24.400  1.00  0.00     0.202 C 
BRANCH  30  31
ATOM     31  C   UNL A   1      45.952  20.412  25.008  1.00  0.00     0.261 C 
BRANCH  31  32
ATOM     32  O   UNL A   1      46.244  21.535  24.172  1.00  0.00    -0.460 OA
BRANCH  32  33
ATOM     33  C   UNL A   1      45.207  22.373  23.932  1.00  0.00     0.338 C 
ATOM     34  O   UNL A   1      44.277  22.193  23.163  1.00  0.00    -0.246 OA
BRANCH  33  35
ATOM     35  C   UNL A   1      45.298  23.505  24.880  1.00  0.00     0.060 A 
ATOM     36  C   UNL A   1      44.189  24.317  25.135  1.00  0.00     0.016 A 
ATOM     37  C   UNL A   1      46.523  23.762  25.508  1.00  0.00     0.016 A 
ATOM     38  C   UNL A   1      44.301  25.366  26.049  1.00  0.00     0.010 A 
ATOM     39  C   UNL A   1      46.641  24.827  26.401  1.00  0.00     0.010 A 
ATOM     40  C   UNL A   1      45.521  25.615  26.700  1.00  0.00    -0.014 A 
BRANCH  40  41
ATOM     41  C   UNL A   1      45.561  26.533  27.860  1.00  0.00     0.031 A 
ATOM     42  C   UNL A   1      45.368  26.065  29.267  1.00  0.00     0.074 A 
ATOM     43  C   UNL A   1      45.732  27.843  27.598  1.00  0.00     0.049 A 
ATOM     44  N   UNL A   1      45.484  26.753  30.373  1.00  0.00    -0.248 NA
ATOM     45  C   UNL A   1      44.988  24.659  29.466  1.00  0.00     0.031 C 
ATOM     46  C   UNL A   1      45.850  28.416  26.254  1.00  0.00     0.029 A 
ATOM     47  N   UNL A   1      45.829  28.924  28.433  1.00  0.00    -0.354 N 
ATOM     48  C   UNL A   1      45.176  25.878  31.403  1.00  0.00     0.074 A 
ATOM     49  C   UNL A   1      44.861  24.603  30.788  1.00  0.00     0.031 C 
ATOM     50  C   UNL A   1      46.016  29.741  26.357  1.00  0.00     0.029 A 
ATOM     51  C   UNL A   1      46.013  30.111  27.769  1.00  0.00     0.049 A 
ATOM     52  H   UNL A   1      45.771  28.856  29.414  1.00  0.00     0.167 HD
ATOM     53  C   UNL A   1      45.174  26.120  32.734  1.00  0.00     0.034 A 
ATOM     54  C   UNL A   1      46.183  31.362  28.238  1.00  0.00     0.034 A 
ATOM     55  C   UNL A   1      45.508  27.387  33.333  1.00  0.00     0.049 A 
ATOM     56  C   UNL A   1      46.223  31.591  29.718  1.00  0.00     0.074 A 
ATOM     57  C   UNL A   1      45.648  27.691  34.676  1.00  0.00     0.029 A 
ATOM     58  N   UNL A   1      45.727  28.564  32.632  1.00  0.00    -0.354 N 
ATOM     59  N   UNL A   1      46.120  30.712  30.684  1.00  0.00    -0.248 NA
ATOM     60  C   UNL A   1      46.433  32.971  30.175  1.00  0.00     0.031 C 
ATOM     61  C   UNL A   1      45.930  29.056  34.789  1.00  0.00     0.029 A 
ATOM     62  C   UNL A   1      45.980  29.601  33.515  1.00  0.00     0.049 A 
ATOM     63  H   UNL A   1      45.706  28.651  31.653  1.00  0.00     0.167 HD
ATOM     64  C   UNL A   1      46.268  31.427  31.864  1.00  0.00     0.074 A 
ATOM     65  C   UNL A   1      46.482  32.811  31.492  1.00  0.00     0.031 C 
ATOM     66  C   UNL A   1      46.220  30.971  33.140  1.00  0.00     0.034 A 
BRANCH  53  67
ATOM     67  C   UNL A   1      44.857  24.982  33.665  1.00  0.00     0.023 A 
ATOM     68  C   UNL A   1      43.516  24.744  34.024  1.00  0.00     0.012 A 
ATOM     69  C   UNL A   1      45.858  24.080  34.078  1.00  0.00     0.148 A 
ATOM     70  C   UNL A   1      43.173  23.629  34.787  1.00  0.00     0.002 A 
ATOM     71  C   UNL A   1      45.505  22.957  34.817  1.00  0.00     0.091 A 
ATOM     72  F   UNL A   1      47.128  24.334  33.732  1.00  0.00    -0.205 F 
ATOM     73  C   UNL A   1      44.165  22.732  35.174  1.00  0.00     0.022 A 
BRANCH  71  74
ATOM     74  S   UNL A   1      46.696  21.710  35.321  1.00  0.00     0.127 S 
ATOM     75  O   UNL A   1      46.441  21.629  36.760  1.00  0.00    -0.237 OA
ATOM     76  O   UNL A   1      46.258  20.541  34.558  1.00  0.00    -0.237 OA
ATOM     77  O   UNL A   1      48.004  22.228  34.950  1.00  0.00    -0.744 OA
ENDBRANCH  71  74
ENDBRANCH  53  67
BRANCH  54  78
ATOM     78  C   UNL A   1      46.431  32.455  27.264  1.00  0.00     0.023 A 
ATOM     79  C   UNL A   1      45.337  33.198  26.782  1.00  0.00     0.012 A 
ATOM     80  C   UNL A   1      47.741  32.847  26.928  1.00  0.00     0.148 A 
ATOM     81  C   UNL A   1      45.544  34.319  25.979  1.00  0.00     0.002 A 
ATOM     82  C   UNL A   1      47.941  33.986  26.159  1.00  0.00     0.091 A 
ATOM     83  F   UNL A   1      48.760  32.125  27.417  1.00  0.00    -0.205 F 
ATOM     84  C   UNL A   1      46.845  34.719  25.678  1.00  0.00     0.022 A 
BRANCH  82  85
ATOM     85  S   UNL A   1      49.573  34.644  25.806  1.00  0.00     0.127 S 
ATOM     86  O   UNL A   1      49.810  35.496  26.970  1.00  0.00    -0.237 OA
ATOM     87  O   UNL A   1      50.380  33.425  25.760  1.00  0.00    -0.237 OA
ATOM     88  O   UNL A   1      49.454  35.348  24.537  1.00  0.00    -0.744 OA
ENDBRANCH  82  85
ENDBRANCH  54  78
BRANCH  66  89
ATOM     89  C   UNL A   1      46.392  31.969  34.252  1.00  0.00     0.023 A 
ATOM     90  C   UNL A   1      45.252  32.566  34.823  1.00  0.00     0.012 A 
ATOM     91  C   UNL A   1      47.661  32.218  34.809  1.00  0.00     0.148 A 
ATOM     92  C   UNL A   1      45.373  33.403  35.931  1.00  0.00     0.002 A 
ATOM     93  C   UNL A   1      47.771  33.026  35.934  1.00  0.00     0.091 A 
ATOM     94  F   UNL A   1      48.731  31.644  34.240  1.00  0.00    -0.205 F 
ATOM     95  C   UNL A   1      46.629  33.623  36.494  1.00  0.00     0.022 A 
BRANCH  93  96
ATOM     96  S   UNL A   1      49.332  33.308  36.777  1.00  0.00     0.127 S 
ATOM     97  O   UNL A   1      48.990  34.410  37.676  1.00  0.00    -0.237 OA
ATOM     98  O   UNL A   1      49.559  32.026  37.442  1.00  0.00    -0.237 OA
ATOM     99  O   UNL A   1      50.300  33.635  35.738  1.00  0.00    -0.744 OA
ENDBRANCH  93  96
ENDBRANCH  66  89
ENDBRANCH  40  41
ENDBRANCH  33  35
ENDBRANCH  32  33
ENDBRANCH  31  32
ENDBRANCH  30  31
ENDBRANCH  29  30
ENDBRANCH  28  29
ENDBRANCH   1  28
TORSDOF 24
ENDMDL
