MODEL 1
REMARK VINA RESULT:     -10.5      0.000      0.000
REMARK SMILES COC(=O)C1CN(C(=O)NC(=O)CCCC(=O)OCCOCCOCCOCCOC(=O)c2ccc(-c3c4nc(c(-c5cccc(S(=O)(=O)[O-])c5F)c5ccc([nH]5)c(-c5cccc(S(=O)(=O)[O-])c5F)c5nc(c(-c6cccc(S(=O)(=O)[O-])c6F)c6ccc3[nH]6)C=C5)C=C4)cc2)C[C@H]1C
REMARK SMILES IDX 22 1 21 2 20 3 19 4 18 5 16 6 17 7 15 8 14 9 13 10 11 11
REMARK SMILES IDX 8 12 9 13 10 14 12 16 7 17 5 18 6 19 97 20 96 21 98 22 3 23
REMARK SMILES IDX 4 24 2 25 1 26 23 27 24 28 25 29 26 30 27 31 28 32 29 33
REMARK SMILES IDX 30 34 31 35 32 36 33 37 34 38 95 39 35 40 94 41 36 42 37 43
REMARK SMILES IDX 38 44 88 45 39 46 93 47 87 48 89 49 40 50 92 51 86 52 85 53
REMARK SMILES IDX 41 55 73 56 53 57 72 58 54 59 57 60 71 61 90 62 55 63 56 64
REMARK SMILES IDX 70 66 91 67 58 68 42 69 43 70 51 71 44 72 46 73 52 74 45 75
REMARK SMILES IDX 47 76 48 77 49 78 50 79 74 80 75 81 83 82 76 83 78 84 84 85
REMARK SMILES IDX 77 86 79 87 80 88 81 89 82 90 59 91 60 92 68 93 61 94 63 95
REMARK SMILES IDX 69 96 62 97 64 98 65 99 66 100 67 101
REMARK H PARENT 10 15 89 54 57 65
REMARK Flexibility Score: inf
ROOT
ATOM      1  C   UNL A   1      41.884  19.958  27.365  1.00  0.00     0.188 C 
ENDROOT
BRANCH   1   2
ATOM      2  O   UNL A   1      40.570  20.822  27.152  1.00  0.00    -0.376 OA
BRANCH   2   3
ATOM      3  C   UNL A   1      40.006  21.916  26.174  1.00  0.00     0.202 C 
BRANCH   3   4
ATOM      4  C   UNL A   1      38.374  22.569  26.213  1.00  0.00     0.261 C 
BRANCH   4   5
ATOM      5  O   UNL A   1      37.126  21.437  25.686  1.00  0.00    -0.463 OA
BRANCH   5   6
ATOM      6  C   UNL A   1      35.252  21.180  25.635  1.00  0.00     0.305 C 
ATOM      7  O   UNL A   1      34.645  20.206  25.133  1.00  0.00    -0.252 OA
BRANCH   6   8
ATOM      8  C   UNL A   1      34.079  22.261  25.965  1.00  0.00     0.123 C 
BRANCH   8   9
ATOM      9  C   UNL A   1      34.146  23.747  25.612  1.00  0.00     0.022 C 
BRANCH   9  10
ATOM     10  C   UNL A   1      35.196  24.191  24.602  1.00  0.00     0.101 C 
BRANCH  10  11
ATOM     11  C   UNL A   1      35.163  23.480  23.278  1.00  0.00     0.228 C 
ATOM     12  C   UNL A   1      33.168  24.316  22.031  1.00  0.00     0.324 C 
ATOM     13  O   UNL A   1      33.152  24.435  20.803  1.00  0.00    -0.248 OA
ATOM     14  N   UNL A   1      33.976  23.355  22.581  1.00  0.00    -0.278 N 
ATOM     15  H   UNL A   1      33.660  22.431  22.462  1.00  0.00     0.174 HD
ATOM     16  O   UNL A   1      36.198  22.978  22.833  1.00  0.00    -0.275 OA
BRANCH  12  17
ATOM     17  N   UNL A   1      32.515  25.232  22.813  1.00  0.00    -0.323 N 
ATOM     18  C   UNL A   1      31.219  27.860  24.189  1.00  0.00     0.123 C 
ATOM     19  C   UNL A   1      32.742  27.121  23.036  1.00  0.00     0.137 C 
ATOM     20  C   UNL A   1      30.091  26.118  24.687  1.00  0.00     0.021 C 
ATOM     21  C   UNL A   1      31.022  24.559  23.782  1.00  0.00     0.125 C 
ATOM     22  C   UNL A   1      29.577  25.336  26.025  1.00  0.00     0.010 C 
BRANCH  18  23
ATOM     23  C   UNL A   1      30.917  29.726  24.704  1.00  0.00     0.310 C 
ATOM     24  O   UNL A   1      30.093  30.440  24.118  1.00  0.00    -0.252 OA
BRANCH  23  25
ATOM     25  O   UNL A   1      31.664  30.560  25.630  1.00  0.00    -0.469 OA
ATOM     26  C   UNL A   1      32.525  30.697  26.965  1.00  0.00     0.282 C 
ENDBRANCH  23  25
ENDBRANCH  18  23
ENDBRANCH  12  17
ENDBRANCH  10  11
ENDBRANCH   9  10
ENDBRANCH   8   9
ENDBRANCH   6   8
ENDBRANCH   5   6
ENDBRANCH   4   5
ENDBRANCH   3   4
ENDBRANCH   2   3
ENDBRANCH   1   2
BRANCH   1  27
ATOM     27  C   UNL A   1      42.586  18.395  26.627  1.00  0.00     0.188 C 
BRANCH  27  28
ATOM     28  O   UNL A   1      43.772  18.191  25.492  1.00  0.00    -0.377 OA
BRANCH  28  29
ATOM     29  C   UNL A   1      44.829  19.050  24.620  1.00  0.00     0.188 C 
BRANCH  29  30
ATOM     30  C   UNL A   1      46.264  19.859  24.835  1.00  0.00     0.188 C 
BRANCH  30  31
ATOM     31  O   UNL A   1      46.711  21.185  24.573  1.00  0.00    -0.376 OA
BRANCH  31  32
ATOM     32  C   UNL A   1      46.170  22.483  24.763  1.00  0.00     0.202 C 
BRANCH  32  33
ATOM     33  C   UNL A   1      45.710  22.917  26.158  1.00  0.00     0.261 C 
BRANCH  33  34
ATOM     34  O   UNL A   1      44.419  22.411  26.446  1.00  0.00    -0.460 OA
BRANCH  34  35
ATOM     35  C   UNL A   1      43.467  23.062  25.739  1.00  0.00     0.338 C 
ATOM     36  O   UNL A   1      42.861  22.648  24.767  1.00  0.00    -0.246 OA
BRANCH  35  37
ATOM     37  C   UNL A   1      43.097  24.247  26.520  1.00  0.00     0.060 A 
ATOM     38  C   UNL A   1      42.942  25.447  25.819  1.00  0.00     0.016 A 
ATOM     39  C   UNL A   1      42.855  24.168  27.897  1.00  0.00     0.016 A 
ATOM     40  C   UNL A   1      42.670  26.612  26.518  1.00  0.00     0.010 A 
ATOM     41  C   UNL A   1      42.584  25.334  28.599  1.00  0.00     0.010 A 
ATOM     42  C   UNL A   1      42.583  26.561  27.914  1.00  0.00    -0.014 A 
BRANCH  42  43
ATOM     43  C   UNL A   1      42.911  27.784  28.668  1.00  0.00     0.031 A 
ATOM     44  C   UNL A   1      41.746  28.586  29.184  1.00  0.00     0.074 A 
ATOM     45  C   UNL A   1      44.178  28.162  28.888  1.00  0.00     0.049 A 
ATOM     46  N   UNL A   1      41.743  29.707  29.849  1.00  0.00    -0.248 NA
ATOM     47  C   UNL A   1      40.399  28.048  28.907  1.00  0.00     0.031 C 
ATOM     48  C   UNL A   1      45.370  27.447  28.442  1.00  0.00     0.029 A 
ATOM     49  N   UNL A   1      44.662  29.272  29.527  1.00  0.00    -0.354 N 
ATOM     50  C   UNL A   1      40.404  30.018  30.044  1.00  0.00     0.074 A 
ATOM     51  C   UNL A   1      39.618  28.979  29.426  1.00  0.00     0.031 C 
ATOM     52  C   UNL A   1      46.456  28.161  28.789  1.00  0.00     0.029 A 
ATOM     53  C   UNL A   1      46.027  29.389  29.458  1.00  0.00     0.049 A 
ATOM     54  H   UNL A   1      44.086  29.923  29.991  1.00  0.00     0.167 HD
ATOM     55  C   UNL A   1      39.871  31.078  30.690  1.00  0.00     0.034 A 
ATOM     56  C   UNL A   1      46.825  30.396  29.864  1.00  0.00     0.034 A 
ATOM     57  C   UNL A   1      40.658  32.108  31.302  1.00  0.00     0.049 A 
ATOM     58  C   UNL A   1      46.204  31.585  30.553  1.00  0.00     0.074 A 
ATOM     59  C   UNL A   1      40.225  33.207  32.017  1.00  0.00     0.029 A 
ATOM     60  N   UNL A   1      42.041  32.173  31.249  1.00  0.00    -0.354 N 
ATOM     61  N   UNL A   1      44.944  31.810  30.843  1.00  0.00    -0.248 NA
ATOM     62  C   UNL A   1      47.118  32.646  31.001  1.00  0.00     0.031 C 
ATOM     63  C   UNL A   1      41.349  33.962  32.366  1.00  0.00     0.029 A 
ATOM     64  C   UNL A   1      42.481  33.308  31.902  1.00  0.00     0.049 A 
ATOM     65  H   UNL A   1      42.622  31.511  30.811  1.00  0.00     0.167 HD
ATOM     66  C   UNL A   1      44.919  33.015  31.537  1.00  0.00     0.074 A 
ATOM     67  C   UNL A   1      46.292  33.462  31.640  1.00  0.00     0.031 C 
ATOM     68  C   UNL A   1      43.859  33.700  32.036  1.00  0.00     0.034 A 
BRANCH  55  69
ATOM     69  C   UNL A   1      38.374  31.173  30.754  1.00  0.00     0.023 A 
ATOM     70  C   UNL A   1      37.665  30.489  31.762  1.00  0.00     0.012 A 
ATOM     71  C   UNL A   1      37.673  31.969  29.828  1.00  0.00     0.148 A 
ATOM     72  C   UNL A   1      36.276  30.577  31.833  1.00  0.00     0.002 A 
ATOM     73  C   UNL A   1      36.294  32.090  29.936  1.00  0.00     0.091 A 
ATOM     74  F   UNL A   1      38.365  32.579  28.857  1.00  0.00    -0.205 F 
ATOM     75  C   UNL A   1      35.592  31.387  30.929  1.00  0.00     0.022 A 
BRANCH  73  76
ATOM     76  S   UNL A   1      35.335  33.167  28.867  1.00  0.00     0.127 S 
ATOM     77  O   UNL A   1      35.473  32.499  27.574  1.00  0.00    -0.237 OA
ATOM     78  O   UNL A   1      34.002  33.076  29.461  1.00  0.00    -0.237 OA
ATOM     79  O   UNL A   1      35.955  34.481  28.957  1.00  0.00    -0.744 OA
ENDBRANCH  73  76
ENDBRANCH  55  69
BRANCH  56  80
ATOM     80  C   UNL A   1      48.294  30.325  29.635  1.00  0.00     0.023 A 
ATOM     81  C   UNL A   1      49.139  29.828  30.645  1.00  0.00     0.012 A 
ATOM     82  C   UNL A   1      48.857  30.750  28.416  1.00  0.00     0.148 A 
ATOM     83  C   UNL A   1      50.523  29.792  30.459  1.00  0.00     0.002 A 
ATOM     84  C   UNL A   1      50.228  30.656  28.215  1.00  0.00     0.091 A 
ATOM     85  F   UNL A   1      48.036  31.235  27.473  1.00  0.00    -0.205 F 
ATOM     86  C   UNL A   1      51.065  30.197  29.243  1.00  0.00     0.022 A 
BRANCH  84  87
ATOM     87  S   UNL A   1      50.993  31.031  26.635  1.00  0.00     0.127 S 
ATOM     88  O   UNL A   1      52.410  30.839  26.935  1.00  0.00    -0.237 OA
ATOM     89  O   UNL A   1      50.400  30.015  25.765  1.00  0.00    -0.237 OA
ATOM     90  O   UNL A   1      50.591  32.395  26.319  1.00  0.00    -0.744 OA
ENDBRANCH  84  87
ENDBRANCH  56  80
BRANCH  68  91
ATOM     91  C   UNL A   1      44.136  34.979  32.779  1.00  0.00     0.023 A 
ATOM     92  C   UNL A   1      44.379  34.951  34.165  1.00  0.00     0.012 A 
ATOM     93  C   UNL A   1      44.253  36.197  32.078  1.00  0.00     0.148 A 
ATOM     94  C   UNL A   1      44.700  36.122  34.850  1.00  0.00     0.002 A 
ATOM     95  C   UNL A   1      44.626  37.349  32.757  1.00  0.00     0.091 A 
ATOM     96  F   UNL A   1      44.005  36.202  30.760  1.00  0.00    -0.205 F 
ATOM     97  C   UNL A   1      44.837  37.317  34.145  1.00  0.00     0.022 A 
BRANCH  95  98
ATOM     98  S   UNL A   1      44.930  38.906  31.914  1.00  0.00     0.127 S 
ATOM     99  O   UNL A   1      45.976  38.529  30.964  1.00  0.00    -0.237 OA
ATOM    100  O   UNL A   1      43.629  39.191  31.310  1.00  0.00    -0.237 OA
ATOM    101  O   UNL A   1      45.336  39.849  32.948  1.00  0.00    -0.744 OA
ENDBRANCH  95  98
ENDBRANCH  68  91
ENDBRANCH  42  43
ENDBRANCH  35  37
ENDBRANCH  34  35
ENDBRANCH  33  34
ENDBRANCH  32  33
ENDBRANCH  31  32
ENDBRANCH  30  31
ENDBRANCH  29  30
ENDBRANCH  28  29
ENDBRANCH  27  28
ENDBRANCH   1  27
TORSDOF 29
ENDMDL
MODEL 2
REMARK VINA RESULT:      -9.7      4.320      8.356
REMARK SMILES COC(=O)C1CN(C(=O)NC(=O)CCCC(=O)OCCOCCOCCOCCOC(=O)c2ccc(-c3c4nc(c(-c5cccc(S(=O)(=O)[O-])c5F)c5ccc([nH]5)c(-c5cccc(S(=O)(=O)[O-])c5F)c5nc(c(-c6cccc(S(=O)(=O)[O-])c6F)c6ccc3[nH]6)C=C5)C=C4)cc2)C[C@H]1C
REMARK SMILES IDX 22 1 21 2 20 3 19 4 18 5 16 6 17 7 15 8 14 9 13 10 11 11
REMARK SMILES IDX 8 12 9 13 10 14 12 16 7 17 5 18 6 19 97 20 96 21 98 22 3 23
REMARK SMILES IDX 4 24 2 25 1 26 23 27 24 28 25 29 26 30 27 31 28 32 29 33
REMARK SMILES IDX 30 34 31 35 32 36 33 37 34 38 95 39 35 40 94 41 36 42 37 43
REMARK SMILES IDX 38 44 88 45 39 46 93 47 87 48 89 49 40 50 92 51 86 52 85 53
REMARK SMILES IDX 41 55 73 56 53 57 72 58 54 59 57 60 71 61 90 62 55 63 56 64
REMARK SMILES IDX 70 66 91 67 58 68 42 69 43 70 51 71 44 72 46 73 52 74 45 75
REMARK SMILES IDX 47 76 48 77 49 78 50 79 74 80 75 81 83 82 76 83 78 84 84 85
REMARK SMILES IDX 77 86 79 87 80 88 81 89 82 90 59 91 60 92 68 93 61 94 63 95
REMARK SMILES IDX 69 96 62 97 64 98 65 99 66 100 67 101
REMARK H PARENT 10 15 89 54 57 65
REMARK Flexibility Score: inf
ROOT
ATOM      1  C   UNL A   1      38.333  28.009  30.488  1.00  0.00     0.188 C 
ENDROOT
BRANCH   1   2
ATOM      2  O   UNL A   1      37.064  28.960  30.458  1.00  0.00    -0.376 OA
BRANCH   2   3
ATOM      3  C   UNL A   1      36.249  29.831  29.433  1.00  0.00     0.202 C 
BRANCH   3   4
ATOM      4  C   UNL A   1      36.334  29.684  27.683  1.00  0.00     0.261 C 
BRANCH   4   5
ATOM      5  O   UNL A   1      34.788  29.332  26.907  1.00  0.00    -0.463 OA
BRANCH   5   6
ATOM      6  C   UNL A   1      33.941  28.131  25.715  1.00  0.00     0.305 C 
ATOM      7  O   UNL A   1      34.061  28.108  24.469  1.00  0.00    -0.252 OA
BRANCH   6   8
ATOM      8  C   UNL A   1      32.712  27.108  26.023  1.00  0.00     0.123 C 
BRANCH   8   9
ATOM      9  C   UNL A   1      31.296  27.261  25.467  1.00  0.00     0.022 C 
BRANCH   9  10
ATOM     10  C   UNL A   1      30.932  26.465  24.221  1.00  0.00     0.101 C 
BRANCH  10  11
ATOM     11  C   UNL A   1      31.324  27.093  22.913  1.00  0.00     0.228 C 
ATOM     12  C   UNL A   1      33.016  25.600  21.844  1.00  0.00     0.324 C 
ATOM     13  O   UNL A   1      33.098  25.457  20.621  1.00  0.00    -0.248 OA
ATOM     14  N   UNL A   1      32.539  26.790  22.328  1.00  0.00    -0.278 N 
ATOM     15  H   UNL A   1      33.160  27.549  22.248  1.00  0.00     0.174 HD
ATOM     16  O   UNL A   1      30.567  27.909  22.381  1.00  0.00    -0.275 OA
BRANCH  12  17
ATOM     17  N   UNL A   1      33.243  24.534  22.672  1.00  0.00    -0.323 N 
ATOM     18  C   UNL A   1      33.429  21.652  24.137  1.00  0.00     0.123 C 
ATOM     19  C   UNL A   1      32.356  22.846  22.866  1.00  0.00     0.137 C 
ATOM     20  C   UNL A   1      35.050  22.906  24.736  1.00  0.00     0.021 C 
ATOM     21  C   UNL A   1      34.796  24.668  23.766  1.00  0.00     0.125 C 
ATOM     22  C   UNL A   1      35.696  23.492  26.116  1.00  0.00     0.010 C 
BRANCH  18  23
ATOM     23  C   UNL A   1      33.020  19.811  24.666  1.00  0.00     0.310 C 
ATOM     24  O   UNL A   1      31.886  19.473  25.030  1.00  0.00    -0.252 OA
BRANCH  23  25
ATOM     25  O   UNL A   1      33.920  18.692  24.885  1.00  0.00    -0.469 OA
ATOM     26  C   UNL A   1      34.823  17.520  24.291  1.00  0.00     0.282 C 
ENDBRANCH  23  25
ENDBRANCH  18  23
ENDBRANCH  12  17
ENDBRANCH  10  11
ENDBRANCH   9  10
ENDBRANCH   8   9
ENDBRANCH   6   8
ENDBRANCH   5   6
ENDBRANCH   4   5
ENDBRANCH   3   4
ENDBRANCH   2   3
ENDBRANCH   1   2
BRANCH   1  27
ATOM     27  C   UNL A   1      40.179  28.252  30.610  1.00  0.00     0.188 C 
BRANCH  27  28
ATOM     28  O   UNL A   1      41.413  27.440  29.865  1.00  0.00    -0.377 OA
BRANCH  28  29
ATOM     29  C   UNL A   1      41.689  26.477  28.595  1.00  0.00     0.188 C 
BRANCH  29  30
ATOM     30  C   UNL A   1      41.224  24.985  28.033  1.00  0.00     0.188 C 
BRANCH  30  31
ATOM     31  O   UNL A   1      41.895  23.750  27.806  1.00  0.00    -0.376 OA
BRANCH  31  32
ATOM     32  C   UNL A   1      41.709  22.654  26.924  1.00  0.00     0.202 C 
BRANCH  32  33
ATOM     33  C   UNL A   1      42.891  22.127  26.106  1.00  0.00     0.261 C 
BRANCH  33  34
ATOM     34  O   UNL A   1      42.844  22.614  24.776  1.00  0.00    -0.460 OA
BRANCH  34  35
ATOM     35  C   UNL A   1      44.086  22.810  24.280  1.00  0.00     0.338 C 
ATOM     36  O   UNL A   1      44.556  22.334  23.262  1.00  0.00    -0.246 OA
BRANCH  35  37
ATOM     37  C   UNL A   1      44.674  23.919  25.039  1.00  0.00     0.060 A 
ATOM     38  C   UNL A   1      45.976  23.742  25.518  1.00  0.00     0.016 A 
ATOM     39  C   UNL A   1      43.983  25.122  25.227  1.00  0.00     0.016 A 
ATOM     40  C   UNL A   1      46.550  24.726  26.307  1.00  0.00     0.010 A 
ATOM     41  C   UNL A   1      44.555  26.108  26.019  1.00  0.00     0.010 A 
ATOM     42  C   UNL A   1      45.798  25.863  26.627  1.00  0.00    -0.014 A 
BRANCH  42  43
ATOM     43  C   UNL A   1      46.114  26.563  27.884  1.00  0.00     0.031 A 
ATOM     44  C   UNL A   1      46.880  27.853  27.759  1.00  0.00     0.074 A 
ATOM     45  C   UNL A   1      45.735  26.082  29.077  1.00  0.00     0.049 A 
ATOM     46  N   UNL A   1      47.310  28.654  28.693  1.00  0.00    -0.248 NA
ATOM     47  C   UNL A   1      47.210  28.296  26.390  1.00  0.00     0.031 C 
ATOM     48  C   UNL A   1      44.980  24.853  29.299  1.00  0.00     0.029 A 
ATOM     49  N   UNL A   1      45.969  26.575  30.333  1.00  0.00    -0.354 N 
ATOM     50  C   UNL A   1      47.978  29.674  28.028  1.00  0.00     0.074 A 
ATOM     51  C   UNL A   1      47.908  29.395  26.616  1.00  0.00     0.031 C 
ATOM     52  C   UNL A   1      44.846  24.663  30.624  1.00  0.00     0.029 A 
ATOM     53  C   UNL A   1      45.526  25.747  31.334  1.00  0.00     0.049 A 
ATOM     54  H   UNL A   1      46.413  27.438  30.502  1.00  0.00     0.167 HD
ATOM     55  C   UNL A   1      48.594  30.757  28.549  1.00  0.00     0.034 A 
ATOM     56  C   UNL A   1      45.687  25.848  32.668  1.00  0.00     0.034 A 
ATOM     57  C   UNL A   1      48.660  31.029  29.955  1.00  0.00     0.049 A 
ATOM     58  C   UNL A   1      46.408  27.050  33.225  1.00  0.00     0.074 A 
ATOM     59  C   UNL A   1      49.224  32.116  30.593  1.00  0.00     0.029 A 
ATOM     60  N   UNL A   1      48.164  30.190  30.939  1.00  0.00    -0.354 N 
ATOM     61  N   UNL A   1      46.928  28.073  32.588  1.00  0.00    -0.248 NA
ATOM     62  C   UNL A   1      46.536  27.129  34.687  1.00  0.00     0.031 C 
ATOM     63  C   UNL A   1      49.102  31.915  31.971  1.00  0.00     0.029 A 
ATOM     64  C   UNL A   1      48.426  30.724  32.186  1.00  0.00     0.049 A 
ATOM     65  H   UNL A   1      47.695  29.340  30.775  1.00  0.00     0.167 HD
ATOM     66  C   UNL A   1      47.411  28.931  33.571  1.00  0.00     0.074 A 
ATOM     67  C   UNL A   1      47.103  28.316  34.846  1.00  0.00     0.031 C 
ATOM     68  C   UNL A   1      48.059  30.116  33.437  1.00  0.00     0.034 A 
BRANCH  55  69
ATOM     69  C   UNL A   1      49.247  31.713  27.593  1.00  0.00     0.023 A 
ATOM     70  C   UNL A   1      50.531  31.436  27.084  1.00  0.00     0.012 A 
ATOM     71  C   UNL A   1      48.568  32.875  27.176  1.00  0.00     0.148 A 
ATOM     72  C   UNL A   1      51.141  32.314  26.190  1.00  0.00     0.002 A 
ATOM     73  C   UNL A   1      49.164  33.719  26.249  1.00  0.00     0.091 A 
ATOM     74  F   UNL A   1      47.365  33.135  27.704  1.00  0.00    -0.205 F 
ATOM     75  C   UNL A   1      50.453  33.448  25.763  1.00  0.00     0.022 A 
BRANCH  73  76
ATOM     76  S   UNL A   1      48.328  35.161  25.583  1.00  0.00     0.127 S 
ATOM     77  O   UNL A   1      47.117  34.566  25.019  1.00  0.00    -0.237 OA
ATOM     78  O   UNL A   1      48.110  35.967  26.783  1.00  0.00    -0.237 OA
ATOM     79  O   UNL A   1      49.242  35.746  24.613  1.00  0.00    -0.744 OA
ENDBRANCH  73  76
ENDBRANCH  55  69
BRANCH  56  80
ATOM     80  C   UNL A   1      45.156  24.788  33.568  1.00  0.00     0.023 A 
ATOM     81  C   UNL A   1      43.787  24.766  33.894  1.00  0.00     0.012 A 
ATOM     82  C   UNL A   1      46.006  23.801  34.102  1.00  0.00     0.148 A 
ATOM     83  C   UNL A   1      43.281  23.801  34.769  1.00  0.00     0.002 A 
ATOM     84  C   UNL A   1      45.486  22.810  34.923  1.00  0.00     0.091 A 
ATOM     85  F   UNL A   1      47.310  23.850  33.791  1.00  0.00    -0.205 F 
ATOM     86  C   UNL A   1      44.128  22.819  35.275  1.00  0.00     0.022 A 
BRANCH  84  87
ATOM     87  S   UNL A   1      46.479  21.433  35.511  1.00  0.00     0.127 S 
ATOM     88  O   UNL A   1      45.617  20.862  36.543  1.00  0.00    -0.237 OA
ATOM     89  O   UNL A   1      46.616  20.624  34.301  1.00  0.00    -0.237 OA
ATOM     90  O   UNL A   1      47.726  22.023  35.980  1.00  0.00    -0.744 OA
ENDBRANCH  84  87
ENDBRANCH  56  80
BRANCH  68  91
ATOM     91  C   UNL A   1      48.442  30.852  34.693  1.00  0.00     0.023 A 
ATOM     92  C   UNL A   1      49.718  30.667  35.258  1.00  0.00     0.012 A 
ATOM     93  C   UNL A   1      47.567  31.805  35.253  1.00  0.00     0.148 A 
ATOM     94  C   UNL A   1      50.105  31.393  36.383  1.00  0.00     0.002 A 
ATOM     95  C   UNL A   1      47.979  32.563  36.341  1.00  0.00     0.091 A 
ATOM     96  F   UNL A   1      46.352  31.956  34.706  1.00  0.00    -0.205 F 
ATOM     97  C   UNL A   1      49.243  32.350  36.915  1.00  0.00     0.022 A 
BRANCH  95  98
ATOM     98  S   UNL A   1      46.978  33.889  37.023  1.00  0.00     0.127 S 
ATOM     99  O   UNL A   1      46.697  34.691  35.833  1.00  0.00    -0.237 OA
ATOM    100  O   UNL A   1      45.825  33.164  37.558  1.00  0.00    -0.237 OA
ATOM    101  O   UNL A   1      47.805  34.537  38.033  1.00  0.00    -0.744 OA
ENDBRANCH  95  98
ENDBRANCH  68  91
ENDBRANCH  42  43
ENDBRANCH  35  37
ENDBRANCH  34  35
ENDBRANCH  33  34
ENDBRANCH  32  33
ENDBRANCH  31  32
ENDBRANCH  30  31
ENDBRANCH  29  30
ENDBRANCH  28  29
ENDBRANCH  27  28
ENDBRANCH   1  27
TORSDOF 29
ENDMDL
MODEL 3
REMARK VINA RESULT:      -9.2      3.892      4.315
REMARK SMILES COC(=O)C1CN(C(=O)NC(=O)CCCC(=O)OCCOCCOCCOCCOC(=O)c2ccc(-c3c4nc(c(-c5cccc(S(=O)(=O)[O-])c5F)c5ccc([nH]5)c(-c5cccc(S(=O)(=O)[O-])c5F)c5nc(c(-c6cccc(S(=O)(=O)[O-])c6F)c6ccc3[nH]6)C=C5)C=C4)cc2)C[C@H]1C
REMARK SMILES IDX 22 1 21 2 20 3 19 4 18 5 16 6 17 7 15 8 14 9 13 10 11 11
REMARK SMILES IDX 8 12 9 13 10 14 12 16 7 17 5 18 6 19 97 20 96 21 98 22 3 23
REMARK SMILES IDX 4 24 2 25 1 26 23 27 24 28 25 29 26 30 27 31 28 32 29 33
REMARK SMILES IDX 30 34 31 35 32 36 33 37 34 38 95 39 35 40 94 41 36 42 37 43
REMARK SMILES IDX 38 44 88 45 39 46 93 47 87 48 89 49 40 50 92 51 86 52 85 53
REMARK SMILES IDX 41 55 73 56 53 57 72 58 54 59 57 60 71 61 90 62 55 63 56 64
REMARK SMILES IDX 70 66 91 67 58 68 42 69 43 70 51 71 44 72 46 73 52 74 45 75
REMARK SMILES IDX 47 76 48 77 49 78 50 79 74 80 75 81 83 82 76 83 78 84 84 85
REMARK SMILES IDX 77 86 79 87 80 88 81 89 82 90 59 91 60 92 68 93 61 94 63 95
REMARK SMILES IDX 69 96 62 97 64 98 65 99 66 100 67 101
REMARK H PARENT 10 15 89 54 57 65
REMARK Flexibility Score: inf
ROOT
ATOM      1  C   UNL A   1      41.387  19.586  26.176  1.00  0.00     0.188 C 
ENDROOT
BRANCH   1   2
ATOM      2  O   UNL A   1      39.845  19.624  25.805  1.00  0.00    -0.376 OA
BRANCH   2   3
ATOM      3  C   UNL A   1      38.831  20.522  25.005  1.00  0.00     0.202 C 
BRANCH   3   4
ATOM      4  C   UNL A   1      37.453  21.363  25.701  1.00  0.00     0.261 C 
BRANCH   4   5
ATOM      5  O   UNL A   1      35.895  20.600  25.374  1.00  0.00    -0.463 OA
BRANCH   5   6
ATOM      6  C   UNL A   1      34.028  20.853  25.554  1.00  0.00     0.305 C 
ATOM      7  O   UNL A   1      33.162  19.956  25.669  1.00  0.00    -0.252 OA
BRANCH   6   8
ATOM      8  C   UNL A   1      33.171  22.217  25.321  1.00  0.00     0.123 C 
BRANCH   8   9
ATOM      9  C   UNL A   1      33.735  23.631  25.464  1.00  0.00     0.022 C 
BRANCH   9  10
ATOM     10  C   UNL A   1      34.958  23.995  24.633  1.00  0.00     0.101 C 
BRANCH  10  11
ATOM     11  C   UNL A   1      34.942  23.510  23.210  1.00  0.00     0.228 C 
ATOM     12  C   UNL A   1      33.179  24.801  22.001  1.00  0.00     0.324 C 
ATOM     13  O   UNL A   1      33.280  25.111  20.811  1.00  0.00    -0.248 OA
ATOM     14  N   UNL A   1      33.810  23.663  22.432  1.00  0.00    -0.278 N 
ATOM     15  H   UNL A   1      33.389  22.822  22.143  1.00  0.00     0.174 HD
ATOM     16  O   UNL A   1      35.937  22.944  22.750  1.00  0.00    -0.275 OA
BRANCH  12  17
ATOM     17  N   UNL A   1      32.588  25.667  22.883  1.00  0.00    -0.323 N 
ATOM     18  C   UNL A   1      31.669  28.168  24.721  1.00  0.00     0.123 C 
ATOM     19  C   UNL A   1      33.215  27.272  23.721  1.00  0.00     0.137 C 
ATOM     20  C   UNL A   1      30.042  26.818  24.422  1.00  0.00     0.021 C 
ATOM     21  C   UNL A   1      30.763  25.304  23.281  1.00  0.00     0.125 C 
ATOM     22  C   UNL A   1      28.992  25.951  25.322  1.00  0.00     0.010 C 
BRANCH  18  23
ATOM     23  C   UNL A   1      31.718  29.853  25.719  1.00  0.00     0.310 C 
ATOM     24  O   UNL A   1      31.040  30.832  25.381  1.00  0.00    -0.252 OA
BRANCH  23  25
ATOM     25  O   UNL A   1      32.607  30.264  26.792  1.00  0.00    -0.469 OA
ATOM     26  C   UNL A   1      34.055  30.727  27.273  1.00  0.00     0.282 C 
ENDBRANCH  23  25
ENDBRANCH  18  23
ENDBRANCH  12  17
ENDBRANCH  10  11
ENDBRANCH   9  10
ENDBRANCH   8   9
ENDBRANCH   6   8
ENDBRANCH   5   6
ENDBRANCH   4   5
ENDBRANCH   3   4
ENDBRANCH   2   3
ENDBRANCH   1   2
BRANCH   1  27
ATOM     27  C   UNL A   1      42.653  18.250  26.475  1.00  0.00     0.188 C 
BRANCH  27  28
ATOM     28  O   UNL A   1      44.186  18.079  25.875  1.00  0.00    -0.377 OA
BRANCH  28  29
ATOM     29  C   UNL A   1      45.240  18.831  24.904  1.00  0.00     0.188 C 
BRANCH  29  30
ATOM     30  C   UNL A   1      46.410  20.005  25.000  1.00  0.00     0.188 C 
BRANCH  30  31
ATOM     31  O   UNL A   1      46.418  21.421  24.854  1.00  0.00    -0.376 OA
BRANCH  31  32
ATOM     32  C   UNL A   1      45.597  22.482  25.318  1.00  0.00     0.202 C 
BRANCH  32  33
ATOM     33  C   UNL A   1      44.815  22.322  26.625  1.00  0.00     0.261 C 
BRANCH  33  34
ATOM     34  O   UNL A   1      43.426  22.494  26.408  1.00  0.00    -0.460 OA
BRANCH  34  35
ATOM     35  C   UNL A   1      43.173  23.627  25.713  1.00  0.00     0.338 C 
ATOM     36  O   UNL A   1      43.026  23.734  24.508  1.00  0.00    -0.246 OA
BRANCH  35  37
ATOM     37  C   UNL A   1      42.832  24.659  26.698  1.00  0.00     0.060 A 
ATOM     38  C   UNL A   1      43.546  25.860  26.632  1.00  0.00     0.016 A 
ATOM     39  C   UNL A   1      41.800  24.471  27.625  1.00  0.00     0.016 A 
ATOM     40  C   UNL A   1      43.318  26.838  27.587  1.00  0.00     0.010 A 
ATOM     41  C   UNL A   1      41.572  25.448  28.584  1.00  0.00     0.010 A 
ATOM     42  C   UNL A   1      42.396  26.586  28.610  1.00  0.00    -0.014 A 
BRANCH  42  43
ATOM     43  C   UNL A   1      42.590  27.281  29.895  1.00  0.00     0.031 A 
ATOM     44  C   UNL A   1      41.833  28.569  30.081  1.00  0.00     0.074 A 
ATOM     45  C   UNL A   1      43.392  26.792  30.851  1.00  0.00     0.049 A 
ATOM     46  N   UNL A   1      41.837  29.392  31.091  1.00  0.00    -0.248 NA
ATOM     47  C   UNL A   1      40.955  28.987  28.970  1.00  0.00     0.031 C 
ATOM     48  C   UNL A   1      44.154  25.549  30.771  1.00  0.00     0.029 A 
ATOM     49  N   UNL A   1      43.714  27.315  32.075  1.00  0.00    -0.354 N 
ATOM     50  C   UNL A   1      40.988  30.430  30.727  1.00  0.00     0.074 A 
ATOM     51  C   UNL A   1      40.490  30.144  29.405  1.00  0.00     0.031 C 
ATOM     52  C   UNL A   1      44.892  25.423  31.888  1.00  0.00     0.029 A 
ATOM     53  C   UNL A   1      44.667  26.588  32.744  1.00  0.00     0.049 A 
ATOM     54  H   UNL A   1      43.303  28.132  32.440  1.00  0.00     0.167 HD
ATOM     55  C   UNL A   1      40.646  31.527  31.437  1.00  0.00     0.034 A 
ATOM     56  C   UNL A   1      45.301  26.861  33.901  1.00  0.00     0.034 A 
ATOM     57  C   UNL A   1      41.145  31.805  32.752  1.00  0.00     0.049 A 
ATOM     58  C   UNL A   1      44.927  28.110  34.659  1.00  0.00     0.074 A 
ATOM     59  C   UNL A   1      40.836  32.866  33.580  1.00  0.00     0.029 A 
ATOM     60  N   UNL A   1      42.077  31.026  33.417  1.00  0.00    -0.354 N 
ATOM     61  N   UNL A   1      44.030  29.021  34.364  1.00  0.00    -0.248 NA
ATOM     62  C   UNL A   1      45.628  28.352  35.929  1.00  0.00     0.031 C 
ATOM     63  C   UNL A   1      41.613  32.749  34.735  1.00  0.00     0.029 A 
ATOM     64  C   UNL A   1      42.373  31.592  34.642  1.00  0.00     0.049 A 
ATOM     65  H   UNL A   1      42.470  30.193  33.069  1.00  0.00     0.167 HD
ATOM     66  C   UNL A   1      44.034  29.922  35.424  1.00  0.00     0.074 A 
ATOM     67  C   UNL A   1      45.009  29.434  36.378  1.00  0.00     0.031 C 
ATOM     68  C   UNL A   1      43.308  31.055  35.594  1.00  0.00     0.034 A 
BRANCH  55  69
ATOM     69  C   UNL A   1      39.699  32.501  30.798  1.00  0.00     0.023 A 
ATOM     70  C   UNL A   1      40.199  33.569  30.026  1.00  0.00     0.012 A 
ATOM     71  C   UNL A   1      38.308  32.337  30.941  1.00  0.00     0.148 A 
ATOM     72  C   UNL A   1      39.327  34.474  29.423  1.00  0.00     0.002 A 
ATOM     73  C   UNL A   1      37.445  33.215  30.298  1.00  0.00     0.091 A 
ATOM     74  F   UNL A   1      37.859  31.337  31.711  1.00  0.00    -0.205 F 
ATOM     75  C   UNL A   1      37.952  34.289  29.548  1.00  0.00     0.022 A 
BRANCH  73  76
ATOM     76  S   UNL A   1      35.662  33.016  30.337  1.00  0.00     0.127 S 
ATOM     77  O   UNL A   1      35.531  31.576  30.558  1.00  0.00    -0.237 OA
ATOM     78  O   UNL A   1      35.289  33.845  31.483  1.00  0.00    -0.237 OA
ATOM     79  O   UNL A   1      35.174  33.495  29.052  1.00  0.00    -0.744 OA
ENDBRANCH  73  76
ENDBRANCH  55  69
BRANCH  56  80
ATOM     80  C   UNL A   1      46.350  25.938  34.414  1.00  0.00     0.023 A 
ATOM     81  C   UNL A   1      45.990  24.853  35.236  1.00  0.00     0.012 A 
ATOM     82  C   UNL A   1      47.707  26.134  34.091  1.00  0.00     0.148 A 
ATOM     83  C   UNL A   1      46.967  24.003  35.758  1.00  0.00     0.002 A 
ATOM     84  C   UNL A   1      48.667  25.250  34.564  1.00  0.00     0.091 A 
ATOM     85  F   UNL A   1      48.030  27.183  33.320  1.00  0.00    -0.205 F 
ATOM     86  C   UNL A   1      48.302  24.196  35.415  1.00  0.00     0.022 A 
BRANCH  84  87
ATOM     87  S   UNL A   1      50.389  25.347  34.065  1.00  0.00     0.127 S 
ATOM     88  O   UNL A   1      50.776  26.660  34.576  1.00  0.00    -0.237 OA
ATOM     89  O   UNL A   1      50.972  24.209  34.775  1.00  0.00    -0.237 OA
ATOM     90  O   UNL A   1      50.384  25.207  32.615  1.00  0.00    -0.744 OA
ENDBRANCH  84  87
ENDBRANCH  56  80
BRANCH  68  91
ATOM     91  C   UNL A   1      43.499  31.827  36.873  1.00  0.00     0.023 A 
ATOM     92  C   UNL A   1      42.662  31.579  37.977  1.00  0.00     0.012 A 
ATOM     93  C   UNL A   1      44.576  32.726  37.005  1.00  0.00     0.148 A 
ATOM     94  C   UNL A   1      42.873  32.242  39.185  1.00  0.00     0.002 A 
ATOM     95  C   UNL A   1      44.812  33.342  38.227  1.00  0.00     0.091 A 
ATOM     96  F   UNL A   1      45.353  32.956  35.936  1.00  0.00    -0.205 F 
ATOM     97  C   UNL A   1      43.954  33.111  39.315  1.00  0.00     0.022 A 
BRANCH  95  98
ATOM     98  S   UNL A   1      46.241  34.391  38.515  1.00  0.00     0.127 S 
ATOM     99  O   UNL A   1      46.251  35.216  37.308  1.00  0.00    -0.237 OA
ATOM    100  O   UNL A   1      45.865  35.101  39.737  1.00  0.00    -0.237 OA
ATOM    101  O   UNL A   1      47.377  33.490  38.665  1.00  0.00    -0.744 OA
ENDBRANCH  95  98
ENDBRANCH  68  91
ENDBRANCH  42  43
ENDBRANCH  35  37
ENDBRANCH  34  35
ENDBRANCH  33  34
ENDBRANCH  32  33
ENDBRANCH  31  32
ENDBRANCH  30  31
ENDBRANCH  29  30
ENDBRANCH  28  29
ENDBRANCH  27  28
ENDBRANCH   1  27
TORSDOF 29
ENDMDL
