MODEL 1
REMARK VINA RESULT:      -9.9      0.000      0.000
REMARK SMILES CC1(C)S[C@@H]2[C@H]([NH2+]Cn3nnc4ccccc43)C(=O)N2[C@@H]1C(=O)OCCOCCOCCOCCOC(=O)c1ccc(-c2c3nc(c(-c4cccc(S(=O)(=O)[O-])c4F)c4ccc([nH]4)c(-c4cccc(S(=O)(=O)[O-])c4F)c4nc(c(-c5cccc(S(=O)(=O)[O-])c5F)c5ccc2[nH]5)C=C4)C=C3)cc1
REMARK SMILES IDX 30 1 29 2 28 3 27 4 26 5 25 6 24 7 22 8 23 9 21 10 1 11 2 12
REMARK SMILES IDX 3 13 4 14 5 15 20 16 6 17 18 18 19 19 7 20 8 23 9 24 10 25
REMARK SMILES IDX 17 26 11 27 12 28 16 29 13 30 15 31 14 32 31 33 32 34 33 35
REMARK SMILES IDX 34 36 35 37 36 38 37 39 38 40 39 41 40 42 101 43 41 44
REMARK SMILES IDX 100 45 42 46 43 47 44 48 94 49 45 50 99 51 93 52 95 53 46 54
REMARK SMILES IDX 98 55 92 56 91 57 47 59 79 60 59 61 78 62 60 63 63 64 77 65
REMARK SMILES IDX 96 66 61 67 62 68 76 70 97 71 64 72 48 73 49 74 57 75 50 76
REMARK SMILES IDX 52 77 58 78 51 79 53 80 54 81 55 82 56 83 80 84 81 85 89 86
REMARK SMILES IDX 82 87 84 88 90 89 83 90 85 91 86 92 87 93 88 94 65 95 66 96
REMARK SMILES IDX 74 97 67 98 69 99 75 100 68 101 70 102 71 103 72 104 73 105
REMARK H PARENT 7 21 7 22 95 58 63 69
REMARK Flexibility Score: inf
ROOT
ATOM      1  O   UNL A   1      41.752  19.156  25.462  1.00  0.00    -0.377 OA
ENDROOT
BRANCH   1   2
ATOM      2  C   UNL A   1      41.156  19.693  26.632  1.00  0.00     0.188 C 
BRANCH   2   3
ATOM      3  C   UNL A   1      40.038  20.684  26.313  1.00  0.00     0.188 C 
BRANCH   3   4
ATOM      4  O   UNL A   1      39.062  20.202  25.396  1.00  0.00    -0.376 OA
BRANCH   4   5
ATOM      5  C   UNL A   1      37.952  21.049  25.096  1.00  0.00     0.202 C 
BRANCH   5   6
ATOM      6  C   UNL A   1      36.642  20.342  24.748  1.00  0.00     0.261 C 
BRANCH   6   7
ATOM      7  O   UNL A   1      35.525  20.859  25.513  1.00  0.00    -0.462 OA
BRANCH   7   8
ATOM      8  C   UNL A   1      34.547  21.481  24.809  1.00  0.00     0.330 C 
ATOM      9  O   UNL A   1      33.569  20.920  24.318  1.00  0.00    -0.250 OA
BRANCH   8  10
ATOM     10  C   UNL A   1      34.821  22.958  24.533  1.00  0.00     0.212 C 
ATOM     11  C   UNL A   1      34.288  23.062  27.115  1.00  0.00     0.026 C 
ATOM     12  C   UNL A   1      34.964  23.719  25.899  1.00  0.00     0.044 C 
ATOM     13  C   UNL A   1      36.443  23.986  26.195  1.00  0.00     0.026 C 
ATOM     14  S   UNL A   1      34.106  25.391  25.718  1.00  0.00    -0.121 SA
ATOM     15  C   UNL A   1      33.925  25.199  23.955  1.00  0.00     0.213 C 
ATOM     16  N   UNL A   1      33.870  23.749  23.784  1.00  0.00    -0.304 N 
ATOM     17  C   UNL A   1      32.680  25.249  23.032  1.00  0.00     0.307 C 
ATOM     18  C   UNL A   1      33.374  23.869  22.540  1.00  0.00     0.285 C 
ATOM     19  O   UNL A   1      33.516  23.245  21.521  1.00  0.00    -0.268 OA
BRANCH  17  20
ATOM     20  N   UNL A   1      31.297  25.026  23.514  1.00  0.00    -0.315 N 
ATOM     21  H   UNL A   1      31.349  24.726  24.488  1.00  0.00     0.348 HD
ATOM     22  H   UNL A   1      30.895  24.330  22.887  1.00  0.00     0.348 HD
BRANCH  20  23
ATOM     23  C   UNL A   1      30.411  26.176  23.449  1.00  0.00     0.415 C 
BRANCH  23  24
ATOM     24  N   UNL A   1      31.119  27.421  23.750  1.00  0.00    -0.194 N 
ATOM     25  N   UNL A   1      31.806  28.117  22.816  1.00  0.00    -0.061 NA
ATOM     26  C   UNL A   1      31.423  27.843  25.022  1.00  0.00     0.095 A 
ATOM     27  N   UNL A   1      32.569  28.996  23.456  1.00  0.00    -0.130 NA
ATOM     28  C   UNL A   1      32.374  28.831  24.805  1.00  0.00     0.113 A 
ATOM     29  C   UNL A   1      31.009  27.439  26.297  1.00  0.00     0.030 A 
ATOM     30  C   UNL A   1      32.976  29.455  25.906  1.00  0.00     0.032 A 
ATOM     31  C   UNL A   1      31.613  28.077  27.383  1.00  0.00     0.002 A 
ATOM     32  C   UNL A   1      32.585  29.063  27.194  1.00  0.00     0.002 A 
ENDBRANCH  23  24
ENDBRANCH  20  23
ENDBRANCH  17  20
ENDBRANCH   8  10
ENDBRANCH   7   8
ENDBRANCH   6   7
ENDBRANCH   5   6
ENDBRANCH   4   5
ENDBRANCH   3   4
ENDBRANCH   2   3
ENDBRANCH   1   2
BRANCH   1  33
ATOM     33  C   UNL A   1      43.129  18.782  25.555  1.00  0.00     0.188 C 
BRANCH  33  34
ATOM     34  C   UNL A   1      44.159  19.790  25.029  1.00  0.00     0.188 C 
BRANCH  34  35
ATOM     35  O   UNL A   1      43.713  21.141  24.927  1.00  0.00    -0.376 OA
BRANCH  35  36
ATOM     36  C   UNL A   1      43.813  21.929  26.118  1.00  0.00     0.202 C 
BRANCH  36  37
ATOM     37  C   UNL A   1      45.110  22.742  26.224  1.00  0.00     0.261 C 
BRANCH  37  38
ATOM     38  O   UNL A   1      44.789  24.058  26.715  1.00  0.00    -0.460 OA
BRANCH  38  39
ATOM     39  C   UNL A   1      44.913  25.072  25.824  1.00  0.00     0.338 C 
ATOM     40  O   UNL A   1      45.094  24.971  24.624  1.00  0.00    -0.246 OA
BRANCH  39  41
ATOM     41  C   UNL A   1      44.530  26.325  26.517  1.00  0.00     0.060 A 
ATOM     42  C   UNL A   1      45.110  26.699  27.735  1.00  0.00     0.016 A 
ATOM     43  C   UNL A   1      43.486  27.083  25.973  1.00  0.00     0.016 A 
ATOM     44  C   UNL A   1      44.624  27.820  28.415  1.00  0.00     0.010 A 
ATOM     45  C   UNL A   1      42.996  28.194  26.664  1.00  0.00     0.010 A 
ATOM     46  C   UNL A   1      43.550  28.562  27.896  1.00  0.00    -0.014 A 
BRANCH  46  47
ATOM     47  C   UNL A   1      43.077  29.739  28.645  1.00  0.00     0.031 A 
ATOM     48  C   UNL A   1      43.860  31.004  28.552  1.00  0.00     0.074 A 
ATOM     49  C   UNL A   1      41.877  29.861  29.250  1.00  0.00     0.049 A 
ATOM     50  N   UNL A   1      44.308  31.742  29.522  1.00  0.00    -0.248 NA
ATOM     51  C   UNL A   1      44.100  31.543  27.208  1.00  0.00     0.031 C 
ATOM     52  C   UNL A   1      40.741  28.947  29.156  1.00  0.00     0.029 A 
ATOM     53  N   UNL A   1      41.389  30.915  29.988  1.00  0.00    -0.354 N 
ATOM     54  C   UNL A   1      44.797  32.895  28.918  1.00  0.00     0.074 A 
ATOM     55  C   UNL A   1      44.678  32.711  27.491  1.00  0.00     0.031 C 
ATOM     56  C   UNL A   1      39.645  29.567  29.646  1.00  0.00     0.029 A 
ATOM     57  C   UNL A   1      40.020  30.867  30.189  1.00  0.00     0.049 A 
ATOM     58  H   UNL A   1      41.959  31.635  30.340  1.00  0.00     0.167 HD
ATOM     59  C   UNL A   1      45.181  34.012  29.587  1.00  0.00     0.034 A 
ATOM     60  C   UNL A   1      39.219  31.812  30.734  1.00  0.00     0.034 A 
ATOM     61  C   UNL A   1      45.196  33.907  31.011  1.00  0.00     0.049 A 
ATOM     62  C   UNL A   1      40.015  32.773  31.537  1.00  0.00     0.074 A 
ATOM     63  C   UNL A   1      46.052  33.424  31.970  1.00  0.00     0.029 A 
ATOM     64  N   UNL A   1      44.032  34.251  31.645  1.00  0.00    -0.354 N 
ATOM     65  N   UNL A   1      40.556  32.504  32.694  1.00  0.00    -0.248 NA
ATOM     66  C   UNL A   1      40.294  34.111  31.019  1.00  0.00     0.031 C 
ATOM     67  C   UNL A   1      45.293  33.301  33.168  1.00  0.00     0.029 A 
ATOM     68  C   UNL A   1      43.973  33.638  32.876  1.00  0.00     0.049 A 
ATOM     69  H   UNL A   1      43.340  34.846  31.275  1.00  0.00     0.167 HD
ATOM     70  C   UNL A   1      41.522  33.478  32.865  1.00  0.00     0.074 A 
ATOM     71  C   UNL A   1      41.175  34.533  31.929  1.00  0.00     0.031 C 
ATOM     72  C   UNL A   1      42.717  33.200  33.462  1.00  0.00     0.034 A 
BRANCH  59  73
ATOM     73  C   UNL A   1      45.365  35.333  28.920  1.00  0.00     0.023 A 
ATOM     74  C   UNL A   1      46.655  35.881  28.820  1.00  0.00     0.012 A 
ATOM     75  C   UNL A   1      44.268  36.118  28.516  1.00  0.00     0.148 A 
ATOM     76  C   UNL A   1      46.850  37.160  28.290  1.00  0.00     0.002 A 
ATOM     77  C   UNL A   1      44.472  37.373  27.953  1.00  0.00     0.091 A 
ATOM     78  F   UNL A   1      43.023  35.658  28.717  1.00  0.00    -0.205 F 
ATOM     79  C   UNL A   1      45.760  37.903  27.841  1.00  0.00     0.022 A 
BRANCH  77  80
ATOM     80  S   UNL A   1      43.059  38.289  27.338  1.00  0.00     0.127 S 
ATOM     81  O   UNL A   1      42.321  37.275  26.594  1.00  0.00    -0.237 OA
ATOM     82  O   UNL A   1      42.400  38.751  28.560  1.00  0.00    -0.237 OA
ATOM     83  O   UNL A   1      43.686  39.352  26.558  1.00  0.00    -0.744 OA
ENDBRANCH  77  80
ENDBRANCH  59  73
BRANCH  60  84
ATOM     84  C   UNL A   1      37.742  31.942  30.683  1.00  0.00     0.023 A 
ATOM     85  C   UNL A   1      36.965  31.404  31.730  1.00  0.00     0.012 A 
ATOM     86  C   UNL A   1      37.080  32.709  29.705  1.00  0.00     0.148 A 
ATOM     87  C   UNL A   1      35.585  31.618  31.799  1.00  0.00     0.002 A 
ATOM     88  C   UNL A   1      35.698  32.880  29.752  1.00  0.00     0.091 A 
ATOM     89  F   UNL A   1      37.794  33.323  28.749  1.00  0.00    -0.205 F 
ATOM     90  C   UNL A   1      34.946  32.349  30.804  1.00  0.00     0.022 A 
BRANCH  88  91
ATOM     91  S   UNL A   1      34.879  33.758  28.416  1.00  0.00     0.127 S 
ATOM     92  O   UNL A   1      33.487  33.323  28.528  1.00  0.00    -0.237 OA
ATOM     93  O   UNL A   1      35.103  35.159  28.757  1.00  0.00    -0.237 OA
ATOM     94  O   UNL A   1      35.568  33.259  27.229  1.00  0.00    -0.744 OA
ENDBRANCH  88  91
ENDBRANCH  60  84
BRANCH  72  95
ATOM     95  C   UNL A   1      42.778  32.086  34.478  1.00  0.00     0.023 A 
ATOM     96  C   UNL A   1      42.662  32.343  35.857  1.00  0.00     0.012 A 
ATOM     97  C   UNL A   1      42.816  30.743  34.050  1.00  0.00     0.148 A 
ATOM     98  C   UNL A   1      42.632  31.302  36.787  1.00  0.00     0.002 A 
ATOM     99  C   UNL A   1      42.722  29.707  34.978  1.00  0.00     0.091 A 
ATOM    100  F   UNL A   1      42.923  30.483  32.736  1.00  0.00    -0.205 F 
ATOM    101  C   UNL A   1      42.648  29.983  36.348  1.00  0.00     0.022 A 
BRANCH  99 102
ATOM    102  S   UNL A   1      42.559  28.005  34.428  1.00  0.00     0.127 S 
ATOM    103  O   UNL A   1      43.376  27.977  33.220  1.00  0.00    -0.237 OA
ATOM    104  O   UNL A   1      43.107  27.243  35.553  1.00  0.00    -0.237 OA
ATOM    105  O   UNL A   1      41.123  27.821  34.249  1.00  0.00    -0.744 OA
ENDBRANCH  99 102
ENDBRANCH  72  95
ENDBRANCH  46  47
ENDBRANCH  39  41
ENDBRANCH  38  39
ENDBRANCH  37  38
ENDBRANCH  36  37
ENDBRANCH  35  36
ENDBRANCH  34  35
ENDBRANCH  33  34
ENDBRANCH   1  33
TORSDOF 26
ENDMDL
MODEL 2
REMARK VINA RESULT:      -9.2      4.682     10.893
REMARK SMILES CC1(C)S[C@@H]2[C@H]([NH2+]Cn3nnc4ccccc43)C(=O)N2[C@@H]1C(=O)OCCOCCOCCOCCOC(=O)c1ccc(-c2c3nc(c(-c4cccc(S(=O)(=O)[O-])c4F)c4ccc([nH]4)c(-c4cccc(S(=O)(=O)[O-])c4F)c4nc(c(-c5cccc(S(=O)(=O)[O-])c5F)c5ccc2[nH]5)C=C4)C=C3)cc1
REMARK SMILES IDX 30 1 29 2 28 3 27 4 26 5 25 6 24 7 22 8 23 9 21 10 1 11 2 12
REMARK SMILES IDX 3 13 4 14 5 15 20 16 6 17 18 18 19 19 7 20 8 23 9 24 10 25
REMARK SMILES IDX 17 26 11 27 12 28 16 29 13 30 15 31 14 32 31 33 32 34 33 35
REMARK SMILES IDX 34 36 35 37 36 38 37 39 38 40 39 41 40 42 101 43 41 44
REMARK SMILES IDX 100 45 42 46 43 47 44 48 94 49 45 50 99 51 93 52 95 53 46 54
REMARK SMILES IDX 98 55 92 56 91 57 47 59 79 60 59 61 78 62 60 63 63 64 77 65
REMARK SMILES IDX 96 66 61 67 62 68 76 70 97 71 64 72 48 73 49 74 57 75 50 76
REMARK SMILES IDX 52 77 58 78 51 79 53 80 54 81 55 82 56 83 80 84 81 85 89 86
REMARK SMILES IDX 82 87 84 88 90 89 83 90 85 91 86 92 87 93 88 94 65 95 66 96
REMARK SMILES IDX 74 97 67 98 69 99 75 100 68 101 70 102 71 103 72 104 73 105
REMARK H PARENT 7 21 7 22 95 58 63 69
REMARK Flexibility Score: inf
ROOT
ATOM      1  O   UNL A   1      34.151  32.776  28.389  1.00  0.00    -0.377 OA
ENDROOT
BRANCH   1   2
ATOM      2  C   UNL A   1      35.483  33.040  27.979  1.00  0.00     0.188 C 
BRANCH   2   3
ATOM      3  C   UNL A   1      36.386  31.816  28.109  1.00  0.00     0.188 C 
BRANCH   3   4
ATOM      4  O   UNL A   1      35.909  30.820  29.007  1.00  0.00    -0.376 OA
BRANCH   4   5
ATOM      5  C   UNL A   1      36.464  29.508  28.905  1.00  0.00     0.202 C 
BRANCH   5   6
ATOM      6  C   UNL A   1      37.990  29.426  28.861  1.00  0.00     0.261 C 
BRANCH   6   7
ATOM      7  O   UNL A   1      38.452  28.303  28.071  1.00  0.00    -0.462 OA
BRANCH   7   8
ATOM      8  C   UNL A   1      39.735  28.359  27.633  1.00  0.00     0.330 C 
ATOM      9  O   UNL A   1      40.111  28.969  26.635  1.00  0.00    -0.250 OA
BRANCH   8  10
ATOM     10  C   UNL A   1      40.696  27.462  28.410  1.00  0.00     0.212 C 
ATOM     11  C   UNL A   1      42.421  29.049  27.198  1.00  0.00     0.026 C 
ATOM     12  C   UNL A   1      42.135  28.091  28.367  1.00  0.00     0.044 C 
ATOM     13  C   UNL A   1      42.443  28.777  29.702  1.00  0.00     0.026 C 
ATOM     14  S   UNL A   1      43.372  26.683  28.149  1.00  0.00    -0.121 SA
ATOM     15  C   UNL A   1      42.132  25.438  28.445  1.00  0.00     0.213 C 
ATOM     16  N   UNL A   1      40.899  26.088  28.007  1.00  0.00    -0.304 N 
ATOM     17  C   UNL A   1      41.666  24.222  27.604  1.00  0.00     0.307 C 
ATOM     18  C   UNL A   1      40.244  24.914  27.961  1.00  0.00     0.285 C 
ATOM     19  O   UNL A   1      39.113  24.580  28.201  1.00  0.00    -0.268 OA
BRANCH  17  20
ATOM     20  N   UNL A   1      41.872  24.115  26.140  1.00  0.00    -0.315 N 
ATOM     21  H   UNL A   1      42.678  24.690  25.894  1.00  0.00     0.348 HD
ATOM     22  H   UNL A   1      40.998  24.423  25.715  1.00  0.00     0.348 HD
BRANCH  20  23
ATOM     23  C   UNL A   1      42.108  22.775  25.632  1.00  0.00     0.415 C 
BRANCH  23  24
ATOM     24  N   UNL A   1      43.522  22.406  25.716  1.00  0.00    -0.194 N 
ATOM     25  N   UNL A   1      44.520  23.319  25.672  1.00  0.00    -0.061 NA
ATOM     26  C   UNL A   1      43.995  21.129  25.537  1.00  0.00     0.095 A 
ATOM     27  N   UNL A   1      45.653  22.658  25.459  1.00  0.00    -0.130 NA
ATOM     28  C   UNL A   1      45.357  21.322  25.347  1.00  0.00     0.113 A 
ATOM     29  C   UNL A   1      43.381  19.872  25.478  1.00  0.00     0.030 A 
ATOM     30  C   UNL A   1      46.172  20.219  25.061  1.00  0.00     0.032 A 
ATOM     31  C   UNL A   1      44.208  18.782  25.201  1.00  0.00     0.002 A 
ATOM     32  C   UNL A   1      45.579  18.950  24.988  1.00  0.00     0.002 A 
ENDBRANCH  23  24
ENDBRANCH  20  23
ENDBRANCH  17  20
ENDBRANCH   8  10
ENDBRANCH   7   8
ENDBRANCH   6   7
ENDBRANCH   5   6
ENDBRANCH   4   5
ENDBRANCH   3   4
ENDBRANCH   2   3
ENDBRANCH   1   2
BRANCH   1  33
ATOM     33  C   UNL A   1      33.162  33.741  28.026  1.00  0.00     0.188 C 
BRANCH  33  34
ATOM     34  C   UNL A   1      33.146  35.053  28.822  1.00  0.00     0.188 C 
BRANCH  34  35
ATOM     35  O   UNL A   1      33.400  34.935  30.220  1.00  0.00    -0.376 OA
BRANCH  35  36
ATOM     36  C   UNL A   1      32.647  35.804  31.073  1.00  0.00     0.202 C 
BRANCH  36  37
ATOM     37  C   UNL A   1      32.967  35.649  32.566  1.00  0.00     0.261 C 
BRANCH  37  38
ATOM     38  O   UNL A   1      34.248  35.004  32.697  1.00  0.00    -0.460 OA
BRANCH  38  39
ATOM     39  C   UNL A   1      34.226  33.715  33.116  1.00  0.00     0.338 C 
ATOM     40  O   UNL A   1      33.238  33.025  33.300  1.00  0.00    -0.246 OA
BRANCH  39  41
ATOM     41  C   UNL A   1      35.615  33.203  33.062  1.00  0.00     0.060 A 
ATOM     42  C   UNL A   1      36.454  33.228  34.182  1.00  0.00     0.016 A 
ATOM     43  C   UNL A   1      36.112  32.784  31.821  1.00  0.00     0.016 A 
ATOM     44  C   UNL A   1      37.794  32.856  34.049  1.00  0.00     0.010 A 
ATOM     45  C   UNL A   1      37.456  32.426  31.691  1.00  0.00     0.010 A 
ATOM     46  C   UNL A   1      38.311  32.475  32.800  1.00  0.00    -0.014 A 
BRANCH  46  47
ATOM     47  C   UNL A   1      39.728  32.084  32.710  1.00  0.00     0.031 A 
ATOM     48  C   UNL A   1      40.156  30.803  33.341  1.00  0.00     0.074 A 
ATOM     49  C   UNL A   1      40.660  32.666  31.926  1.00  0.00     0.049 A 
ATOM     50  N   UNL A   1      41.130  30.607  34.176  1.00  0.00    -0.248 NA
ATOM     51  C   UNL A   1      39.452  29.584  32.921  1.00  0.00     0.031 C 
ATOM     52  C   UNL A   1      40.443  33.673  30.891  1.00  0.00     0.029 A 
ATOM     53  N   UNL A   1      42.001  32.372  31.820  1.00  0.00    -0.354 N 
ATOM     54  C   UNL A   1      41.234  29.227  34.312  1.00  0.00     0.074 A 
ATOM     55  C   UNL A   1      40.158  28.643  33.546  1.00  0.00     0.031 C 
ATOM     56  C   UNL A   1      41.560  33.769  30.137  1.00  0.00     0.029 A 
ATOM     57  C   UNL A   1      42.603  32.921  30.702  1.00  0.00     0.049 A 
ATOM     58  H   UNL A   1      42.485  31.823  32.477  1.00  0.00     0.167 HD
ATOM     59  C   UNL A   1      42.252  28.589  34.945  1.00  0.00     0.034 A 
ATOM     60  C   UNL A   1      43.854  32.701  30.231  1.00  0.00     0.034 A 
ATOM     61  C   UNL A   1      43.186  29.431  35.620  1.00  0.00     0.049 A 
ATOM     62  C   UNL A   1      44.722  32.137  31.294  1.00  0.00     0.074 A 
ATOM     63  C   UNL A   1      43.260  30.075  36.831  1.00  0.00     0.029 A 
ATOM     64  N   UNL A   1      44.261  29.843  34.878  1.00  0.00    -0.354 N 
ATOM     65  N   UNL A   1      45.179  32.811  32.313  1.00  0.00    -0.248 NA
ATOM     66  C   UNL A   1      45.075  30.719  31.279  1.00  0.00     0.031 C 
ATOM     67  C   UNL A   1      44.301  31.038  36.716  1.00  0.00     0.029 A 
ATOM     68  C   UNL A   1      44.775  31.004  35.407  1.00  0.00     0.049 A 
ATOM     69  H   UNL A   1      44.612  29.377  34.085  1.00  0.00     0.167 HD
ATOM     70  C   UNL A   1      45.549  31.847  33.233  1.00  0.00     0.074 A 
ATOM     71  C   UNL A   1      45.659  30.613  32.476  1.00  0.00     0.031 C 
ATOM     72  C   UNL A   1      45.371  32.035  34.573  1.00  0.00     0.034 A 
BRANCH  59  73
ATOM     73  C   UNL A   1      42.523  27.133  34.778  1.00  0.00     0.023 A 
ATOM     74  C   UNL A   1      41.962  26.218  35.685  1.00  0.00     0.012 A 
ATOM     75  C   UNL A   1      43.443  26.655  33.825  1.00  0.00     0.148 A 
ATOM     76  C   UNL A   1      42.276  24.857  35.616  1.00  0.00     0.002 A 
ATOM     77  C   UNL A   1      43.721  25.295  33.737  1.00  0.00     0.091 A 
ATOM     78  F   UNL A   1      44.079  27.531  33.031  1.00  0.00    -0.205 F 
ATOM     79  C   UNL A   1      43.145  24.391  34.632  1.00  0.00     0.022 A 
BRANCH  77  80
ATOM     80  S   UNL A   1      44.803  24.712  32.431  1.00  0.00     0.127 S 
ATOM     81  O   UNL A   1      46.109  25.206  32.855  1.00  0.00    -0.237 OA
ATOM     82  O   UNL A   1      44.650  23.258  32.494  1.00  0.00    -0.237 OA
ATOM     83  O   UNL A   1      44.221  25.324  31.241  1.00  0.00    -0.744 OA
ENDBRANCH  77  80
ENDBRANCH  59  73
BRANCH  60  84
ATOM     84  C   UNL A   1      44.427  33.007  28.897  1.00  0.00     0.023 A 
ATOM     85  C   UNL A   1      44.168  32.135  27.819  1.00  0.00     0.012 A 
ATOM     86  C   UNL A   1      45.105  34.209  28.618  1.00  0.00     0.148 A 
ATOM     87  C   UNL A   1      44.569  32.447  26.516  1.00  0.00     0.002 A 
ATOM     88  C   UNL A   1      45.543  34.494  27.326  1.00  0.00     0.091 A 
ATOM     89  F   UNL A   1      45.283  35.112  29.594  1.00  0.00    -0.205 F 
ATOM     90  C   UNL A   1      45.267  33.623  26.268  1.00  0.00     0.022 A 
BRANCH  88  91
ATOM     91  S   UNL A   1      46.513  35.978  27.039  1.00  0.00     0.127 S 
ATOM     92  O   UNL A   1      45.554  37.059  27.270  1.00  0.00    -0.237 OA
ATOM     93  O   UNL A   1      47.567  35.883  28.042  1.00  0.00    -0.237 OA
ATOM     94  O   UNL A   1      46.925  35.833  25.645  1.00  0.00    -0.744 OA
ENDBRANCH  88  91
ENDBRANCH  60  84
BRANCH  72  95
ATOM     95  C   UNL A   1      45.384  33.444  35.115  1.00  0.00     0.023 A 
ATOM     96  C   UNL A   1      46.570  34.037  35.586  1.00  0.00     0.012 A 
ATOM     97  C   UNL A   1      44.225  34.241  35.032  1.00  0.00     0.148 A 
ATOM     98  C   UNL A   1      46.595  35.368  36.007  1.00  0.00     0.002 A 
ATOM     99  C   UNL A   1      44.271  35.586  35.394  1.00  0.00     0.091 A 
ATOM    100  F   UNL A   1      43.087  33.688  34.582  1.00  0.00    -0.205 F 
ATOM    101  C   UNL A   1      45.450  36.149  35.898  1.00  0.00     0.022 A 
BRANCH  99 102
ATOM    102  S   UNL A   1      42.861  36.658  35.095  1.00  0.00     0.127 S 
ATOM    103  O   UNL A   1      41.828  36.077  35.946  1.00  0.00    -0.237 OA
ATOM    104  O   UNL A   1      43.346  37.970  35.534  1.00  0.00    -0.237 OA
ATOM    105  O   UNL A   1      42.643  36.574  33.655  1.00  0.00    -0.744 OA
ENDBRANCH  99 102
ENDBRANCH  72  95
ENDBRANCH  46  47
ENDBRANCH  39  41
ENDBRANCH  38  39
ENDBRANCH  37  38
ENDBRANCH  36  37
ENDBRANCH  35  36
ENDBRANCH  34  35
ENDBRANCH  33  34
ENDBRANCH   1  33
TORSDOF 26
ENDMDL
MODEL 3
REMARK VINA RESULT:      -9.2      4.370      7.937
REMARK SMILES CC1(C)S[C@@H]2[C@H]([NH2+]Cn3nnc4ccccc43)C(=O)N2[C@@H]1C(=O)OCCOCCOCCOCCOC(=O)c1ccc(-c2c3nc(c(-c4cccc(S(=O)(=O)[O-])c4F)c4ccc([nH]4)c(-c4cccc(S(=O)(=O)[O-])c4F)c4nc(c(-c5cccc(S(=O)(=O)[O-])c5F)c5ccc2[nH]5)C=C4)C=C3)cc1
REMARK SMILES IDX 30 1 29 2 28 3 27 4 26 5 25 6 24 7 22 8 23 9 21 10 1 11 2 12
REMARK SMILES IDX 3 13 4 14 5 15 20 16 6 17 18 18 19 19 7 20 8 23 9 24 10 25
REMARK SMILES IDX 17 26 11 27 12 28 16 29 13 30 15 31 14 32 31 33 32 34 33 35
REMARK SMILES IDX 34 36 35 37 36 38 37 39 38 40 39 41 40 42 101 43 41 44
REMARK SMILES IDX 100 45 42 46 43 47 44 48 94 49 45 50 99 51 93 52 95 53 46 54
REMARK SMILES IDX 98 55 92 56 91 57 47 59 79 60 59 61 78 62 60 63 63 64 77 65
REMARK SMILES IDX 96 66 61 67 62 68 76 70 97 71 64 72 48 73 49 74 57 75 50 76
REMARK SMILES IDX 52 77 58 78 51 79 53 80 54 81 55 82 56 83 80 84 81 85 89 86
REMARK SMILES IDX 82 87 84 88 90 89 83 90 85 91 86 92 87 93 88 94 65 95 66 96
REMARK SMILES IDX 74 97 67 98 69 99 75 100 68 101 70 102 71 103 72 104 73 105
REMARK H PARENT 7 21 7 22 95 58 63 69
REMARK Flexibility Score: inf
ROOT
ATOM      1  O   UNL A   1      39.621  27.782  27.825  1.00  0.00    -0.377 OA
ENDROOT
BRANCH   1   2
ATOM      2  C   UNL A   1      39.264  28.795  28.751  1.00  0.00     0.188 C 
BRANCH   2   3
ATOM      3  C   UNL A   1      37.765  29.086  28.748  1.00  0.00     0.188 C 
BRANCH   3   4
ATOM      4  O   UNL A   1      37.365  30.130  27.868  1.00  0.00    -0.376 OA
BRANCH   4   5
ATOM      5  C   UNL A   1      35.969  30.293  27.616  1.00  0.00     0.202 C 
BRANCH   5   6
ATOM      6  C   UNL A   1      35.201  29.024  27.246  1.00  0.00     0.261 C 
BRANCH   6   7
ATOM      7  O   UNL A   1      34.347  29.223  26.092  1.00  0.00    -0.462 OA
BRANCH   7   8
ATOM      8  C   UNL A   1      33.856  28.103  25.504  1.00  0.00     0.330 C 
ATOM      9  O   UNL A   1      34.256  26.961  25.722  1.00  0.00    -0.250 OA
BRANCH   8  10
ATOM     10  C   UNL A   1      32.830  28.376  24.406  1.00  0.00     0.212 C 
ATOM     11  C   UNL A   1      31.216  27.818  26.417  1.00  0.00     0.026 C 
ATOM     12  C   UNL A   1      31.405  28.503  25.053  1.00  0.00     0.044 C 
ATOM     13  C   UNL A   1      31.003  29.979  25.140  1.00  0.00     0.026 C 
ATOM     14  S   UNL A   1      30.175  27.643  23.909  1.00  0.00    -0.121 SA
ATOM     15  C   UNL A   1      31.378  27.478  22.604  1.00  0.00     0.213 C 
ATOM     16  N   UNL A   1      32.646  27.429  23.328  1.00  0.00    -0.304 N 
ATOM     17  C   UNL A   1      31.895  26.241  21.825  1.00  0.00     0.307 C 
ATOM     18  C   UNL A   1      33.293  26.944  22.253  1.00  0.00     0.285 C 
ATOM     19  O   UNL A   1      34.399  27.097  21.806  1.00  0.00    -0.268 OA
BRANCH  17  20
ATOM     20  N   UNL A   1      31.799  24.854  22.338  1.00  0.00    -0.315 N 
ATOM     21  H   UNL A   1      30.869  24.501  22.114  1.00  0.00     0.348 HD
ATOM     22  H   UNL A   1      31.990  24.916  23.338  1.00  0.00     0.348 HD
BRANCH  20  23
ATOM     23  C   UNL A   1      32.773  23.915  21.807  1.00  0.00     0.415 C 
BRANCH  23  24
ATOM     24  N   UNL A   1      32.910  22.737  22.665  1.00  0.00    -0.194 N 
ATOM     25  N   UNL A   1      31.847  22.039  23.126  1.00  0.00    -0.061 NA
ATOM     26  C   UNL A   1      34.064  22.404  23.333  1.00  0.00     0.095 A 
ATOM     27  N   UNL A   1      32.283  21.248  24.099  1.00  0.00    -0.130 NA
ATOM     28  C   UNL A   1      33.628  21.470  24.264  1.00  0.00     0.113 A 
ATOM     29  C   UNL A   1      35.389  22.846  23.249  1.00  0.00     0.030 A 
ATOM     30  C   UNL A   1      34.542  20.947  25.187  1.00  0.00     0.032 A 
ATOM     31  C   UNL A   1      36.289  22.308  24.171  1.00  0.00     0.002 A 
ATOM     32  C   UNL A   1      35.875  21.380  25.129  1.00  0.00     0.002 A 
ENDBRANCH  23  24
ENDBRANCH  20  23
ENDBRANCH  17  20
ENDBRANCH   8  10
ENDBRANCH   7   8
ENDBRANCH   6   7
ENDBRANCH   5   6
ENDBRANCH   4   5
ENDBRANCH   3   4
ENDBRANCH   2   3
ENDBRANCH   1   2
BRANCH   1  33
ATOM     33  C   UNL A   1      39.714  26.449  28.332  1.00  0.00     0.188 C 
BRANCH  33  34
ATOM     34  C   UNL A   1      39.913  25.326  27.306  1.00  0.00     0.188 C 
BRANCH  34  35
ATOM     35  O   UNL A   1      38.723  24.797  26.724  1.00  0.00    -0.376 OA
BRANCH  35  36
ATOM     36  C   UNL A   1      38.698  23.380  26.521  1.00  0.00     0.202 C 
BRANCH  36  37
ATOM     37  C   UNL A   1      39.932  22.646  27.062  1.00  0.00     0.261 C 
BRANCH  37  38
ATOM     38  O   UNL A   1      40.506  21.864  25.998  1.00  0.00    -0.460 OA
BRANCH  38  39
ATOM     39  C   UNL A   1      41.783  21.450  26.185  1.00  0.00     0.338 C 
ATOM     40  O   UNL A   1      42.221  20.329  25.996  1.00  0.00    -0.246 OA
BRANCH  39  41
ATOM     41  C   UNL A   1      42.616  22.655  26.406  1.00  0.00     0.060 A 
ATOM     42  C   UNL A   1      42.832  23.597  25.393  1.00  0.00     0.016 A 
ATOM     43  C   UNL A   1      43.276  22.780  27.634  1.00  0.00     0.016 A 
ATOM     44  C   UNL A   1      43.728  24.647  25.607  1.00  0.00     0.010 A 
ATOM     45  C   UNL A   1      44.181  23.825  27.838  1.00  0.00     0.010 A 
ATOM     46  C   UNL A   1      44.426  24.757  26.822  1.00  0.00    -0.014 A 
BRANCH  46  47
ATOM     47  C   UNL A   1      45.355  25.885  27.004  1.00  0.00     0.031 A 
ATOM     48  C   UNL A   1      46.758  25.738  26.522  1.00  0.00     0.074 A 
ATOM     49  C   UNL A   1      45.015  27.136  27.378  1.00  0.00     0.049 A 
ATOM     50  N   UNL A   1      47.857  25.951  27.179  1.00  0.00    -0.248 NA
ATOM     51  C   UNL A   1      46.945  25.382  25.109  1.00  0.00     0.031 C 
ATOM     52  C   UNL A   1      43.668  27.684  27.515  1.00  0.00     0.029 A 
ATOM     53  N   UNL A   1      45.834  28.221  27.597  1.00  0.00    -0.354 N 
ATOM     54  C   UNL A   1      48.878  25.861  26.238  1.00  0.00     0.074 A 
ATOM     55  C   UNL A   1      48.269  25.476  24.987  1.00  0.00     0.031 C 
ATOM     56  C   UNL A   1      43.755  29.030  27.604  1.00  0.00     0.029 A 
ATOM     57  C   UNL A   1      45.157  29.427  27.646  1.00  0.00     0.049 A 
ATOM     58  H   UNL A   1      46.808  28.146  27.707  1.00  0.00     0.167 HD
ATOM     59  C   UNL A   1      50.170  26.208  26.467  1.00  0.00     0.034 A 
ATOM     60  C   UNL A   1      45.674  30.677  27.695  1.00  0.00     0.034 A 
ATOM     61  C   UNL A   1      50.489  26.556  27.814  1.00  0.00     0.049 A 
ATOM     62  C   UNL A   1      47.085  30.642  28.152  1.00  0.00     0.074 A 
ATOM     63  C   UNL A   1      50.797  25.888  28.974  1.00  0.00     0.029 A 
ATOM     64  N   UNL A   1      50.356  27.881  28.134  1.00  0.00    -0.354 N 
ATOM     65  N   UNL A   1      47.463  30.394  29.376  1.00  0.00    -0.248 NA
ATOM     66  C   UNL A   1      48.173  30.837  27.195  1.00  0.00     0.031 C 
ATOM     67  C   UNL A   1      50.646  26.825  30.035  1.00  0.00     0.029 A 
ATOM     68  C   UNL A   1      50.170  28.016  29.490  1.00  0.00     0.049 A 
ATOM     69  H   UNL A   1      50.388  28.625  27.489  1.00  0.00     0.167 HD
ATOM     70  C   UNL A   1      48.795  30.039  29.268  1.00  0.00     0.074 A 
ATOM     71  C   UNL A   1      49.218  30.526  27.967  1.00  0.00     0.031 C 
ATOM     72  C   UNL A   1      49.339  29.068  30.055  1.00  0.00     0.034 A 
BRANCH  59  73
ATOM     73  C   UNL A   1      51.155  26.433  25.370  1.00  0.00     0.023 A 
ATOM     74  C   UNL A   1      52.246  25.558  25.233  1.00  0.00     0.012 A 
ATOM     75  C   UNL A   1      51.106  27.580  24.555  1.00  0.00     0.148 A 
ATOM     76  C   UNL A   1      53.240  25.798  24.278  1.00  0.00     0.002 A 
ATOM     77  C   UNL A   1      52.077  27.791  23.581  1.00  0.00     0.091 A 
ATOM     78  F   UNL A   1      50.137  28.486  24.756  1.00  0.00    -0.205 F 
ATOM     79  C   UNL A   1      53.149  26.907  23.440  1.00  0.00     0.022 A 
BRANCH  77  80
ATOM     80  S   UNL A   1      51.912  29.198  22.482  1.00  0.00     0.127 S 
ATOM     81  O   UNL A   1      53.017  29.004  21.549  1.00  0.00    -0.237 OA
ATOM     82  O   UNL A   1      50.582  29.014  21.899  1.00  0.00    -0.237 OA
ATOM     83  O   UNL A   1      52.014  30.329  23.398  1.00  0.00    -0.744 OA
ENDBRANCH  77  80
ENDBRANCH  59  73
BRANCH  60  84
ATOM     84  C   UNL A   1      45.017  31.982  27.433  1.00  0.00     0.023 A 
ATOM     85  C   UNL A   1      44.858  32.419  26.101  1.00  0.00     0.012 A 
ATOM     86  C   UNL A   1      44.411  32.745  28.449  1.00  0.00     0.148 A 
ATOM     87  C   UNL A   1      44.127  33.571  25.794  1.00  0.00     0.002 A 
ATOM     88  C   UNL A   1      43.723  33.918  28.142  1.00  0.00     0.091 A 
ATOM     89  F   UNL A   1      44.452  32.311  29.718  1.00  0.00    -0.205 F 
ATOM     90  C   UNL A   1      43.566  34.329  26.815  1.00  0.00     0.022 A 
BRANCH  88  91
ATOM     91  S   UNL A   1      43.075  34.926  29.479  1.00  0.00     0.127 S 
ATOM     92  O   UNL A   1      42.525  36.093  28.787  1.00  0.00    -0.237 OA
ATOM     93  O   UNL A   1      42.073  34.060  30.089  1.00  0.00    -0.237 OA
ATOM     94  O   UNL A   1      44.264  35.211  30.278  1.00  0.00    -0.744 OA
ENDBRANCH  88  91
ENDBRANCH  60  84
BRANCH  72  95
ATOM     95  C   UNL A   1      48.745  28.823  31.420  1.00  0.00     0.023 A 
ATOM     96  C   UNL A   1      49.194  29.527  32.553  1.00  0.00     0.012 A 
ATOM     97  C   UNL A   1      47.628  27.975  31.560  1.00  0.00     0.148 A 
ATOM     98  C   UNL A   1      48.583  29.360  33.797  1.00  0.00     0.002 A 
ATOM     99  C   UNL A   1      46.983  27.860  32.790  1.00  0.00     0.091 A 
ATOM    100  F   UNL A   1      47.187  27.298  30.486  1.00  0.00    -0.205 F 
ATOM    101  C   UNL A   1      47.468  28.537  33.915  1.00  0.00     0.022 A 
BRANCH  99 102
ATOM    102  S   UNL A   1      45.440  26.950  32.929  1.00  0.00     0.127 S 
ATOM    103  O   UNL A   1      45.840  25.586  32.600  1.00  0.00    -0.237 OA
ATOM    104  O   UNL A   1      45.062  27.155  34.329  1.00  0.00    -0.237 OA
ATOM    105  O   UNL A   1      44.546  27.612  31.985  1.00  0.00    -0.744 OA
ENDBRANCH  99 102
ENDBRANCH  72  95
ENDBRANCH  46  47
ENDBRANCH  39  41
ENDBRANCH  38  39
ENDBRANCH  37  38
ENDBRANCH  36  37
ENDBRANCH  35  36
ENDBRANCH  34  35
ENDBRANCH  33  34
ENDBRANCH   1  33
TORSDOF 26
ENDMDL
