MODEL 1
REMARK VINA RESULT:     -10.7      0.000      0.000
REMARK SMILES CCC(=O)N1CCC[C@](C[C@H]2CC(c3ccc(C)cc3)=NO2)(C(=O)OCCOCCOCCOCCOC(=O)c2ccc(-c3c4nc(c(-c5cccc(S(=O)(=O)[O-])c5F)c5ccc([nH]5)c(-c5cccc(S(=O)(=O)[O-])c5F)c5nc(c(-c6cccc(S(=O)(=O)[O-])c6F)c6ccc3[nH]6)C=C5)C=C4)cc2)C1
REMARK SMILES IDX 31 1 30 2 29 3 28 4 27 5 26 6 25 7 23 8 24 9 9 10 5 11 6 12
REMARK SMILES IDX 103 13 7 14 8 15 3 16 4 17 2 18 1 19 10 20 11 21 12 22 22 23
REMARK SMILES IDX 13 24 21 25 14 26 15 27 20 28 16 29 19 30 17 31 18 32 32 33
REMARK SMILES IDX 33 34 34 35 35 36 36 37 37 38 38 39 39 40 40 41 41 42 102 43
REMARK SMILES IDX 42 44 101 45 43 46 44 47 45 48 95 49 46 50 100 51 94 52
REMARK SMILES IDX 96 53 47 54 99 55 93 56 92 57 48 59 80 60 60 61 79 62 61 63
REMARK SMILES IDX 64 64 78 65 97 66 62 67 63 68 77 70 98 71 65 72 49 73 50 74
REMARK SMILES IDX 58 75 51 76 53 77 59 78 52 79 54 80 55 81 56 82 57 83 81 84
REMARK SMILES IDX 82 85 90 86 83 87 85 88 91 89 84 90 86 91 87 92 88 93 89 94
REMARK SMILES IDX 66 95 67 96 75 97 68 98 70 99 76 100 69 101 71 102 72 103
REMARK SMILES IDX 73 104 74 105
REMARK H PARENT 96 58 64 69
REMARK Flexibility Score: inf
ROOT
ATOM      1  O   UNL A   1      41.458  22.242  26.784  1.00  0.00    -0.377 OA
ENDROOT
BRANCH   1   2
ATOM      2  C   UNL A   1      41.820  20.919  26.307  1.00  0.00     0.188 C 
BRANCH   2   3
ATOM      3  C   UNL A   1      40.973  19.414  26.255  1.00  0.00     0.188 C 
BRANCH   3   4
ATOM      4  O   UNL A   1      39.510  18.861  25.522  1.00  0.00    -0.376 OA
BRANCH   4   5
ATOM      5  C   UNL A   1      38.098  19.597  24.759  1.00  0.00     0.202 C 
BRANCH   5   6
ATOM      6  C   UNL A   1      37.026  21.118  25.247  1.00  0.00     0.261 C 
BRANCH   6   7
ATOM      7  O   UNL A   1      35.229  21.348  25.245  1.00  0.00    -0.463 OA
BRANCH   7   8
ATOM      8  C   UNL A   1      34.134  21.751  24.417  1.00  0.00     0.314 C 
ATOM      9  O   UNL A   1      34.195  22.545  23.462  1.00  0.00    -0.252 OA
BRANCH   8  10
ATOM     10  C   UNL A   1      32.642  21.159  24.360  1.00  0.00     0.089 C 
ATOM     11  N   UNL A   1      32.943  18.645  23.679  1.00  0.00    -0.342 N 
ATOM     12  C   UNL A   1      32.159  18.880  22.468  1.00  0.00     0.119 C 
ATOM     13  C   UNL A   1      32.760  19.622  24.770  1.00  0.00     0.138 C 
ATOM     14  C   UNL A   1      32.213  20.331  22.016  1.00  0.00     0.023 C 
ATOM     15  C   UNL A   1      31.726  21.177  23.163  1.00  0.00     0.022 C 
BRANCH  11  16
ATOM     16  C   UNL A   1      33.508  17.376  23.793  1.00  0.00     0.222 C 
ATOM     17  O   UNL A   1      34.007  16.838  22.791  1.00  0.00    -0.275 OA
BRANCH  16  18
ATOM     18  C   UNL A   1      33.667  16.626  25.118  1.00  0.00     0.097 C 
ATOM     19  C   UNL A   1      32.720  15.512  25.511  1.00  0.00     0.014 C 
ENDBRANCH  16  18
ENDBRANCH  11  16
BRANCH  10  20
ATOM     20  C   UNL A   1      31.912  21.891  25.622  1.00  0.00     0.069 C 
BRANCH  20  21
ATOM     21  C   UNL A   1      30.942  23.099  25.563  1.00  0.00     0.212 C 
ATOM     22  C   UNL A   1      31.035  24.176  26.623  1.00  0.00     0.108 C 
ATOM     23  O   UNL A   1      30.953  23.777  24.302  1.00  0.00    -0.392 OA
ATOM     24  C   UNL A   1      31.522  25.293  25.770  1.00  0.00     0.091 C 
ATOM     25  N   UNL A   1      31.392  25.107  24.496  1.00  0.00    -0.090 NA
BRANCH  24  26
ATOM     26  C   UNL A   1      32.158  26.508  26.324  1.00  0.00    -0.001 A 
ATOM     27  C   UNL A   1      33.497  26.794  26.047  1.00  0.00     0.010 A 
ATOM     28  C   UNL A   1      31.364  27.456  26.975  1.00  0.00     0.010 A 
ATOM     29  C   UNL A   1      34.024  28.046  26.372  1.00  0.00     0.004 A 
ATOM     30  C   UNL A   1      31.903  28.697  27.324  1.00  0.00     0.004 A 
ATOM     31  C   UNL A   1      33.227  29.014  26.992  1.00  0.00    -0.051 A 
ATOM     32  C   UNL A   1      33.779  30.372  27.303  1.00  0.00     0.044 C 
ENDBRANCH  24  26
ENDBRANCH  20  21
ENDBRANCH  10  20
ENDBRANCH   8  10
ENDBRANCH   7   8
ENDBRANCH   6   7
ENDBRANCH   5   6
ENDBRANCH   4   5
ENDBRANCH   3   4
ENDBRANCH   2   3
ENDBRANCH   1   2
BRANCH   1  33
ATOM     33  C   UNL A   1      41.814  23.501  26.212  1.00  0.00     0.188 C 
BRANCH  33  34
ATOM     34  C   UNL A   1      43.044  24.199  26.741  1.00  0.00     0.188 C 
BRANCH  34  35
ATOM     35  O   UNL A   1      44.106  23.270  26.668  1.00  0.00    -0.376 OA
BRANCH  35  36
ATOM     36  C   UNL A   1      45.164  23.494  27.576  1.00  0.00     0.202 C 
BRANCH  36  37
ATOM     37  C   UNL A   1      46.392  24.046  26.857  1.00  0.00     0.261 C 
BRANCH  37  38
ATOM     38  O   UNL A   1      45.966  25.122  25.989  1.00  0.00    -0.460 OA
BRANCH  38  39
ATOM     39  C   UNL A   1      46.962  25.644  25.206  1.00  0.00     0.338 C 
ATOM     40  O   UNL A   1      47.614  24.997  24.406  1.00  0.00    -0.246 OA
BRANCH  39  41
ATOM     41  C   UNL A   1      47.352  26.985  25.736  1.00  0.00     0.060 A 
ATOM     42  C   UNL A   1      48.689  27.290  25.907  1.00  0.00     0.016 A 
ATOM     43  C   UNL A   1      46.464  27.851  26.317  1.00  0.00     0.016 A 
ATOM     44  C   UNL A   1      49.101  28.093  27.009  1.00  0.00     0.010 A 
ATOM     45  C   UNL A   1      46.940  28.773  27.289  1.00  0.00     0.010 A 
ATOM     46  C   UNL A   1      48.212  28.647  27.964  1.00  0.00    -0.014 A 
BRANCH  46  47
ATOM     47  C   UNL A   1      48.654  28.826  29.744  1.00  0.00     0.031 A 
ATOM     48  C   UNL A   1      50.170  28.124  30.754  1.00  0.00     0.074 A 
ATOM     49  C   UNL A   1      47.516  29.274  30.368  1.00  0.00     0.049 A 
ATOM     50  N   UNL A   1      50.104  26.906  31.347  1.00  0.00    -0.248 NA
ATOM     51  C   UNL A   1      51.733  28.232  30.740  1.00  0.00     0.031 C 
ATOM     52  C   UNL A   1      47.356  30.016  31.600  1.00  0.00     0.029 A 
ATOM     53  N   UNL A   1      46.197  28.860  30.113  1.00  0.00    -0.354 N 
ATOM     54  C   UNL A   1      51.216  26.210  31.709  1.00  0.00     0.074 A 
ATOM     55  C   UNL A   1      52.243  27.043  31.166  1.00  0.00     0.031 C 
ATOM     56  C   UNL A   1      46.164  29.724  32.156  1.00  0.00     0.029 A 
ATOM     57  C   UNL A   1      45.464  28.839  31.284  1.00  0.00     0.049 A 
ATOM     58  H   UNL A   1      45.845  28.621  29.225  1.00  0.00     0.167 HD
ATOM     59  C   UNL A   1      51.144  25.075  32.498  1.00  0.00     0.034 A 
ATOM     60  C   UNL A   1      44.328  28.193  31.603  1.00  0.00     0.034 A 
ATOM     61  C   UNL A   1      49.905  24.991  33.310  1.00  0.00     0.049 A 
ATOM     62  C   UNL A   1      44.530  27.029  32.543  1.00  0.00     0.074 A 
ATOM     63  C   UNL A   1      49.688  25.703  34.471  1.00  0.00     0.029 A 
ATOM     64  N   UNL A   1      48.714  24.288  33.099  1.00  0.00    -0.354 N 
ATOM     65  N   UNL A   1      45.643  26.381  32.766  1.00  0.00    -0.248 NA
ATOM     66  C   UNL A   1      43.422  26.542  33.363  1.00  0.00     0.031 C 
ATOM     67  C   UNL A   1      48.336  25.693  34.794  1.00  0.00     0.029 A 
ATOM     68  C   UNL A   1      47.710  24.830  33.926  1.00  0.00     0.049 A 
ATOM     69  H   UNL A   1      48.596  23.537  32.474  1.00  0.00     0.167 HD
ATOM     70  C   UNL A   1      45.395  25.342  33.659  1.00  0.00     0.074 A 
ATOM     71  C   UNL A   1      44.004  25.538  34.039  1.00  0.00     0.031 C 
ATOM     72  C   UNL A   1      46.326  24.409  34.066  1.00  0.00     0.034 A 
BRANCH  59  73
ATOM     73  C   UNL A   1      52.424  24.427  33.010  1.00  0.00     0.023 A 
ATOM     74  C   UNL A   1      52.726  23.098  32.621  1.00  0.00     0.012 A 
ATOM     75  C   UNL A   1      53.303  25.040  33.923  1.00  0.00     0.148 A 
ATOM     76  C   UNL A   1      53.736  22.351  33.229  1.00  0.00     0.002 A 
ATOM     77  C   UNL A   1      54.305  24.286  34.546  1.00  0.00     0.091 A 
ATOM     78  F   UNL A   1      53.143  26.343  34.188  1.00  0.00    -0.205 F 
ATOM     79  C   UNL A   1      54.505  22.936  34.220  1.00  0.00     0.022 A 
BRANCH  77  80
ATOM     80  S   UNL A   1      55.326  24.928  35.880  1.00  0.00     0.127 S 
ATOM     81  O   UNL A   1      54.624  24.429  37.064  1.00  0.00    -0.237 OA
ATOM     82  O   UNL A   1      56.619  24.292  35.630  1.00  0.00    -0.237 OA
ATOM     83  O   UNL A   1      55.317  26.377  35.739  1.00  0.00    -0.744 OA
ENDBRANCH  77  80
ENDBRANCH  59  73
BRANCH  60  84
ATOM     84  C   UNL A   1      43.335  28.354  30.516  1.00  0.00     0.023 A 
ATOM     85  C   UNL A   1      43.176  27.193  29.712  1.00  0.00     0.012 A 
ATOM     86  C   UNL A   1      42.275  29.257  30.629  1.00  0.00     0.148 A 
ATOM     87  C   UNL A   1      41.933  26.849  29.190  1.00  0.00     0.002 A 
ATOM     88  C   UNL A   1      41.029  28.892  30.126  1.00  0.00     0.091 A 
ATOM     89  F   UNL A   1      42.459  30.371  31.348  1.00  0.00    -0.205 F 
ATOM     90  C   UNL A   1      40.848  27.680  29.435  1.00  0.00     0.022 A 
BRANCH  88  91
ATOM     91  S   UNL A   1      39.570  29.829  30.591  1.00  0.00     0.127 S 
ATOM     92  O   UNL A   1      39.852  31.129  29.984  1.00  0.00    -0.237 OA
ATOM     93  O   UNL A   1      38.490  29.074  29.956  1.00  0.00    -0.237 OA
ATOM     94  O   UNL A   1      39.569  29.766  32.043  1.00  0.00    -0.744 OA
ENDBRANCH  88  91
ENDBRANCH  60  84
BRANCH  72  95
ATOM     95  C   UNL A   1      46.062  23.186  34.957  1.00  0.00     0.023 A 
ATOM     96  C   UNL A   1      45.974  21.877  34.450  1.00  0.00     0.012 A 
ATOM     97  C   UNL A   1      46.002  23.310  36.378  1.00  0.00     0.148 A 
ATOM     98  C   UNL A   1      45.791  20.765  35.287  1.00  0.00     0.002 A 
ATOM     99  C   UNL A   1      45.930  22.196  37.209  1.00  0.00     0.091 A 
ATOM    100  F   UNL A   1      45.984  24.518  36.954  1.00  0.00    -0.205 F 
ATOM    101  C   UNL A   1      45.797  20.921  36.667  1.00  0.00     0.022 A 
BRANCH  99 102
ATOM    102  S   UNL A   1      46.173  22.331  38.990  1.00  0.00     0.127 S 
ATOM    103  O   UNL A   1      46.044  20.942  39.423  1.00  0.00    -0.237 OA
ATOM    104  O   UNL A   1      47.532  22.870  39.068  1.00  0.00    -0.237 OA
ATOM    105  O   UNL A   1      45.144  23.246  39.464  1.00  0.00    -0.744 OA
ENDBRANCH  99 102
ENDBRANCH  72  95
ENDBRANCH  46  47
ENDBRANCH  39  41
ENDBRANCH  38  39
ENDBRANCH  37  38
ENDBRANCH  36  37
ENDBRANCH  35  36
ENDBRANCH  34  35
ENDBRANCH  33  34
ENDBRANCH   1  33
TORSDOF 28
ENDMDL
MODEL 2
REMARK VINA RESULT:     -10.3      7.106     12.514
REMARK SMILES CCC(=O)N1CCC[C@](C[C@H]2CC(c3ccc(C)cc3)=NO2)(C(=O)OCCOCCOCCOCCOC(=O)c2ccc(-c3c4nc(c(-c5cccc(S(=O)(=O)[O-])c5F)c5ccc([nH]5)c(-c5cccc(S(=O)(=O)[O-])c5F)c5nc(c(-c6cccc(S(=O)(=O)[O-])c6F)c6ccc3[nH]6)C=C5)C=C4)cc2)C1
REMARK SMILES IDX 31 1 30 2 29 3 28 4 27 5 26 6 25 7 23 8 24 9 9 10 5 11 6 12
REMARK SMILES IDX 103 13 7 14 8 15 3 16 4 17 2 18 1 19 10 20 11 21 12 22 22 23
REMARK SMILES IDX 13 24 21 25 14 26 15 27 20 28 16 29 19 30 17 31 18 32 32 33
REMARK SMILES IDX 33 34 34 35 35 36 36 37 37 38 38 39 39 40 40 41 41 42 102 43
REMARK SMILES IDX 42 44 101 45 43 46 44 47 45 48 95 49 46 50 100 51 94 52
REMARK SMILES IDX 96 53 47 54 99 55 93 56 92 57 48 59 80 60 60 61 79 62 61 63
REMARK SMILES IDX 64 64 78 65 97 66 62 67 63 68 77 70 98 71 65 72 49 73 50 74
REMARK SMILES IDX 58 75 51 76 53 77 59 78 52 79 54 80 55 81 56 82 57 83 81 84
REMARK SMILES IDX 82 85 90 86 83 87 85 88 91 89 84 90 86 91 87 92 88 93 89 94
REMARK SMILES IDX 66 95 67 96 75 97 68 98 70 99 76 100 69 101 71 102 72 103
REMARK SMILES IDX 73 104 74 105
REMARK H PARENT 96 58 64 69
REMARK Flexibility Score: inf
ROOT
ATOM      1  O   UNL A   1      42.940  24.844  35.225  1.00  0.00    -0.377 OA
ENDROOT
BRANCH   1   2
ATOM      2  C   UNL A   1      43.496  23.744  34.457  1.00  0.00     0.188 C 
BRANCH   2   3
ATOM      3  C   UNL A   1      44.508  23.678  33.058  1.00  0.00     0.188 C 
BRANCH   3   4
ATOM      4  O   UNL A   1      44.236  23.521  31.360  1.00  0.00    -0.376 OA
BRANCH   4   5
ATOM      5  C   UNL A   1      43.739  24.579  30.036  1.00  0.00     0.202 C 
BRANCH   5   6
ATOM      6  C   UNL A   1      42.591  24.282  28.521  1.00  0.00     0.261 C 
BRANCH   6   7
ATOM      7  O   UNL A   1      41.034  25.075  28.045  1.00  0.00    -0.463 OA
BRANCH   7   8
ATOM      8  C   UNL A   1      40.088  26.066  28.456  1.00  0.00     0.314 C 
ATOM      9  O   UNL A   1      38.985  25.846  28.987  1.00  0.00    -0.252 OA
BRANCH   8  10
ATOM     10  C   UNL A   1      40.270  27.660  28.540  1.00  0.00     0.089 C 
ATOM     11  N   UNL A   1      38.791  28.399  30.574  1.00  0.00    -0.342 N 
ATOM     12  C   UNL A   1      37.982  29.228  29.684  1.00  0.00     0.119 C 
ATOM     13  C   UNL A   1      40.136  28.041  30.083  1.00  0.00     0.138 C 
ATOM     14  C   UNL A   1      38.003  28.727  28.248  1.00  0.00     0.023 C 
ATOM     15  C   UNL A   1      39.443  28.687  27.808  1.00  0.00     0.022 C 
BRANCH  11  16
ATOM     16  C   UNL A   1      38.346  28.320  31.893  1.00  0.00     0.222 C 
ATOM     17  O   UNL A   1      38.713  27.371  32.605  1.00  0.00    -0.275 OA
BRANCH  16  18
ATOM     18  C   UNL A   1      37.511  29.404  32.580  1.00  0.00     0.097 C 
ATOM     19  C   UNL A   1      37.997  30.093  33.838  1.00  0.00     0.014 C 
ENDBRANCH  16  18
ENDBRANCH  11  16
BRANCH  10  20
ATOM     20  C   UNL A   1      41.847  27.865  28.177  1.00  0.00     0.069 C 
BRANCH  20  21
ATOM     21  C   UNL A   1      42.466  28.012  26.763  1.00  0.00     0.212 C 
ATOM     22  C   UNL A   1      43.777  27.323  26.452  1.00  0.00     0.108 C 
ATOM     23  O   UNL A   1      41.566  27.654  25.708  1.00  0.00    -0.392 OA
ATOM     24  C   UNL A   1      43.280  26.318  25.474  1.00  0.00     0.091 C 
ATOM     25  N   UNL A   1      42.099  26.553  24.999  1.00  0.00    -0.090 NA
BRANCH  24  26
ATOM     26  C   UNL A   1      44.046  25.109  25.105  1.00  0.00    -0.001 A 
ATOM     27  C   UNL A   1      45.443  25.128  25.110  1.00  0.00     0.010 A 
ATOM     28  C   UNL A   1      43.369  23.900  24.925  1.00  0.00     0.010 A 
ATOM     29  C   UNL A   1      46.158  23.935  24.990  1.00  0.00     0.004 A 
ATOM     30  C   UNL A   1      44.087  22.711  24.777  1.00  0.00     0.004 A 
ATOM     31  C   UNL A   1      45.487  22.716  24.846  1.00  0.00    -0.051 A 
ATOM     32  C   UNL A   1      46.252  21.429  24.760  1.00  0.00     0.044 C 
ENDBRANCH  24  26
ENDBRANCH  20  21
ENDBRANCH  10  20
ENDBRANCH   8  10
ENDBRANCH   7   8
ENDBRANCH   6   7
ENDBRANCH   5   6
ENDBRANCH   4   5
ENDBRANCH   3   4
ENDBRANCH   2   3
ENDBRANCH   1   2
BRANCH   1  33
ATOM     33  C   UNL A   1      41.654  24.912  35.842  1.00  0.00     0.188 C 
BRANCH  33  34
ATOM     34  C   UNL A   1      41.558  25.528  37.217  1.00  0.00     0.188 C 
BRANCH  34  35
ATOM     35  O   UNL A   1      42.129  26.817  37.130  1.00  0.00    -0.376 OA
BRANCH  35  36
ATOM     36  C   UNL A   1      41.301  27.802  36.549  1.00  0.00     0.202 C 
BRANCH  36  37
ATOM     37  C   UNL A   1      42.134  28.874  35.852  1.00  0.00     0.261 C 
BRANCH  37  38
ATOM     38  O   UNL A   1      42.726  28.291  34.668  1.00  0.00    -0.460 OA
BRANCH  38  39
ATOM     39  C   UNL A   1      44.055  28.580  34.501  1.00  0.00     0.338 C 
ATOM     40  O   UNL A   1      44.805  28.903  35.406  1.00  0.00    -0.246 OA
BRANCH  39  41
ATOM     41  C   UNL A   1      44.334  28.790  33.048  1.00  0.00     0.060 A 
ATOM     42  C   UNL A   1      45.364  29.627  32.664  1.00  0.00     0.016 A 
ATOM     43  C   UNL A   1      43.468  28.416  32.055  1.00  0.00     0.016 A 
ATOM     44  C   UNL A   1      45.227  30.437  31.501  1.00  0.00     0.010 A 
ATOM     45  C   UNL A   1      43.479  29.133  30.828  1.00  0.00     0.010 A 
ATOM     46  C   UNL A   1      44.086  30.435  30.660  1.00  0.00    -0.014 A 
BRANCH  46  47
ATOM     47  C   UNL A   1      43.463  31.956  29.828  1.00  0.00     0.031 A 
ATOM     48  C   UNL A   1      44.300  33.108  28.492  1.00  0.00     0.074 A 
ATOM     49  C   UNL A   1      42.390  32.377  30.575  1.00  0.00     0.049 A 
ATOM     50  N   UNL A   1      45.069  34.160  28.869  1.00  0.00    -0.248 NA
ATOM     51  C   UNL A   1      44.859  32.989  27.035  1.00  0.00     0.031 C 
ATOM     52  C   UNL A   1      41.252  33.189  30.201  1.00  0.00     0.029 A 
ATOM     53  N   UNL A   1      42.285  32.371  31.977  1.00  0.00    -0.354 N 
ATOM     54  C   UNL A   1      45.974  34.738  28.032  1.00  0.00     0.074 A 
ATOM     55  C   UNL A   1      45.903  33.856  26.909  1.00  0.00     0.031 C 
ATOM     56  C   UNL A   1      40.799  33.861  31.277  1.00  0.00     0.029 A 
ATOM     57  C   UNL A   1      41.569  33.470  32.410  1.00  0.00     0.049 A 
ATOM     58  H   UNL A   1      42.667  31.680  32.566  1.00  0.00     0.167 HD
ATOM     59  C   UNL A   1      46.599  35.933  28.344  1.00  0.00     0.034 A 
ATOM     60  C   UNL A   1      41.522  34.074  33.612  1.00  0.00     0.034 A 
ATOM     61  C   UNL A   1      45.859  36.752  29.335  1.00  0.00     0.049 A 
ATOM     62  C   UNL A   1      42.228  35.408  33.653  1.00  0.00     0.074 A 
ATOM     63  C   UNL A   1      44.748  37.513  29.038  1.00  0.00     0.029 A 
ATOM     64  N   UNL A   1      46.031  36.903  30.715  1.00  0.00    -0.354 N 
ATOM     65  N   UNL A   1      43.145  35.839  32.827  1.00  0.00    -0.248 NA
ATOM     66  C   UNL A   1      41.874  36.399  34.668  1.00  0.00     0.031 C 
ATOM     67  C   UNL A   1      44.080  37.863  30.206  1.00  0.00     0.029 A 
ATOM     68  C   UNL A   1      44.860  37.463  31.265  1.00  0.00     0.049 A 
ATOM     69  H   UNL A   1      46.839  36.656  31.221  1.00  0.00     0.167 HD
ATOM     70  C   UNL A   1      43.579  37.095  33.243  1.00  0.00     0.074 A 
ATOM     71  C   UNL A   1      42.701  37.411  34.361  1.00  0.00     0.031 C 
ATOM     72  C   UNL A   1      44.590  37.820  32.647  1.00  0.00     0.034 A 
BRANCH  59  73
ATOM     73  C   UNL A   1      47.477  36.620  27.307  1.00  0.00     0.023 A 
ATOM     74  C   UNL A   1      46.953  37.717  26.578  1.00  0.00     0.012 A 
ATOM     75  C   UNL A   1      48.770  36.183  26.958  1.00  0.00     0.148 A 
ATOM     76  C   UNL A   1      47.590  38.242  25.453  1.00  0.00     0.002 A 
ATOM     77  C   UNL A   1      49.402  36.696  25.820  1.00  0.00     0.091 A 
ATOM     78  F   UNL A   1      49.361  35.259  27.729  1.00  0.00    -0.205 F 
ATOM     79  C   UNL A   1      48.801  37.706  25.052  1.00  0.00     0.022 A 
BRANCH  77  80
ATOM     80  S   UNL A   1      50.949  36.041  25.180  1.00  0.00     0.127 S 
ATOM     81  O   UNL A   1      50.737  34.598  25.300  1.00  0.00    -0.237 OA
ATOM     82  O   UNL A   1      50.964  36.539  23.804  1.00  0.00    -0.237 OA
ATOM     83  O   UNL A   1      52.001  36.571  26.037  1.00  0.00    -0.744 OA
ENDBRANCH  77  80
ENDBRANCH  59  73
BRANCH  60  84
ATOM     84  C   UNL A   1      41.379  33.060  34.681  1.00  0.00     0.023 A 
ATOM     85  C   UNL A   1      42.578  32.822  35.405  1.00  0.00     0.012 A 
ATOM     86  C   UNL A   1      40.149  32.826  35.300  1.00  0.00     0.148 A 
ATOM     87  C   UNL A   1      42.547  32.541  36.768  1.00  0.00     0.002 A 
ATOM     88  C   UNL A   1      40.128  32.571  36.669  1.00  0.00     0.091 A 
ATOM     89  F   UNL A   1      39.030  33.006  34.588  1.00  0.00    -0.205 F 
ATOM     90  C   UNL A   1      41.319  32.458  37.409  1.00  0.00     0.022 A 
BRANCH  88  91
ATOM     91  S   UNL A   1      38.576  32.659  37.569  1.00  0.00     0.127 S 
ATOM     92  O   UNL A   1      38.188  34.051  37.346  1.00  0.00    -0.237 OA
ATOM     93  O   UNL A   1      37.750  31.669  36.878  1.00  0.00    -0.237 OA
ATOM     94  O   UNL A   1      38.944  32.287  38.926  1.00  0.00    -0.744 OA
ENDBRANCH  88  91
ENDBRANCH  60  84
BRANCH  72  95
ATOM     95  C   UNL A   1      45.171  39.152  33.143  1.00  0.00     0.023 A 
ATOM     96  C   UNL A   1      46.477  39.272  33.652  1.00  0.00     0.012 A 
ATOM     97  C   UNL A   1      44.439  40.371  33.009  1.00  0.00     0.148 A 
ATOM     98  C   UNL A   1      47.011  40.510  34.046  1.00  0.00     0.002 A 
ATOM     99  C   UNL A   1      45.012  41.605  33.298  1.00  0.00     0.091 A 
ATOM    100  F   UNL A   1      43.158  40.354  32.623  1.00  0.00    -0.205 F 
ATOM    101  C   UNL A   1      46.290  41.679  33.844  1.00  0.00     0.022 A 
BRANCH  99 102
ATOM    102  S   UNL A   1      44.208  43.150  32.831  1.00  0.00     0.127 S 
ATOM    103  O   UNL A   1      42.998  43.126  33.651  1.00  0.00    -0.237 OA
ATOM    104  O   UNL A   1      45.202  44.143  33.242  1.00  0.00    -0.237 OA
ATOM    105  O   UNL A   1      44.004  43.073  31.392  1.00  0.00    -0.744 OA
ENDBRANCH  99 102
ENDBRANCH  72  95
ENDBRANCH  46  47
ENDBRANCH  39  41
ENDBRANCH  38  39
ENDBRANCH  37  38
ENDBRANCH  36  37
ENDBRANCH  35  36
ENDBRANCH  34  35
ENDBRANCH  33  34
ENDBRANCH   1  33
TORSDOF 28
ENDMDL
MODEL 3
REMARK VINA RESULT:     -10.2      7.805     13.028
REMARK SMILES CCC(=O)N1CCC[C@](C[C@H]2CC(c3ccc(C)cc3)=NO2)(C(=O)OCCOCCOCCOCCOC(=O)c2ccc(-c3c4nc(c(-c5cccc(S(=O)(=O)[O-])c5F)c5ccc([nH]5)c(-c5cccc(S(=O)(=O)[O-])c5F)c5nc(c(-c6cccc(S(=O)(=O)[O-])c6F)c6ccc3[nH]6)C=C5)C=C4)cc2)C1
REMARK SMILES IDX 31 1 30 2 29 3 28 4 27 5 26 6 25 7 23 8 24 9 9 10 5 11 6 12
REMARK SMILES IDX 103 13 7 14 8 15 3 16 4 17 2 18 1 19 10 20 11 21 12 22 22 23
REMARK SMILES IDX 13 24 21 25 14 26 15 27 20 28 16 29 19 30 17 31 18 32 32 33
REMARK SMILES IDX 33 34 34 35 35 36 36 37 37 38 38 39 39 40 40 41 41 42 102 43
REMARK SMILES IDX 42 44 101 45 43 46 44 47 45 48 95 49 46 50 100 51 94 52
REMARK SMILES IDX 96 53 47 54 99 55 93 56 92 57 48 59 80 60 60 61 79 62 61 63
REMARK SMILES IDX 64 64 78 65 97 66 62 67 63 68 77 70 98 71 65 72 49 73 50 74
REMARK SMILES IDX 58 75 51 76 53 77 59 78 52 79 54 80 55 81 56 82 57 83 81 84
REMARK SMILES IDX 82 85 90 86 83 87 85 88 91 89 84 90 86 91 87 92 88 93 89 94
REMARK SMILES IDX 66 95 67 96 75 97 68 98 70 99 76 100 69 101 71 102 72 103
REMARK SMILES IDX 73 104 74 105
REMARK H PARENT 96 58 64 69
REMARK Flexibility Score: inf
ROOT
ATOM      1  O   UNL A   1      43.607  36.109  26.374  1.00  0.00    -0.377 OA
ENDROOT
BRANCH   1   2
ATOM      2  C   UNL A   1      44.652  35.101  26.369  1.00  0.00     0.188 C 
BRANCH   2   3
ATOM      3  C   UNL A   1      44.784  33.546  25.629  1.00  0.00     0.188 C 
BRANCH   3   4
ATOM      4  O   UNL A   1      43.878  32.077  25.704  1.00  0.00    -0.376 OA
BRANCH   4   5
ATOM      5  C   UNL A   1      43.540  30.837  26.916  1.00  0.00     0.202 C 
BRANCH   5   6
ATOM      6  C   UNL A   1      42.712  29.107  26.780  1.00  0.00     0.261 C 
BRANCH   6   7
ATOM      7  O   UNL A   1      43.350  27.538  26.136  1.00  0.00    -0.463 OA
BRANCH   7   8
ATOM      8  C   UNL A   1      43.211  26.119  26.253  1.00  0.00     0.314 C 
ATOM      9  O   UNL A   1      43.224  25.305  25.313  1.00  0.00    -0.252 OA
BRANCH   8  10
ATOM     10  C   UNL A   1      43.214  25.212  27.578  1.00  0.00     0.089 C 
ATOM     11  N   UNL A   1      42.518  22.822  26.757  1.00  0.00    -0.342 N 
ATOM     12  C   UNL A   1      41.341  22.867  27.621  1.00  0.00     0.119 C 
ATOM     13  C   UNL A   1      43.617  23.742  27.107  1.00  0.00     0.138 C 
ATOM     14  C   UNL A   1      40.889  24.291  27.908  1.00  0.00     0.023 C 
ATOM     15  C   UNL A   1      42.056  25.018  28.523  1.00  0.00     0.022 C 
BRANCH  11  16
ATOM     16  C   UNL A   1      42.607  21.709  25.921  1.00  0.00     0.222 C 
ATOM     17  O   UNL A   1      43.116  21.831  24.795  1.00  0.00    -0.275 OA
BRANCH  16  18
ATOM     18  C   UNL A   1      42.221  20.289  26.344  1.00  0.00     0.097 C 
ATOM     19  C   UNL A   1      42.861  19.076  25.702  1.00  0.00     0.014 C 
ENDBRANCH  16  18
ENDBRANCH  11  16
BRANCH  10  20
ATOM     20  C   UNL A   1      44.506  25.774  28.400  1.00  0.00     0.069 C 
BRANCH  20  21
ATOM     21  C   UNL A   1      45.765  24.971  28.817  1.00  0.00     0.212 C 
ATOM     22  C   UNL A   1      46.673  24.408  27.746  1.00  0.00     0.108 C 
ATOM     23  O   UNL A   1      46.614  25.678  29.730  1.00  0.00    -0.392 OA
ATOM     24  C   UNL A   1      47.870  25.257  27.992  1.00  0.00     0.091 C 
ATOM     25  N   UNL A   1      47.875  25.883  29.124  1.00  0.00    -0.090 NA
BRANCH  24  26
ATOM     26  C   UNL A   1      48.954  25.422  27.001  1.00  0.00    -0.001 A 
ATOM     27  C   UNL A   1      48.734  26.143  25.824  1.00  0.00     0.010 A 
ATOM     28  C   UNL A   1      50.248  25.009  27.330  1.00  0.00     0.010 A 
ATOM     29  C   UNL A   1      49.811  26.493  25.008  1.00  0.00     0.004 A 
ATOM     30  C   UNL A   1      51.320  25.337  26.497  1.00  0.00     0.004 A 
ATOM     31  C   UNL A   1      51.114  26.114  25.349  1.00  0.00    -0.051 A 
ATOM     32  C   UNL A   1      52.276  26.527  24.497  1.00  0.00     0.044 C 
ENDBRANCH  24  26
ENDBRANCH  20  21
ENDBRANCH  10  20
ENDBRANCH   8  10
ENDBRANCH   7   8
ENDBRANCH   6   7
ENDBRANCH   5   6
ENDBRANCH   4   5
ENDBRANCH   3   4
ENDBRANCH   2   3
ENDBRANCH   1   2
BRANCH   1  33
ATOM     33  C   UNL A   1      43.172  36.907  27.475  1.00  0.00     0.188 C 
BRANCH  33  34
ATOM     34  C   UNL A   1      42.012  37.850  27.256  1.00  0.00     0.188 C 
BRANCH  34  35
ATOM     35  O   UNL A   1      42.228  38.966  28.094  1.00  0.00    -0.376 OA
BRANCH  35  36
ATOM     36  C   UNL A   1      41.602  40.161  27.675  1.00  0.00     0.202 C 
BRANCH  36  37
ATOM     37  C   UNL A   1      42.204  40.663  26.366  1.00  0.00     0.261 C 
BRANCH  37  38
ATOM     38  O   UNL A   1      43.569  41.067  26.618  1.00  0.00    -0.460 OA
BRANCH  38  39
ATOM     39  C   UNL A   1      44.229  41.544  25.516  1.00  0.00     0.338 C 
ATOM     40  O   UNL A   1      43.683  41.857  24.472  1.00  0.00    -0.246 OA
BRANCH  39  41
ATOM     41  C   UNL A   1      45.692  41.278  25.665  1.00  0.00     0.060 A 
ATOM     42  C   UNL A   1      46.226  40.100  25.178  1.00  0.00     0.016 A 
ATOM     43  C   UNL A   1      46.508  42.006  26.490  1.00  0.00     0.016 A 
ATOM     44  C   UNL A   1      47.282  39.453  25.880  1.00  0.00     0.010 A 
ATOM     45  C   UNL A   1      47.663  41.384  27.037  1.00  0.00     0.010 A 
ATOM     46  C   UNL A   1      47.868  39.953  27.070  1.00  0.00    -0.014 A 
BRANCH  46  47
ATOM     47  C   UNL A   1      48.456  38.852  28.425  1.00  0.00     0.031 A 
ATOM     48  C   UNL A   1      49.013  36.980  28.392  1.00  0.00     0.074 A 
ATOM     49  C   UNL A   1      48.108  39.480  29.595  1.00  0.00     0.049 A 
ATOM     50  N   UNL A   1      48.109  35.985  28.572  1.00  0.00    -0.248 NA
ATOM     51  C   UNL A   1      50.113  36.102  27.706  1.00  0.00     0.031 C 
ATOM     52  C   UNL A   1      48.675  39.368  30.922  1.00  0.00     0.029 A 
ATOM     53  N   UNL A   1      46.912  40.171  29.856  1.00  0.00    -0.354 N 
ATOM     54  C   UNL A   1      48.345  34.705  28.175  1.00  0.00     0.074 A 
ATOM     55  C   UNL A   1      49.592  34.861  27.493  1.00  0.00     0.031 C 
ATOM     56  C   UNL A   1      47.728  39.627  31.845  1.00  0.00     0.029 A 
ATOM     57  C   UNL A   1      46.526  39.987  31.170  1.00  0.00     0.049 A 
ATOM     58  H   UNL A   1      46.419  40.712  29.196  1.00  0.00     0.167 HD
ATOM     59  C   UNL A   1      47.518  33.659  28.547  1.00  0.00     0.034 A 
ATOM     60  C   UNL A   1      45.327  40.127  31.765  1.00  0.00     0.034 A 
ATOM     61  C   UNL A   1      46.721  33.935  29.768  1.00  0.00     0.049 A 
ATOM     62  C   UNL A   1      44.672  38.817  32.134  1.00  0.00     0.074 A 
ATOM     63  C   UNL A   1      47.222  33.878  31.052  1.00  0.00     0.029 A 
ATOM     64  N   UNL A   1      45.396  34.353  29.925  1.00  0.00    -0.354 N 
ATOM     65  N   UNL A   1      44.932  37.638  31.632  1.00  0.00    -0.248 NA
ATOM     66  C   UNL A   1      43.658  38.770  33.186  1.00  0.00     0.031 C 
ATOM     67  C   UNL A   1      46.361  34.523  31.932  1.00  0.00     0.029 A 
ATOM     68  C   UNL A   1      45.224  34.849  31.233  1.00  0.00     0.049 A 
ATOM     69  H   UNL A   1      44.696  34.308  29.234  1.00  0.00     0.167 HD
ATOM     70  C   UNL A   1      44.072  36.702  32.199  1.00  0.00     0.074 A 
ATOM     71  C   UNL A   1      43.346  37.464  33.205  1.00  0.00     0.031 C 
ATOM     72  C   UNL A   1      44.017  35.368  31.854  1.00  0.00     0.034 A 
BRANCH  59  73
ATOM     73  C   UNL A   1      47.914  32.227  28.215  1.00  0.00     0.023 A 
ATOM     74  C   UNL A   1      47.192  31.526  27.216  1.00  0.00     0.012 A 
ATOM     75  C   UNL A   1      48.914  31.510  28.900  1.00  0.00     0.148 A 
ATOM     76  C   UNL A   1      47.325  30.151  27.022  1.00  0.00     0.002 A 
ATOM     77  C   UNL A   1      49.036  30.127  28.719  1.00  0.00     0.091 A 
ATOM     78  F   UNL A   1      49.724  32.179  29.732  1.00  0.00    -0.205 F 
ATOM     79  C   UNL A   1      48.224  29.443  27.801  1.00  0.00     0.022 A 
BRANCH  77  80
ATOM     80  S   UNL A   1      50.132  29.102  29.709  1.00  0.00     0.127 S 
ATOM     81  O   UNL A   1      49.218  28.579  30.726  1.00  0.00    -0.237 OA
ATOM     82  O   UNL A   1      50.600  28.106  28.745  1.00  0.00    -0.237 OA
ATOM     83  O   UNL A   1      51.165  29.990  30.225  1.00  0.00    -0.744 OA
ENDBRANCH  77  80
ENDBRANCH  59  73
BRANCH  60  84
ATOM     84  C   UNL A   1      44.699  41.399  31.342  1.00  0.00     0.023 A 
ATOM     85  C   UNL A   1      43.533  41.223  30.551  1.00  0.00     0.012 A 
ATOM     86  C   UNL A   1      44.845  42.566  32.096  1.00  0.00     0.148 A 
ATOM     87  C   UNL A   1      42.457  42.100  30.657  1.00  0.00     0.002 A 
ATOM     88  C   UNL A   1      43.754  43.424  32.216  1.00  0.00     0.091 A 
ATOM     89  F   UNL A   1      45.973  42.739  32.795  1.00  0.00    -0.205 F 
ATOM     90  C   UNL A   1      42.553  43.180  31.525  1.00  0.00     0.022 A 
BRANCH  88  91
ATOM     91  S   UNL A   1      43.763  44.706  33.473  1.00  0.00     0.127 S 
ATOM     92  O   UNL A   1      45.188  45.022  33.558  1.00  0.00    -0.237 OA
ATOM     93  O   UNL A   1      42.935  45.751  32.869  1.00  0.00    -0.237 OA
ATOM     94  O   UNL A   1      43.161  44.061  34.627  1.00  0.00    -0.744 OA
ENDBRANCH  88  91
ENDBRANCH  60  84
BRANCH  72  95
ATOM     95  C   UNL A   1      43.008  34.332  32.373  1.00  0.00     0.023 A 
ATOM     96  C   UNL A   1      42.803  34.086  33.743  1.00  0.00     0.012 A 
ATOM     97  C   UNL A   1      42.139  33.638  31.478  1.00  0.00     0.148 A 
ATOM     98  C   UNL A   1      41.834  33.178  34.200  1.00  0.00     0.002 A 
ATOM     99  C   UNL A   1      41.109  32.824  31.939  1.00  0.00     0.091 A 
ATOM    100  F   UNL A   1      42.312  33.732  30.154  1.00  0.00    -0.205 F 
ATOM    101  C   UNL A   1      40.969  32.568  33.301  1.00  0.00     0.022 A 
BRANCH  99 102
ATOM    102  S   UNL A   1      39.827  32.207  30.833  1.00  0.00     0.127 S 
ATOM    103  O   UNL A   1      39.255  33.444  30.306  1.00  0.00    -0.237 OA
ATOM    104  O   UNL A   1      40.610  31.437  29.865  1.00  0.00    -0.237 OA
ATOM    105  O   UNL A   1      38.943  31.397  31.660  1.00  0.00    -0.744 OA
ENDBRANCH  99 102
ENDBRANCH  72  95
ENDBRANCH  46  47
ENDBRANCH  39  41
ENDBRANCH  38  39
ENDBRANCH  37  38
ENDBRANCH  36  37
ENDBRANCH  35  36
ENDBRANCH  34  35
ENDBRANCH  33  34
ENDBRANCH   1  33
TORSDOF 28
ENDMDL
