MODEL 1
REMARK VINA RESULT:      -7.9      0.000      0.000
REMARK SMILES CC(C)(C)c1cc2c(cc1Cl)C=C(C(=O)OCCOCCOCCOCCOC(=O)c1ccc(-c3c4nc(c(-c5cccc(S(=O)(=O)[O-])c5F)c5ccc([nH]5)c(-c5cccc(S(=O)(=O)[O-])c5F)c5nc(c(-c6cccc(S(=O)(=O)[O-])c6F)c6ccc3[nH]6)C=C5)C=C4)cc1)[C@H](C(F)(F)F)O2
REMARK SMILES IDX 23 1 22 2 21 3 20 4 19 5 18 6 17 7 16 8 14 9 15 10 13 11
REMARK SMILES IDX 5 12 6 13 10 14 7 15 9 16 11 17 8 18 99 19 12 20 94 21 2 22
REMARK SMILES IDX 1 23 3 24 4 25 95 26 96 27 97 28 98 29 24 30 25 31 26 32
REMARK SMILES IDX 27 33 28 34 29 35 30 36 31 37 32 38 93 39 33 40 92 41 34 42
REMARK SMILES IDX 35 43 36 44 86 45 37 46 91 47 85 48 87 49 38 50 90 51 84 52
REMARK SMILES IDX 83 53 39 55 71 56 51 57 70 58 52 59 55 60 69 61 88 62 53 63
REMARK SMILES IDX 54 64 68 66 89 67 56 68 40 69 41 70 49 71 42 72 44 73 50 74
REMARK SMILES IDX 43 75 45 76 46 77 47 78 48 79 72 80 73 81 81 82 74 83 76 84
REMARK SMILES IDX 82 85 75 86 77 87 78 88 79 89 80 90 57 91 58 92 66 93 59 94
REMARK SMILES IDX 61 95 67 96 60 97 62 98 63 99 64 100 65 101
REMARK H PARENT 87 54 55 65
REMARK Flexibility Score: inf
ROOT
ATOM      1  C   UNL A   1      34.829  21.141  25.946  1.00  0.00     0.188 C 
ENDROOT
BRANCH   1   2
ATOM      2  O   UNL A   1      33.930  22.122  25.447  1.00  0.00    -0.377 OA
BRANCH   2   3
ATOM      3  C   UNL A   1      34.485  23.083  24.577  1.00  0.00     0.188 C 
BRANCH   3   4
ATOM      4  C   UNL A   1      35.351  24.154  25.264  1.00  0.00     0.188 C 
BRANCH   4   5
ATOM      5  O   UNL A   1      36.411  23.837  26.160  1.00  0.00    -0.376 OA
BRANCH   5   6
ATOM      6  C   UNL A   1      37.770  24.109  25.842  1.00  0.00     0.202 C 
BRANCH   6   7
ATOM      7  C   UNL A   1      38.845  23.825  26.899  1.00  0.00     0.261 C 
BRANCH   7   8
ATOM      8  O   UNL A   1      39.224  24.971  27.678  1.00  0.00    -0.460 OA
BRANCH   8   9
ATOM      9  C   UNL A   1      40.045  25.844  27.064  1.00  0.00     0.338 C 
ATOM     10  O   UNL A   1      40.776  25.617  26.112  1.00  0.00    -0.246 OA
BRANCH   9  11
ATOM     11  C   UNL A   1      39.845  27.203  27.594  1.00  0.00     0.087 C 
ATOM     12  C   UNL A   1      37.451  31.006  29.900  1.00  0.00    -0.020 A 
ATOM     13  C   UNL A   1      38.208  30.848  28.709  1.00  0.00     0.053 A 
ATOM     14  C   UNL A   1      37.471  29.912  30.793  1.00  0.00     0.045 A 
ATOM     15  C   UNL A   1      38.810  29.641  28.354  1.00  0.00     0.128 A 
ATOM     16  C   UNL A   1      38.076  28.696  30.434  1.00  0.00     0.032 A 
ATOM     17  Cl  UNL A   1      36.807  29.926  32.389  1.00  0.00    -0.084 Cl
ATOM     18  C   UNL A   1      38.708  28.550  29.202  1.00  0.00     0.019 A 
ATOM     19  O   UNL A   1      39.388  29.582  27.114  1.00  0.00    -0.475 OA
ATOM     20  C   UNL A   1      39.144  27.250  28.735  1.00  0.00     0.027 C 
ATOM     21  C   UNL A   1      40.246  28.432  26.822  1.00  0.00     0.316 C 
BRANCH  12  22
ATOM     22  C   UNL A   1      36.681  32.336  30.103  1.00  0.00    -0.012 C 
ATOM     23  C   UNL A   1      37.456  33.204  31.109  1.00  0.00     0.016 C 
ATOM     24  C   UNL A   1      35.221  32.188  30.593  1.00  0.00     0.016 C 
ATOM     25  C   UNL A   1      36.557  33.122  28.766  1.00  0.00     0.016 C 
ENDBRANCH  12  22
BRANCH  21  26
ATOM     26  C   UNL A   1      41.715  28.878  26.963  1.00  0.00     0.430 C 
ATOM     27  F   UNL A   1      42.064  29.800  26.043  1.00  0.00    -0.167 F 
ATOM     28  F   UNL A   1      41.926  29.450  28.176  1.00  0.00    -0.167 F 
ATOM     29  F   UNL A   1      42.579  27.838  26.870  1.00  0.00    -0.167 F 
ENDBRANCH  21  26
ENDBRANCH   9  11
ENDBRANCH   8   9
ENDBRANCH   7   8
ENDBRANCH   6   7
ENDBRANCH   5   6
ENDBRANCH   4   5
ENDBRANCH   3   4
ENDBRANCH   2   3
ENDBRANCH   1   2
BRANCH   1  30
ATOM     30  C   UNL A   1      35.528  20.272  24.889  1.00  0.00     0.188 C 
BRANCH  30  31
ATOM     31  O   UNL A   1      36.877  20.687  24.652  1.00  0.00    -0.376 OA
BRANCH  31  32
ATOM     32  C   UNL A   1      37.763  20.607  25.767  1.00  0.00     0.202 C 
BRANCH  32  33
ATOM     33  C   UNL A   1      39.221  20.257  25.420  1.00  0.00     0.261 C 
BRANCH  33  34
ATOM     34  O   UNL A   1      40.238  20.929  26.183  1.00  0.00    -0.460 OA
BRANCH  34  35
ATOM     35  C   UNL A   1      41.512  20.486  26.103  1.00  0.00     0.338 C 
ATOM     36  O   UNL A   1      41.883  19.403  25.689  1.00  0.00    -0.246 OA
BRANCH  35  37
ATOM     37  C   UNL A   1      42.405  21.633  26.399  1.00  0.00     0.060 A 
ATOM     38  C   UNL A   1      42.675  22.604  25.430  1.00  0.00     0.016 A 
ATOM     39  C   UNL A   1      43.002  21.716  27.664  1.00  0.00     0.016 A 
ATOM     40  C   UNL A   1      43.507  23.681  25.743  1.00  0.00     0.010 A 
ATOM     41  C   UNL A   1      43.844  22.790  27.972  1.00  0.00     0.010 A 
ATOM     42  C   UNL A   1      44.078  23.796  27.024  1.00  0.00    -0.014 A 
BRANCH  42  43
ATOM     43  C   UNL A   1      44.713  25.074  27.433  1.00  0.00     0.031 A 
ATOM     44  C   UNL A   1      44.172  25.938  28.530  1.00  0.00     0.074 A 
ATOM     45  C   UNL A   1      45.807  25.465  26.749  1.00  0.00     0.049 A 
ATOM     46  N   UNL A   1      44.690  27.028  29.036  1.00  0.00    -0.248 NA
ATOM     47  C   UNL A   1      42.890  25.543  29.134  1.00  0.00     0.031 C 
ATOM     48  C   UNL A   1      46.385  24.740  25.615  1.00  0.00     0.029 A 
ATOM     49  N   UNL A   1      46.620  26.557  26.898  1.00  0.00    -0.354 N 
ATOM     50  C   UNL A   1      43.804  27.456  30.016  1.00  0.00     0.074 A 
ATOM     51  C   UNL A   1      42.701  26.516  30.021  1.00  0.00     0.031 C 
ATOM     52  C   UNL A   1      47.467  25.401  25.179  1.00  0.00     0.029 A 
ATOM     53  C   UNL A   1      47.655  26.596  25.996  1.00  0.00     0.049 A 
ATOM     54  H   UNL A   1      46.477  27.249  27.586  1.00  0.00     0.167 HD
ATOM     55  C   UNL A   1      43.918  28.521  30.848  1.00  0.00     0.034 A 
ATOM     56  C   UNL A   1      48.659  27.482  25.845  1.00  0.00     0.034 A 
ATOM     57  C   UNL A   1      45.024  29.444  30.847  1.00  0.00     0.049 A 
ATOM     58  C   UNL A   1      48.774  28.636  26.794  1.00  0.00     0.074 A 
ATOM     59  C   UNL A   1      45.254  30.506  31.706  1.00  0.00     0.029 A 
ATOM     60  N   UNL A   1      46.075  29.429  29.943  1.00  0.00    -0.354 N 
ATOM     61  N   UNL A   1      48.009  28.935  27.815  1.00  0.00    -0.248 NA
ATOM     62  C   UNL A   1      49.904  29.555  26.596  1.00  0.00     0.031 C 
ATOM     63  C   UNL A   1      46.435  31.141  31.314  1.00  0.00     0.029 A 
ATOM     64  C   UNL A   1      46.950  30.468  30.219  1.00  0.00     0.049 A 
ATOM     65  H   UNL A   1      46.183  28.778  29.214  1.00  0.00     0.167 HD
ATOM     66  C   UNL A   1      48.575  30.063  28.396  1.00  0.00     0.074 A 
ATOM     67  C   UNL A   1      49.754  30.389  27.621  1.00  0.00     0.031 C 
ATOM     68  C   UNL A   1      48.144  30.764  29.471  1.00  0.00     0.034 A 
BRANCH  55  69
ATOM     69  C   UNL A   1      42.858  28.723  31.897  1.00  0.00     0.023 A 
ATOM     70  C   UNL A   1      41.734  29.513  31.581  1.00  0.00     0.012 A 
ATOM     71  C   UNL A   1      42.897  28.029  33.122  1.00  0.00     0.148 A 
ATOM     72  C   UNL A   1      40.667  29.616  32.471  1.00  0.00     0.002 A 
ATOM     73  C   UNL A   1      41.816  28.116  33.994  1.00  0.00     0.091 A 
ATOM     74  F   UNL A   1      43.978  27.287  33.402  1.00  0.00    -0.205 F 
ATOM     75  C   UNL A   1      40.703  28.910  33.671  1.00  0.00     0.022 A 
BRANCH  73  76
ATOM     76  S   UNL A   1      41.734  27.204  35.541  1.00  0.00     0.127 S 
ATOM     77  O   UNL A   1      40.974  28.128  36.384  1.00  0.00    -0.237 OA
ATOM     78  O   UNL A   1      41.005  25.999  35.149  1.00  0.00    -0.237 OA
ATOM     79  O   UNL A   1      43.113  26.981  35.952  1.00  0.00    -0.744 OA
ENDBRANCH  73  76
ENDBRANCH  55  69
BRANCH  56  80
ATOM     80  C   UNL A   1      49.683  27.230  24.798  1.00  0.00     0.023 A 
ATOM     81  C   UNL A   1      50.940  26.726  25.180  1.00  0.00     0.012 A 
ATOM     82  C   UNL A   1      49.380  27.380  23.432  1.00  0.00     0.148 A 
ATOM     83  C   UNL A   1      51.884  26.378  24.215  1.00  0.00     0.002 A 
ATOM     84  C   UNL A   1      50.310  26.995  22.475  1.00  0.00     0.091 A 
ATOM     85  F   UNL A   1      48.171  27.856  23.101  1.00  0.00    -0.205 F 
ATOM     86  C   UNL A   1      51.566  26.502  22.865  1.00  0.00     0.022 A 
BRANCH  84  87
ATOM     87  S   UNL A   1      49.956  27.014  20.715  1.00  0.00     0.127 S 
ATOM     88  O   UNL A   1      48.614  26.439  20.674  1.00  0.00    -0.237 OA
ATOM     89  O   UNL A   1      50.024  28.444  20.414  1.00  0.00    -0.237 OA
ATOM     90  O   UNL A   1      50.999  26.212  20.091  1.00  0.00    -0.744 OA
ENDBRANCH  84  87
ENDBRANCH  56  80
BRANCH  68  91
ATOM     91  C   UNL A   1      48.942  31.965  29.900  1.00  0.00     0.023 A 
ATOM     92  C   UNL A   1      49.991  31.801  30.825  1.00  0.00     0.012 A 
ATOM     93  C   UNL A   1      48.742  33.219  29.289  1.00  0.00     0.148 A 
ATOM     94  C   UNL A   1      50.827  32.870  31.141  1.00  0.00     0.002 A 
ATOM     95  C   UNL A   1      49.600  34.271  29.584  1.00  0.00     0.091 A 
ATOM     96  F   UNL A   1      47.731  33.348  28.418  1.00  0.00    -0.205 F 
ATOM     97  C   UNL A   1      50.640  34.100  30.512  1.00  0.00     0.022 A 
BRANCH  95  98
ATOM     98  S   UNL A   1      49.489  35.872  28.775  1.00  0.00     0.127 S 
ATOM     99  O   UNL A   1      49.452  35.490  27.363  1.00  0.00    -0.237 OA
ATOM    100  O   UNL A   1      48.228  36.394  29.299  1.00  0.00    -0.237 OA
ATOM    101  O   UNL A   1      50.674  36.614  29.182  1.00  0.00    -0.744 OA
ENDBRANCH  95  98
ENDBRANCH  68  91
ENDBRANCH  42  43
ENDBRANCH  35  37
ENDBRANCH  34  35
ENDBRANCH  33  34
ENDBRANCH  32  33
ENDBRANCH  31  32
ENDBRANCH  30  31
ENDBRANCH   1  30
TORSDOF 25
ENDMDL
MODEL 2
REMARK VINA RESULT:      -7.8      7.815     15.266
REMARK SMILES CC(C)(C)c1cc2c(cc1Cl)C=C(C(=O)OCCOCCOCCOCCOC(=O)c1ccc(-c3c4nc(c(-c5cccc(S(=O)(=O)[O-])c5F)c5ccc([nH]5)c(-c5cccc(S(=O)(=O)[O-])c5F)c5nc(c(-c6cccc(S(=O)(=O)[O-])c6F)c6ccc3[nH]6)C=C5)C=C4)cc1)[C@H](C(F)(F)F)O2
REMARK SMILES IDX 23 1 22 2 21 3 20 4 19 5 18 6 17 7 16 8 14 9 15 10 13 11
REMARK SMILES IDX 5 12 6 13 10 14 7 15 9 16 11 17 8 18 99 19 12 20 94 21 2 22
REMARK SMILES IDX 1 23 3 24 4 25 95 26 96 27 97 28 98 29 24 30 25 31 26 32
REMARK SMILES IDX 27 33 28 34 29 35 30 36 31 37 32 38 93 39 33 40 92 41 34 42
REMARK SMILES IDX 35 43 36 44 86 45 37 46 91 47 85 48 87 49 38 50 90 51 84 52
REMARK SMILES IDX 83 53 39 55 71 56 51 57 70 58 52 59 55 60 69 61 88 62 53 63
REMARK SMILES IDX 54 64 68 66 89 67 56 68 40 69 41 70 49 71 42 72 44 73 50 74
REMARK SMILES IDX 43 75 45 76 46 77 47 78 48 79 72 80 73 81 81 82 74 83 76 84
REMARK SMILES IDX 82 85 75 86 77 87 78 88 79 89 80 90 57 91 58 92 66 93 59 94
REMARK SMILES IDX 61 95 67 96 60 97 62 98 63 99 64 100 65 101
REMARK H PARENT 87 54 55 65
REMARK Flexibility Score: inf
ROOT
ATOM      1  C   UNL A   1      49.133  42.296  29.185  1.00  0.00     0.188 C 
ENDROOT
BRANCH   1   2
ATOM      2  O   UNL A   1      47.939  43.027  29.430  1.00  0.00    -0.377 OA
BRANCH   2   3
ATOM      3  C   UNL A   1      47.102  43.235  28.315  1.00  0.00     0.188 C 
BRANCH   3   4
ATOM      4  C   UNL A   1      46.551  41.950  27.672  1.00  0.00     0.188 C 
BRANCH   4   5
ATOM      5  O   UNL A   1      45.199  41.528  27.816  1.00  0.00    -0.376 OA
BRANCH   5   6
ATOM      6  C   UNL A   1      44.156  42.062  27.009  1.00  0.00     0.202 C 
BRANCH   6   7
ATOM      7  C   UNL A   1      43.386  41.114  26.080  1.00  0.00     0.261 C 
BRANCH   7   8
ATOM      8  O   UNL A   1      43.343  41.539  24.708  1.00  0.00    -0.460 OA
BRANCH   8   9
ATOM      9  C   UNL A   1      44.533  41.833  24.153  1.00  0.00     0.338 C 
ATOM     10  O   UNL A   1      45.595  41.262  24.353  1.00  0.00    -0.246 OA
BRANCH   9  11
ATOM     11  C   UNL A   1      44.381  42.867  23.117  1.00  0.00     0.087 C 
ATOM     12  C   UNL A   1      43.054  44.852  18.665  1.00  0.00    -0.020 A 
ATOM     13  C   UNL A   1      44.200  44.895  19.502  1.00  0.00     0.053 A 
ATOM     14  C   UNL A   1      41.901  44.263  19.229  1.00  0.00     0.045 A 
ATOM     15  C   UNL A   1      44.251  44.264  20.744  1.00  0.00     0.128 A 
ATOM     16  C   UNL A   1      41.953  43.625  20.480  1.00  0.00     0.032 A 
ATOM     17  Cl  UNL A   1      40.332  44.267  18.503  1.00  0.00    -0.084 Cl
ATOM     18  C   UNL A   1      43.134  43.591  21.216  1.00  0.00     0.019 A 
ATOM     19  O   UNL A   1      45.460  44.261  21.387  1.00  0.00    -0.475 OA
ATOM     20  C   UNL A   1      43.256  42.761  22.396  1.00  0.00     0.027 C 
ATOM     21  C   UNL A   1      45.480  43.844  22.790  1.00  0.00     0.316 C 
BRANCH  12  22
ATOM     22  C   UNL A   1      43.174  45.435  17.234  1.00  0.00    -0.012 C 
ATOM     23  C   UNL A   1      42.133  46.557  17.072  1.00  0.00     0.016 C 
ATOM     24  C   UNL A   1      42.991  44.415  16.085  1.00  0.00     0.016 C 
ATOM     25  C   UNL A   1      44.588  46.036  16.990  1.00  0.00     0.016 C 
ENDBRANCH  12  22
BRANCH  21  26
ATOM     26  C   UNL A   1      45.552  45.109  23.669  1.00  0.00     0.430 C 
ATOM     27  F   UNL A   1      46.338  46.064  23.133  1.00  0.00    -0.167 F 
ATOM     28  F   UNL A   1      44.320  45.663  23.810  1.00  0.00    -0.167 F 
ATOM     29  F   UNL A   1      46.001  44.842  24.918  1.00  0.00    -0.167 F 
ENDBRANCH  21  26
ENDBRANCH   9  11
ENDBRANCH   8   9
ENDBRANCH   7   8
ENDBRANCH   6   7
ENDBRANCH   5   6
ENDBRANCH   4   5
ENDBRANCH   3   4
ENDBRANCH   2   3
ENDBRANCH   1   2
BRANCH   1  30
ATOM     30  C   UNL A   1      49.312  41.009  30.005  1.00  0.00     0.188 C 
BRANCH  30  31
ATOM     31  O   UNL A   1      48.126  40.653  30.719  1.00  0.00    -0.376 OA
BRANCH  31  32
ATOM     32  C   UNL A   1      47.459  39.470  30.280  1.00  0.00     0.202 C 
BRANCH  32  33
ATOM     33  C   UNL A   1      47.820  38.190  31.053  1.00  0.00     0.261 C 
BRANCH  33  34
ATOM     34  O   UNL A   1      47.291  36.958  30.531  1.00  0.00    -0.460 OA
BRANCH  34  35
ATOM     35  C   UNL A   1      47.822  35.790  30.954  1.00  0.00     0.338 C 
ATOM     36  O   UNL A   1      48.792  35.648  31.675  1.00  0.00    -0.246 OA
BRANCH  35  37
ATOM     37  C   UNL A   1      46.884  34.706  30.570  1.00  0.00     0.060 A 
ATOM     38  C   UNL A   1      46.114  34.800  29.407  1.00  0.00     0.016 A 
ATOM     39  C   UNL A   1      46.758  33.592  31.410  1.00  0.00     0.016 A 
ATOM     40  C   UNL A   1      45.250  33.757  29.063  1.00  0.00     0.010 A 
ATOM     41  C   UNL A   1      45.884  32.554  31.070  1.00  0.00     0.010 A 
ATOM     42  C   UNL A   1      45.148  32.615  29.878  1.00  0.00    -0.014 A 
BRANCH  42  43
ATOM     43  C   UNL A   1      44.460  31.405  29.363  1.00  0.00     0.031 A 
ATOM     44  C   UNL A   1      45.123  30.417  28.452  1.00  0.00     0.074 A 
ATOM     45  C   UNL A   1      43.173  31.227  29.722  1.00  0.00     0.049 A 
ATOM     46  N   UNL A   1      44.654  29.278  28.011  1.00  0.00    -0.248 NA
ATOM     47  C   UNL A   1      46.472  30.742  27.967  1.00  0.00     0.031 C 
ATOM     48  C   UNL A   1      42.401  32.159  30.549  1.00  0.00     0.029 A 
ATOM     49  N   UNL A   1      42.289  30.219  29.440  1.00  0.00    -0.354 N 
ATOM     50  C   UNL A   1      45.643  28.745  27.195  1.00  0.00     0.074 A 
ATOM     51  C   UNL A   1      46.735  29.698  27.187  1.00  0.00     0.031 C 
ATOM     52  C   UNL A   1      41.164  31.672  30.717  1.00  0.00     0.029 A 
ATOM     53  C   UNL A   1      41.052  30.401  30.008  1.00  0.00     0.049 A 
ATOM     54  H   UNL A   1      42.519  29.438  28.884  1.00  0.00     0.167 HD
ATOM     55  C   UNL A   1      45.644  27.560  26.537  1.00  0.00     0.034 A 
ATOM     56  C   UNL A   1      39.948  29.629  29.981  1.00  0.00     0.034 A 
ATOM     57  C   UNL A   1      44.561  26.611  26.561  1.00  0.00     0.049 A 
ATOM     58  C   UNL A   1      39.987  28.312  29.266  1.00  0.00     0.074 A 
ATOM     59  C   UNL A   1      44.511  25.353  25.983  1.00  0.00     0.029 A 
ATOM     60  N   UNL A   1      43.337  26.812  27.179  1.00  0.00    -0.354 N 
ATOM     61  N   UNL A   1      40.987  27.755  28.629  1.00  0.00    -0.248 NA
ATOM     62  C   UNL A   1      38.761  27.501  29.291  1.00  0.00     0.031 C 
ATOM     63  C   UNL A   1      43.254  24.799  26.240  1.00  0.00     0.029 A 
ATOM     64  C   UNL A   1      42.524  25.706  26.989  1.00  0.00     0.049 A 
ATOM     65  H   UNL A   1      43.083  27.621  27.678  1.00  0.00     0.167 HD
ATOM     66  C   UNL A   1      40.521  26.520  28.197  1.00  0.00     0.074 A 
ATOM     67  C   UNL A   1      39.152  26.403  28.653  1.00  0.00     0.031 C 
ATOM     68  C   UNL A   1      41.175  25.576  27.479  1.00  0.00     0.034 A 
BRANCH  55  69
ATOM     69  C   UNL A   1      46.885  27.163  25.784  1.00  0.00     0.023 A 
ATOM     70  C   UNL A   1      46.987  27.502  24.420  1.00  0.00     0.012 A 
ATOM     71  C   UNL A   1      47.993  26.596  26.443  1.00  0.00     0.148 A 
ATOM     72  C   UNL A   1      48.170  27.277  23.719  1.00  0.00     0.002 A 
ATOM     73  C   UNL A   1      49.180  26.397  25.744  1.00  0.00     0.091 A 
ATOM     74  F   UNL A   1      47.871  26.278  27.740  1.00  0.00    -0.205 F 
ATOM     75  C   UNL A   1      49.268  26.735  24.382  1.00  0.00     0.022 A 
BRANCH  73  76
ATOM     76  S   UNL A   1      50.672  25.758  26.514  1.00  0.00     0.127 S 
ATOM     77  O   UNL A   1      51.554  25.599  25.357  1.00  0.00    -0.237 OA
ATOM     78  O   UNL A   1      51.043  26.847  27.417  1.00  0.00    -0.237 OA
ATOM     79  O   UNL A   1      50.287  24.519  27.174  1.00  0.00    -0.744 OA
ENDBRANCH  73  76
ENDBRANCH  55  69
BRANCH  56  80
ATOM     80  C   UNL A   1      38.753  30.064  30.748  1.00  0.00     0.023 A 
ATOM     81  C   UNL A   1      38.609  29.645  32.084  1.00  0.00     0.012 A 
ATOM     82  C   UNL A   1      37.827  30.971  30.201  1.00  0.00     0.148 A 
ATOM     83  C   UNL A   1      37.556  30.121  32.864  1.00  0.00     0.002 A 
ATOM     84  C   UNL A   1      36.803  31.471  30.995  1.00  0.00     0.091 A 
ATOM     85  F   UNL A   1      37.995  31.356  28.928  1.00  0.00    -0.205 F 
ATOM     86  C   UNL A   1      36.662  31.041  32.324  1.00  0.00     0.022 A 
BRANCH  84  87
ATOM     87  S   UNL A   1      35.666  32.739  30.427  1.00  0.00     0.127 S 
ATOM     88  O   UNL A   1      35.595  32.458  28.996  1.00  0.00    -0.237 OA
ATOM     89  O   UNL A   1      34.455  32.411  31.180  1.00  0.00    -0.237 OA
ATOM     90  O   UNL A   1      36.277  34.012  30.785  1.00  0.00    -0.744 OA
ENDBRANCH  84  87
ENDBRANCH  56  80
BRANCH  68  91
ATOM     91  C   UNL A   1      40.438  24.313  27.130  1.00  0.00     0.023 A 
ATOM     92  C   UNL A   1      39.190  24.399  26.483  1.00  0.00     0.012 A 
ATOM     93  C   UNL A   1      41.038  23.052  27.319  1.00  0.00     0.148 A 
ATOM     94  C   UNL A   1      38.547  23.248  26.033  1.00  0.00     0.002 A 
ATOM     95  C   UNL A   1      40.407  21.912  26.838  1.00  0.00     0.091 A 
ATOM     96  F   UNL A   1      42.223  22.999  27.944  1.00  0.00    -0.205 F 
ATOM     97  C   UNL A   1      39.160  22.007  26.199  1.00  0.00     0.022 A 
BRANCH  95  98
ATOM     98  S   UNL A   1      41.146  20.277  26.937  1.00  0.00     0.127 S 
ATOM     99  O   UNL A   1      40.829  19.890  28.312  1.00  0.00    -0.237 OA
ATOM    100  O   UNL A   1      40.407  19.544  25.911  1.00  0.00    -0.237 OA
ATOM    101  O   UNL A   1      42.564  20.456  26.659  1.00  0.00    -0.744 OA
ENDBRANCH  95  98
ENDBRANCH  68  91
ENDBRANCH  42  43
ENDBRANCH  35  37
ENDBRANCH  34  35
ENDBRANCH  33  34
ENDBRANCH  32  33
ENDBRANCH  31  32
ENDBRANCH  30  31
ENDBRANCH   1  30
TORSDOF 25
ENDMDL
MODEL 3
REMARK VINA RESULT:      -7.7      5.113     10.331
REMARK SMILES CC(C)(C)c1cc2c(cc1Cl)C=C(C(=O)OCCOCCOCCOCCOC(=O)c1ccc(-c3c4nc(c(-c5cccc(S(=O)(=O)[O-])c5F)c5ccc([nH]5)c(-c5cccc(S(=O)(=O)[O-])c5F)c5nc(c(-c6cccc(S(=O)(=O)[O-])c6F)c6ccc3[nH]6)C=C5)C=C4)cc1)[C@H](C(F)(F)F)O2
REMARK SMILES IDX 23 1 22 2 21 3 20 4 19 5 18 6 17 7 16 8 14 9 15 10 13 11
REMARK SMILES IDX 5 12 6 13 10 14 7 15 9 16 11 17 8 18 99 19 12 20 94 21 2 22
REMARK SMILES IDX 1 23 3 24 4 25 95 26 96 27 97 28 98 29 24 30 25 31 26 32
REMARK SMILES IDX 27 33 28 34 29 35 30 36 31 37 32 38 93 39 33 40 92 41 34 42
REMARK SMILES IDX 35 43 36 44 86 45 37 46 91 47 85 48 87 49 38 50 90 51 84 52
REMARK SMILES IDX 83 53 39 55 71 56 51 57 70 58 52 59 55 60 69 61 88 62 53 63
REMARK SMILES IDX 54 64 68 66 89 67 56 68 40 69 41 70 49 71 42 72 44 73 50 74
REMARK SMILES IDX 43 75 45 76 46 77 47 78 48 79 72 80 73 81 81 82 74 83 76 84
REMARK SMILES IDX 82 85 75 86 77 87 78 88 79 89 80 90 57 91 58 92 66 93 59 94
REMARK SMILES IDX 61 95 67 96 60 97 62 98 63 99 64 100 65 101
REMARK H PARENT 87 54 55 65
REMARK Flexibility Score: inf
ROOT
ATOM      1  C   UNL A   1      35.820  34.323  31.431  1.00  0.00     0.188 C 
ENDROOT
BRANCH   1   2
ATOM      2  O   UNL A   1      34.668  33.808  30.777  1.00  0.00    -0.377 OA
BRANCH   2   3
ATOM      3  C   UNL A   1      33.892  34.745  30.064  1.00  0.00     0.188 C 
BRANCH   3   4
ATOM      4  C   UNL A   1      33.193  34.186  28.812  1.00  0.00     0.188 C 
BRANCH   4   5
ATOM      5  O   UNL A   1      33.849  33.351  27.864  1.00  0.00    -0.376 OA
BRANCH   5   6
ATOM      6  C   UNL A   1      33.992  31.951  28.067  1.00  0.00     0.202 C 
BRANCH   6   7
ATOM      7  C   UNL A   1      33.563  30.997  26.945  1.00  0.00     0.261 C 
BRANCH   7   8
ATOM      8  O   UNL A   1      32.228  30.485  27.084  1.00  0.00    -0.460 OA
BRANCH   8   9
ATOM      9  C   UNL A   1      31.507  30.427  25.948  1.00  0.00     0.338 C 
ATOM     10  O   UNL A   1      30.929  31.353  25.401  1.00  0.00    -0.246 OA
BRANCH   9  11
ATOM     11  C   UNL A   1      31.623  29.097  25.329  1.00  0.00     0.087 C 
ATOM     12  C   UNL A   1      33.095  24.290  24.839  1.00  0.00    -0.020 A 
ATOM     13  C   UNL A   1      33.023  25.427  23.992  1.00  0.00     0.053 A 
ATOM     14  C   UNL A   1      32.462  24.415  26.094  1.00  0.00     0.045 A 
ATOM     15  C   UNL A   1      32.501  26.650  24.415  1.00  0.00     0.128 A 
ATOM     16  C   UNL A   1      31.939  25.647  26.521  1.00  0.00     0.032 A 
ATOM     17  Cl  UNL A   1      32.231  23.123  27.219  1.00  0.00    -0.084 Cl
ATOM     18  C   UNL A   1      31.995  26.770  25.699  1.00  0.00     0.019 A 
ATOM     19  O   UNL A   1      32.620  27.705  23.550  1.00  0.00    -0.475 OA
ATOM     20  C   UNL A   1      31.656  28.083  26.206  1.00  0.00     0.027 C 
ATOM     21  C   UNL A   1      31.858  28.917  23.852  1.00  0.00     0.316 C 
BRANCH  12  22
ATOM     22  C   UNL A   1      33.856  23.043  24.320  1.00  0.00    -0.012 C 
ATOM     23  C   UNL A   1      34.304  23.309  22.872  1.00  0.00     0.016 C 
ATOM     24  C   UNL A   1      33.059  21.717  24.360  1.00  0.00     0.016 C 
ATOM     25  C   UNL A   1      35.119  22.757  25.182  1.00  0.00     0.016 C 
ENDBRANCH  12  22
BRANCH  21  26
ATOM     26  C   UNL A   1      30.605  28.936  22.954  1.00  0.00     0.430 C 
ATOM     27  F   UNL A   1      30.562  30.020  22.153  1.00  0.00    -0.167 F 
ATOM     28  F   UNL A   1      30.589  27.854  22.134  1.00  0.00    -0.167 F 
ATOM     29  F   UNL A   1      29.457  28.894  23.672  1.00  0.00    -0.167 F 
ENDBRANCH  21  26
ENDBRANCH   9  11
ENDBRANCH   8   9
ENDBRANCH   7   8
ENDBRANCH   6   7
ENDBRANCH   5   6
ENDBRANCH   4   5
ENDBRANCH   3   4
ENDBRANCH   2   3
ENDBRANCH   1   2
BRANCH   1  30
ATOM     30  C   UNL A   1      37.031  33.380  31.499  1.00  0.00     0.188 C 
BRANCH  30  31
ATOM     31  O   UNL A   1      36.865  32.357  32.486  1.00  0.00    -0.376 OA
BRANCH  31  32
ATOM     32  C   UNL A   1      36.806  31.018  31.999  1.00  0.00     0.202 C 
BRANCH  32  33
ATOM     33  C   UNL A   1      36.442  30.877  30.511  1.00  0.00     0.261 C 
BRANCH  33  34
ATOM     34  O   UNL A   1      36.338  29.536  30.002  1.00  0.00    -0.460 OA
BRANCH  34  35
ATOM     35  C   UNL A   1      36.773  29.278  28.749  1.00  0.00     0.338 C 
ATOM     36  O   UNL A   1      36.213  29.569  27.708  1.00  0.00    -0.246 OA
BRANCH  35  37
ATOM     37  C   UNL A   1      38.164  28.774  28.852  1.00  0.00     0.060 A 
ATOM     38  C   UNL A   1      39.204  29.381  28.141  1.00  0.00     0.016 A 
ATOM     39  C   UNL A   1      38.420  27.656  29.657  1.00  0.00     0.016 A 
ATOM     40  C   UNL A   1      40.507  28.893  28.270  1.00  0.00     0.010 A 
ATOM     41  C   UNL A   1      39.724  27.162  29.775  1.00  0.00     0.010 A 
ATOM     42  C   UNL A   1      40.781  27.797  29.108  1.00  0.00    -0.014 A 
BRANCH  42  43
ATOM     43  C   UNL A   1      42.186  27.476  29.460  1.00  0.00     0.031 A 
ATOM     44  C   UNL A   1      43.062  26.608  28.610  1.00  0.00     0.074 A 
ATOM     45  C   UNL A   1      42.660  27.976  30.619  1.00  0.00     0.049 A 
ATOM     46  N   UNL A   1      44.331  26.331  28.768  1.00  0.00    -0.248 NA
ATOM     47  C   UNL A   1      42.446  25.962  27.441  1.00  0.00     0.031 C 
ATOM     48  C   UNL A   1      41.878  28.777  31.564  1.00  0.00     0.029 A 
ATOM     49  N   UNL A   1      43.898  27.885  31.201  1.00  0.00    -0.354 N 
ATOM     50  C   UNL A   1      44.673  25.479  27.726  1.00  0.00     0.074 A 
ATOM     51  C   UNL A   1      43.468  25.268  26.949  1.00  0.00     0.031 C 
ATOM     52  C   UNL A   1      42.658  29.114  32.601  1.00  0.00     0.029 A 
ATOM     53  C   UNL A   1      43.989  28.550  32.399  1.00  0.00     0.049 A 
ATOM     54  H   UNL A   1      44.649  27.390  30.799  1.00  0.00     0.167 HD
ATOM     55  C   UNL A   1      45.885  24.947  27.437  1.00  0.00     0.034 A 
ATOM     56  C   UNL A   1      45.028  28.710  33.241  1.00  0.00     0.034 A 
ATOM     57  C   UNL A   1      47.082  25.172  28.206  1.00  0.00     0.049 A 
ATOM     58  C   UNL A   1      46.363  28.130  32.882  1.00  0.00     0.074 A 
ATOM     59  C   UNL A   1      48.368  24.731  27.939  1.00  0.00     0.029 A 
ATOM     60  N   UNL A   1      47.145  25.885  29.393  1.00  0.00    -0.354 N 
ATOM     61  N   UNL A   1      46.703  27.457  31.811  1.00  0.00    -0.248 NA
ATOM     62  C   UNL A   1      47.467  28.357  33.827  1.00  0.00     0.031 C 
ATOM     63  C   UNL A   1      49.205  25.165  28.970  1.00  0.00     0.029 A 
ATOM     64  C   UNL A   1      48.444  25.887  29.874  1.00  0.00     0.049 A 
ATOM     65  H   UNL A   1      46.380  26.323  29.830  1.00  0.00     0.167 HD
ATOM     66  C   UNL A   1      48.062  27.199  31.939  1.00  0.00     0.074 A 
ATOM     67  C   UNL A   1      48.488  27.797  33.187  1.00  0.00     0.031 C 
ATOM     68  C   UNL A   1      48.874  26.518  31.096  1.00  0.00     0.034 A 
BRANCH  55  69
ATOM     69  C   UNL A   1      46.020  24.119  26.187  1.00  0.00     0.023 A 
ATOM     70  C   UNL A   1      46.753  24.643  25.103  1.00  0.00     0.012 A 
ATOM     71  C   UNL A   1      45.556  22.790  26.134  1.00  0.00     0.148 A 
ATOM     72  C   UNL A   1      47.018  23.860  23.981  1.00  0.00     0.002 A 
ATOM     73  C   UNL A   1      45.846  22.006  25.021  1.00  0.00     0.091 A 
ATOM     74  F   UNL A   1      44.858  22.315  27.175  1.00  0.00    -0.205 F 
ATOM     75  C   UNL A   1      46.575  22.540  23.945  1.00  0.00     0.022 A 
BRANCH  73  76
ATOM     76  S   UNL A   1      45.372  20.277  24.894  1.00  0.00     0.127 S 
ATOM     77  O   UNL A   1      44.288  20.199  25.873  1.00  0.00    -0.237 OA
ATOM     78  O   UNL A   1      44.942  20.178  23.500  1.00  0.00    -0.237 OA
ATOM     79  O   UNL A   1      46.562  19.507  25.225  1.00  0.00    -0.744 OA
ENDBRANCH  73  76
ENDBRANCH  55  69
BRANCH  56  80
ATOM     80  C   UNL A   1      44.843  29.544  34.456  1.00  0.00     0.023 A 
ATOM     81  C   UNL A   1      44.389  28.933  35.640  1.00  0.00     0.012 A 
ATOM     82  C   UNL A   1      45.216  30.900  34.472  1.00  0.00     0.148 A 
ATOM     83  C   UNL A   1      44.306  29.665  36.825  1.00  0.00     0.002 A 
ATOM     84  C   UNL A   1      45.168  31.613  35.664  1.00  0.00     0.091 A 
ATOM     85  F   UNL A   1      45.650  31.450  33.329  1.00  0.00    -0.205 F 
ATOM     86  C   UNL A   1      44.705  30.998  36.839  1.00  0.00     0.022 A 
BRANCH  84  87
ATOM     87  S   UNL A   1      45.760  33.301  35.810  1.00  0.00     0.127 S 
ATOM     88  O   UNL A   1      47.043  33.110  36.483  1.00  0.00    -0.237 OA
ATOM     89  O   UNL A   1      45.855  33.705  34.407  1.00  0.00    -0.237 OA
ATOM     90  O   UNL A   1      44.750  34.012  36.581  1.00  0.00    -0.744 OA
ENDBRANCH  84  87
ENDBRANCH  56  80
BRANCH  68  91
ATOM     91  C   UNL A   1      50.322  26.372  31.471  1.00  0.00     0.023 A 
ATOM     92  C   UNL A   1      51.231  27.390  31.124  1.00  0.00     0.012 A 
ATOM     93  C   UNL A   1      50.753  25.300  32.278  1.00  0.00     0.148 A 
ATOM     94  C   UNL A   1      52.550  27.342  31.572  1.00  0.00     0.002 A 
ATOM     95  C   UNL A   1      52.059  25.275  32.748  1.00  0.00     0.091 A 
ATOM     96  F   UNL A   1      49.868  24.341  32.586  1.00  0.00    -0.205 F 
ATOM     97  C   UNL A   1      52.961  26.293  32.392  1.00  0.00     0.022 A 
BRANCH  95  98
ATOM     98  S   UNL A   1      52.667  24.008  33.868  1.00  0.00     0.127 S 
ATOM     99  O   UNL A   1      52.580  22.808  33.035  1.00  0.00    -0.237 OA
ATOM    100  O   UNL A   1      54.029  24.465  34.140  1.00  0.00    -0.237 OA
ATOM    101  O   UNL A   1      51.776  24.024  35.019  1.00  0.00    -0.744 OA
ENDBRANCH  95  98
ENDBRANCH  68  91
ENDBRANCH  42  43
ENDBRANCH  35  37
ENDBRANCH  34  35
ENDBRANCH  33  34
ENDBRANCH  32  33
ENDBRANCH  31  32
ENDBRANCH  30  31
ENDBRANCH   1  30
TORSDOF 25
ENDMDL
