MODEL 1
REMARK VINA RESULT:      -5.0      0.000      0.000
REMARK SMILES CCCC[C@@H](Sc1nc(OCCC2CCCCC2)cc(OCCC2CCCCC2)n1)C(=O)OCCOCCOCCOCCOC(=O)c1ccc(-c2c3nc(c(-c4cccc(S(=O)(=O)[O-])c4F)c4ccc([nH]4)c(-c4cccc(S(=O)(=O)[O-])c4F)c4nc(c(-c5cccc(S(=O)(=O)[O-])c5F)c5ccc2[nH]5)C=C4)C=C3)cc1
REMARK SMILES IDX 37 1 36 2 35 3 34 4 33 5 31 6 32 7 5 8 4 9 3 10 2 11 1 12
REMARK SMILES IDX 6 13 7 14 8 15 30 16 9 17 20 18 19 19 10 20 11 21 12 22
REMARK SMILES IDX 13 23 14 24 18 25 15 26 17 27 16 28 21 29 22 30 23 31 24 32
REMARK SMILES IDX 25 33 29 34 26 35 28 36 27 37 38 38 39 39 40 40 41 41 42 42
REMARK SMILES IDX 43 43 44 44 45 45 46 46 47 47 48 48 49 49 110 50 50 51
REMARK SMILES IDX 109 52 51 53 52 54 53 55 103 56 54 57 108 58 102 59 104 60
REMARK SMILES IDX 55 61 107 62 101 63 100 64 56 66 88 67 68 68 87 69 69 70
REMARK SMILES IDX 72 71 86 72 105 73 70 74 71 75 85 77 106 78 73 79 57 80
REMARK SMILES IDX 58 81 66 82 59 83 61 84 67 85 60 86 62 87 63 88 64 89 65 90
REMARK SMILES IDX 89 91 90 92 98 93 91 94 93 95 99 96 92 97 94 98 95 99 96 100
REMARK SMILES IDX 97 101 74 102 75 103 83 104 76 105 78 106 84 107 77 108
REMARK SMILES IDX 79 109 80 110 81 111 82 112
REMARK H PARENT 104 65 72 76
REMARK Flexibility Score: inf
ROOT
ATOM      1  C   UNL A   1      43.232  30.937  35.158  1.00  0.00     0.188 C 
ENDROOT
BRANCH   1   2
ATOM      2  O   UNL A   1      43.971  32.067  34.713  1.00  0.00    -0.376 OA
BRANCH   2   3
ATOM      3  C   UNL A   1      44.315  32.261  33.347  1.00  0.00     0.202 C 
BRANCH   3   4
ATOM      4  C   UNL A   1      45.379  33.255  32.865  1.00  0.00     0.261 C 
BRANCH   4   5
ATOM      5  O   UNL A   1      44.936  34.267  31.967  1.00  0.00    -0.462 OA
BRANCH   5   6
ATOM      6  C   UNL A   1      45.637  34.350  30.813  1.00  0.00     0.319 C 
ATOM      7  O   UNL A   1      46.787  34.778  30.732  1.00  0.00    -0.251 OA
BRANCH   6   8
ATOM      8  C   UNL A   1      44.867  33.844  29.607  1.00  0.00     0.164 C 
BRANCH   8   9
ATOM      9  C   UNL A   1      44.979  32.336  29.269  1.00  0.00     0.027 C 
BRANCH   9  10
ATOM     10  C   UNL A   1      46.308  31.827  28.643  1.00  0.00     0.001 C 
BRANCH  10  11
ATOM     11  C   UNL A   1      47.441  31.376  29.583  1.00  0.00    -0.003 C 
ATOM     12  C   UNL A   1      48.628  30.712  28.894  1.00  0.00     0.004 C 
ENDBRANCH  10  11
ENDBRANCH   9  10
ENDBRANCH   8   9
BRANCH   8  13
ATOM     13  S   UNL A   1      43.144  34.403  29.856  1.00  0.00    -0.071 SA
BRANCH  13  14
ATOM     14  C   UNL A   1      43.220  35.663  28.635  1.00  0.00     0.195 A 
ATOM     15  N   UNL A   1      42.361  36.693  28.763  1.00  0.00    -0.187 NA
ATOM     16  N   UNL A   1      44.292  35.625  27.841  1.00  0.00    -0.187 NA
ATOM     17  C   UNL A   1      42.599  37.753  27.996  1.00  0.00     0.221 A 
ATOM     18  C   UNL A   1      44.505  36.695  27.086  1.00  0.00     0.221 A 
ATOM     19  C   UNL A   1      43.657  37.766  27.126  1.00  0.00     0.136 A 
BRANCH  17  20
ATOM     20  O   UNL A   1      41.915  38.894  28.350  1.00  0.00    -0.477 OA
BRANCH  20  21
ATOM     21  C   UNL A   1      42.611  40.020  28.880  1.00  0.00     0.231 C 
BRANCH  21  22
ATOM     22  C   UNL A   1      41.975  40.873  30.032  1.00  0.00     0.045 C 
BRANCH  22  23
ATOM     23  C   UNL A   1      42.880  41.556  31.069  1.00  0.00    -0.008 C 
ATOM     24  C   UNL A   1      44.332  41.847  30.663  1.00  0.00     0.004 C 
ATOM     25  C   UNL A   1      42.273  42.864  31.573  1.00  0.00     0.004 C 
ATOM     26  C   UNL A   1      45.108  42.390  31.887  1.00  0.00     0.000 C 
ATOM     27  C   UNL A   1      42.960  43.333  32.842  1.00  0.00     0.000 C 
ATOM     28  C   UNL A   1      44.431  43.587  32.565  1.00  0.00     0.000 C 
ENDBRANCH  22  23
ENDBRANCH  21  22
ENDBRANCH  20  21
ENDBRANCH  17  20
BRANCH  18  29
ATOM     29  O   UNL A   1      45.620  36.596  26.312  1.00  0.00    -0.477 OA
BRANCH  29  30
ATOM     30  C   UNL A   1      46.922  36.750  26.868  1.00  0.00     0.231 C 
BRANCH  30  31
ATOM     31  C   UNL A   1      48.021  36.657  25.799  1.00  0.00     0.045 C 
BRANCH  31  32
ATOM     32  C   UNL A   1      49.375  35.997  26.184  1.00  0.00    -0.008 C 
ATOM     33  C   UNL A   1      49.237  34.892  27.251  1.00  0.00     0.004 C 
ATOM     34  C   UNL A   1      50.233  35.696  24.941  1.00  0.00     0.004 C 
ATOM     35  C   UNL A   1      50.034  33.601  27.078  1.00  0.00     0.000 C 
ATOM     36  C   UNL A   1      51.262  34.593  25.130  1.00  0.00     0.000 C 
ATOM     37  C   UNL A   1      50.584  33.367  25.689  1.00  0.00     0.000 C 
ENDBRANCH  31  32
ENDBRANCH  30  31
ENDBRANCH  29  30
ENDBRANCH  18  29
ENDBRANCH  13  14
ENDBRANCH   8  13
ENDBRANCH   6   8
ENDBRANCH   5   6
ENDBRANCH   4   5
ENDBRANCH   3   4
ENDBRANCH   2   3
ENDBRANCH   1   2
BRANCH   1  38
ATOM     38  C   UNL A   1      42.167  30.281  34.274  1.00  0.00     0.188 C 
BRANCH  38  39
ATOM     39  O   UNL A   1      42.609  30.012  32.964  1.00  0.00    -0.377 OA
BRANCH  39  40
ATOM     40  C   UNL A   1      41.632  30.044  31.933  1.00  0.00     0.188 C 
BRANCH  40  41
ATOM     41  C   UNL A   1      40.593  28.900  31.881  1.00  0.00     0.188 C 
BRANCH  41  42
ATOM     42  O   UNL A   1      40.022  28.667  30.599  1.00  0.00    -0.376 OA
BRANCH  42  43
ATOM     43  C   UNL A   1      38.830  29.366  30.267  1.00  0.00     0.202 C 
BRANCH  43  44
ATOM     44  C   UNL A   1      37.507  28.796  30.806  1.00  0.00     0.261 C 
BRANCH  44  45
ATOM     45  O   UNL A   1      36.895  29.523  31.883  1.00  0.00    -0.460 OA
BRANCH  45  46
ATOM     46  C   UNL A   1      36.574  30.822  31.678  1.00  0.00     0.338 C 
ATOM     47  O   UNL A   1      35.753  31.261  30.904  1.00  0.00    -0.246 OA
BRANCH  46  48
ATOM     48  C   UNL A   1      37.249  31.607  32.738  1.00  0.00     0.060 A 
ATOM     49  C   UNL A   1      38.285  31.009  33.470  1.00  0.00     0.016 A 
ATOM     50  C   UNL A   1      36.888  32.933  32.978  1.00  0.00     0.016 A 
ATOM     51  C   UNL A   1      38.964  31.738  34.446  1.00  0.00     0.010 A 
ATOM     52  C   UNL A   1      37.544  33.650  33.980  1.00  0.00     0.010 A 
ATOM     53  C   UNL A   1      38.571  33.051  34.731  1.00  0.00    -0.014 A 
BRANCH  53  54
ATOM     54  C   UNL A   1      39.106  33.750  35.923  1.00  0.00     0.031 A 
ATOM     55  C   UNL A   1      40.241  34.714  35.731  1.00  0.00     0.074 A 
ATOM     56  C   UNL A   1      38.620  33.509  37.152  1.00  0.00     0.049 A 
ATOM     57  N   UNL A   1      40.945  35.356  36.624  1.00  0.00    -0.248 NA
ATOM     58  C   UNL A   1      40.636  34.987  34.338  1.00  0.00     0.031 C 
ATOM     59  C   UNL A   1      37.499  32.623  37.462  1.00  0.00     0.029 A 
ATOM     60  N   UNL A   1      39.038  33.968  38.377  1.00  0.00    -0.354 N 
ATOM     61  C   UNL A   1      41.888  36.083  35.908  1.00  0.00     0.074 A 
ATOM     62  C   UNL A   1      41.668  35.799  34.506  1.00  0.00     0.031 C 
ATOM     63  C   UNL A   1      37.340  32.574  38.796  1.00  0.00     0.029 A 
ATOM     64  C   UNL A   1      38.371  33.392  39.434  1.00  0.00     0.049 A 
ATOM     65  H   UNL A   1      39.745  34.643  38.488  1.00  0.00     0.167 HD
ATOM     66  C   UNL A   1      42.846  36.917  36.374  1.00  0.00     0.034 A 
ATOM     67  C   UNL A   1      38.597  33.487  40.759  1.00  0.00     0.034 A 
ATOM     68  C   UNL A   1      43.064  37.191  37.768  1.00  0.00     0.049 A 
ATOM     69  C   UNL A   1      39.726  34.355  41.256  1.00  0.00     0.074 A 
ATOM     70  C   UNL A   1      43.988  38.045  38.343  1.00  0.00     0.029 A 
ATOM     71  N   UNL A   1      42.367  36.595  38.809  1.00  0.00    -0.354 N 
ATOM     72  N   UNL A   1      40.546  35.116  40.573  1.00  0.00    -0.248 NA
ATOM     73  C   UNL A   1      39.950  34.388  42.710  1.00  0.00     0.031 C 
ATOM     74  C   UNL A   1      43.878  37.933  39.733  1.00  0.00     0.029 A 
ATOM     75  C   UNL A   1      42.858  37.041  40.023  1.00  0.00     0.049 A 
ATOM     76  H   UNL A   1      41.632  35.951  38.699  1.00  0.00     0.167 HD
ATOM     77  C   UNL A   1      41.360  35.743  41.512  1.00  0.00     0.074 A 
ATOM     78  C   UNL A   1      40.922  35.285  42.815  1.00  0.00     0.031 C 
ATOM     79  C   UNL A   1      42.384  36.610  41.315  1.00  0.00     0.034 A 
BRANCH  66  80
ATOM     80  C   UNL A   1      43.732  37.590  35.359  1.00  0.00     0.023 A 
ATOM     81  C   UNL A   1      43.233  38.664  34.594  1.00  0.00     0.012 A 
ATOM     82  C   UNL A   1      45.065  37.173  35.176  1.00  0.00     0.148 A 
ATOM     83  C   UNL A   1      44.033  39.285  33.635  1.00  0.00     0.002 A 
ATOM     84  C   UNL A   1      45.871  37.828  34.252  1.00  0.00     0.091 A 
ATOM     85  F   UNL A   1      45.514  36.134  35.895  1.00  0.00    -0.205 F 
ATOM     86  C   UNL A   1      45.352  38.873  33.471  1.00  0.00     0.022 A 
BRANCH  84  87
ATOM     87  S   UNL A   1      47.604  37.422  34.021  1.00  0.00     0.127 S 
ATOM     88  O   UNL A   1      48.148  37.680  35.355  1.00  0.00    -0.237 OA
ATOM     89  O   UNL A   1      47.542  36.008  33.651  1.00  0.00    -0.237 OA
ATOM     90  O   UNL A   1      48.087  38.305  32.968  1.00  0.00    -0.744 OA
ENDBRANCH  84  87
ENDBRANCH  66  80
BRANCH  67  91
ATOM     91  C   UNL A   1      37.731  32.746  41.720  1.00  0.00     0.023 A 
ATOM     92  C   UNL A   1      38.213  31.568  42.320  1.00  0.00     0.012 A 
ATOM     93  C   UNL A   1      36.438  33.204  42.045  1.00  0.00     0.148 A 
ATOM     94  C   UNL A   1      37.418  30.844  43.210  1.00  0.00     0.002 A 
ATOM     95  C   UNL A   1      35.670  32.507  42.970  1.00  0.00     0.091 A 
ATOM     96  F   UNL A   1      35.992  34.318  41.449  1.00  0.00    -0.205 F 
ATOM     97  C   UNL A   1      36.151  31.319  43.543  1.00  0.00     0.022 A 
BRANCH  95  98
ATOM     98  S   UNL A   1      34.072  33.094  43.541  1.00  0.00     0.127 S 
ATOM     99  O   UNL A   1      33.247  32.923  42.347  1.00  0.00    -0.237 OA
ATOM    100  O   UNL A   1      33.784  32.159  44.628  1.00  0.00    -0.237 OA
ATOM    101  O   UNL A   1      34.285  34.472  43.962  1.00  0.00    -0.744 OA
ENDBRANCH  95  98
ENDBRANCH  67  91
BRANCH  79 102
ATOM    102  C   UNL A   1      43.095  37.153  42.529  1.00  0.00     0.023 A 
ATOM    103  C   UNL A   1      44.248  36.507  43.016  1.00  0.00     0.012 A 
ATOM    104  C   UNL A   1      42.678  38.363  43.123  1.00  0.00     0.148 A 
ATOM    105  C   UNL A   1      44.960  37.041  44.089  1.00  0.00     0.002 A 
ATOM    106  C   UNL A   1      43.422  38.915  44.158  1.00  0.00     0.091 A 
ATOM    107  F   UNL A   1      41.573  38.957  42.650  1.00  0.00    -0.205 F 
ATOM    108  C   UNL A   1      44.556  38.250  44.651  1.00  0.00     0.022 A 
BRANCH 106 109
ATOM    109  S   UNL A   1      43.039  40.516  44.880  1.00  0.00     0.127 S 
ATOM    110  O   UNL A   1      44.072  40.631  45.910  1.00  0.00    -0.237 OA
ATOM    111  O   UNL A   1      43.211  41.416  43.741  1.00  0.00    -0.237 OA
ATOM    112  O   UNL A   1      41.676  40.420  45.381  1.00  0.00    -0.744 OA
ENDBRANCH 106 109
ENDBRANCH  79 102
ENDBRANCH  53  54
ENDBRANCH  46  48
ENDBRANCH  45  46
ENDBRANCH  44  45
ENDBRANCH  43  44
ENDBRANCH  42  43
ENDBRANCH  41  42
ENDBRANCH  40  41
ENDBRANCH  39  40
ENDBRANCH  38  39
ENDBRANCH   1  38
TORSDOF 36
ENDMDL
MODEL 2
REMARK VINA RESULT:      -4.9      4.759      8.163
REMARK SMILES CCCC[C@@H](Sc1nc(OCCC2CCCCC2)cc(OCCC2CCCCC2)n1)C(=O)OCCOCCOCCOCCOC(=O)c1ccc(-c2c3nc(c(-c4cccc(S(=O)(=O)[O-])c4F)c4ccc([nH]4)c(-c4cccc(S(=O)(=O)[O-])c4F)c4nc(c(-c5cccc(S(=O)(=O)[O-])c5F)c5ccc2[nH]5)C=C4)C=C3)cc1
REMARK SMILES IDX 37 1 36 2 35 3 34 4 33 5 31 6 32 7 5 8 4 9 3 10 2 11 1 12
REMARK SMILES IDX 6 13 7 14 8 15 30 16 9 17 20 18 19 19 10 20 11 21 12 22
REMARK SMILES IDX 13 23 14 24 18 25 15 26 17 27 16 28 21 29 22 30 23 31 24 32
REMARK SMILES IDX 25 33 29 34 26 35 28 36 27 37 38 38 39 39 40 40 41 41 42 42
REMARK SMILES IDX 43 43 44 44 45 45 46 46 47 47 48 48 49 49 110 50 50 51
REMARK SMILES IDX 109 52 51 53 52 54 53 55 103 56 54 57 108 58 102 59 104 60
REMARK SMILES IDX 55 61 107 62 101 63 100 64 56 66 88 67 68 68 87 69 69 70
REMARK SMILES IDX 72 71 86 72 105 73 70 74 71 75 85 77 106 78 73 79 57 80
REMARK SMILES IDX 58 81 66 82 59 83 61 84 67 85 60 86 62 87 63 88 64 89 65 90
REMARK SMILES IDX 89 91 90 92 98 93 91 94 93 95 99 96 92 97 94 98 95 99 96 100
REMARK SMILES IDX 97 101 74 102 75 103 83 104 76 105 78 106 84 107 77 108
REMARK SMILES IDX 79 109 80 110 81 111 82 112
REMARK H PARENT 104 65 72 76
REMARK Flexibility Score: inf
ROOT
ATOM      1  C   UNL A   1      43.578  30.906  29.838  1.00  0.00     0.188 C 
ENDROOT
BRANCH   1   2
ATOM      2  O   UNL A   1      42.947  31.969  29.135  1.00  0.00    -0.376 OA
BRANCH   2   3
ATOM      3  C   UNL A   1      42.483  33.143  29.789  1.00  0.00     0.202 C 
BRANCH   3   4
ATOM      4  C   UNL A   1      42.876  34.567  29.374  1.00  0.00     0.261 C 
BRANCH   4   5
ATOM      5  O   UNL A   1      43.790  35.243  30.229  1.00  0.00    -0.462 OA
BRANCH   5   6
ATOM      6  C   UNL A   1      44.824  34.489  30.667  1.00  0.00     0.319 C 
ATOM      7  O   UNL A   1      45.713  34.048  29.940  1.00  0.00    -0.251 OA
BRANCH   6   8
ATOM      8  C   UNL A   1      44.794  34.242  32.164  1.00  0.00     0.164 C 
BRANCH   8   9
ATOM      9  C   UNL A   1      45.067  32.798  32.655  1.00  0.00     0.027 C 
BRANCH   9  10
ATOM     10  C   UNL A   1      44.486  32.377  34.034  1.00  0.00     0.001 C 
BRANCH  10  11
ATOM     11  C   UNL A   1      45.463  32.009  35.166  1.00  0.00    -0.003 C 
ATOM     12  C   UNL A   1      45.734  33.120  36.174  1.00  0.00     0.004 C 
ENDBRANCH  10  11
ENDBRANCH   9  10
ENDBRANCH   8   9
BRANCH   8  13
ATOM     13  S   UNL A   1      45.931  35.478  32.887  1.00  0.00    -0.071 SA
BRANCH  13  14
ATOM     14  C   UNL A   1      44.660  36.413  33.658  1.00  0.00     0.195 A 
ATOM     15  N   UNL A   1      44.423  36.168  34.961  1.00  0.00    -0.187 NA
ATOM     16  N   UNL A   1      44.223  37.465  32.962  1.00  0.00    -0.187 NA
ATOM     17  C   UNL A   1      43.652  37.049  35.593  1.00  0.00     0.221 A 
ATOM     18  C   UNL A   1      43.456  38.328  33.616  1.00  0.00     0.221 A 
ATOM     19  C   UNL A   1      43.134  38.128  34.929  1.00  0.00     0.136 A 
BRANCH  17  20
ATOM     20  O   UNL A   1      43.670  36.959  36.966  1.00  0.00    -0.477 OA
BRANCH  20  21
ATOM     21  C   UNL A   1      44.492  37.832  37.738  1.00  0.00     0.231 C 
BRANCH  21  22
ATOM     22  C   UNL A   1      45.153  37.326  39.067  1.00  0.00     0.045 C 
BRANCH  22  23
ATOM     23  C   UNL A   1      46.380  36.403  39.010  1.00  0.00    -0.008 C 
ATOM     24  C   UNL A   1      46.172  34.922  39.359  1.00  0.00     0.004 C 
ATOM     25  C   UNL A   1      47.067  36.461  37.646  1.00  0.00     0.004 C 
ATOM     26  C   UNL A   1      47.543  34.205  39.391  1.00  0.00     0.000 C 
ATOM     27  C   UNL A   1      48.459  35.862  37.709  1.00  0.00     0.000 C 
ATOM     28  C   UNL A   1      48.372  34.402  38.116  1.00  0.00     0.000 C 
ENDBRANCH  22  23
ENDBRANCH  21  22
ENDBRANCH  20  21
ENDBRANCH  17  20
BRANCH  18  29
ATOM     29  O   UNL A   1      43.056  39.380  32.852  1.00  0.00    -0.477 OA
BRANCH  29  30
ATOM     30  C   UNL A   1      43.854  39.855  31.773  1.00  0.00     0.231 C 
BRANCH  30  31
ATOM     31  C   UNL A   1      43.291  41.149  31.165  1.00  0.00     0.045 C 
BRANCH  31  32
ATOM     32  C   UNL A   1      43.088  42.377  32.096  1.00  0.00    -0.008 C 
ATOM     33  C   UNL A   1      42.188  42.082  33.313  1.00  0.00     0.004 C 
ATOM     34  C   UNL A   1      44.410  43.126  32.343  1.00  0.00     0.004 C 
ATOM     35  C   UNL A   1      42.594  42.632  34.678  1.00  0.00     0.000 C 
ATOM     36  C   UNL A   1      44.446  43.950  33.621  1.00  0.00     0.000 C 
ATOM     37  C   UNL A   1      44.032  43.085  34.785  1.00  0.00     0.000 C 
ENDBRANCH  31  32
ENDBRANCH  30  31
ENDBRANCH  29  30
ENDBRANCH  18  29
ENDBRANCH  13  14
ENDBRANCH   8  13
ENDBRANCH   6   8
ENDBRANCH   5   6
ENDBRANCH   4   5
ENDBRANCH   3   4
ENDBRANCH   2   3
ENDBRANCH   1   2
BRANCH   1  38
ATOM     38  C   UNL A   1      43.683  29.502  29.236  1.00  0.00     0.188 C 
BRANCH  38  39
ATOM     39  O   UNL A   1      42.793  29.277  28.169  1.00  0.00    -0.377 OA
BRANCH  39  40
ATOM     40  C   UNL A   1      42.323  27.949  27.987  1.00  0.00     0.188 C 
BRANCH  40  41
ATOM     41  C   UNL A   1      41.349  27.374  29.041  1.00  0.00     0.188 C 
BRANCH  41  42
ATOM     42  O   UNL A   1      40.394  28.300  29.546  1.00  0.00    -0.376 OA
BRANCH  42  43
ATOM     43  C   UNL A   1      39.018  27.968  29.424  1.00  0.00     0.202 C 
BRANCH  43  44
ATOM     44  C   UNL A   1      38.038  29.122  29.153  1.00  0.00     0.261 C 
BRANCH  44  45
ATOM     45  O   UNL A   1      37.030  29.346  30.152  1.00  0.00    -0.460 OA
BRANCH  45  46
ATOM     46  C   UNL A   1      36.983  30.557  30.754  1.00  0.00     0.338 C 
ATOM     47  O   UNL A   1      36.138  31.412  30.615  1.00  0.00    -0.246 OA
BRANCH  46  48
ATOM     48  C   UNL A   1      38.037  30.563  31.796  1.00  0.00     0.060 A 
ATOM     49  C   UNL A   1      37.874  29.757  32.931  1.00  0.00     0.016 A 
ATOM     50  C   UNL A   1      39.192  31.328  31.631  1.00  0.00     0.016 A 
ATOM     51  C   UNL A   1      38.869  29.714  33.908  1.00  0.00     0.010 A 
ATOM     52  C   UNL A   1      40.171  31.311  32.627  1.00  0.00     0.010 A 
ATOM     53  C   UNL A   1      40.005  30.520  33.777  1.00  0.00    -0.014 A 
BRANCH  53  54
ATOM     54  C   UNL A   1      40.945  30.677  34.912  1.00  0.00     0.031 A 
ATOM     55  C   UNL A   1      42.122  29.749  34.992  1.00  0.00     0.074 A 
ATOM     56  C   UNL A   1      40.740  31.598  35.869  1.00  0.00     0.049 A 
ATOM     57  N   UNL A   1      43.013  29.617  35.939  1.00  0.00    -0.248 NA
ATOM     58  C   UNL A   1      42.318  28.842  33.848  1.00  0.00     0.031 C 
ATOM     59  C   UNL A   1      39.654  32.577  35.883  1.00  0.00     0.029 A 
ATOM     60  N   UNL A   1      41.424  31.833  37.036  1.00  0.00    -0.354 N 
ATOM     61  C   UNL A   1      43.855  28.593  35.523  1.00  0.00     0.074 A 
ATOM     62  C   UNL A   1      43.366  28.136  34.241  1.00  0.00     0.031 C 
ATOM     63  C   UNL A   1      39.725  33.286  37.023  1.00  0.00     0.029 A 
ATOM     64  C   UNL A   1      40.833  32.784  37.835  1.00  0.00     0.049 A 
ATOM     65  H   UNL A   1      42.257  31.367  37.277  1.00  0.00     0.167 HD
ATOM     66  C   UNL A   1      44.942  28.084  36.148  1.00  0.00     0.034 A 
ATOM     67  C   UNL A   1      41.132  33.172  39.090  1.00  0.00     0.034 A 
ATOM     68  C   UNL A   1      45.420  28.538  37.426  1.00  0.00     0.049 A 
ATOM     69  C   UNL A   1      42.296  32.530  39.804  1.00  0.00     0.074 A 
ATOM     70  C   UNL A   1      46.530  28.111  38.131  1.00  0.00     0.029 A 
ATOM     71  N   UNL A   1      44.800  29.506  38.203  1.00  0.00    -0.354 N 
ATOM     72  N   UNL A   1      43.146  31.636  39.362  1.00  0.00    -0.248 NA
ATOM     73  C   UNL A   1      42.550  32.965  41.187  1.00  0.00     0.031 C 
ATOM     74  C   UNL A   1      46.557  28.789  39.354  1.00  0.00     0.029 A 
ATOM     75  C   UNL A   1      45.488  29.670  39.392  1.00  0.00     0.049 A 
ATOM     76  H   UNL A   1      43.991  30.003  37.946  1.00  0.00     0.167 HD
ATOM     77  C   UNL A   1      44.053  31.424  40.396  1.00  0.00     0.074 A 
ATOM     78  C   UNL A   1      43.658  32.298  41.482  1.00  0.00     0.031 C 
ATOM     79  C   UNL A   1      45.110  30.576  40.448  1.00  0.00     0.034 A 
BRANCH  66  80
ATOM     80  C   UNL A   1      45.683  26.973  35.454  1.00  0.00     0.023 A 
ATOM     81  C   UNL A   1      46.758  27.277  34.593  1.00  0.00     0.012 A 
ATOM     82  C   UNL A   1      45.331  25.626  35.669  1.00  0.00     0.148 A 
ATOM     83  C   UNL A   1      47.443  26.262  33.926  1.00  0.00     0.002 A 
ATOM     84  C   UNL A   1      46.049  24.618  35.037  1.00  0.00     0.091 A 
ATOM     85  F   UNL A   1      44.291  25.357  36.472  1.00  0.00    -0.205 F 
ATOM     86  C   UNL A   1      47.094  24.934  34.155  1.00  0.00     0.022 A 
BRANCH  84  87
ATOM     87  S   UNL A   1      45.727  22.875  35.325  1.00  0.00     0.127 S 
ATOM     88  O   UNL A   1      45.892  22.781  36.776  1.00  0.00    -0.237 OA
ATOM     89  O   UNL A   1      44.347  22.736  34.858  1.00  0.00    -0.237 OA
ATOM     90  O   UNL A   1      46.711  22.148  34.536  1.00  0.00    -0.744 OA
ENDBRANCH  84  87
ENDBRANCH  66  80
BRANCH  67  91
ATOM     91  C   UNL A   1      40.323  34.231  39.759  1.00  0.00     0.023 A 
ATOM     92  C   UNL A   1      39.144  33.875  40.440  1.00  0.00     0.012 A 
ATOM     93  C   UNL A   1      40.717  35.584  39.727  1.00  0.00     0.148 A 
ATOM     94  C   UNL A   1      38.358  34.848  41.060  1.00  0.00     0.002 A 
ATOM     95  C   UNL A   1      39.957  36.541  40.388  1.00  0.00     0.091 A 
ATOM     96  F   UNL A   1      41.834  35.903  39.058  1.00  0.00    -0.205 F 
ATOM     97  C   UNL A   1      38.769  36.178  41.042  1.00  0.00     0.022 A 
BRANCH  95  98
ATOM     98  S   UNL A   1      40.459  38.261  40.512  1.00  0.00     0.127 S 
ATOM     99  O   UNL A   1      39.216  38.958  40.190  1.00  0.00    -0.237 OA
ATOM    100  O   UNL A   1      40.870  38.349  41.913  1.00  0.00    -0.237 OA
ATOM    101  O   UNL A   1      41.538  38.428  39.548  1.00  0.00    -0.744 OA
ENDBRANCH  95  98
ENDBRANCH  67  91
BRANCH  79 102
ATOM    102  C   UNL A   1      45.944  30.560  41.704  1.00  0.00     0.023 A 
ATOM    103  C   UNL A   1      47.043  31.432  41.828  1.00  0.00     0.012 A 
ATOM    104  C   UNL A   1      45.574  29.755  42.802  1.00  0.00     0.148 A 
ATOM    105  C   UNL A   1      47.777  31.485  43.013  1.00  0.00     0.002 A 
ATOM    106  C   UNL A   1      46.278  29.850  43.995  1.00  0.00     0.091 A 
ATOM    107  F   UNL A   1      44.531  28.925  42.660  1.00  0.00    -0.205 F 
ATOM    108  C   UNL A   1      47.387  30.705  44.100  1.00  0.00     0.022 A 
BRANCH 106 109
ATOM    109  S   UNL A   1      45.794  28.961  45.481  1.00  0.00     0.127 S 
ATOM    110  O   UNL A   1      46.626  29.606  46.497  1.00  0.00    -0.237 OA
ATOM    111  O   UNL A   1      44.368  29.272  45.573  1.00  0.00    -0.237 OA
ATOM    112  O   UNL A   1      46.098  27.560  45.231  1.00  0.00    -0.744 OA
ENDBRANCH 106 109
ENDBRANCH  79 102
ENDBRANCH  53  54
ENDBRANCH  46  48
ENDBRANCH  45  46
ENDBRANCH  44  45
ENDBRANCH  43  44
ENDBRANCH  42  43
ENDBRANCH  41  42
ENDBRANCH  40  41
ENDBRANCH  39  40
ENDBRANCH  38  39
ENDBRANCH   1  38
TORSDOF 36
ENDMDL
MODEL 3
REMARK VINA RESULT:      -4.9      5.302     11.644
REMARK SMILES CCCC[C@@H](Sc1nc(OCCC2CCCCC2)cc(OCCC2CCCCC2)n1)C(=O)OCCOCCOCCOCCOC(=O)c1ccc(-c2c3nc(c(-c4cccc(S(=O)(=O)[O-])c4F)c4ccc([nH]4)c(-c4cccc(S(=O)(=O)[O-])c4F)c4nc(c(-c5cccc(S(=O)(=O)[O-])c5F)c5ccc2[nH]5)C=C4)C=C3)cc1
REMARK SMILES IDX 37 1 36 2 35 3 34 4 33 5 31 6 32 7 5 8 4 9 3 10 2 11 1 12
REMARK SMILES IDX 6 13 7 14 8 15 30 16 9 17 20 18 19 19 10 20 11 21 12 22
REMARK SMILES IDX 13 23 14 24 18 25 15 26 17 27 16 28 21 29 22 30 23 31 24 32
REMARK SMILES IDX 25 33 29 34 26 35 28 36 27 37 38 38 39 39 40 40 41 41 42 42
REMARK SMILES IDX 43 43 44 44 45 45 46 46 47 47 48 48 49 49 110 50 50 51
REMARK SMILES IDX 109 52 51 53 52 54 53 55 103 56 54 57 108 58 102 59 104 60
REMARK SMILES IDX 55 61 107 62 101 63 100 64 56 66 88 67 68 68 87 69 69 70
REMARK SMILES IDX 72 71 86 72 105 73 70 74 71 75 85 77 106 78 73 79 57 80
REMARK SMILES IDX 58 81 66 82 59 83 61 84 67 85 60 86 62 87 63 88 64 89 65 90
REMARK SMILES IDX 89 91 90 92 98 93 91 94 93 95 99 96 92 97 94 98 95 99 96 100
REMARK SMILES IDX 97 101 74 102 75 103 83 104 76 105 78 106 84 107 77 108
REMARK SMILES IDX 79 109 80 110 81 111 82 112
REMARK H PARENT 104 65 72 76
REMARK Flexibility Score: inf
ROOT
ATOM      1  C   UNL A   1      42.833  36.090  36.782  1.00  0.00     0.188 C 
ENDROOT
BRANCH   1   2
ATOM      2  O   UNL A   1      42.241  34.888  36.307  1.00  0.00    -0.376 OA
BRANCH   2   3
ATOM      3  C   UNL A   1      42.688  34.236  35.124  1.00  0.00     0.202 C 
BRANCH   3   4
ATOM      4  C   UNL A   1      44.076  33.602  34.969  1.00  0.00     0.261 C 
BRANCH   4   5
ATOM      5  O   UNL A   1      44.372  33.037  33.696  1.00  0.00    -0.462 OA
BRANCH   5   6
ATOM      6  C   UNL A   1      45.114  33.824  32.884  1.00  0.00     0.319 C 
ATOM      7  O   UNL A   1      45.638  34.880  33.235  1.00  0.00    -0.251 OA
BRANCH   6   8
ATOM      8  C   UNL A   1      45.254  33.270  31.478  1.00  0.00     0.164 C 
BRANCH   8   9
ATOM      9  C   UNL A   1      43.955  32.867  30.736  1.00  0.00     0.027 C 
BRANCH   9  10
ATOM     10  C   UNL A   1      43.673  31.352  30.535  1.00  0.00     0.001 C 
BRANCH  10  11
ATOM     11  C   UNL A   1      44.353  30.622  29.363  1.00  0.00    -0.003 C 
ATOM     12  C   UNL A   1      43.584  30.653  28.046  1.00  0.00     0.004 C 
ENDBRANCH  10  11
ENDBRANCH   9  10
ENDBRANCH   8   9
BRANCH   8  13
ATOM     13  S   UNL A   1      46.257  34.498  30.565  1.00  0.00    -0.071 SA
BRANCH  13  14
ATOM     14  C   UNL A   1      46.623  33.422  29.227  1.00  0.00     0.195 A 
ATOM     15  N   UNL A   1      46.066  33.715  28.035  1.00  0.00    -0.187 NA
ATOM     16  N   UNL A   1      47.626  32.568  29.438  1.00  0.00    -0.187 NA
ATOM     17  C   UNL A   1      46.549  33.058  26.985  1.00  0.00     0.221 A 
ATOM     18  C   UNL A   1      48.090  31.926  28.373  1.00  0.00     0.221 A 
ATOM     19  C   UNL A   1      47.550  32.135  27.136  1.00  0.00     0.136 A 
BRANCH  17  20
ATOM     20  O   UNL A   1      46.196  33.576  25.760  1.00  0.00    -0.477 OA
BRANCH  20  21
ATOM     21  C   UNL A   1      46.368  34.965  25.485  1.00  0.00     0.231 C 
BRANCH  21  22
ATOM     22  C   UNL A   1      47.807  35.572  25.349  1.00  0.00     0.045 C 
BRANCH  22  23
ATOM     23  C   UNL A   1      48.468  36.255  26.556  1.00  0.00    -0.008 C 
ATOM     24  C   UNL A   1      49.352  35.389  27.467  1.00  0.00     0.004 C 
ATOM     25  C   UNL A   1      49.294  37.469  26.135  1.00  0.00     0.004 C 
ATOM     26  C   UNL A   1      49.792  36.221  28.695  1.00  0.00     0.000 C 
ATOM     27  C   UNL A   1      49.625  38.346  27.328  1.00  0.00     0.000 C 
ATOM     28  C   UNL A   1      50.448  37.558  28.332  1.00  0.00     0.000 C 
ENDBRANCH  22  23
ENDBRANCH  21  22
ENDBRANCH  20  21
ENDBRANCH  17  20
BRANCH  18  29
ATOM     29  O   UNL A   1      49.118  31.082  28.658  1.00  0.00    -0.477 OA
BRANCH  29  30
ATOM     30  C   UNL A   1      48.933  29.670  28.675  1.00  0.00     0.231 C 
BRANCH  30  31
ATOM     31  C   UNL A   1      49.205  29.069  30.062  1.00  0.00     0.045 C 
BRANCH  31  32
ATOM     32  C   UNL A   1      49.024  27.537  30.254  1.00  0.00    -0.008 C 
ATOM     33  C   UNL A   1      48.536  26.813  28.983  1.00  0.00     0.004 C 
ATOM     34  C   UNL A   1      50.204  26.919  31.027  1.00  0.00     0.004 C 
ATOM     35  C   UNL A   1      49.170  25.475  28.609  1.00  0.00     0.000 C 
ATOM     36  C   UNL A   1      50.414  25.432  30.786  1.00  0.00     0.000 C 
ATOM     37  C   UNL A   1      50.479  25.170  29.302  1.00  0.00     0.000 C 
ENDBRANCH  31  32
ENDBRANCH  30  31
ENDBRANCH  29  30
ENDBRANCH  18  29
ENDBRANCH  13  14
ENDBRANCH   8  13
ENDBRANCH   6   8
ENDBRANCH   5   6
ENDBRANCH   4   5
ENDBRANCH   3   4
ENDBRANCH   2   3
ENDBRANCH   1   2
BRANCH   1  38
ATOM     38  C   UNL A   1      43.844  36.081  37.933  1.00  0.00     0.188 C 
BRANCH  38  39
ATOM     39  O   UNL A   1      43.357  36.674  39.114  1.00  0.00    -0.377 OA
BRANCH  39  40
ATOM     40  C   UNL A   1      42.007  36.404  39.464  1.00  0.00     0.188 C 
BRANCH  40  41
ATOM     41  C   UNL A   1      41.711  35.933  40.907  1.00  0.00     0.188 C 
BRANCH  41  42
ATOM     42  O   UNL A   1      42.863  35.682  41.704  1.00  0.00    -0.376 OA
BRANCH  42  43
ATOM     43  C   UNL A   1      42.773  34.668  42.697  1.00  0.00     0.202 C 
BRANCH  43  44
ATOM     44  C   UNL A   1      43.975  33.720  42.843  1.00  0.00     0.261 C 
BRANCH  44  45
ATOM     45  O   UNL A   1      45.094  33.976  41.978  1.00  0.00    -0.460 OA
BRANCH  45  46
ATOM     46  C   UNL A   1      45.973  32.971  41.755  1.00  0.00     0.338 C 
ATOM     47  O   UNL A   1      46.855  32.593  42.491  1.00  0.00    -0.246 OA
BRANCH  46  48
ATOM     48  C   UNL A   1      45.518  32.261  40.536  1.00  0.00     0.060 A 
ATOM     49  C   UNL A   1      45.055  30.943  40.651  1.00  0.00     0.016 A 
ATOM     50  C   UNL A   1      45.512  32.908  39.299  1.00  0.00     0.016 A 
ATOM     51  C   UNL A   1      44.584  30.266  39.526  1.00  0.00     0.010 A 
ATOM     52  C   UNL A   1      45.074  32.216  38.168  1.00  0.00     0.010 A 
ATOM     53  C   UNL A   1      44.626  30.888  38.273  1.00  0.00    -0.014 A 
BRANCH  53  54
ATOM     54  C   UNL A   1      44.369  30.106  37.042  1.00  0.00     0.031 A 
ATOM     55  C   UNL A   1      45.441  29.175  36.554  1.00  0.00     0.074 A 
ATOM     56  C   UNL A   1      43.224  30.244  36.351  1.00  0.00     0.049 A 
ATOM     57  N   UNL A   1      45.496  28.474  35.453  1.00  0.00    -0.248 NA
ATOM     58  C   UNL A   1      46.614  29.016  37.431  1.00  0.00     0.031 C 
ATOM     59  C   UNL A   1      42.097  31.089  36.741  1.00  0.00     0.029 A 
ATOM     60  N   UNL A   1      42.840  29.697  35.151  1.00  0.00    -0.354 N 
ATOM     61  C   UNL A   1      46.720  27.818  35.485  1.00  0.00     0.074 A 
ATOM     62  C   UNL A   1      47.378  28.207  36.713  1.00  0.00     0.031 C 
ATOM     63  C   UNL A   1      41.159  31.032  35.779  1.00  0.00     0.029 A 
ATOM     64  C   UNL A   1      41.638  30.181  34.690  1.00  0.00     0.049 A 
ATOM     65  H   UNL A   1      43.372  29.025  34.669  1.00  0.00     0.167 HD
ATOM     66  C   UNL A   1      47.245  26.963  34.577  1.00  0.00     0.034 A 
ATOM     67  C   UNL A   1      41.019  29.986  33.508  1.00  0.00     0.034 A 
ATOM     68  C   UNL A   1      46.589  26.585  33.355  1.00  0.00     0.049 A 
ATOM     69  C   UNL A   1      41.664  29.097  32.474  1.00  0.00     0.074 A 
ATOM     70  C   UNL A   1      47.023  25.701  32.384  1.00  0.00     0.029 A 
ATOM     71  N   UNL A   1      45.371  27.089  32.924  1.00  0.00    -0.354 N 
ATOM     72  N   UNL A   1      42.772  28.402  32.557  1.00  0.00    -0.248 NA
ATOM     73  C   UNL A   1      40.962  28.955  31.188  1.00  0.00     0.031 C 
ATOM     74  C   UNL A   1      46.088  25.704  31.344  1.00  0.00     0.029 A 
ATOM     75  C   UNL A   1      45.051  26.557  31.687  1.00  0.00     0.049 A 
ATOM     76  H   UNL A   1      44.817  27.730  33.424  1.00  0.00     0.167 HD
ATOM     77  C   UNL A   1      42.885  27.715  31.351  1.00  0.00     0.074 A 
ATOM     78  C   UNL A   1      41.721  28.065  30.562  1.00  0.00     0.031 C 
ATOM     79  C   UNL A   1      43.867  26.880  30.930  1.00  0.00     0.034 A 
BRANCH  66  80
ATOM     80  C   UNL A   1      48.602  26.383  34.877  1.00  0.00     0.023 A 
ATOM     81  C   UNL A   1      49.764  27.125  34.577  1.00  0.00     0.012 A 
ATOM     82  C   UNL A   1      48.729  25.115  35.475  1.00  0.00     0.148 A 
ATOM     83  C   UNL A   1      51.029  26.596  34.828  1.00  0.00     0.002 A 
ATOM     84  C   UNL A   1      49.993  24.614  35.766  1.00  0.00     0.091 A 
ATOM     85  F   UNL A   1      47.615  24.414  35.731  1.00  0.00    -0.205 F 
ATOM     86  C   UNL A   1      51.142  25.346  35.430  1.00  0.00     0.022 A 
BRANCH  84  87
ATOM     87  S   UNL A   1      50.242  23.049  36.610  1.00  0.00     0.127 S 
ATOM     88  O   UNL A   1      49.480  23.253  37.841  1.00  0.00    -0.237 OA
ATOM     89  O   UNL A   1      49.645  22.097  35.674  1.00  0.00    -0.237 OA
ATOM     90  O   UNL A   1      51.682  22.909  36.782  1.00  0.00    -0.744 OA
ENDBRANCH  84  87
ENDBRANCH  66  80
BRANCH  67  91
ATOM     91  C   UNL A   1      39.706  30.638  33.235  1.00  0.00     0.023 A 
ATOM     92  C   UNL A   1      38.528  29.868  33.282  1.00  0.00     0.012 A 
ATOM     93  C   UNL A   1      39.618  32.012  32.936  1.00  0.00     0.148 A 
ATOM     94  C   UNL A   1      37.287  30.448  33.013  1.00  0.00     0.002 A 
ATOM     95  C   UNL A   1      38.375  32.594  32.718  1.00  0.00     0.091 A 
ATOM     96  F   UNL A   1      40.753  32.723  32.879  1.00  0.00    -0.205 F 
ATOM     97  C   UNL A   1      37.210  31.812  32.741  1.00  0.00     0.022 A 
BRANCH  95  98
ATOM     98  S   UNL A   1      38.162  34.360  32.466  1.00  0.00     0.127 S 
ATOM     99  O   UNL A   1      38.958  34.586  31.261  1.00  0.00    -0.237 OA
ATOM    100  O   UNL A   1      36.716  34.460  32.278  1.00  0.00    -0.237 OA
ATOM    101  O   UNL A   1      38.666  34.995  33.676  1.00  0.00    -0.744 OA
ENDBRANCH  95  98
ENDBRANCH  67  91
BRANCH  79 102
ATOM    102  C   UNL A   1      43.726  26.254  29.566  1.00  0.00     0.023 A 
ATOM    103  C   UNL A   1      42.756  25.256  29.347  1.00  0.00     0.012 A 
ATOM    104  C   UNL A   1      44.486  26.729  28.476  1.00  0.00     0.148 A 
ATOM    105  C   UNL A   1      42.561  24.723  28.073  1.00  0.00     0.002 A 
ATOM    106  C   UNL A   1      44.251  26.229  27.202  1.00  0.00     0.091 A 
ATOM    107  F   UNL A   1      45.411  27.672  28.707  1.00  0.00    -0.205 F 
ATOM    108  C   UNL A   1      43.298  25.218  26.999  1.00  0.00     0.022 A 
BRANCH 106 109
ATOM    109  S   UNL A   1      45.078  26.872  25.741  1.00  0.00     0.127 S 
ATOM    110  O   UNL A   1      44.165  27.937  25.327  1.00  0.00    -0.237 OA
ATOM    111  O   UNL A   1      46.351  27.338  26.289  1.00  0.00    -0.237 OA
ATOM    112  O   UNL A   1      45.186  25.755  24.812  1.00  0.00    -0.744 OA
ENDBRANCH 106 109
ENDBRANCH  79 102
ENDBRANCH  53  54
ENDBRANCH  46  48
ENDBRANCH  45  46
ENDBRANCH  44  45
ENDBRANCH  43  44
ENDBRANCH  42  43
ENDBRANCH  41  42
ENDBRANCH  40  41
ENDBRANCH  39  40
ENDBRANCH  38  39
ENDBRANCH   1  38
TORSDOF 36
ENDMDL
