MODEL 1
REMARK VINA RESULT:      -6.9      0.000      0.000
REMARK SMILES O=C(OCCOCCOCCOCCOC(=O)c1ccc(-c2c3nc(c(-c4cccc(S(=O)(=O)[O-])c4F)c4ccc([nH]4)c(-c4cccc(S(=O)(=O)[O-])c4F)c4nc(c(-c5cccc(S(=O)(=O)[O-])c5F)c5ccc2[nH]5)C=C4)C=C3)cc1)C1=Cc2cc(S(F)(F)(F)(F)F)cc(Br)c2O[C@@H]1C(F)(F)F
REMARK SMILES IDX 10 1 9 2 8 3 7 4 6 5 5 6 4 7 3 8 2 9 1 10 81 11 82 12 97 13
REMARK SMILES IDX 83 14 96 15 84 16 95 17 85 18 93 19 92 20 94 21 98 22 99 23
REMARK SMILES IDX 100 24 101 25 86 26 87 27 88 28 89 29 90 30 91 31 11 32
REMARK SMILES IDX 12 33 13 34 14 35 15 36 16 37 17 38 18 39 19 40 80 41 20 42
REMARK SMILES IDX 79 43 21 44 22 45 23 46 73 47 24 48 78 49 72 50 74 51 25 52
REMARK SMILES IDX 77 53 71 54 70 55 26 57 58 58 38 59 57 60 39 61 42 62 56 63
REMARK SMILES IDX 75 64 40 65 41 66 55 68 76 69 43 70 27 71 28 72 36 73 29 74
REMARK SMILES IDX 31 75 37 76 30 77 32 78 33 79 34 80 35 81 59 82 60 83 68 84
REMARK SMILES IDX 61 85 63 86 69 87 62 88 64 89 65 90 66 91 67 92 44 93 45 94
REMARK SMILES IDX 53 95 46 96 48 97 54 98 47 99 49 100 50 101 51 102 52 103
REMARK H PARENT 74 56 42 67
REMARK Flexibility Score: inf
ROOT
ATOM      1  C   UNL A   1      43.316  30.651  29.759  1.00  0.00     0.188 C 
ENDROOT
BRANCH   1   2
ATOM      2  O   UNL A   1      43.391  29.435  29.028  1.00  0.00    -0.377 OA
BRANCH   2   3
ATOM      3  C   UNL A   1      43.909  29.693  27.732  1.00  0.00     0.188 C 
BRANCH   3   4
ATOM      4  C   UNL A   1      42.994  29.075  26.688  1.00  0.00     0.188 C 
BRANCH   4   5
ATOM      5  O   UNL A   1      43.762  28.283  25.794  1.00  0.00    -0.376 OA
BRANCH   5   6
ATOM      6  C   UNL A   1      45.098  28.198  26.266  1.00  0.00     0.202 C 
BRANCH   6   7
ATOM      7  C   UNL A   1      46.047  28.078  25.086  1.00  0.00     0.261 C 
BRANCH   7   8
ATOM      8  O   UNL A   1      46.183  26.711  24.725  1.00  0.00    -0.460 OA
BRANCH   8   9
ATOM      9  C   UNL A   1      47.452  26.079  24.799  1.00  0.00     0.338 C 
ATOM     10  O   UNL A   1      47.911  25.454  23.792  1.00  0.00    -0.246 OA
BRANCH   9  11
ATOM     11  C   UNL A   1      48.262  26.149  26.084  1.00  0.00     0.087 C 
ATOM     12  C   UNL A   1      47.838  25.484  27.192  1.00  0.00     0.027 C 
ATOM     13  C   UNL A   1      49.545  26.963  26.130  1.00  0.00     0.316 C 
ATOM     14  C   UNL A   1      46.556  24.669  27.145  1.00  0.00     0.020 A 
ATOM     15  O   UNL A   1      47.158  23.937  24.966  1.00  0.00    -0.474 OA
ATOM     16  C   UNL A   1      45.675  24.742  28.211  1.00  0.00     0.036 A 
ATOM     17  C   UNL A   1      46.322  23.869  26.112  1.00  0.00     0.142 A 
ATOM     18  C   UNL A   1      44.709  23.708  28.229  1.00  0.00     0.109 A 
ATOM     19  C   UNL A   1      45.277  22.977  26.141  1.00  0.00     0.062 A 
ATOM     20  C   UNL A   1      44.401  22.953  27.190  1.00  0.00     0.044 A 
ATOM     21  Br  UNL A   1      45.040  21.720  24.655  1.00  0.00    -0.047 Br
BRANCH  13  22
ATOM     22  C   UNL A   1      50.711  26.053  26.479  1.00  0.00     0.430 C 
ATOM     23  F   UNL A   1      50.472  25.455  27.643  1.00  0.00    -0.167 F 
ATOM     24  F   UNL A   1      50.856  25.133  25.529  1.00  0.00    -0.167 F 
ATOM     25  F   UNL A   1      51.824  26.774  26.571  1.00  0.00    -0.167 F 
ENDBRANCH  13  22
BRANCH  18  26
ATOM     26  S   UNL A   1      43.834  23.399  29.783  1.00  0.00     0.310 S 
ATOM     27  F   UNL A   1      44.746  24.426  30.575  1.00  0.00    -0.094 F 
ATOM     28  F   UNL A   1      44.901  22.292  30.127  1.00  0.00    -0.094 F 
ATOM     29  F   UNL A   1      43.083  23.130  31.117  1.00  0.00    -0.094 F 
ATOM     30  F   UNL A   1      42.858  24.605  29.486  1.00  0.00    -0.094 F 
ATOM     31  F   UNL A   1      44.651  23.758  28.478  1.00  0.00    -0.094 F 
ENDBRANCH  18  26
ENDBRANCH   9  11
ENDBRANCH   8   9
ENDBRANCH   7   8
ENDBRANCH   6   7
ENDBRANCH   5   6
ENDBRANCH   4   5
ENDBRANCH   3   4
ENDBRANCH   2   3
ENDBRANCH   1   2
BRANCH   1  32
ATOM     32  C   UNL A   1      41.861  31.074  29.887  1.00  0.00     0.188 C 
BRANCH  32  33
ATOM     33  O   UNL A   1      41.595  31.450  31.229  1.00  0.00    -0.376 OA
BRANCH  33  34
ATOM     34  C   UNL A   1      40.227  31.813  31.356  1.00  0.00     0.202 C 
BRANCH  34  35
ATOM     35  C   UNL A   1      39.577  30.968  32.440  1.00  0.00     0.261 C 
BRANCH  35  36
ATOM     36  O   UNL A   1      39.105  29.753  31.873  1.00  0.00    -0.460 OA
BRANCH  36  37
ATOM     37  C   UNL A   1      39.441  28.512  32.474  1.00  0.00     0.338 C 
ATOM     38  O   UNL A   1      38.523  27.724  32.862  1.00  0.00    -0.246 OA
BRANCH  37  39
ATOM     39  C   UNL A   1      40.900  28.125  32.654  1.00  0.00     0.060 A 
ATOM     40  C   UNL A   1      41.660  27.833  31.534  1.00  0.00     0.016 A 
ATOM     41  C   UNL A   1      41.402  28.001  33.877  1.00  0.00     0.016 A 
ATOM     42  C   UNL A   1      42.856  27.134  31.818  1.00  0.00     0.010 A 
ATOM     43  C   UNL A   1      42.637  27.431  34.072  1.00  0.00     0.010 A 
ATOM     44  C   UNL A   1      43.417  27.064  33.012  1.00  0.00    -0.014 A 
BRANCH  44  45
ATOM     45  C   UNL A   1      44.852  26.600  33.196  1.00  0.00     0.031 A 
ATOM     46  C   UNL A   1      45.092  25.375  33.818  1.00  0.00     0.074 A 
ATOM     47  C   UNL A   1      45.844  27.399  32.651  1.00  0.00     0.049 A 
ATOM     48  N   UNL A   1      46.262  24.753  33.969  1.00  0.00    -0.248 NA
ATOM     49  C   UNL A   1      44.045  24.542  34.428  1.00  0.00     0.031 C 
ATOM     50  C   UNL A   1      45.611  28.633  32.014  1.00  0.00     0.029 A 
ATOM     51  N   UNL A   1      47.201  27.160  32.624  1.00  0.00    -0.354 N 
ATOM     52  C   UNL A   1      46.089  23.590  34.600  1.00  0.00     0.074 A 
ATOM     53  C   UNL A   1      44.661  23.440  34.910  1.00  0.00     0.031 C 
ATOM     54  C   UNL A   1      46.808  29.137  31.618  1.00  0.00     0.029 A 
ATOM     55  C   UNL A   1      47.812  28.226  32.000  1.00  0.00     0.049 A 
ATOM     56  H   UNL A   1      47.655  26.366  32.986  1.00  0.00     0.167 HD
ATOM     57  C   UNL A   1      47.065  22.647  34.927  1.00  0.00     0.034 A 
ATOM     58  C   UNL A   1      49.166  28.412  31.771  1.00  0.00     0.034 A 
ATOM     59  C   UNL A   1      48.415  22.814  34.659  1.00  0.00     0.049 A 
ATOM     60  C   UNL A   1      50.150  27.496  32.150  1.00  0.00     0.074 A 
ATOM     61  C   UNL A   1      49.411  21.871  34.975  1.00  0.00     0.029 A 
ATOM     62  N   UNL A   1      49.029  23.891  34.057  1.00  0.00    -0.354 N 
ATOM     63  N   UNL A   1      49.972  26.315  32.745  1.00  0.00    -0.248 NA
ATOM     64  C   UNL A   1      51.589  27.698  31.941  1.00  0.00     0.031 C 
ATOM     65  C   UNL A   1      50.611  22.375  34.579  1.00  0.00     0.029 A 
ATOM     66  C   UNL A   1      50.383  23.642  34.010  1.00  0.00     0.049 A 
ATOM     67  H   UNL A   1      48.578  24.698  33.721  1.00  0.00     0.167 HD
ATOM     68  C   UNL A   1      51.148  25.713  32.932  1.00  0.00     0.074 A 
ATOM     69  C   UNL A   1      52.207  26.597  32.425  1.00  0.00     0.031 C 
ATOM     70  C   UNL A   1      51.381  24.460  33.503  1.00  0.00     0.034 A 
BRANCH  57  71
ATOM     71  C   UNL A   1      46.624  21.366  35.617  1.00  0.00     0.023 A 
ATOM     72  C   UNL A   1      46.118  20.377  34.790  1.00  0.00     0.012 A 
ATOM     73  C   UNL A   1      46.749  21.174  36.924  1.00  0.00     0.148 A 
ATOM     74  C   UNL A   1      45.497  19.312  35.485  1.00  0.00     0.002 A 
ATOM     75  C   UNL A   1      46.238  20.045  37.517  1.00  0.00     0.091 A 
ATOM     76  F   UNL A   1      47.376  22.083  37.667  1.00  0.00    -0.205 F 
ATOM     77  C   UNL A   1      45.671  19.052  36.768  1.00  0.00     0.022 A 
BRANCH  75  78
ATOM     78  S   UNL A   1      46.317  19.870  39.317  1.00  0.00     0.127 S 
ATOM     79  O   UNL A   1      45.535  18.625  39.743  1.00  0.00    -0.237 OA
ATOM     80  O   UNL A   1      47.778  19.729  39.753  1.00  0.00    -0.237 OA
ATOM     81  O   UNL A   1      45.633  21.252  40.055  1.00  0.00    -0.744 OA
ENDBRANCH  75  78
ENDBRANCH  57  71
BRANCH  58  82
ATOM     82  C   UNL A   1      49.605  29.686  31.066  1.00  0.00     0.023 A 
ATOM     83  C   UNL A   1      49.884  30.827  31.800  1.00  0.00     0.012 A 
ATOM     84  C   UNL A   1      49.631  29.697  29.739  1.00  0.00     0.148 A 
ATOM     85  C   UNL A   1      49.899  32.014  31.030  1.00  0.00     0.002 A 
ATOM     86  C   UNL A   1      49.786  30.877  29.052  1.00  0.00     0.091 A 
ATOM     87  F   UNL A   1      49.507  28.555  29.068  1.00  0.00    -0.205 F 
ATOM     88  C   UNL A   1      50.007  32.052  29.715  1.00  0.00     0.022 A 
BRANCH  86  89
ATOM     89  S   UNL A   1      49.695  30.875  27.244  1.00  0.00     0.127 S 
ATOM     90  O   UNL A   1      50.866  30.071  26.676  1.00  0.00    -0.237 OA
ATOM     91  O   UNL A   1      48.376  30.238  26.800  1.00  0.00    -0.237 OA
ATOM     92  O   UNL A   1      49.774  32.484  26.668  1.00  0.00    -0.744 OA
ENDBRANCH  86  89
ENDBRANCH  58  82
BRANCH  70  93
ATOM     93  C   UNL A   1      52.816  23.964  33.574  1.00  0.00     0.023 A 
ATOM     94  C   UNL A   1      53.285  23.129  32.574  1.00  0.00     0.012 A 
ATOM     95  C   UNL A   1      53.573  24.285  34.617  1.00  0.00     0.148 A 
ATOM     96  C   UNL A   1      54.478  22.446  32.912  1.00  0.00     0.002 A 
ATOM     97  C   UNL A   1      54.789  23.675  34.811  1.00  0.00     0.091 A 
ATOM     98  F   UNL A   1      53.151  25.204  35.480  1.00  0.00    -0.205 F 
ATOM     99  C   UNL A   1      55.289  22.795  33.893  1.00  0.00     0.022 A 
BRANCH  97 100
ATOM    100  S   UNL A   1      55.743  24.044  36.304  1.00  0.00     0.127 S 
ATOM    101  O   UNL A   1      56.190  25.508  36.276  1.00  0.00    -0.237 OA
ATOM    102  O   UNL A   1      54.872  23.801  37.539  1.00  0.00    -0.237 OA
ATOM    103  O   UNL A   1      57.119  23.030  36.368  1.00  0.00    -0.744 OA
ENDBRANCH  97 100
ENDBRANCH  70  93
ENDBRANCH  44  45
ENDBRANCH  37  39
ENDBRANCH  36  37
ENDBRANCH  35  36
ENDBRANCH  34  35
ENDBRANCH  33  34
ENDBRANCH  32  33
ENDBRANCH   1  32
TORSDOF 25
ENDMDL
MODEL 2
REMARK VINA RESULT:      -6.9      9.145     13.589
REMARK SMILES O=C(OCCOCCOCCOCCOC(=O)c1ccc(-c2c3nc(c(-c4cccc(S(=O)(=O)[O-])c4F)c4ccc([nH]4)c(-c4cccc(S(=O)(=O)[O-])c4F)c4nc(c(-c5cccc(S(=O)(=O)[O-])c5F)c5ccc2[nH]5)C=C4)C=C3)cc1)C1=Cc2cc(S(F)(F)(F)(F)F)cc(Br)c2O[C@@H]1C(F)(F)F
REMARK SMILES IDX 10 1 9 2 8 3 7 4 6 5 5 6 4 7 3 8 2 9 1 10 81 11 82 12 97 13
REMARK SMILES IDX 83 14 96 15 84 16 95 17 85 18 93 19 92 20 94 21 98 22 99 23
REMARK SMILES IDX 100 24 101 25 86 26 87 27 88 28 89 29 90 30 91 31 11 32
REMARK SMILES IDX 12 33 13 34 14 35 15 36 16 37 17 38 18 39 19 40 80 41 20 42
REMARK SMILES IDX 79 43 21 44 22 45 23 46 73 47 24 48 78 49 72 50 74 51 25 52
REMARK SMILES IDX 77 53 71 54 70 55 26 57 58 58 38 59 57 60 39 61 42 62 56 63
REMARK SMILES IDX 75 64 40 65 41 66 55 68 76 69 43 70 27 71 28 72 36 73 29 74
REMARK SMILES IDX 31 75 37 76 30 77 32 78 33 79 34 80 35 81 59 82 60 83 68 84
REMARK SMILES IDX 61 85 63 86 69 87 62 88 64 89 65 90 66 91 67 92 44 93 45 94
REMARK SMILES IDX 53 95 46 96 48 97 54 98 47 99 49 100 50 101 51 102 52 103
REMARK H PARENT 74 56 42 67
REMARK Flexibility Score: inf
ROOT
ATOM      1  C   UNL A   1      39.910  24.587  26.654  1.00  0.00     0.188 C 
ENDROOT
BRANCH   1   2
ATOM      2  O   UNL A   1      38.667  23.905  26.585  1.00  0.00    -0.377 OA
BRANCH   2   3
ATOM      3  C   UNL A   1      38.896  22.527  26.329  1.00  0.00     0.188 C 
BRANCH   3   4
ATOM      4  C   UNL A   1      38.032  22.079  25.162  1.00  0.00     0.188 C 
BRANCH   4   5
ATOM      5  O   UNL A   1      36.885  21.401  25.654  1.00  0.00    -0.376 OA
BRANCH   5   6
ATOM      6  C   UNL A   1      35.879  21.385  24.652  1.00  0.00     0.202 C 
BRANCH   6   7
ATOM      7  C   UNL A   1      36.096  22.546  23.696  1.00  0.00     0.261 C 
BRANCH   7   8
ATOM      8  O   UNL A   1      35.001  23.446  23.789  1.00  0.00    -0.460 OA
BRANCH   8   9
ATOM      9  C   UNL A   1      34.696  24.067  25.028  1.00  0.00     0.338 C 
ATOM     10  O   UNL A   1      35.551  24.823  25.588  1.00  0.00    -0.246 OA
BRANCH   9  11
ATOM     11  C   UNL A   1      33.346  23.829  25.686  1.00  0.00     0.087 C 
ATOM     12  C   UNL A   1      32.508  24.875  25.916  1.00  0.00     0.027 C 
ATOM     13  C   UNL A   1      32.933  22.422  26.085  1.00  0.00     0.316 C 
ATOM     14  C   UNL A   1      32.921  26.282  25.516  1.00  0.00     0.020 A 
ATOM     15  O   UNL A   1      33.859  25.387  23.525  1.00  0.00    -0.474 OA
ATOM     16  C   UNL A   1      32.671  27.329  26.388  1.00  0.00     0.036 A 
ATOM     17  C   UNL A   1      33.469  26.494  24.326  1.00  0.00     0.142 A 
ATOM     18  C   UNL A   1      32.771  28.608  25.792  1.00  0.00     0.109 A 
ATOM     19  C   UNL A   1      33.663  27.772  23.862  1.00  0.00     0.062 A 
ATOM     20  C   UNL A   1      33.383  28.855  24.647  1.00  0.00     0.044 A 
ATOM     21  Br  UNL A   1      34.352  28.047  22.047  1.00  0.00    -0.047 Br
BRANCH  13  22
ATOM     22  C   UNL A   1      31.659  22.040  25.351  1.00  0.00     0.430 C 
ATOM     23  F   UNL A   1      31.695  22.531  24.116  1.00  0.00    -0.167 F 
ATOM     24  F   UNL A   1      31.557  20.715  25.299  1.00  0.00    -0.167 F 
ATOM     25  F   UNL A   1      30.609  22.539  25.996  1.00  0.00    -0.167 F 
ENDBRANCH  13  22
BRANCH  18  26
ATOM     26  S   UNL A   1      32.009  30.003  26.656  1.00  0.00     0.310 S 
ATOM     27  F   UNL A   1      32.828  31.061  25.805  1.00  0.00    -0.094 F 
ATOM     28  F   UNL A   1      33.213  29.990  27.673  1.00  0.00    -0.094 F 
ATOM     29  F   UNL A   1      31.356  31.201  27.402  1.00  0.00    -0.094 F 
ATOM     30  F   UNL A   1      30.886  30.090  25.550  1.00  0.00    -0.094 F 
ATOM     31  F   UNL A   1      32.718  28.861  25.826  1.00  0.00    -0.094 F 
ENDBRANCH  18  26
ENDBRANCH   9  11
ENDBRANCH   8   9
ENDBRANCH   7   8
ENDBRANCH   6   7
ENDBRANCH   5   6
ENDBRANCH   4   5
ENDBRANCH   3   4
ENDBRANCH   2   3
ENDBRANCH   1   2
BRANCH   1  32
ATOM     32  C   UNL A   1      40.907  23.744  27.433  1.00  0.00     0.188 C 
BRANCH  32  33
ATOM     33  O   UNL A   1      42.210  24.284  27.273  1.00  0.00    -0.376 OA
BRANCH  33  34
ATOM     34  C   UNL A   1      42.123  25.694  27.126  1.00  0.00     0.202 C 
BRANCH  34  35
ATOM     35  C   UNL A   1      43.510  26.303  27.247  1.00  0.00     0.261 C 
BRANCH  35  36
ATOM     36  O   UNL A   1      43.665  27.325  26.272  1.00  0.00    -0.460 OA
BRANCH  36  37
ATOM     37  C   UNL A   1      44.754  28.231  26.360  1.00  0.00     0.338 C 
ATOM     38  O   UNL A   1      45.876  27.929  25.844  1.00  0.00    -0.246 OA
BRANCH  37  39
ATOM     39  C   UNL A   1      44.579  29.562  27.072  1.00  0.00     0.060 A 
ATOM     40  C   UNL A   1      45.655  30.106  27.753  1.00  0.00     0.016 A 
ATOM     41  C   UNL A   1      43.385  30.143  27.095  1.00  0.00     0.016 A 
ATOM     42  C   UNL A   1      45.299  31.119  28.673  1.00  0.00     0.010 A 
ATOM     43  C   UNL A   1      43.145  31.215  27.920  1.00  0.00     0.010 A 
ATOM     44  C   UNL A   1      44.148  31.767  28.665  1.00  0.00    -0.014 A 
BRANCH  44  45
ATOM     45  C   UNL A   1      43.951  33.058  29.444  1.00  0.00     0.031 A 
ATOM     46  C   UNL A   1      43.368  33.001  30.710  1.00  0.00     0.074 A 
ATOM     47  C   UNL A   1      44.447  34.217  28.872  1.00  0.00     0.049 A 
ATOM     48  N   UNL A   1      43.216  33.999  31.582  1.00  0.00    -0.248 NA
ATOM     49  C   UNL A   1      42.810  31.778  31.306  1.00  0.00     0.031 C 
ATOM     50  C   UNL A   1      45.045  34.283  27.598  1.00  0.00     0.029 A 
ATOM     51  N   UNL A   1      44.455  35.488  29.407  1.00  0.00    -0.354 N 
ATOM     52  C   UNL A   1      42.630  33.553  32.696  1.00  0.00     0.074 A 
ATOM     53  C   UNL A   1      42.355  32.119  32.531  1.00  0.00     0.031 C 
ATOM     54  C   UNL A   1      45.398  35.573  27.363  1.00  0.00     0.029 A 
ATOM     55  C   UNL A   1      45.028  36.338  28.486  1.00  0.00     0.049 A 
ATOM     56  H   UNL A   1      44.112  35.742  30.293  1.00  0.00     0.167 HD
ATOM     57  C   UNL A   1      42.316  34.285  33.842  1.00  0.00     0.034 A 
ATOM     58  C   UNL A   1      45.223  37.705  28.601  1.00  0.00     0.034 A 
ATOM     59  C   UNL A   1      42.551  35.645  33.973  1.00  0.00     0.049 A 
ATOM     60  C   UNL A   1      44.856  38.449  29.724  1.00  0.00     0.074 A 
ATOM     61  C   UNL A   1      42.248  36.397  35.124  1.00  0.00     0.029 A 
ATOM     62  N   UNL A   1      43.101  36.500  33.043  1.00  0.00    -0.354 N 
ATOM     63  N   UNL A   1      44.307  37.996  30.853  1.00  0.00    -0.248 NA
ATOM     64  C   UNL A   1      45.028  39.902  29.844  1.00  0.00     0.031 C 
ATOM     65  C   UNL A   1      42.601  37.689  34.889  1.00  0.00     0.029 A 
ATOM     66  C   UNL A   1      43.130  37.765  33.587  1.00  0.00     0.049 A 
ATOM     67  H   UNL A   1      43.418  36.250  32.146  1.00  0.00     0.167 HD
ATOM     68  C   UNL A   1      44.117  39.002  31.708  1.00  0.00     0.074 A 
ATOM     69  C   UNL A   1      44.570  40.245  31.069  1.00  0.00     0.031 C 
ATOM     70  C   UNL A   1      43.586  38.934  32.998  1.00  0.00     0.034 A 
BRANCH  57  71
ATOM     71  C   UNL A   1      41.682  33.551  35.012  1.00  0.00     0.023 A 
ATOM     72  C   UNL A   1      42.556  33.092  35.985  1.00  0.00     0.012 A 
ATOM     73  C   UNL A   1      40.370  33.387  35.131  1.00  0.00     0.148 A 
ATOM     74  C   UNL A   1      41.961  32.210  36.918  1.00  0.00     0.002 A 
ATOM     75  C   UNL A   1      39.851  32.624  36.149  1.00  0.00     0.091 A 
ATOM     76  F   UNL A   1      39.551  33.968  34.259  1.00  0.00    -0.205 F 
ATOM     77  C   UNL A   1      40.660  32.091  37.112  1.00  0.00     0.022 A 
BRANCH  75  78
ATOM     78  S   UNL A   1      38.067  32.319  36.214  1.00  0.00     0.127 S 
ATOM     79  O   UNL A   1      37.339  33.623  36.547  1.00  0.00    -0.237 OA
ATOM     80  O   UNL A   1      37.589  31.799  34.856  1.00  0.00    -0.237 OA
ATOM     81  O   UNL A   1      37.732  31.155  37.421  1.00  0.00    -0.744 OA
ENDBRANCH  75  78
ENDBRANCH  57  71
BRANCH  58  82
ATOM     82  C   UNL A   1      45.872  38.436  27.437  1.00  0.00     0.023 A 
ATOM     83  C   UNL A   1      47.203  38.208  27.127  1.00  0.00     0.012 A 
ATOM     84  C   UNL A   1      45.160  39.349  26.788  1.00  0.00     0.148 A 
ATOM     85  C   UNL A   1      47.778  39.205  26.302  1.00  0.00     0.002 A 
ATOM     86  C   UNL A   1      45.763  40.202  25.895  1.00  0.00     0.091 A 
ATOM     87  F   UNL A   1      43.851  39.440  27.004  1.00  0.00    -0.205 F 
ATOM     88  C   UNL A   1      47.089  40.072  25.584  1.00  0.00     0.022 A 
BRANCH  86  89
ATOM     89  S   UNL A   1      44.790  41.515  25.118  1.00  0.00     0.127 S 
ATOM     90  O   UNL A   1      45.445  41.923  23.797  1.00  0.00    -0.237 OA
ATOM     91  O   UNL A   1      43.372  41.007  24.849  1.00  0.00    -0.237 OA
ATOM     92  O   UNL A   1      44.722  42.868  26.163  1.00  0.00    -0.744 OA
ENDBRANCH  86  89
ENDBRANCH  58  82
BRANCH  70  93
ATOM     93  C   UNL A   1      43.503  40.220  33.804  1.00  0.00     0.023 A 
ATOM     94  C   UNL A   1      42.417  41.058  33.619  1.00  0.00     0.012 A 
ATOM     95  C   UNL A   1      44.496  40.549  34.623  1.00  0.00     0.148 A 
ATOM     96  C   UNL A   1      42.609  42.365  34.127  1.00  0.00     0.002 A 
ATOM     97  C   UNL A   1      44.548  41.799  35.191  1.00  0.00     0.091 A 
ATOM     98  F   UNL A   1      45.449  39.661  34.894  1.00  0.00    -0.205 F 
ATOM     99  C   UNL A   1      43.538  42.699  35.003  1.00  0.00     0.022 A 
BRANCH  97 100
ATOM    100  S   UNL A   1      45.976  42.259  36.204  1.00  0.00     0.127 S 
ATOM    101  O   UNL A   1      47.249  42.175  35.359  1.00  0.00    -0.237 OA
ATOM    102  O   UNL A   1      45.798  43.689  36.718  1.00  0.00    -0.237 OA
ATOM    103  O   UNL A   1      46.103  41.187  37.531  1.00  0.00    -0.744 OA
ENDBRANCH  97 100
ENDBRANCH  70  93
ENDBRANCH  44  45
ENDBRANCH  37  39
ENDBRANCH  36  37
ENDBRANCH  35  36
ENDBRANCH  34  35
ENDBRANCH  33  34
ENDBRANCH  32  33
ENDBRANCH   1  32
TORSDOF 25
ENDMDL
MODEL 3
REMARK VINA RESULT:      -6.9     10.281     13.834
REMARK SMILES O=C(OCCOCCOCCOCCOC(=O)c1ccc(-c2c3nc(c(-c4cccc(S(=O)(=O)[O-])c4F)c4ccc([nH]4)c(-c4cccc(S(=O)(=O)[O-])c4F)c4nc(c(-c5cccc(S(=O)(=O)[O-])c5F)c5ccc2[nH]5)C=C4)C=C3)cc1)C1=Cc2cc(S(F)(F)(F)(F)F)cc(Br)c2O[C@@H]1C(F)(F)F
REMARK SMILES IDX 10 1 9 2 8 3 7 4 6 5 5 6 4 7 3 8 2 9 1 10 81 11 82 12 97 13
REMARK SMILES IDX 83 14 96 15 84 16 95 17 85 18 93 19 92 20 94 21 98 22 99 23
REMARK SMILES IDX 100 24 101 25 86 26 87 27 88 28 89 29 90 30 91 31 11 32
REMARK SMILES IDX 12 33 13 34 14 35 15 36 16 37 17 38 18 39 19 40 80 41 20 42
REMARK SMILES IDX 79 43 21 44 22 45 23 46 73 47 24 48 78 49 72 50 74 51 25 52
REMARK SMILES IDX 77 53 71 54 70 55 26 57 58 58 38 59 57 60 39 61 42 62 56 63
REMARK SMILES IDX 75 64 40 65 41 66 55 68 76 69 43 70 27 71 28 72 36 73 29 74
REMARK SMILES IDX 31 75 37 76 30 77 32 78 33 79 34 80 35 81 59 82 60 83 68 84
REMARK SMILES IDX 61 85 63 86 69 87 62 88 64 89 65 90 66 91 67 92 44 93 45 94
REMARK SMILES IDX 53 95 46 96 48 97 54 98 47 99 49 100 50 101 51 102 52 103
REMARK H PARENT 74 56 42 67
REMARK Flexibility Score: inf
ROOT
ATOM      1  C   UNL A   1      41.548  25.515  28.363  1.00  0.00     0.188 C 
ENDROOT
BRANCH   1   2
ATOM      2  O   UNL A   1      42.146  25.127  27.135  1.00  0.00    -0.377 OA
BRANCH   2   3
ATOM      3  C   UNL A   1      41.332  24.153  26.498  1.00  0.00     0.188 C 
BRANCH   3   4
ATOM      4  C   UNL A   1      40.215  23.734  27.438  1.00  0.00     0.188 C 
BRANCH   4   5
ATOM      5  O   UNL A   1      39.246  22.985  26.718  1.00  0.00    -0.376 OA
BRANCH   5   6
ATOM      6  C   UNL A   1      38.325  23.873  26.100  1.00  0.00     0.202 C 
BRANCH   6   7
ATOM      7  C   UNL A   1      37.147  23.084  25.555  1.00  0.00     0.261 C 
BRANCH   7   8
ATOM      8  O   UNL A   1      36.425  23.889  24.635  1.00  0.00    -0.460 OA
BRANCH   8   9
ATOM      9  C   UNL A   1      35.376  23.320  23.865  1.00  0.00     0.338 C 
ATOM     10  O   UNL A   1      35.461  23.292  22.597  1.00  0.00    -0.246 OA
BRANCH   9  11
ATOM     11  C   UNL A   1      34.150  22.745  24.558  1.00  0.00     0.087 C 
ATOM     12  C   UNL A   1      33.200  23.578  25.061  1.00  0.00     0.027 C 
ATOM     13  C   UNL A   1      33.987  21.240  24.687  1.00  0.00     0.316 C 
ATOM     14  C   UNL A   1      33.363  25.084  24.930  1.00  0.00     0.020 A 
ATOM     15  O   UNL A   1      34.205  24.752  22.733  1.00  0.00    -0.474 OA
ATOM     16  C   UNL A   1      33.059  25.889  26.015  1.00  0.00     0.036 A 
ATOM     17  C   UNL A   1      33.748  25.606  23.772  1.00  0.00     0.142 A 
ATOM     18  C   UNL A   1      32.912  27.258  25.690  1.00  0.00     0.109 A 
ATOM     19  C   UNL A   1      33.707  26.964  23.569  1.00  0.00     0.062 A 
ATOM     20  C   UNL A   1      33.359  27.816  24.579  1.00  0.00     0.044 A 
ATOM     21  Br  UNL A   1      34.155  27.690  21.804  1.00  0.00    -0.047 Br
BRANCH  13  22
ATOM     22  C   UNL A   1      32.710  20.805  23.987  1.00  0.00     0.430 C 
ATOM     23  F   UNL A   1      31.682  20.933  24.822  1.00  0.00    -0.167 F 
ATOM     24  F   UNL A   1      32.509  21.569  22.917  1.00  0.00    -0.167 F 
ATOM     25  F   UNL A   1      32.821  19.535  23.610  1.00  0.00    -0.167 F 
ENDBRANCH  13  22
BRANCH  18  26
ATOM     26  S   UNL A   1      32.053  28.319  26.878  1.00  0.00     0.310 S 
ATOM     27  F   UNL A   1      31.540  27.074  27.715  1.00  0.00    -0.094 F 
ATOM     28  F   UNL A   1      30.748  28.185  26.007  1.00  0.00    -0.094 F 
ATOM     29  F   UNL A   1      31.314  29.231  27.897  1.00  0.00    -0.094 F 
ATOM     30  F   UNL A   1      33.329  28.328  27.809  1.00  0.00    -0.094 F 
ATOM     31  F   UNL A   1      32.783  27.304  25.912  1.00  0.00    -0.094 F 
ENDBRANCH  18  26
ENDBRANCH   9  11
ENDBRANCH   8   9
ENDBRANCH   7   8
ENDBRANCH   6   7
ENDBRANCH   5   6
ENDBRANCH   4   5
ENDBRANCH   3   4
ENDBRANCH   2   3
ENDBRANCH   1   2
BRANCH   1  32
ATOM     32  C   UNL A   1      41.063  26.951  28.258  1.00  0.00     0.188 C 
BRANCH  32  33
ATOM     33  O   UNL A   1      39.680  27.007  28.572  1.00  0.00    -0.376 OA
BRANCH  33  34
ATOM     34  C   UNL A   1      39.211  28.338  28.409  1.00  0.00     0.202 C 
BRANCH  34  35
ATOM     35  C   UNL A   1      38.040  28.581  29.347  1.00  0.00     0.261 C 
BRANCH  35  36
ATOM     36  O   UNL A   1      38.297  29.734  30.136  1.00  0.00    -0.460 OA
BRANCH  36  37
ATOM     37  C   UNL A   1      37.407  30.090  31.183  1.00  0.00     0.338 C 
ATOM     38  O   UNL A   1      36.179  29.770  31.112  1.00  0.00    -0.246 OA
BRANCH  37  39
ATOM     39  C   UNL A   1      37.923  30.855  32.391  1.00  0.00     0.060 A 
ATOM     40  C   UNL A   1      37.204  31.944  32.854  1.00  0.00     0.016 A 
ATOM     41  C   UNL A   1      39.088  30.518  32.934  1.00  0.00     0.016 A 
ATOM     42  C   UNL A   1      37.939  32.795  33.712  1.00  0.00     0.010 A 
ATOM     43  C   UNL A   1      39.685  31.331  33.868  1.00  0.00     0.010 A 
ATOM     44  C   UNL A   1      39.057  32.454  34.327  1.00  0.00    -0.014 A 
BRANCH  44  45
ATOM     45  C   UNL A   1      39.614  33.267  35.484  1.00  0.00     0.031 A 
ATOM     46  C   UNL A   1      39.131  33.029  36.771  1.00  0.00     0.074 A 
ATOM     47  C   UNL A   1      40.643  34.147  35.193  1.00  0.00     0.049 A 
ATOM     48  N   UNL A   1      39.571  33.555  37.915  1.00  0.00    -0.248 NA
ATOM     49  C   UNL A   1      38.017  32.120  37.078  1.00  0.00     0.031 C 
ATOM     50  C   UNL A   1      41.142  34.387  33.898  1.00  0.00     0.029 A 
ATOM     51  N   UNL A   1      41.355  34.935  36.072  1.00  0.00    -0.354 N 
ATOM     52  C   UNL A   1      38.871  33.072  38.944  1.00  0.00     0.074 A 
ATOM     53  C   UNL A   1      37.857  32.147  38.419  1.00  0.00     0.031 C 
ATOM     54  C   UNL A   1      42.132  35.313  33.992  1.00  0.00     0.029 A 
ATOM     55  C   UNL A   1      42.269  35.668  35.348  1.00  0.00     0.049 A 
ATOM     56  H   UNL A   1      41.231  34.967  37.047  1.00  0.00     0.167 HD
ATOM     57  C   UNL A   1      39.039  33.365  40.298  1.00  0.00     0.034 A 
ATOM     58  C   UNL A   1      43.178  36.599  35.824  1.00  0.00     0.034 A 
ATOM     59  C   UNL A   1      39.978  34.265  40.779  1.00  0.00     0.049 A 
ATOM     60  C   UNL A   1      43.307  36.937  37.174  1.00  0.00     0.074 A 
ATOM     61  C   UNL A   1      40.165  34.566  42.141  1.00  0.00     0.029 A 
ATOM     62  N   UNL A   1      40.875  35.016  40.053  1.00  0.00    -0.354 N 
ATOM     63  N   UNL A   1      42.634  36.424  38.205  1.00  0.00    -0.248 NA
ATOM     64  C   UNL A   1      44.243  37.945  37.686  1.00  0.00     0.031 C 
ATOM     65  C   UNL A   1      41.156  35.494  42.236  1.00  0.00     0.029 A 
ATOM     66  C   UNL A   1      41.602  35.787  40.933  1.00  0.00     0.049 A 
ATOM     67  H   UNL A   1      40.979  35.004  39.075  1.00  0.00     0.167 HD
ATOM     68  C   UNL A   1      43.046  36.981  39.345  1.00  0.00     0.074 A 
ATOM     69  C   UNL A   1      44.082  37.974  39.028  1.00  0.00     0.031 C 
ATOM     70  C   UNL A   1      42.602  36.701  40.639  1.00  0.00     0.034 A 
BRANCH  57  71
ATOM     71  C   UNL A   1      38.143  32.659  41.303  1.00  0.00     0.023 A 
ATOM     72  C   UNL A   1      38.656  31.499  41.862  1.00  0.00     0.012 A 
ATOM     73  C   UNL A   1      36.957  33.133  41.665  1.00  0.00     0.148 A 
ATOM     74  C   UNL A   1      37.706  30.748  42.593  1.00  0.00     0.002 A 
ATOM     75  C   UNL A   1      36.136  32.405  42.493  1.00  0.00     0.091 A 
ATOM     76  F   UNL A   1      36.559  34.323  41.224  1.00  0.00    -0.205 F 
ATOM     77  C   UNL A   1      36.555  31.222  43.036  1.00  0.00     0.022 A 
BRANCH  75  78
ATOM     78  S   UNL A   1      34.477  33.021  42.871  1.00  0.00     0.127 S 
ATOM     79  O   UNL A   1      33.739  32.000  43.739  1.00  0.00    -0.237 OA
ATOM     80  O   UNL A   1      34.586  34.349  43.626  1.00  0.00    -0.237 OA
ATOM     81  O   UNL A   1      33.614  33.263  41.415  1.00  0.00    -0.744 OA
ENDBRANCH  75  78
ENDBRANCH  57  71
BRANCH  58  82
ATOM     82  C   UNL A   1      44.086  37.293  34.821  1.00  0.00     0.023 A 
ATOM     83  C   UNL A   1      45.367  36.818  34.596  1.00  0.00     0.012 A 
ATOM     84  C   UNL A   1      43.650  38.403  34.237  1.00  0.00     0.148 A 
ATOM     85  C   UNL A   1      46.219  37.749  33.956  1.00  0.00     0.002 A 
ATOM     86  C   UNL A   1      44.507  39.196  33.513  1.00  0.00     0.091 A 
ATOM     87  F   UNL A   1      42.371  38.750  34.354  1.00  0.00    -0.205 F 
ATOM     88  C   UNL A   1      45.804  38.817  33.300  1.00  0.00     0.022 A 
BRANCH  86  89
ATOM     89  S   UNL A   1      43.913  40.764  32.832  1.00  0.00     0.127 S 
ATOM     90  O   UNL A   1      42.935  41.409  33.816  1.00  0.00    -0.237 OA
ATOM     91  O   UNL A   1      45.099  41.703  32.603  1.00  0.00    -0.237 OA
ATOM     92  O   UNL A   1      43.118  40.475  31.345  1.00  0.00    -0.744 OA
ENDBRANCH  86  89
ENDBRANCH  58  82
BRANCH  70  93
ATOM     93  C   UNL A   1      43.254  37.443  41.794  1.00  0.00     0.023 A 
ATOM     94  C   UNL A   1      44.354  36.877  42.418  1.00  0.00     0.012 A 
ATOM     95  C   UNL A   1      42.728  38.583  42.226  1.00  0.00     0.148 A 
ATOM     96  C   UNL A   1      44.653  37.446  43.678  1.00  0.00     0.002 A 
ATOM     97  C   UNL A   1      43.164  39.155  43.397  1.00  0.00     0.091 A 
ATOM     98  F   UNL A   1      41.771  39.177  41.519  1.00  0.00    -0.205 F 
ATOM     99  C   UNL A   1      44.207  38.616  44.096  1.00  0.00     0.022 A 
BRANCH  97 100
ATOM    100  S   UNL A   1      42.345  40.642  44.022  1.00  0.00     0.127 S 
ATOM    101  O   UNL A   1      40.865  40.342  44.274  1.00  0.00    -0.237 OA
ATOM    102  O   UNL A   1      43.006  41.079  45.331  1.00  0.00    -0.237 OA
ATOM    103  O   UNL A   1      42.482  41.897  42.867  1.00  0.00    -0.744 OA
ENDBRANCH  97 100
ENDBRANCH  70  93
ENDBRANCH  44  45
ENDBRANCH  37  39
ENDBRANCH  36  37
ENDBRANCH  35  36
ENDBRANCH  34  35
ENDBRANCH  33  34
ENDBRANCH  32  33
ENDBRANCH   1  32
TORSDOF 25
ENDMDL
