MODEL 1
REMARK VINA RESULT:      -9.1      0.000      0.000
REMARK SMILES Cc1cc(C)c2c(c1)C=C(C(=O)OCCOCCOCCOCCOC(=O)c1ccc(-c3c4nc(c(-c5cccc(S(=O)(=O)[O-])c5F)c5ccc([nH]5)c(-c5cccc(S(=O)(=O)[O-])c5F)c5nc(c(-c6cccc(S(=O)(=O)[O-])c6F)c6ccc3[nH]6)C=C5)C=C4)cc1)[C@@H](C(F)(F)F)O2
REMARK SMILES IDX 20 1 19 2 18 3 17 4 16 5 15 6 14 7 13 8 11 9 12 10 10 11
REMARK SMILES IDX 1 12 2 13 3 14 8 15 4 16 7 17 5 18 6 19 9 20 96 21 91 22
REMARK SMILES IDX 92 23 93 24 94 25 95 26 21 27 22 28 23 29 24 30 25 31 26 32
REMARK SMILES IDX 27 33 28 34 29 35 90 36 30 37 89 38 31 39 32 40 33 41 83 42
REMARK SMILES IDX 34 43 88 44 82 45 84 46 35 47 87 48 81 49 80 50 36 52 68 53
REMARK SMILES IDX 48 54 67 55 49 56 52 57 66 58 85 59 50 60 51 61 65 63 86 64
REMARK SMILES IDX 53 65 37 66 38 67 46 68 39 69 41 70 47 71 40 72 42 73 43 74
REMARK SMILES IDX 44 75 45 76 69 77 70 78 78 79 71 80 73 81 79 82 72 83 74 84
REMARK SMILES IDX 75 85 76 86 77 87 54 88 55 89 63 90 56 91 58 92 64 93 57 94
REMARK SMILES IDX 59 95 60 96 61 97 62 98
REMARK H PARENT 84 51 52 62
REMARK Flexibility Score: inf
ROOT
ATOM      1  C   UNL A   1      35.125  34.119  29.593  1.00  0.00     0.188 C 
ENDROOT
BRANCH   1   2
ATOM      2  O   UNL A   1      34.927  33.085  28.629  1.00  0.00    -0.377 OA
BRANCH   2   3
ATOM      3  C   UNL A   1      33.686  33.037  27.945  1.00  0.00     0.188 C 
BRANCH   3   4
ATOM      4  C   UNL A   1      33.314  31.620  27.471  1.00  0.00     0.188 C 
BRANCH   4   5
ATOM      5  O   UNL A   1      34.208  30.616  27.917  1.00  0.00    -0.376 OA
BRANCH   5   6
ATOM      6  C   UNL A   1      34.307  29.365  27.254  1.00  0.00     0.202 C 
BRANCH   6   7
ATOM      7  C   UNL A   1      33.106  28.548  26.740  1.00  0.00     0.261 C 
BRANCH   7   8
ATOM      8  O   UNL A   1      33.307  27.155  26.508  1.00  0.00    -0.460 OA
BRANCH   8   9
ATOM      9  C   UNL A   1      33.480  26.744  25.241  1.00  0.00     0.338 C 
ATOM     10  O   UNL A   1      33.694  27.444  24.266  1.00  0.00    -0.246 OA
BRANCH   9  11
ATOM     11  C   UNL A   1      33.556  25.267  25.259  1.00  0.00     0.087 C 
ATOM     12  C   UNL A   1      37.615  20.649  25.001  1.00  0.00     0.044 C 
ATOM     13  C   UNL A   1      36.264  21.293  25.081  1.00  0.00    -0.050 A 
ATOM     14  C   UNL A   1      35.101  20.515  25.000  1.00  0.00     0.010 A 
ATOM     15  C   UNL A   1      36.146  22.677  25.244  1.00  0.00     0.015 A 
ATOM     16  C   UNL A   1      33.831  21.107  25.071  1.00  0.00    -0.008 A 
ATOM     17  C   UNL A   1      34.886  23.282  25.281  1.00  0.00     0.018 A 
ATOM     18  C   UNL A   1      32.596  20.260  24.941  1.00  0.00     0.048 C 
ATOM     19  C   UNL A   1      33.732  22.498  25.230  1.00  0.00     0.130 A 
ATOM     20  C   UNL A   1      34.781  24.730  25.288  1.00  0.00     0.027 C 
ATOM     21  O   UNL A   1      32.471  23.018  25.319  1.00  0.00    -0.475 OA
ATOM     22  C   UNL A   1      32.284  24.459  25.318  1.00  0.00     0.316 C 
BRANCH  22  23
ATOM     23  C   UNL A   1      31.327  24.811  24.171  1.00  0.00     0.430 C 
ATOM     24  F   UNL A   1      30.473  23.795  23.910  1.00  0.00    -0.167 F 
ATOM     25  F   UNL A   1      30.579  25.902  24.452  1.00  0.00    -0.167 F 
ATOM     26  F   UNL A   1      32.006  25.075  23.028  1.00  0.00    -0.167 F 
ENDBRANCH  22  23
ENDBRANCH   9  11
ENDBRANCH   8   9
ENDBRANCH   7   8
ENDBRANCH   6   7
ENDBRANCH   5   6
ENDBRANCH   4   5
ENDBRANCH   3   4
ENDBRANCH   2   3
ENDBRANCH   1   2
BRANCH   1  27
ATOM     27  C   UNL A   1      33.939  34.783  30.335  1.00  0.00     0.188 C 
BRANCH  27  28
ATOM     28  O   UNL A   1      33.869  34.485  31.726  1.00  0.00    -0.376 OA
BRANCH  28  29
ATOM     29  C   UNL A   1      35.072  34.135  32.389  1.00  0.00     0.202 C 
BRANCH  29  30
ATOM     30  C   UNL A   1      35.154  32.692  32.907  1.00  0.00     0.261 C 
BRANCH  30  31
ATOM     31  O   UNL A   1      36.476  32.150  33.031  1.00  0.00    -0.460 OA
BRANCH  31  32
ATOM     32  C   UNL A   1      36.756  31.025  32.339  1.00  0.00     0.338 C 
ATOM     33  O   UNL A   1      36.008  30.084  32.133  1.00  0.00    -0.246 OA
BRANCH  32  34
ATOM     34  C   UNL A   1      38.069  31.218  31.693  1.00  0.00     0.060 A 
ATOM     35  C   UNL A   1      39.179  31.534  32.489  1.00  0.00     0.016 A 
ATOM     36  C   UNL A   1      38.204  31.071  30.311  1.00  0.00     0.016 A 
ATOM     37  C   UNL A   1      40.424  31.741  31.895  1.00  0.00     0.010 A 
ATOM     38  C   UNL A   1      39.445  31.304  29.716  1.00  0.00     0.010 A 
ATOM     39  C   UNL A   1      40.549  31.679  30.502  1.00  0.00    -0.014 A 
BRANCH  39  40
ATOM     40  C   UNL A   1      41.756  32.238  29.850  1.00  0.00     0.031 A 
ATOM     41  C   UNL A   1      42.846  31.278  29.456  1.00  0.00     0.074 A 
ATOM     42  C   UNL A   1      41.885  33.553  29.603  1.00  0.00     0.049 A 
ATOM     43  N   UNL A   1      44.009  31.522  28.914  1.00  0.00    -0.248 NA
ATOM     44  C   UNL A   1      42.587  29.850  29.710  1.00  0.00     0.031 C 
ATOM     45  C   UNL A   1      40.886  34.574  29.910  1.00  0.00     0.029 A 
ATOM     46  N   UNL A   1      42.927  34.253  29.048  1.00  0.00    -0.354 N 
ATOM     47  C   UNL A   1      44.626  30.284  28.778  1.00  0.00     0.074 A 
ATOM     48  C   UNL A   1      43.720  29.293  29.312  1.00  0.00     0.031 C 
ATOM     49  C   UNL A   1      41.373  35.777  29.557  1.00  0.00     0.029 A 
ATOM     50  C   UNL A   1      42.727  35.614  29.027  1.00  0.00     0.049 A 
ATOM     51  H   UNL A   1      43.741  33.823  28.698  1.00  0.00     0.167 HD
ATOM     52  C   UNL A   1      45.832  29.995  28.238  1.00  0.00     0.034 A 
ATOM     53  C   UNL A   1      43.551  36.609  28.641  1.00  0.00     0.034 A 
ATOM     54  C   UNL A   1      46.727  30.981  27.699  1.00  0.00     0.049 A 
ATOM     55  C   UNL A   1      44.919  36.266  28.100  1.00  0.00     0.074 A 
ATOM     56  C   UNL A   1      47.962  30.785  27.111  1.00  0.00     0.029 A 
ATOM     57  N   UNL A   1      46.489  32.347  27.690  1.00  0.00    -0.354 N 
ATOM     58  N   UNL A   1      45.452  35.087  27.890  1.00  0.00    -0.248 NA
ATOM     59  C   UNL A   1      45.788  37.391  27.721  1.00  0.00     0.031 C 
ATOM     60  C   UNL A   1      48.487  32.036  26.776  1.00  0.00     0.029 A 
ATOM     61  C   UNL A   1      47.562  33.009  27.121  1.00  0.00     0.049 A 
ATOM     62  H   UNL A   1      45.676  32.781  28.038  1.00  0.00     0.167 HD
ATOM     63  C   UNL A   1      46.705  35.326  27.329  1.00  0.00     0.074 A 
ATOM     64  C   UNL A   1      46.838  36.762  27.208  1.00  0.00     0.031 C 
ATOM     65  C   UNL A   1      47.664  34.438  26.964  1.00  0.00     0.034 A 
BRANCH  52  66
ATOM     66  C   UNL A   1      46.244  28.549  28.175  1.00  0.00     0.023 A 
ATOM     67  C   UNL A   1      46.834  27.945  29.304  1.00  0.00     0.012 A 
ATOM     68  C   UNL A   1      45.982  27.772  27.031  1.00  0.00     0.148 A 
ATOM     69  C   UNL A   1      47.178  26.594  29.287  1.00  0.00     0.002 A 
ATOM     70  C   UNL A   1      46.282  26.415  27.039  1.00  0.00     0.091 A 
ATOM     71  F   UNL A   1      45.443  28.372  25.960  1.00  0.00    -0.205 F 
ATOM     72  C   UNL A   1      46.890  25.828  28.162  1.00  0.00     0.022 A 
BRANCH  70  73
ATOM     73  S   UNL A   1      45.875  25.322  25.674  1.00  0.00     0.127 S 
ATOM     74  O   UNL A   1      44.466  25.645  25.447  1.00  0.00    -0.237 OA
ATOM     75  O   UNL A   1      46.783  25.790  24.628  1.00  0.00    -0.237 OA
ATOM     76  O   UNL A   1      46.133  23.969  26.148  1.00  0.00    -0.744 OA
ENDBRANCH  70  73
ENDBRANCH  52  66
BRANCH  53  77
ATOM     77  C   UNL A   1      43.093  38.028  28.713  1.00  0.00     0.023 A 
ATOM     78  C   UNL A   1      42.322  38.560  27.661  1.00  0.00     0.012 A 
ATOM     79  C   UNL A   1      43.390  38.841  29.824  1.00  0.00     0.148 A 
ATOM     80  C   UNL A   1      41.874  39.881  27.704  1.00  0.00     0.002 A 
ATOM     81  C   UNL A   1      42.892  40.137  29.888  1.00  0.00     0.091 A 
ATOM     82  F   UNL A   1      44.142  38.323  30.806  1.00  0.00    -0.205 F 
ATOM     83  C   UNL A   1      42.148  40.665  28.821  1.00  0.00     0.022 A 
BRANCH  81  84
ATOM     84  S   UNL A   1      43.080  41.179  31.339  1.00  0.00     0.127 S 
ATOM     85  O   UNL A   1      42.657  40.279  32.410  1.00  0.00    -0.237 OA
ATOM     86  O   UNL A   1      44.514  41.472  31.309  1.00  0.00    -0.237 OA
ATOM     87  O   UNL A   1      42.221  42.333  31.112  1.00  0.00    -0.744 OA
ENDBRANCH  81  84
ENDBRANCH  53  77
BRANCH  65  88
ATOM     88  C   UNL A   1      48.950  34.975  26.385  1.00  0.00     0.023 A 
ATOM     89  C   UNL A   1      49.004  35.332  25.024  1.00  0.00     0.012 A 
ATOM     90  C   UNL A   1      50.061  35.237  27.213  1.00  0.00     0.148 A 
ATOM     91  C   UNL A   1      50.152  35.918  24.489  1.00  0.00     0.002 A 
ATOM     92  C   UNL A   1      51.181  35.871  26.686  1.00  0.00     0.091 A 
ATOM     93  F   UNL A   1      49.996  34.881  28.504  1.00  0.00    -0.205 F 
ATOM     94  C   UNL A   1      51.232  36.202  25.321  1.00  0.00     0.022 A 
BRANCH  92  95
ATOM     95  S   UNL A   1      52.576  36.377  27.699  1.00  0.00     0.127 S 
ATOM     96  O   UNL A   1      53.398  37.102  26.733  1.00  0.00    -0.237 OA
ATOM     97  O   UNL A   1      51.936  37.219  28.710  1.00  0.00    -0.237 OA
ATOM     98  O   UNL A   1      53.164  35.149  28.218  1.00  0.00    -0.744 OA
ENDBRANCH  92  95
ENDBRANCH  65  88
ENDBRANCH  39  40
ENDBRANCH  32  34
ENDBRANCH  31  32
ENDBRANCH  30  31
ENDBRANCH  29  30
ENDBRANCH  28  29
ENDBRANCH  27  28
ENDBRANCH   1  27
TORSDOF 24
ENDMDL
MODEL 2
REMARK VINA RESULT:      -8.9      3.987      5.487
REMARK SMILES Cc1cc(C)c2c(c1)C=C(C(=O)OCCOCCOCCOCCOC(=O)c1ccc(-c3c4nc(c(-c5cccc(S(=O)(=O)[O-])c5F)c5ccc([nH]5)c(-c5cccc(S(=O)(=O)[O-])c5F)c5nc(c(-c6cccc(S(=O)(=O)[O-])c6F)c6ccc3[nH]6)C=C5)C=C4)cc1)[C@@H](C(F)(F)F)O2
REMARK SMILES IDX 20 1 19 2 18 3 17 4 16 5 15 6 14 7 13 8 11 9 12 10 10 11
REMARK SMILES IDX 1 12 2 13 3 14 8 15 4 16 7 17 5 18 6 19 9 20 96 21 91 22
REMARK SMILES IDX 92 23 93 24 94 25 95 26 21 27 22 28 23 29 24 30 25 31 26 32
REMARK SMILES IDX 27 33 28 34 29 35 90 36 30 37 89 38 31 39 32 40 33 41 83 42
REMARK SMILES IDX 34 43 88 44 82 45 84 46 35 47 87 48 81 49 80 50 36 52 68 53
REMARK SMILES IDX 48 54 67 55 49 56 52 57 66 58 85 59 50 60 51 61 65 63 86 64
REMARK SMILES IDX 53 65 37 66 38 67 46 68 39 69 41 70 47 71 40 72 42 73 43 74
REMARK SMILES IDX 44 75 45 76 69 77 70 78 78 79 71 80 73 81 79 82 72 83 74 84
REMARK SMILES IDX 75 85 76 86 77 87 54 88 55 89 63 90 56 91 58 92 64 93 57 94
REMARK SMILES IDX 59 95 60 96 61 97 62 98
REMARK H PARENT 84 51 52 62
REMARK Flexibility Score: inf
ROOT
ATOM      1  C   UNL A   1      33.389  35.041  28.666  1.00  0.00     0.188 C 
ENDROOT
BRANCH   1   2
ATOM      2  O   UNL A   1      34.779  34.818  28.432  1.00  0.00    -0.377 OA
BRANCH   2   3
ATOM      3  C   UNL A   1      35.194  33.514  28.062  1.00  0.00     0.188 C 
BRANCH   3   4
ATOM      4  C   UNL A   1      34.152  32.432  28.401  1.00  0.00     0.188 C 
BRANCH   4   5
ATOM      5  O   UNL A   1      33.715  31.690  27.275  1.00  0.00    -0.376 OA
BRANCH   5   6
ATOM      6  C   UNL A   1      33.570  30.279  27.330  1.00  0.00     0.202 C 
BRANCH   6   7
ATOM      7  C   UNL A   1      34.737  29.275  27.259  1.00  0.00     0.261 C 
BRANCH   7   8
ATOM      8  O   UNL A   1      35.620  29.210  28.378  1.00  0.00    -0.460 OA
BRANCH   8   9
ATOM      9  C   UNL A   1      36.825  29.793  28.265  1.00  0.00     0.338 C 
ATOM     10  O   UNL A   1      37.226  30.475  27.337  1.00  0.00    -0.246 OA
BRANCH   9  11
ATOM     11  C   UNL A   1      37.522  29.625  29.559  1.00  0.00     0.087 C 
ATOM     12  C   UNL A   1      37.785  31.995  35.233  1.00  0.00     0.044 C 
ATOM     13  C   UNL A   1      38.155  31.084  34.101  1.00  0.00    -0.050 A 
ATOM     14  C   UNL A   1      39.251  30.218  34.217  1.00  0.00     0.010 A 
ATOM     15  C   UNL A   1      37.410  31.083  32.918  1.00  0.00     0.015 A 
ATOM     16  C   UNL A   1      39.609  29.364  33.163  1.00  0.00    -0.008 A 
ATOM     17  C   UNL A   1      37.778  30.261  31.848  1.00  0.00     0.018 A 
ATOM     18  C   UNL A   1      40.812  28.471  33.292  1.00  0.00     0.048 C 
ATOM     19  C   UNL A   1      38.852  29.378  31.981  1.00  0.00     0.130 A 
ATOM     20  C   UNL A   1      37.096  30.387  30.573  1.00  0.00     0.027 C 
ATOM     21  O   UNL A   1      39.230  28.508  30.998  1.00  0.00    -0.475 OA
ATOM     22  C   UNL A   1      38.601  28.581  29.690  1.00  0.00     0.316 C 
BRANCH  22  23
ATOM     23  C   UNL A   1      39.708  28.765  28.643  1.00  0.00     0.430 C 
ATOM     24  F   UNL A   1      39.997  30.073  28.453  1.00  0.00    -0.167 F 
ATOM     25  F   UNL A   1      40.856  28.150  29.006  1.00  0.00    -0.167 F 
ATOM     26  F   UNL A   1      39.341  28.252  27.444  1.00  0.00    -0.167 F 
ENDBRANCH  22  23
ENDBRANCH   9  11
ENDBRANCH   8   9
ENDBRANCH   7   8
ENDBRANCH   6   7
ENDBRANCH   5   6
ENDBRANCH   4   5
ENDBRANCH   3   4
ENDBRANCH   2   3
ENDBRANCH   1   2
BRANCH   1  27
ATOM     27  C   UNL A   1      32.879  35.768  29.934  1.00  0.00     0.188 C 
BRANCH  27  28
ATOM     28  O   UNL A   1      32.917  34.985  31.122  1.00  0.00    -0.376 OA
BRANCH  28  29
ATOM     29  C   UNL A   1      34.093  35.036  31.912  1.00  0.00     0.202 C 
BRANCH  29  30
ATOM     30  C   UNL A   1      35.003  33.802  31.837  1.00  0.00     0.261 C 
BRANCH  30  31
ATOM     31  O   UNL A   1      36.325  34.035  31.331  1.00  0.00    -0.460 OA
BRANCH  31  32
ATOM     32  C   UNL A   1      37.237  34.544  32.185  1.00  0.00     0.338 C 
ATOM     33  O   UNL A   1      37.037  34.953  33.316  1.00  0.00    -0.246 OA
BRANCH  32  34
ATOM     34  C   UNL A   1      38.570  34.332  31.587  1.00  0.00     0.060 A 
ATOM     35  C   UNL A   1      39.658  34.057  32.427  1.00  0.00     0.016 A 
ATOM     36  C   UNL A   1      38.738  34.387  30.201  1.00  0.00     0.016 A 
ATOM     37  C   UNL A   1      40.928  33.874  31.883  1.00  0.00     0.010 A 
ATOM     38  C   UNL A   1      40.016  34.229  29.661  1.00  0.00     0.010 A 
ATOM     39  C   UNL A   1      41.120  34.012  30.503  1.00  0.00    -0.014 A 
BRANCH  39  40
ATOM     40  C   UNL A   1      42.492  34.173  29.967  1.00  0.00     0.031 A 
ATOM     41  C   UNL A   1      43.350  32.941  29.859  1.00  0.00     0.074 A 
ATOM     42  C   UNL A   1      42.967  35.369  29.578  1.00  0.00     0.049 A 
ATOM     43  N   UNL A   1      44.589  32.826  29.464  1.00  0.00    -0.248 NA
ATOM     44  C   UNL A   1      42.721  31.667  30.250  1.00  0.00     0.031 C 
ATOM     45  C   UNL A   1      42.222  36.625  29.606  1.00  0.00     0.029 A 
ATOM     46  N   UNL A   1      44.204  35.718  29.096  1.00  0.00    -0.354 N 
ATOM     47  C   UNL A   1      44.895  31.475  29.576  1.00  0.00     0.074 A 
ATOM     48  C   UNL A   1      43.720  30.812  30.093  1.00  0.00     0.031 C 
ATOM     49  C   UNL A   1      43.025  37.616  29.179  1.00  0.00     0.029 A 
ATOM     50  C   UNL A   1      44.347  37.068  28.875  1.00  0.00     0.049 A 
ATOM     51  H   UNL A   1      44.920  35.065  28.925  1.00  0.00     0.167 HD
ATOM     52  C   UNL A   1      46.045  30.839  29.256  1.00  0.00     0.034 A 
ATOM     53  C   UNL A   1      45.429  37.777  28.491  1.00  0.00     0.034 A 
ATOM     54  C   UNL A   1      47.208  31.498  28.733  1.00  0.00     0.049 A 
ATOM     55  C   UNL A   1      46.721  37.052  28.201  1.00  0.00     0.074 A 
ATOM     56  C   UNL A   1      48.415  30.938  28.359  1.00  0.00     0.029 A 
ATOM     57  N   UNL A   1      47.316  32.865  28.518  1.00  0.00    -0.354 N 
ATOM     58  N   UNL A   1      46.969  35.765  28.220  1.00  0.00    -0.248 NA
ATOM     59  C   UNL A   1      47.876  37.876  27.813  1.00  0.00     0.031 C 
ATOM     60  C   UNL A   1      49.265  31.968  27.949  1.00  0.00     0.029 A 
ATOM     61  C   UNL A   1      48.575  33.167  28.032  1.00  0.00     0.049 A 
ATOM     62  H   UNL A   1      46.601  33.520  28.688  1.00  0.00     0.167 HD
ATOM     63  C   UNL A   1      48.296  35.622  27.821  1.00  0.00     0.074 A 
ATOM     64  C   UNL A   1      48.790  36.953  27.541  1.00  0.00     0.031 C 
ATOM     65  C   UNL A   1      49.042  34.493  27.713  1.00  0.00     0.034 A 
BRANCH  52  66
ATOM     66  C   UNL A   1      46.093  29.345  29.436  1.00  0.00     0.023 A 
ATOM     67  C   UNL A   1      46.560  28.806  30.653  1.00  0.00     0.012 A 
ATOM     68  C   UNL A   1      45.611  28.481  28.435  1.00  0.00     0.148 A 
ATOM     69  C   UNL A   1      46.567  27.428  30.861  1.00  0.00     0.002 A 
ATOM     70  C   UNL A   1      45.575  27.112  28.669  1.00  0.00     0.091 A 
ATOM     71  F   UNL A   1      45.196  29.013  27.277  1.00  0.00    -0.205 F 
ATOM     72  C   UNL A   1      46.063  26.583  29.877  1.00  0.00     0.022 A 
BRANCH  70  73
ATOM     73  S   UNL A   1      44.868  25.945  27.502  1.00  0.00     0.127 S 
ATOM     74  O   UNL A   1      45.032  24.678  28.214  1.00  0.00    -0.237 OA
ATOM     75  O   UNL A   1      43.486  26.412  27.403  1.00  0.00    -0.237 OA
ATOM     76  O   UNL A   1      45.648  26.075  26.278  1.00  0.00    -0.744 OA
ENDBRANCH  70  73
ENDBRANCH  52  66
BRANCH  53  77
ATOM     77  C   UNL A   1      45.328  39.256  28.317  1.00  0.00     0.023 A 
ATOM     78  C   UNL A   1      45.736  40.105  29.363  1.00  0.00     0.012 A 
ATOM     79  C   UNL A   1      44.857  39.825  27.116  1.00  0.00     0.148 A 
ATOM     80  C   UNL A   1      45.659  41.493  29.226  1.00  0.00     0.002 A 
ATOM     81  C   UNL A   1      44.838  41.206  26.965  1.00  0.00     0.091 A 
ATOM     82  F   UNL A   1      44.454  39.000  26.140  1.00  0.00    -0.205 F 
ATOM     83  C   UNL A   1      45.222  42.042  28.025  1.00  0.00     0.022 A 
BRANCH  81  84
ATOM     84  S   UNL A   1      44.416  42.006  25.413  1.00  0.00     0.127 S 
ATOM     85  O   UNL A   1      42.999  41.673  25.280  1.00  0.00    -0.237 OA
ATOM     86  O   UNL A   1      44.694  43.409  25.717  1.00  0.00    -0.237 OA
ATOM     87  O   UNL A   1      45.295  41.416  24.412  1.00  0.00    -0.744 OA
ENDBRANCH  81  84
ENDBRANCH  53  77
BRANCH  65  88
ATOM     88  C   UNL A   1      50.476  34.627  27.263  1.00  0.00     0.023 A 
ATOM     89  C   UNL A   1      51.505  34.664  28.222  1.00  0.00     0.012 A 
ATOM     90  C   UNL A   1      50.808  34.594  25.892  1.00  0.00     0.148 A 
ATOM     91  C   UNL A   1      52.843  34.692  27.827  1.00  0.00     0.002 A 
ATOM     92  C   UNL A   1      52.144  34.567  25.507  1.00  0.00     0.091 A 
ATOM     93  F   UNL A   1      49.815  34.569  24.993  1.00  0.00    -0.205 F 
ATOM     94  C   UNL A   1      53.163  34.628  26.473  1.00  0.00     0.022 A 
BRANCH  92  95
ATOM     95  S   UNL A   1      52.656  34.374  23.795  1.00  0.00     0.127 S 
ATOM     96  O   UNL A   1      51.952  33.153  23.410  1.00  0.00    -0.237 OA
ATOM     97  O   UNL A   1      52.140  35.597  23.178  1.00  0.00    -0.237 OA
ATOM     98  O   UNL A   1      54.110  34.275  23.817  1.00  0.00    -0.744 OA
ENDBRANCH  92  95
ENDBRANCH  65  88
ENDBRANCH  39  40
ENDBRANCH  32  34
ENDBRANCH  31  32
ENDBRANCH  30  31
ENDBRANCH  29  30
ENDBRANCH  28  29
ENDBRANCH  27  28
ENDBRANCH   1  27
TORSDOF 24
ENDMDL
MODEL 3
REMARK VINA RESULT:      -8.7      3.876      5.423
REMARK SMILES Cc1cc(C)c2c(c1)C=C(C(=O)OCCOCCOCCOCCOC(=O)c1ccc(-c3c4nc(c(-c5cccc(S(=O)(=O)[O-])c5F)c5ccc([nH]5)c(-c5cccc(S(=O)(=O)[O-])c5F)c5nc(c(-c6cccc(S(=O)(=O)[O-])c6F)c6ccc3[nH]6)C=C5)C=C4)cc1)[C@@H](C(F)(F)F)O2
REMARK SMILES IDX 20 1 19 2 18 3 17 4 16 5 15 6 14 7 13 8 11 9 12 10 10 11
REMARK SMILES IDX 1 12 2 13 3 14 8 15 4 16 7 17 5 18 6 19 9 20 96 21 91 22
REMARK SMILES IDX 92 23 93 24 94 25 95 26 21 27 22 28 23 29 24 30 25 31 26 32
REMARK SMILES IDX 27 33 28 34 29 35 90 36 30 37 89 38 31 39 32 40 33 41 83 42
REMARK SMILES IDX 34 43 88 44 82 45 84 46 35 47 87 48 81 49 80 50 36 52 68 53
REMARK SMILES IDX 48 54 67 55 49 56 52 57 66 58 85 59 50 60 51 61 65 63 86 64
REMARK SMILES IDX 53 65 37 66 38 67 46 68 39 69 41 70 47 71 40 72 42 73 43 74
REMARK SMILES IDX 44 75 45 76 69 77 70 78 78 79 71 80 73 81 79 82 72 83 74 84
REMARK SMILES IDX 75 85 76 86 77 87 54 88 55 89 63 90 56 91 58 92 64 93 57 94
REMARK SMILES IDX 59 95 60 96 61 97 62 98
REMARK H PARENT 84 51 52 62
REMARK Flexibility Score: inf
ROOT
ATOM      1  C   UNL A   1      33.390  35.023  28.797  1.00  0.00     0.188 C 
ENDROOT
BRANCH   1   2
ATOM      2  O   UNL A   1      34.763  34.821  28.462  1.00  0.00    -0.377 OA
BRANCH   2   3
ATOM      3  C   UNL A   1      35.149  33.553  27.958  1.00  0.00     0.188 C 
BRANCH   3   4
ATOM      4  C   UNL A   1      34.326  32.394  28.551  1.00  0.00     0.188 C 
BRANCH   4   5
ATOM      5  O   UNL A   1      33.542  31.705  27.593  1.00  0.00    -0.376 OA
BRANCH   5   6
ATOM      6  C   UNL A   1      33.602  30.292  27.467  1.00  0.00     0.202 C 
BRANCH   6   7
ATOM      7  C   UNL A   1      34.895  29.486  27.241  1.00  0.00     0.261 C 
BRANCH   7   8
ATOM      8  O   UNL A   1      35.765  29.308  28.358  1.00  0.00    -0.460 OA
BRANCH   8   9
ATOM      9  C   UNL A   1      37.054  29.659  28.217  1.00  0.00     0.338 C 
ATOM     10  O   UNL A   1      37.574  30.160  27.235  1.00  0.00    -0.246 OA
BRANCH   9  11
ATOM     11  C   UNL A   1      37.702  29.508  29.539  1.00  0.00     0.087 C 
ATOM     12  C   UNL A   1      38.090  32.220  35.050  1.00  0.00     0.044 C 
ATOM     13  C   UNL A   1      38.387  31.201  33.991  1.00  0.00    -0.050 A 
ATOM     14  C   UNL A   1      39.383  30.236  34.195  1.00  0.00     0.010 A 
ATOM     15  C   UNL A   1      37.671  31.195  32.790  1.00  0.00     0.015 A 
ATOM     16  C   UNL A   1      39.673  29.280  33.210  1.00  0.00    -0.008 A 
ATOM     17  C   UNL A   1      37.974  30.269  31.788  1.00  0.00     0.018 A 
ATOM     18  C   UNL A   1      40.773  28.279  33.431  1.00  0.00     0.048 C 
ATOM     19  C   UNL A   1      38.946  29.292  32.009  1.00  0.00     0.130 A 
ATOM     20  C   UNL A   1      37.336  30.377  30.489  1.00  0.00     0.027 C 
ATOM     21  O   UNL A   1      39.252  28.322  31.096  1.00  0.00    -0.475 OA
ATOM     22  C   UNL A   1      38.662  28.369  29.768  1.00  0.00     0.316 C 
BRANCH  22  23
ATOM     23  C   UNL A   1      39.805  28.367  28.743  1.00  0.00     0.430 C 
ATOM     24  F   UNL A   1      39.429  27.777  27.585  1.00  0.00    -0.167 F 
ATOM     25  F   UNL A   1      40.215  29.619  28.440  1.00  0.00    -0.167 F 
ATOM     26  F   UNL A   1      40.883  27.693  29.211  1.00  0.00    -0.167 F 
ENDBRANCH  22  23
ENDBRANCH   9  11
ENDBRANCH   8   9
ENDBRANCH   7   8
ENDBRANCH   6   7
ENDBRANCH   5   6
ENDBRANCH   4   5
ENDBRANCH   3   4
ENDBRANCH   2   3
ENDBRANCH   1   2
BRANCH   1  27
ATOM     27  C   UNL A   1      32.963  35.743  30.100  1.00  0.00     0.188 C 
BRANCH  27  28
ATOM     28  O   UNL A   1      33.050  34.943  31.274  1.00  0.00    -0.376 OA
BRANCH  28  29
ATOM     29  C   UNL A   1      34.244  35.013  32.036  1.00  0.00     0.202 C 
BRANCH  29  30
ATOM     30  C   UNL A   1      35.209  33.831  31.873  1.00  0.00     0.261 C 
BRANCH  30  31
ATOM     31  O   UNL A   1      36.465  34.135  31.250  1.00  0.00    -0.460 OA
BRANCH  31  32
ATOM     32  C   UNL A   1      37.437  34.654  32.030  1.00  0.00     0.338 C 
ATOM     33  O   UNL A   1      37.332  35.023  33.187  1.00  0.00    -0.246 OA
BRANCH  32  34
ATOM     34  C   UNL A   1      38.713  34.507  31.302  1.00  0.00     0.060 A 
ATOM     35  C   UNL A   1      39.884  34.244  32.027  1.00  0.00     0.016 A 
ATOM     36  C   UNL A   1      38.748  34.611  29.910  1.00  0.00     0.016 A 
ATOM     37  C   UNL A   1      41.103  34.123  31.360  1.00  0.00     0.010 A 
ATOM     38  C   UNL A   1      39.972  34.515  29.247  1.00  0.00     0.010 A 
ATOM     39  C   UNL A   1      41.158  34.311  29.973  1.00  0.00    -0.014 A 
BRANCH  39  40
ATOM     40  C   UNL A   1      42.467  34.537  29.318  1.00  0.00     0.031 A 
ATOM     41  C   UNL A   1      43.373  33.349  29.136  1.00  0.00     0.074 A 
ATOM     42  C   UNL A   1      42.844  35.752  28.885  1.00  0.00     0.049 A 
ATOM     43  N   UNL A   1      44.576  33.294  28.633  1.00  0.00    -0.248 NA
ATOM     44  C   UNL A   1      42.846  32.047  29.584  1.00  0.00     0.031 C 
ATOM     45  C   UNL A   1      42.042  36.970  28.977  1.00  0.00     0.029 A 
ATOM     46  N   UNL A   1      44.015  36.160  28.294  1.00  0.00    -0.354 N 
ATOM     47  C   UNL A   1      44.959  31.960  28.719  1.00  0.00     0.074 A 
ATOM     48  C   UNL A   1      43.869  31.242  29.341  1.00  0.00     0.031 C 
ATOM     49  C   UNL A   1      42.754  37.997  28.477  1.00  0.00     0.029 A 
ATOM     50  C   UNL A   1      44.070  37.514  28.058  1.00  0.00     0.049 A 
ATOM     51  H   UNL A   1      44.745  35.543  28.061  1.00  0.00     0.167 HD
ATOM     52  C   UNL A   1      46.107  31.380  28.301  1.00  0.00     0.034 A 
ATOM     53  C   UNL A   1      45.075  38.274  27.577  1.00  0.00     0.034 A 
ATOM     54  C   UNL A   1      47.184  32.093  27.674  1.00  0.00     0.049 A 
ATOM     55  C   UNL A   1      46.372  37.612  27.175  1.00  0.00     0.074 A 
ATOM     56  C   UNL A   1      48.379  31.591  27.195  1.00  0.00     0.029 A 
ATOM     57  N   UNL A   1      47.202  33.462  27.448  1.00  0.00    -0.354 N 
ATOM     58  N   UNL A   1      46.685  36.339  27.175  1.00  0.00    -0.248 NA
ATOM     59  C   UNL A   1      47.445  38.490  26.684  1.00  0.00     0.031 C 
ATOM     60  C   UNL A   1      49.136  32.660  26.709  1.00  0.00     0.029 A 
ATOM     61  C   UNL A   1      48.397  33.824  26.851  1.00  0.00     0.049 A 
ATOM     62  H   UNL A   1      46.474  34.082  27.679  1.00  0.00     0.167 HD
ATOM     63  C   UNL A   1      47.977  36.260  26.660  1.00  0.00     0.074 A 
ATOM     64  C   UNL A   1      48.376  37.612  26.334  1.00  0.00     0.031 C 
ATOM     65  C   UNL A   1      48.766  35.169  26.488  1.00  0.00     0.034 A 
BRANCH  52  66
ATOM     66  C   UNL A   1      46.245  29.892  28.479  1.00  0.00     0.023 A 
ATOM     67  C   UNL A   1      45.837  29.027  27.442  1.00  0.00     0.012 A 
ATOM     68  C   UNL A   1      46.843  29.354  29.635  1.00  0.00     0.148 A 
ATOM     69  C   UNL A   1      46.001  27.649  27.564  1.00  0.00     0.002 A 
ATOM     70  C   UNL A   1      47.048  27.984  29.727  1.00  0.00     0.091 A 
ATOM     71  F   UNL A   1      47.200  30.193  30.617  1.00  0.00    -0.205 F 
ATOM     72  C   UNL A   1      46.617  27.128  28.698  1.00  0.00     0.022 A 
BRANCH  70  73
ATOM     73  S   UNL A   1      47.909  27.221  31.106  1.00  0.00     0.127 S 
ATOM     74  O   UNL A   1      48.140  25.869  30.599  1.00  0.00    -0.237 OA
ATOM     75  O   UNL A   1      49.112  28.047  31.208  1.00  0.00    -0.237 OA
ATOM     76  O   UNL A   1      47.006  27.311  32.245  1.00  0.00    -0.744 OA
ENDBRANCH  70  73
ENDBRANCH  52  66
BRANCH  53  77
ATOM     77  C   UNL A   1      44.885  39.744  27.410  1.00  0.00     0.023 A 
ATOM     78  C   UNL A   1      44.391  40.243  26.189  1.00  0.00     0.012 A 
ATOM     79  C   UNL A   1      45.162  40.646  28.457  1.00  0.00     0.148 A 
ATOM     80  C   UNL A   1      44.196  41.613  26.005  1.00  0.00     0.002 A 
ATOM     81  C   UNL A   1      44.911  42.002  28.288  1.00  0.00     0.091 A 
ATOM     82  F   UNL A   1      45.651  40.154  29.604  1.00  0.00    -0.205 F 
ATOM     83  C   UNL A   1      44.444  42.490  27.057  1.00  0.00     0.022 A 
BRANCH  81  84
ATOM     84  S   UNL A   1      45.075  43.192  29.623  1.00  0.00     0.127 S 
ATOM     85  O   UNL A   1      44.721  44.443  28.955  1.00  0.00    -0.237 OA
ATOM     86  O   UNL A   1      44.083  42.703  30.581  1.00  0.00    -0.237 OA
ATOM     87  O   UNL A   1      46.456  43.091  30.076  1.00  0.00    -0.744 OA
ENDBRANCH  81  84
ENDBRANCH  53  77
BRANCH  65  88
ATOM     88  C   UNL A   1      50.146  35.371  25.912  1.00  0.00     0.023 A 
ATOM     89  C   UNL A   1      50.305  35.513  24.520  1.00  0.00     0.012 A 
ATOM     90  C   UNL A   1      51.263  35.540  26.756  1.00  0.00     0.148 A 
ATOM     91  C   UNL A   1      51.557  35.795  23.973  1.00  0.00     0.002 A 
ATOM     92  C   UNL A   1      52.497  35.875  26.209  1.00  0.00     0.091 A 
ATOM     93  F   UNL A   1      51.095  35.391  28.077  1.00  0.00    -0.205 F 
ATOM     94  C   UNL A   1      52.648  35.990  24.817  1.00  0.00     0.022 A 
BRANCH  92  95
ATOM     95  S   UNL A   1      53.935  36.254  27.218  1.00  0.00     0.127 S 
ATOM     96  O   UNL A   1      54.177  34.976  27.883  1.00  0.00    -0.237 OA
ATOM     97  O   UNL A   1      54.933  36.617  26.211  1.00  0.00    -0.237 OA
ATOM     98  O   UNL A   1      53.535  37.346  28.096  1.00  0.00    -0.744 OA
ENDBRANCH  92  95
ENDBRANCH  65  88
ENDBRANCH  39  40
ENDBRANCH  32  34
ENDBRANCH  31  32
ENDBRANCH  30  31
ENDBRANCH  29  30
ENDBRANCH  28  29
ENDBRANCH  27  28
ENDBRANCH   1  27
TORSDOF 24
ENDMDL
