MODEL 1
REMARK VINA RESULT:      -7.1      0.000      0.000
REMARK SMILES [NH3+][C@@H](C[NH+](CCO)CCO)C(=O)OCCOCCOCCOCCOC(=O)c1ccc(-c2c3nc(c(-c4cccc(S(=O)(=O)[O-])c4F)c4ccc([nH]4)c(-c4cccc(S(=O)(=O)[O-])c4F)c4nc(c(-c5cccc(S(=O)(=O)[O-])c5F)c5ccc2[nH]5)C=C4)C=C3)cc1
REMARK SMILES IDX 18 1 17 2 16 3 15 4 14 5 13 6 11 7 12 8 2 9 1 10 3 14 4 15
REMARK SMILES IDX 5 17 6 18 7 19 8 21 9 22 10 23 19 25 20 26 21 27 22 28 23 29
REMARK SMILES IDX 24 30 25 31 26 32 27 33 28 34 29 35 90 36 30 37 89 38 31 39
REMARK SMILES IDX 32 40 33 41 83 42 34 43 88 44 82 45 84 46 35 47 87 48 81 49
REMARK SMILES IDX 80 50 36 52 68 53 48 54 67 55 49 56 52 57 66 58 85 59 50 60
REMARK SMILES IDX 51 61 65 63 86 64 53 65 37 66 38 67 46 68 39 69 41 70 47 71
REMARK SMILES IDX 40 72 42 73 43 74 44 75 45 76 69 77 70 78 78 79 71 80 73 81
REMARK SMILES IDX 79 82 72 83 74 84 75 85 76 86 77 87 54 88 55 89 63 90 56 91
REMARK SMILES IDX 58 92 64 93 57 94 59 95 60 96 61 97 62 98
REMARK H PARENT 1 11 1 12 1 13 4 16 7 20 10 24 84 51 52 62
REMARK Flexibility Score: inf
ROOT
ATOM      1  C   UNL A   1      33.228  23.226  25.007  1.00  0.00     0.188 C 
ENDROOT
BRANCH   1   2
ATOM      2  C   UNL A   1      31.872  22.756  24.458  1.00  0.00     0.188 C 
BRANCH   2   3
ATOM      3  O   UNL A   1      31.391  23.229  23.204  1.00  0.00    -0.376 OA
BRANCH   3   4
ATOM      4  C   UNL A   1      30.882  24.546  23.040  1.00  0.00     0.202 C 
BRANCH   4   5
ATOM      5  C   UNL A   1      31.411  25.551  22.002  1.00  0.00     0.261 C 
BRANCH   5   6
ATOM      6  O   UNL A   1      31.898  26.786  22.518  1.00  0.00    -0.459 OA
BRANCH   6   7
ATOM      7  C   UNL A   1      33.201  26.796  22.907  1.00  0.00     0.370 C 
ATOM      8  O   UNL A   1      34.054  25.998  22.533  1.00  0.00    -0.245 OA
BRANCH   7   9
ATOM      9  C   UNL A   1      33.486  27.926  23.900  1.00  0.00     0.347 C 
BRANCH   9  10
ATOM     10  N   UNL A   1      33.095  29.264  23.416  1.00  0.00    -0.341 N 
ATOM     11  H   UNL A   1      33.310  29.342  22.422  1.00  0.00     0.345 HD
ATOM     12  H   UNL A   1      33.612  29.976  23.933  1.00  0.00     0.345 HD
ATOM     13  H   UNL A   1      32.095  29.398  23.560  1.00  0.00     0.345 HD
ENDBRANCH   9  10
BRANCH   9  14
ATOM     14  C   UNL A   1      32.876  27.567  25.260  1.00  0.00     0.340 C 
BRANCH  14  15
ATOM     15  N   UNL A   1      33.082  28.462  26.403  1.00  0.00    -0.326 N 
ATOM     16  H   UNL A   1      32.916  27.775  27.138  1.00  0.00     0.348 HD
BRANCH  15  17
ATOM     17  C   UNL A   1      34.455  28.970  26.502  1.00  0.00     0.291 C 
BRANCH  17  18
ATOM     18  C   UNL A   1      34.736  29.895  27.697  1.00  0.00     0.217 C 
BRANCH  18  19
ATOM     19  O   UNL A   1      35.556  30.998  27.315  1.00  0.00    -0.391 OA
ATOM     20  H   UNL A   1      35.353  31.762  27.878  1.00  0.00     0.210 HD
ENDBRANCH  18  19
ENDBRANCH  17  18
ENDBRANCH  15  17
BRANCH  15  21
ATOM     21  C   UNL A   1      32.041  29.382  26.881  1.00  0.00     0.291 C 
BRANCH  21  22
ATOM     22  C   UNL A   1      31.820  30.777  26.253  1.00  0.00     0.217 C 
BRANCH  22  23
ATOM     23  O   UNL A   1      32.323  31.851  27.042  1.00  0.00    -0.391 OA
ATOM     24  H   UNL A   1      31.786  32.643  26.890  1.00  0.00     0.210 HD
ENDBRANCH  22  23
ENDBRANCH  21  22
ENDBRANCH  15  21
ENDBRANCH  14  15
ENDBRANCH   9  14
ENDBRANCH   7   9
ENDBRANCH   6   7
ENDBRANCH   5   6
ENDBRANCH   4   5
ENDBRANCH   3   4
ENDBRANCH   2   3
ENDBRANCH   1   2
BRANCH   1  25
ATOM     25  O   UNL A   1      33.814  22.318  25.915  1.00  0.00    -0.377 OA
BRANCH  25  26
ATOM     26  C   UNL A   1      35.235  22.355  25.991  1.00  0.00     0.188 C 
BRANCH  26  27
ATOM     27  C   UNL A   1      36.049  21.577  24.927  1.00  0.00     0.188 C 
BRANCH  27  28
ATOM     28  O   UNL A   1      36.622  20.350  25.358  1.00  0.00    -0.376 OA
BRANCH  28  29
ATOM     29  C   UNL A   1      37.849  19.911  24.792  1.00  0.00     0.202 C 
BRANCH  29  30
ATOM     30  C   UNL A   1      39.013  19.520  25.722  1.00  0.00     0.261 C 
BRANCH  30  31
ATOM     31  O   UNL A   1      40.153  20.390  25.729  1.00  0.00    -0.460 OA
BRANCH  31  32
ATOM     32  C   UNL A   1      40.836  20.545  26.881  1.00  0.00     0.338 C 
ATOM     33  O   UNL A   1      41.257  19.659  27.607  1.00  0.00    -0.246 OA
BRANCH  32  34
ATOM     34  C   UNL A   1      41.187  21.978  26.999  1.00  0.00     0.060 A 
ATOM     35  C   UNL A   1      41.766  22.627  25.899  1.00  0.00     0.016 A 
ATOM     36  C   UNL A   1      40.909  22.689  28.168  1.00  0.00     0.016 A 
ATOM     37  C   UNL A   1      42.069  23.988  25.965  1.00  0.00     0.010 A 
ATOM     38  C   UNL A   1      41.248  24.044  28.245  1.00  0.00     0.010 A 
ATOM     39  C   UNL A   1      41.845  24.695  27.151  1.00  0.00    -0.014 A 
BRANCH  39  40
ATOM     40  C   UNL A   1      42.360  26.078  27.299  1.00  0.00     0.031 A 
ATOM     41  C   UNL A   1      43.772  26.370  26.875  1.00  0.00     0.074 A 
ATOM     42  C   UNL A   1      41.595  27.053  27.825  1.00  0.00     0.049 A 
ATOM     43  N   UNL A   1      44.460  27.474  26.996  1.00  0.00    -0.248 NA
ATOM     44  C   UNL A   1      44.508  25.269  26.230  1.00  0.00     0.031 C 
ATOM     45  C   UNL A   1      40.207  26.900  28.255  1.00  0.00     0.029 A 
ATOM     46  N   UNL A   1      41.899  28.361  28.122  1.00  0.00    -0.354 N 
ATOM     47  C   UNL A   1      45.719  27.193  26.480  1.00  0.00     0.074 A 
ATOM     48  C   UNL A   1      45.699  25.817  26.035  1.00  0.00     0.031 C 
ATOM     49  C   UNL A   1      39.793  28.055  28.807  1.00  0.00     0.029 A 
ATOM     50  C   UNL A   1      40.897  29.014  28.802  1.00  0.00     0.049 A 
ATOM     51  H   UNL A   1      42.751  28.787  27.874  1.00  0.00     0.167 HD
ATOM     52  C   UNL A   1      46.794  28.009  26.386  1.00  0.00     0.034 A 
ATOM     53  C   UNL A   1      40.890  30.225  29.394  1.00  0.00     0.034 A 
ATOM     54  C   UNL A   1      46.809  29.381  26.813  1.00  0.00     0.049 A 
ATOM     55  C   UNL A   1      42.120  31.096  29.312  1.00  0.00     0.074 A 
ATOM     56  C   UNL A   1      47.833  30.304  26.696  1.00  0.00     0.029 A 
ATOM     57  N   UNL A   1      45.766  30.020  27.462  1.00  0.00    -0.354 N 
ATOM     58  N   UNL A   1      43.258  30.866  28.701  1.00  0.00    -0.248 NA
ATOM     59  C   UNL A   1      42.060  32.404  29.982  1.00  0.00     0.031 C 
ATOM     60  C   UNL A   1      47.428  31.487  27.320  1.00  0.00     0.029 A 
ATOM     61  C   UNL A   1      46.134  31.316  27.784  1.00  0.00     0.049 A 
ATOM     62  H   UNL A   1      44.893  29.614  27.665  1.00  0.00     0.167 HD
ATOM     63  C   UNL A   1      44.032  32.008  28.889  1.00  0.00     0.074 A 
ATOM     64  C   UNL A   1      43.223  32.942  29.641  1.00  0.00     0.031 C 
ATOM     65  C   UNL A   1      45.305  32.255  28.492  1.00  0.00     0.034 A 
BRANCH  52  66
ATOM     66  C   UNL A   1      48.061  27.450  25.797  1.00  0.00     0.023 A 
ATOM     67  C   UNL A   1      48.288  27.529  24.410  1.00  0.00     0.012 A 
ATOM     68  C   UNL A   1      49.069  26.942  26.639  1.00  0.00     0.148 A 
ATOM     69  C   UNL A   1      49.498  27.098  23.867  1.00  0.00     0.002 A 
ATOM     70  C   UNL A   1      50.289  26.557  26.096  1.00  0.00     0.091 A 
ATOM     71  F   UNL A   1      48.820  26.857  27.954  1.00  0.00    -0.205 F 
ATOM     72  C   UNL A   1      50.502  26.627  24.710  1.00  0.00     0.022 A 
BRANCH  70  73
ATOM     73  S   UNL A   1      51.672  26.016  27.106  1.00  0.00     0.127 S 
ATOM     74  O   UNL A   1      52.700  25.779  26.093  1.00  0.00    -0.237 OA
ATOM     75  O   UNL A   1      51.908  27.186  27.951  1.00  0.00    -0.237 OA
ATOM     76  O   UNL A   1      51.217  24.829  27.815  1.00  0.00    -0.744 OA
ENDBRANCH  70  73
ENDBRANCH  52  66
BRANCH  53  77
ATOM     77  C   UNL A   1      39.687  30.693  30.144  1.00  0.00     0.023 A 
ATOM     78  C   UNL A   1      38.594  31.244  29.445  1.00  0.00     0.012 A 
ATOM     79  C   UNL A   1      39.633  30.623  31.550  1.00  0.00     0.148 A 
ATOM     80  C   UNL A   1      37.495  31.759  30.135  1.00  0.00     0.002 A 
ATOM     81  C   UNL A   1      38.507  31.077  32.228  1.00  0.00     0.091 A 
ATOM     82  F   UNL A   1      40.689  30.118  32.203  1.00  0.00    -0.205 F 
ATOM     83  C   UNL A   1      37.447  31.668  31.523  1.00  0.00     0.022 A 
BRANCH  81  84
ATOM     84  S   UNL A   1      38.306  30.872  34.001  1.00  0.00     0.127 S 
ATOM     85  O   UNL A   1      37.083  31.628  34.256  1.00  0.00    -0.237 OA
ATOM     86  O   UNL A   1      38.171  29.420  34.130  1.00  0.00    -0.237 OA
ATOM     87  O   UNL A   1      39.521  31.407  34.603  1.00  0.00    -0.744 OA
ENDBRANCH  81  84
ENDBRANCH  53  77
BRANCH  65  88
ATOM     88  C   UNL A   1      45.903  33.596  28.833  1.00  0.00     0.023 A 
ATOM     89  C   UNL A   1      46.668  33.746  30.006  1.00  0.00     0.012 A 
ATOM     90  C   UNL A   1      45.773  34.688  27.951  1.00  0.00     0.148 A 
ATOM     91  C   UNL A   1      47.265  34.969  30.314  1.00  0.00     0.002 A 
ATOM     92  C   UNL A   1      46.413  35.887  28.237  1.00  0.00     0.091 A 
ATOM     93  F   UNL A   1      45.031  34.530  26.845  1.00  0.00    -0.205 F 
ATOM     94  C   UNL A   1      47.147  36.034  29.425  1.00  0.00     0.022 A 
BRANCH  92  95
ATOM     95  S   UNL A   1      46.399  37.286  27.110  1.00  0.00     0.127 S 
ATOM     96  O   UNL A   1      44.973  37.610  27.055  1.00  0.00    -0.237 OA
ATOM     97  O   UNL A   1      47.219  38.265  27.823  1.00  0.00    -0.237 OA
ATOM     98  O   UNL A   1      46.973  36.805  25.861  1.00  0.00    -0.744 OA
ENDBRANCH  92  95
ENDBRANCH  65  88
ENDBRANCH  39  40
ENDBRANCH  32  34
ENDBRANCH  31  32
ENDBRANCH  30  31
ENDBRANCH  29  30
ENDBRANCH  28  29
ENDBRANCH  27  28
ENDBRANCH  26  27
ENDBRANCH  25  26
ENDBRANCH   1  25
TORSDOF 32
ENDMDL
MODEL 2
REMARK VINA RESULT:      -6.3      5.633     12.181
REMARK SMILES [NH3+][C@@H](C[NH+](CCO)CCO)C(=O)OCCOCCOCCOCCOC(=O)c1ccc(-c2c3nc(c(-c4cccc(S(=O)(=O)[O-])c4F)c4ccc([nH]4)c(-c4cccc(S(=O)(=O)[O-])c4F)c4nc(c(-c5cccc(S(=O)(=O)[O-])c5F)c5ccc2[nH]5)C=C4)C=C3)cc1
REMARK SMILES IDX 18 1 17 2 16 3 15 4 14 5 13 6 11 7 12 8 2 9 1 10 3 14 4 15
REMARK SMILES IDX 5 17 6 18 7 19 8 21 9 22 10 23 19 25 20 26 21 27 22 28 23 29
REMARK SMILES IDX 24 30 25 31 26 32 27 33 28 34 29 35 90 36 30 37 89 38 31 39
REMARK SMILES IDX 32 40 33 41 83 42 34 43 88 44 82 45 84 46 35 47 87 48 81 49
REMARK SMILES IDX 80 50 36 52 68 53 48 54 67 55 49 56 52 57 66 58 85 59 50 60
REMARK SMILES IDX 51 61 65 63 86 64 53 65 37 66 38 67 46 68 39 69 41 70 47 71
REMARK SMILES IDX 40 72 42 73 43 74 44 75 45 76 69 77 70 78 78 79 71 80 73 81
REMARK SMILES IDX 79 82 72 83 74 84 75 85 76 86 77 87 54 88 55 89 63 90 56 91
REMARK SMILES IDX 58 92 64 93 57 94 59 95 60 96 61 97 62 98
REMARK H PARENT 1 11 1 12 1 13 4 16 7 20 10 24 84 51 52 62
REMARK Flexibility Score: inf
ROOT
ATOM      1  C   UNL A   1      51.278  27.496  24.690  1.00  0.00     0.188 C 
ENDROOT
BRANCH   1   2
ATOM      2  C   UNL A   1      49.763  27.245  24.656  1.00  0.00     0.188 C 
BRANCH   2   3
ATOM      3  O   UNL A   1      49.232  25.955  24.939  1.00  0.00    -0.376 OA
BRANCH   3   4
ATOM      4  C   UNL A   1      47.854  25.651  24.763  1.00  0.00     0.202 C 
BRANCH   4   5
ATOM      5  C   UNL A   1      46.946  25.094  25.872  1.00  0.00     0.261 C 
BRANCH   5   6
ATOM      6  O   UNL A   1      47.102  23.711  26.173  1.00  0.00    -0.459 OA
BRANCH   6   7
ATOM      7  C   UNL A   1      45.963  23.037  26.485  1.00  0.00     0.370 C 
ATOM      8  O   UNL A   1      45.346  23.148  27.540  1.00  0.00    -0.245 OA
BRANCH   7   9
ATOM      9  C   UNL A   1      45.537  22.092  25.359  1.00  0.00     0.347 C 
BRANCH   9  10
ATOM     10  N   UNL A   1      45.501  20.670  25.750  1.00  0.00    -0.341 N 
ATOM     11  H   UNL A   1      45.532  20.596  26.766  1.00  0.00     0.345 HD
ATOM     12  H   UNL A   1      46.305  20.187  25.349  1.00  0.00     0.345 HD
ATOM     13  H   UNL A   1      44.641  20.244  25.404  1.00  0.00     0.345 HD
ENDBRANCH   9  10
BRANCH   9  14
ATOM     14  C   UNL A   1      44.220  22.592  24.754  1.00  0.00     0.340 C 
BRANCH  14  15
ATOM     15  N   UNL A   1      43.113  22.965  25.641  1.00  0.00    -0.326 N 
ATOM     16  H   UNL A   1      43.618  22.875  26.523  1.00  0.00     0.348 HD
BRANCH  15  17
ATOM     17  C   UNL A   1      42.672  24.354  25.464  1.00  0.00     0.291 C 
BRANCH  17  18
ATOM     18  C   UNL A   1      42.255  25.086  26.749  1.00  0.00     0.217 C 
BRANCH  18  19
ATOM     19  O   UNL A   1      43.115  24.752  27.836  1.00  0.00    -0.391 OA
ATOM     20  H   UNL A   1      43.784  24.117  27.535  1.00  0.00     0.210 HD
ENDBRANCH  18  19
ENDBRANCH  17  18
ENDBRANCH  15  17
BRANCH  15  21
ATOM     21  C   UNL A   1      42.057  22.020  26.026  1.00  0.00     0.291 C 
BRANCH  21  22
ATOM     22  C   UNL A   1      42.063  21.283  27.384  1.00  0.00     0.217 C 
BRANCH  22  23
ATOM     23  O   UNL A   1      43.007  21.801  28.317  1.00  0.00    -0.391 OA
ATOM     24  H   UNL A   1      43.232  22.712  28.078  1.00  0.00     0.210 HD
ENDBRANCH  22  23
ENDBRANCH  21  22
ENDBRANCH  15  21
ENDBRANCH  14  15
ENDBRANCH   9  14
ENDBRANCH   7   9
ENDBRANCH   6   7
ENDBRANCH   5   6
ENDBRANCH   4   5
ENDBRANCH   3   4
ENDBRANCH   2   3
ENDBRANCH   1   2
BRANCH   1  25
ATOM     25  O   UNL A   1      51.870  27.552  23.410  1.00  0.00    -0.377 OA
BRANCH  25  26
ATOM     26  C   UNL A   1      52.340  28.833  23.005  1.00  0.00     0.188 C 
BRANCH  26  27
ATOM     27  C   UNL A   1      52.502  29.932  24.084  1.00  0.00     0.188 C 
BRANCH  27  28
ATOM     28  O   UNL A   1      53.828  30.397  24.302  1.00  0.00    -0.376 OA
BRANCH  28  29
ATOM     29  C   UNL A   1      54.488  31.138  23.285  1.00  0.00     0.202 C 
BRANCH  29  30
ATOM     30  C   UNL A   1      54.959  32.574  23.582  1.00  0.00     0.261 C 
BRANCH  30  31
ATOM     31  O   UNL A   1      54.208  33.637  22.980  1.00  0.00    -0.460 OA
BRANCH  31  32
ATOM     32  C   UNL A   1      54.255  34.859  23.547  1.00  0.00     0.338 C 
ATOM     33  O   UNL A   1      55.024  35.766  23.270  1.00  0.00    -0.246 OA
BRANCH  32  34
ATOM     34  C   UNL A   1      53.061  34.993  24.411  1.00  0.00     0.060 A 
ATOM     35  C   UNL A   1      53.238  35.215  25.784  1.00  0.00     0.016 A 
ATOM     36  C   UNL A   1      51.775  34.945  23.866  1.00  0.00     0.016 A 
ATOM     37  C   UNL A   1      52.132  35.388  26.617  1.00  0.00     0.010 A 
ATOM     38  C   UNL A   1      50.668  35.081  24.710  1.00  0.00     0.010 A 
ATOM     39  C   UNL A   1      50.840  35.285  26.090  1.00  0.00    -0.014 A 
BRANCH  39  40
ATOM     40  C   UNL A   1      49.668  35.252  26.999  1.00  0.00     0.031 A 
ATOM     41  C   UNL A   1      49.243  33.933  27.579  1.00  0.00     0.074 A 
ATOM     42  C   UNL A   1      48.976  36.372  27.285  1.00  0.00     0.049 A 
ATOM     43  N   UNL A   1      48.203  33.650  28.318  1.00  0.00    -0.248 NA
ATOM     44  C   UNL A   1      50.107  32.775  27.286  1.00  0.00     0.031 C 
ATOM     45  C   UNL A   1      49.300  37.713  26.801  1.00  0.00     0.029 A 
ATOM     46  N   UNL A   1      47.831  36.547  28.024  1.00  0.00    -0.354 N 
ATOM     47  C   UNL A   1      48.263  32.281  28.546  1.00  0.00     0.074 A 
ATOM     48  C   UNL A   1      49.446  31.789  27.876  1.00  0.00     0.031 C 
ATOM     49  C   UNL A   1      48.346  38.565  27.215  1.00  0.00     0.029 A 
ATOM     50  C   UNL A   1      47.329  37.826  27.960  1.00  0.00     0.049 A 
ATOM     51  H   UNL A   1      47.411  35.827  28.547  1.00  0.00     0.167 HD
ATOM     52  C   UNL A   1      47.407  31.505  29.250  1.00  0.00     0.034 A 
ATOM     53  C   UNL A   1      46.160  38.329  28.408  1.00  0.00     0.034 A 
ATOM     54  C   UNL A   1      46.240  31.997  29.930  1.00  0.00     0.049 A 
ATOM     55  C   UNL A   1      45.204  37.428  29.151  1.00  0.00     0.074 A 
ATOM     56  C   UNL A   1      45.351  31.295  30.723  1.00  0.00     0.029 A 
ATOM     57  N   UNL A   1      45.783  33.303  29.875  1.00  0.00    -0.354 N 
ATOM     58  N   UNL A   1      45.340  36.164  29.476  1.00  0.00    -0.248 NA
ATOM     59  C   UNL A   1      43.942  38.027  29.611  1.00  0.00     0.031 C 
ATOM     60  C   UNL A   1      44.327  32.165  31.108  1.00  0.00     0.029 A 
ATOM     61  C   UNL A   1      44.604  33.420  30.592  1.00  0.00     0.049 A 
ATOM     62  H   UNL A   1      46.228  34.039  29.397  1.00  0.00     0.167 HD
ATOM     63  C   UNL A   1      44.199  35.829  30.199  1.00  0.00     0.074 A 
ATOM     64  C   UNL A   1      43.397  37.030  30.294  1.00  0.00     0.031 C 
ATOM     65  C   UNL A   1      43.837  34.631  30.721  1.00  0.00     0.034 A 
BRANCH  52  66
ATOM     66  C   UNL A   1      47.689  30.030  29.332  1.00  0.00     0.023 A 
ATOM     67  C   UNL A   1      47.156  29.155  28.365  1.00  0.00     0.012 A 
ATOM     68  C   UNL A   1      48.572  29.531  30.310  1.00  0.00     0.148 A 
ATOM     69  C   UNL A   1      47.488  27.801  28.379  1.00  0.00     0.002 A 
ATOM     70  C   UNL A   1      48.934  28.190  30.289  1.00  0.00     0.091 A 
ATOM     71  F   UNL A   1      49.048  30.380  31.232  1.00  0.00    -0.205 F 
ATOM     72  C   UNL A   1      48.387  27.322  29.329  1.00  0.00     0.022 A 
BRANCH  70  73
ATOM     73  S   UNL A   1      50.146  27.495  31.417  1.00  0.00     0.127 S 
ATOM     74  O   UNL A   1      49.480  27.669  32.707  1.00  0.00    -0.237 OA
ATOM     75  O   UNL A   1      50.230  26.109  30.956  1.00  0.00    -0.237 OA
ATOM     76  O   UNL A   1      51.362  28.275  31.238  1.00  0.00    -0.744 OA
ENDBRANCH  70  73
ENDBRANCH  52  66
BRANCH  53  77
ATOM     77  C   UNL A   1      45.804  39.755  28.152  1.00  0.00     0.023 A 
ATOM     78  C   UNL A   1      46.071  40.732  29.131  1.00  0.00     0.012 A 
ATOM     79  C   UNL A   1      45.172  40.144  26.953  1.00  0.00     0.148 A 
ATOM     80  C   UNL A   1      45.672  42.057  28.941  1.00  0.00     0.002 A 
ATOM     81  C   UNL A   1      44.837  41.476  26.743  1.00  0.00     0.091 A 
ATOM     82  F   UNL A   1      44.903  39.200  26.041  1.00  0.00    -0.205 F 
ATOM     83  C   UNL A   1      45.064  42.431  27.746  1.00  0.00     0.022 A 
BRANCH  81  84
ATOM     84  S   UNL A   1      44.178  42.066  25.179  1.00  0.00     0.127 S 
ATOM     85  O   UNL A   1      44.107  43.506  25.404  1.00  0.00    -0.237 OA
ATOM     86  O   UNL A   1      45.209  41.640  24.231  1.00  0.00    -0.237 OA
ATOM     87  O   UNL A   1      42.900  41.386  25.006  1.00  0.00    -0.744 OA
ENDBRANCH  81  84
ENDBRANCH  53  77
BRANCH  65  88
ATOM     88  C   UNL A   1      42.530  34.554  31.470  1.00  0.00     0.023 A 
ATOM     89  C   UNL A   1      42.478  34.915  32.830  1.00  0.00     0.012 A 
ATOM     90  C   UNL A   1      41.339  34.200  30.804  1.00  0.00     0.148 A 
ATOM     91  C   UNL A   1      41.269  34.891  33.526  1.00  0.00     0.002 A 
ATOM     92  C   UNL A   1      40.130  34.229  31.488  1.00  0.00     0.091 A 
ATOM     93  F   UNL A   1      41.410  33.850  29.512  1.00  0.00    -0.205 F 
ATOM     94  C   UNL A   1      40.095  34.561  32.853  1.00  0.00     0.022 A 
BRANCH  92  95
ATOM     95  S   UNL A   1      38.555  33.912  30.687  1.00  0.00     0.127 S 
ATOM     96  O   UNL A   1      38.623  32.469  30.457  1.00  0.00    -0.237 OA
ATOM     97  O   UNL A   1      37.598  34.320  31.715  1.00  0.00    -0.237 OA
ATOM     98  O   UNL A   1      38.541  34.731  29.483  1.00  0.00    -0.744 OA
ENDBRANCH  92  95
ENDBRANCH  65  88
ENDBRANCH  39  40
ENDBRANCH  32  34
ENDBRANCH  31  32
ENDBRANCH  30  31
ENDBRANCH  29  30
ENDBRANCH  28  29
ENDBRANCH  27  28
ENDBRANCH  26  27
ENDBRANCH  25  26
ENDBRANCH   1  25
TORSDOF 32
ENDMDL
MODEL 3
REMARK VINA RESULT:      -6.3      7.310     13.998
REMARK SMILES [NH3+][C@@H](C[NH+](CCO)CCO)C(=O)OCCOCCOCCOCCOC(=O)c1ccc(-c2c3nc(c(-c4cccc(S(=O)(=O)[O-])c4F)c4ccc([nH]4)c(-c4cccc(S(=O)(=O)[O-])c4F)c4nc(c(-c5cccc(S(=O)(=O)[O-])c5F)c5ccc2[nH]5)C=C4)C=C3)cc1
REMARK SMILES IDX 18 1 17 2 16 3 15 4 14 5 13 6 11 7 12 8 2 9 1 10 3 14 4 15
REMARK SMILES IDX 5 17 6 18 7 19 8 21 9 22 10 23 19 25 20 26 21 27 22 28 23 29
REMARK SMILES IDX 24 30 25 31 26 32 27 33 28 34 29 35 90 36 30 37 89 38 31 39
REMARK SMILES IDX 32 40 33 41 83 42 34 43 88 44 82 45 84 46 35 47 87 48 81 49
REMARK SMILES IDX 80 50 36 52 68 53 48 54 67 55 49 56 52 57 66 58 85 59 50 60
REMARK SMILES IDX 51 61 65 63 86 64 53 65 37 66 38 67 46 68 39 69 41 70 47 71
REMARK SMILES IDX 40 72 42 73 43 74 44 75 45 76 69 77 70 78 78 79 71 80 73 81
REMARK SMILES IDX 79 82 72 83 74 84 75 85 76 86 77 87 54 88 55 89 63 90 56 91
REMARK SMILES IDX 58 92 64 93 57 94 59 95 60 96 61 97 62 98
REMARK H PARENT 1 11 1 12 1 13 4 16 7 20 10 24 84 51 52 62
REMARK Flexibility Score: inf
ROOT
ATOM      1  C   UNL A   1      39.336  31.871  43.051  1.00  0.00     0.188 C 
ENDROOT
BRANCH   1   2
ATOM      2  C   UNL A   1      39.630  32.897  41.947  1.00  0.00     0.188 C 
BRANCH   2   3
ATOM      3  O   UNL A   1      39.248  32.645  40.598  1.00  0.00    -0.376 OA
BRANCH   3   4
ATOM      4  C   UNL A   1      38.421  33.544  39.869  1.00  0.00     0.202 C 
BRANCH   4   5
ATOM      5  C   UNL A   1      37.939  33.296  38.430  1.00  0.00     0.261 C 
BRANCH   5   6
ATOM      6  O   UNL A   1      38.905  33.497  37.403  1.00  0.00    -0.459 OA
BRANCH   6   7
ATOM      7  C   UNL A   1      38.881  32.601  36.380  1.00  0.00     0.370 C 
ATOM      8  O   UNL A   1      39.376  31.479  36.415  1.00  0.00    -0.245 OA
BRANCH   7   9
ATOM      9  C   UNL A   1      38.171  33.167  35.147  1.00  0.00     0.347 C 
BRANCH   9  10
ATOM     10  N   UNL A   1      39.083  33.556  34.055  1.00  0.00    -0.341 N 
ATOM     11  H   UNL A   1      39.540  32.724  33.681  1.00  0.00     0.345 HD
ATOM     12  H   UNL A   1      39.789  34.198  34.415  1.00  0.00     0.345 HD
ATOM     13  H   UNL A   1      38.552  34.014  33.315  1.00  0.00     0.345 HD
ENDBRANCH   9  10
BRANCH   9  14
ATOM     14  C   UNL A   1      37.073  32.192  34.708  1.00  0.00     0.340 C 
BRANCH  14  15
ATOM     15  N   UNL A   1      36.674  32.143  33.297  1.00  0.00    -0.326 N 
ATOM     16  H   UNL A   1      37.433  32.714  32.927  1.00  0.00     0.348 HD
BRANCH  15  17
ATOM     17  C   UNL A   1      36.744  30.794  32.722  1.00  0.00     0.291 C 
BRANCH  17  18
ATOM     18  C   UNL A   1      36.675  30.722  31.188  1.00  0.00     0.217 C 
BRANCH  18  19
ATOM     19  O   UNL A   1      35.979  29.555  30.757  1.00  0.00    -0.391 OA
ATOM     20  H   UNL A   1      36.437  29.168  29.994  1.00  0.00     0.210 HD
ENDBRANCH  18  19
ENDBRANCH  17  18
ENDBRANCH  15  17
BRANCH  15  21
ATOM     21  C   UNL A   1      35.616  33.001  32.746  1.00  0.00     0.291 C 
BRANCH  21  22
ATOM     22  C   UNL A   1      35.532  34.512  33.062  1.00  0.00     0.217 C 
BRANCH  22  23
ATOM     23  O   UNL A   1      36.726  35.231  32.766  1.00  0.00    -0.391 OA
ATOM     24  H   UNL A   1      37.487  34.633  32.825  1.00  0.00     0.210 HD
ENDBRANCH  22  23
ENDBRANCH  21  22
ENDBRANCH  15  21
ENDBRANCH  14  15
ENDBRANCH   9  14
ENDBRANCH   7   9
ENDBRANCH   6   7
ENDBRANCH   5   6
ENDBRANCH   4   5
ENDBRANCH   3   4
ENDBRANCH   2   3
ENDBRANCH   1   2
BRANCH   1  25
ATOM     25  O   UNL A   1      40.450  31.075  43.394  1.00  0.00    -0.377 OA
BRANCH  25  26
ATOM     26  C   UNL A   1      40.698  30.931  44.788  1.00  0.00     0.188 C 
BRANCH  26  27
ATOM     27  C   UNL A   1      40.220  32.054  45.741  1.00  0.00     0.188 C 
BRANCH  27  28
ATOM     28  O   UNL A   1      41.180  33.055  46.050  1.00  0.00    -0.376 OA
BRANCH  28  29
ATOM     29  C   UNL A   1      41.140  34.302  45.369  1.00  0.00     0.202 C 
BRANCH  29  30
ATOM     30  C   UNL A   1      42.074  34.536  44.167  1.00  0.00     0.261 C 
BRANCH  30  31
ATOM     31  O   UNL A   1      41.815  35.696  43.365  1.00  0.00    -0.460 OA
BRANCH  31  32
ATOM     32  C   UNL A   1      42.865  36.398  42.891  1.00  0.00     0.338 C 
ATOM     33  O   UNL A   1      43.702  36.996  43.549  1.00  0.00    -0.246 OA
BRANCH  32  34
ATOM     34  C   UNL A   1      42.959  36.130  41.439  1.00  0.00     0.060 A 
ATOM     35  C   UNL A   1      44.202  35.782  40.892  1.00  0.00     0.016 A 
ATOM     36  C   UNL A   1      41.822  36.177  40.628  1.00  0.00     0.016 A 
ATOM     37  C   UNL A   1      44.314  35.482  39.535  1.00  0.00     0.010 A 
ATOM     38  C   UNL A   1      41.945  35.912  39.260  1.00  0.00     0.010 A 
ATOM     39  C   UNL A   1      43.193  35.580  38.704  1.00  0.00    -0.014 A 
BRANCH  39  40
ATOM     40  C   UNL A   1      43.347  35.474  37.232  1.00  0.00     0.031 A 
ATOM     41  C   UNL A   1      43.707  36.709  36.455  1.00  0.00     0.074 A 
ATOM     42  C   UNL A   1      43.146  34.306  36.594  1.00  0.00     0.049 A 
ATOM     43  N   UNL A   1      43.804  36.874  35.162  1.00  0.00    -0.248 NA
ATOM     44  C   UNL A   1      43.995  37.922  37.241  1.00  0.00     0.031 C 
ATOM     45  C   UNL A   1      42.812  33.037  37.237  1.00  0.00     0.029 A 
ATOM     46  N   UNL A   1      43.155  34.013  35.251  1.00  0.00    -0.354 N 
ATOM     47  C   UNL A   1      44.126  38.212  34.975  1.00  0.00     0.074 A 
ATOM     48  C   UNL A   1      44.217  38.815  36.286  1.00  0.00     0.031 C 
ATOM     49  C   UNL A   1      42.600  32.111  36.285  1.00  0.00     0.029 A 
ATOM     50  C   UNL A   1      42.746  32.730  34.969  1.00  0.00     0.049 A 
ATOM     51  H   UNL A   1      43.428  34.657  34.559  1.00  0.00     0.167 HD
ATOM     52  C   UNL A   1      44.325  38.878  33.814  1.00  0.00     0.034 A 
ATOM     53  C   UNL A   1      42.474  32.140  33.787  1.00  0.00     0.034 A 
ATOM     54  C   UNL A   1      44.251  38.274  32.513  1.00  0.00     0.049 A 
ATOM     55  C   UNL A   1      42.664  32.922  32.509  1.00  0.00     0.074 A 
ATOM     56  C   UNL A   1      44.504  38.856  31.283  1.00  0.00     0.029 A 
ATOM     57  N   UNL A   1      43.872  36.966  32.266  1.00  0.00    -0.354 N 
ATOM     58  N   UNL A   1      43.099  34.149  32.346  1.00  0.00    -0.248 NA
ATOM     59  C   UNL A   1      42.345  32.232  31.250  1.00  0.00     0.031 C 
ATOM     60  C   UNL A   1      44.229  37.913  30.289  1.00  0.00     0.029 A 
ATOM     61  C   UNL A   1      43.849  36.730  30.901  1.00  0.00     0.049 A 
ATOM     62  H   UNL A   1      43.650  36.302  32.957  1.00  0.00     0.167 HD
ATOM     63  C   UNL A   1      43.134  34.363  30.971  1.00  0.00     0.074 A 
ATOM     64  C   UNL A   1      42.707  33.131  30.345  1.00  0.00     0.031 C 
ATOM     65  C   UNL A   1      43.469  35.486  30.287  1.00  0.00     0.034 A 
BRANCH  52  66
ATOM     66  C   UNL A   1      44.647  40.346  33.884  1.00  0.00     0.023 A 
ATOM     67  C   UNL A   1      45.988  40.776  33.851  1.00  0.00     0.012 A 
ATOM     68  C   UNL A   1      43.611  41.299  33.875  1.00  0.00     0.148 A 
ATOM     69  C   UNL A   1      46.293  42.136  33.821  1.00  0.00     0.002 A 
ATOM     70  C   UNL A   1      43.921  42.651  33.798  1.00  0.00     0.091 A 
ATOM     71  F   UNL A   1      42.344  40.864  33.928  1.00  0.00    -0.205 F 
ATOM     72  C   UNL A   1      45.261  43.072  33.780  1.00  0.00     0.022 A 
BRANCH  70  73
ATOM     73  S   UNL A   1      42.666  43.928  33.657  1.00  0.00     0.127 S 
ATOM     74  O   UNL A   1      42.187  43.719  32.291  1.00  0.00    -0.237 OA
ATOM     75  O   UNL A   1      41.719  43.540  34.702  1.00  0.00    -0.237 OA
ATOM     76  O   UNL A   1      43.347  45.194  33.886  1.00  0.00    -0.744 OA
ENDBRANCH  70  73
ENDBRANCH  52  66
BRANCH  53  77
ATOM     77  C   UNL A   1      41.969  30.736  33.741  1.00  0.00     0.023 A 
ATOM     78  C   UNL A   1      40.603  30.489  33.498  1.00  0.00     0.012 A 
ATOM     79  C   UNL A   1      42.830  29.644  33.968  1.00  0.00     0.148 A 
ATOM     80  C   UNL A   1      40.099  29.188  33.531  1.00  0.00     0.002 A 
ATOM     81  C   UNL A   1      42.335  28.347  33.934  1.00  0.00     0.091 A 
ATOM     82  F   UNL A   1      44.123  29.896  34.221  1.00  0.00    -0.205 F 
ATOM     83  C   UNL A   1      40.964  28.117  33.740  1.00  0.00     0.022 A 
BRANCH  81  84
ATOM     84  S   UNL A   1      43.402  26.907  34.055  1.00  0.00     0.127 S 
ATOM     85  O   UNL A   1      42.481  25.889  34.551  1.00  0.00    -0.237 OA
ATOM     86  O   UNL A   1      43.833  26.726  32.669  1.00  0.00    -0.237 OA
ATOM     87  O   UNL A   1      44.478  27.286  34.963  1.00  0.00    -0.744 OA
ENDBRANCH  81  84
ENDBRANCH  53  77
BRANCH  65  88
ATOM     88  C   UNL A   1      43.419  35.436  28.782  1.00  0.00     0.023 A 
ATOM     89  C   UNL A   1      42.306  35.961  28.098  1.00  0.00     0.012 A 
ATOM     90  C   UNL A   1      44.512  34.940  28.041  1.00  0.00     0.148 A 
ATOM     91  C   UNL A   1      42.264  35.962  26.703  1.00  0.00     0.002 A 
ATOM     92  C   UNL A   1      44.487  34.993  26.653  1.00  0.00     0.091 A 
ATOM     93  F   UNL A   1      45.559  34.435  28.710  1.00  0.00    -0.205 F 
ATOM     94  C   UNL A   1      43.357  35.490  25.982  1.00  0.00     0.022 A 
BRANCH  92  95
ATOM     95  S   UNL A   1      45.884  34.497  25.639  1.00  0.00     0.127 S 
ATOM     96  O   UNL A   1      46.285  33.244  26.278  1.00  0.00    -0.237 OA
ATOM     97  O   UNL A   1      45.268  34.338  24.322  1.00  0.00    -0.237 OA
ATOM     98  O   UNL A   1      46.855  35.578  25.731  1.00  0.00    -0.744 OA
ENDBRANCH  92  95
ENDBRANCH  65  88
ENDBRANCH  39  40
ENDBRANCH  32  34
ENDBRANCH  31  32
ENDBRANCH  30  31
ENDBRANCH  29  30
ENDBRANCH  28  29
ENDBRANCH  27  28
ENDBRANCH  26  27
ENDBRANCH  25  26
ENDBRANCH   1  25
TORSDOF 32
ENDMDL
