MODEL 1
REMARK VINA RESULT:     -10.0      0.000      0.000
REMARK SMILES CCCc1cc(OC(F)(F)F)cc2c1O[C@H](C(F)(F)F)C(C(=O)OCCOCCOCCOCCOC(=O)c1ccc(-c3c4nc(c(-c5cccc(S(=O)(=O)[O-])c5F)c5ccc([nH]5)c(-c5cccc(S(=O)(=O)[O-])c5F)c5nc(c(-c6cccc(S(=O)(=O)[O-])c6F)c6ccc3[nH]6)C=C5)C=C4)cc1)=C2
REMARK SMILES IDX 31 1 30 2 29 3 28 4 27 5 26 6 25 7 24 8 22 9 23 10 21 11
REMARK SMILES IDX 4 12 5 13 14 14 6 15 13 16 15 17 12 18 102 19 16 20 3 21
REMARK SMILES IDX 2 22 1 23 7 24 8 25 9 26 10 27 11 28 17 29 18 30 19 31 20 32
REMARK SMILES IDX 32 33 33 34 34 35 35 36 36 37 37 38 38 39 39 40 40 41 101 42
REMARK SMILES IDX 41 43 100 44 42 45 43 46 44 47 94 48 45 49 99 50 93 51 95 52
REMARK SMILES IDX 46 53 98 54 92 55 91 56 47 58 79 59 59 60 78 61 60 62 63 63
REMARK SMILES IDX 77 64 96 65 61 66 62 67 76 69 97 70 64 71 48 72 49 73 57 74
REMARK SMILES IDX 50 75 52 76 58 77 51 78 53 79 54 80 55 81 56 82 80 83 81 84
REMARK SMILES IDX 89 85 82 86 84 87 90 88 83 89 85 90 86 91 87 92 88 93 65 94
REMARK SMILES IDX 66 95 74 96 67 97 69 98 75 99 68 100 70 101 71 102 72 103
REMARK SMILES IDX 73 104
REMARK H PARENT 95 57 63 68
REMARK Flexibility Score: inf
ROOT
ATOM      1  C   UNL A   1      36.567  21.019  25.398  1.00  0.00     0.188 C 
ENDROOT
BRANCH   1   2
ATOM      2  O   UNL A   1      35.544  20.480  24.569  1.00  0.00    -0.377 OA
BRANCH   2   3
ATOM      3  C   UNL A   1      34.699  19.461  25.071  1.00  0.00     0.188 C 
BRANCH   3   4
ATOM      4  C   UNL A   1      33.178  19.728  25.168  1.00  0.00     0.188 C 
BRANCH   4   5
ATOM      5  O   UNL A   1      32.841  20.858  25.947  1.00  0.00    -0.376 OA
BRANCH   5   6
ATOM      6  C   UNL A   1      32.664  22.105  25.306  1.00  0.00     0.202 C 
BRANCH   6   7
ATOM      7  C   UNL A   1      32.716  22.209  23.774  1.00  0.00     0.261 C 
BRANCH   7   8
ATOM      8  O   UNL A   1      33.761  23.006  23.202  1.00  0.00    -0.460 OA
BRANCH   8   9
ATOM      9  C   UNL A   1      33.438  23.868  22.216  1.00  0.00     0.338 C 
ATOM     10  O   UNL A   1      33.545  23.664  21.016  1.00  0.00    -0.246 OA
BRANCH   9  11
ATOM     11  C   UNL A   1      32.780  25.066  22.782  1.00  0.00     0.087 C 
ATOM     12  C   UNL A   1      30.942  28.740  23.311  1.00  0.00    -0.002 A 
ATOM     13  C   UNL A   1      31.434  29.597  24.305  1.00  0.00     0.054 A 
ATOM     14  C   UNL A   1      31.640  27.552  23.079  1.00  0.00     0.131 A 
ATOM     15  C   UNL A   1      32.630  29.318  24.981  1.00  0.00     0.130 A 
ATOM     16  C   UNL A   1      32.799  27.218  23.801  1.00  0.00     0.021 A 
ATOM     17  O   UNL A   1      31.142  26.714  22.102  1.00  0.00    -0.475 OA
ATOM     18  C   UNL A   1      33.296  28.112  24.747  1.00  0.00     0.058 A 
ATOM     19  C   UNL A   1      33.486  25.970  23.481  1.00  0.00     0.027 C 
ATOM     20  C   UNL A   1      31.334  25.314  22.421  1.00  0.00     0.316 C 
BRANCH  12  21
ATOM     21  C   UNL A   1      29.681  29.002  22.516  1.00  0.00     0.039 C 
BRANCH  21  22
ATOM     22  C   UNL A   1      29.185  30.442  22.395  1.00  0.00     0.001 C 
ATOM     23  C   UNL A   1      28.033  30.758  23.340  1.00  0.00     0.004 C 
ENDBRANCH  21  22
ENDBRANCH  12  21
BRANCH  15  24
ATOM     24  O   UNL A   1      33.226  30.148  25.890  1.00  0.00    -0.406 OA
BRANCH  24  25
ATOM     25  C   UNL A   1      32.360  30.822  26.791  1.00  0.00     0.573 C 
ATOM     26  F   UNL A   1      31.380  31.489  26.142  1.00  0.00    -0.132 F 
ATOM     27  F   UNL A   1      31.802  29.948  27.658  1.00  0.00    -0.132 F 
ATOM     28  F   UNL A   1      33.074  31.719  27.505  1.00  0.00    -0.132 F 
ENDBRANCH  24  25
ENDBRANCH  15  24
BRANCH  20  29
ATOM     29  C   UNL A   1      30.258  24.878  23.450  1.00  0.00     0.430 C 
ATOM     30  F   UNL A   1      29.757  23.642  23.222  1.00  0.00    -0.167 F 
ATOM     31  F   UNL A   1      30.783  24.861  24.703  1.00  0.00    -0.167 F 
ATOM     32  F   UNL A   1      29.206  25.719  23.499  1.00  0.00    -0.167 F 
ENDBRANCH  20  29
ENDBRANCH   9  11
ENDBRANCH   8   9
ENDBRANCH   7   8
ENDBRANCH   6   7
ENDBRANCH   5   6
ENDBRANCH   4   5
ENDBRANCH   3   4
ENDBRANCH   2   3
ENDBRANCH   1   2
BRANCH   1  33
ATOM     33  C   UNL A   1      38.019  21.189  24.885  1.00  0.00     0.188 C 
BRANCH  33  34
ATOM     34  O   UNL A   1      38.945  21.681  25.840  1.00  0.00    -0.376 OA
BRANCH  34  35
ATOM     35  C   UNL A   1      39.586  20.753  26.695  1.00  0.00     0.202 C 
BRANCH  35  36
ATOM     36  C   UNL A   1      40.361  19.614  26.020  1.00  0.00     0.261 C 
BRANCH  36  37
ATOM     37  O   UNL A   1      41.694  19.398  26.500  1.00  0.00    -0.460 OA
BRANCH  37  38
ATOM     38  C   UNL A   1      42.686  20.045  25.847  1.00  0.00     0.338 C 
ATOM     39  O   UNL A   1      43.369  19.617  24.941  1.00  0.00    -0.246 OA
BRANCH  38  40
ATOM     40  C   UNL A   1      42.663  21.452  26.297  1.00  0.00     0.060 A 
ATOM     41  C   UNL A   1      42.472  22.463  25.345  1.00  0.00     0.016 A 
ATOM     42  C   UNL A   1      42.801  21.766  27.652  1.00  0.00     0.016 A 
ATOM     43  C   UNL A   1      42.450  23.796  25.745  1.00  0.00     0.010 A 
ATOM     44  C   UNL A   1      42.808  23.105  28.046  1.00  0.00     0.010 A 
ATOM     45  C   UNL A   1      42.670  24.124  27.089  1.00  0.00    -0.014 A 
BRANCH  45  46
ATOM     46  C   UNL A   1      42.977  25.528  27.445  1.00  0.00     0.031 A 
ATOM     47  C   UNL A   1      44.321  26.077  27.054  1.00  0.00     0.074 A 
ATOM     48  C   UNL A   1      42.081  26.305  28.076  1.00  0.00     0.049 A 
ATOM     49  N   UNL A   1      44.818  27.270  27.244  1.00  0.00    -0.248 NA
ATOM     50  C   UNL A   1      45.229  25.152  26.351  1.00  0.00     0.031 C 
ATOM     51  C   UNL A   1      40.745  25.888  28.498  1.00  0.00     0.029 A 
ATOM     52  N   UNL A   1      42.174  27.611  28.489  1.00  0.00    -0.354 N 
ATOM     53  C   UNL A   1      46.101  27.234  26.712  1.00  0.00     0.074 A 
ATOM     54  C   UNL A   1      46.314  25.897  26.204  1.00  0.00     0.031 C 
ATOM     55  C   UNL A   1      40.152  26.913  29.134  1.00  0.00     0.029 A 
ATOM     56  C   UNL A   1      41.073  28.047  29.184  1.00  0.00     0.049 A 
ATOM     57  H   UNL A   1      42.956  28.181  28.304  1.00  0.00     0.167 HD
ATOM     58  C   UNL A   1      47.017  28.227  26.639  1.00  0.00     0.034 A 
ATOM     59  C   UNL A   1      40.847  29.222  29.806  1.00  0.00     0.034 A 
ATOM     60  C   UNL A   1      46.801  29.556  27.140  1.00  0.00     0.049 A 
ATOM     61  C   UNL A   1      41.897  30.304  29.738  1.00  0.00     0.074 A 
ATOM     62  C   UNL A   1      47.649  30.646  27.078  1.00  0.00     0.029 A 
ATOM     63  N   UNL A   1      45.662  29.971  27.813  1.00  0.00    -0.354 N 
ATOM     64  N   UNL A   1      43.058  30.294  29.129  1.00  0.00    -0.248 NA
ATOM     65  C   UNL A   1      41.587  31.574  30.413  1.00  0.00     0.031 C 
ATOM     66  C   UNL A   1      47.039  31.711  27.750  1.00  0.00     0.029 A 
ATOM     67  C   UNL A   1      45.792  31.297  28.187  1.00  0.00     0.049 A 
ATOM     68  H   UNL A   1      44.877  29.406  27.997  1.00  0.00     0.167 HD
ATOM     69  C   UNL A   1      43.599  31.563  29.313  1.00  0.00     0.074 A 
ATOM     70  C   UNL A   1      42.627  32.322  30.071  1.00  0.00     0.031 C 
ATOM     71  C   UNL A   1      44.795  32.054  28.902  1.00  0.00     0.034 A 
BRANCH  58  72
ATOM     72  C   UNL A   1      48.337  27.910  25.988  1.00  0.00     0.023 A 
ATOM     73  C   UNL A   1      49.465  27.628  26.786  1.00  0.00     0.012 A 
ATOM     74  C   UNL A   1      48.449  27.850  24.586  1.00  0.00     0.148 A 
ATOM     75  C   UNL A   1      50.693  27.326  26.197  1.00  0.00     0.002 A 
ATOM     76  C   UNL A   1      49.662  27.499  24.008  1.00  0.00     0.091 A 
ATOM     77  F   UNL A   1      47.371  28.146  23.846  1.00  0.00    -0.205 F 
ATOM     78  C   UNL A   1      50.789  27.250  24.811  1.00  0.00     0.022 A 
BRANCH  76  79
ATOM     79  S   UNL A   1      49.867  27.296  22.235  1.00  0.00     0.127 S 
ATOM     80  O   UNL A   1      48.825  26.317  21.928  1.00  0.00    -0.237 OA
ATOM     81  O   UNL A   1      49.598  28.648  21.741  1.00  0.00    -0.237 OA
ATOM     82  O   UNL A   1      51.233  26.835  22.037  1.00  0.00    -0.744 OA
ENDBRANCH  76  79
ENDBRANCH  58  72
BRANCH  59  83
ATOM     83  C   UNL A   1      39.564  29.453  30.531  1.00  0.00     0.023 A 
ATOM     84  C   UNL A   1      39.355  28.858  31.790  1.00  0.00     0.012 A 
ATOM     85  C   UNL A   1      38.552  30.258  29.974  1.00  0.00     0.148 A 
ATOM     86  C   UNL A   1      38.146  29.031  32.466  1.00  0.00     0.002 A 
ATOM     87  C   UNL A   1      37.374  30.475  30.678  1.00  0.00     0.091 A 
ATOM     88  F   UNL A   1      38.764  30.802  28.768  1.00  0.00    -0.205 F 
ATOM     89  C   UNL A   1      37.160  29.846  31.915  1.00  0.00     0.022 A 
BRANCH  87  90
ATOM     90  S   UNL A   1      36.102  31.607  30.108  1.00  0.00     0.127 S 
ATOM     91  O   UNL A   1      35.547  30.885  28.967  1.00  0.00    -0.237 OA
ATOM     92  O   UNL A   1      35.224  31.682  31.277  1.00  0.00    -0.237 OA
ATOM     93  O   UNL A   1      36.792  32.850  29.793  1.00  0.00    -0.744 OA
ENDBRANCH  87  90
ENDBRANCH  59  83
BRANCH  71  94
ATOM     94  C   UNL A   1      45.107  33.496  29.219  1.00  0.00     0.023 A 
ATOM     95  C   UNL A   1      45.741  33.832  30.432  1.00  0.00     0.012 A 
ATOM     96  C   UNL A   1      44.826  34.510  28.282  1.00  0.00     0.148 A 
ATOM     97  C   UNL A   1      46.047  35.161  30.727  1.00  0.00     0.002 A 
ATOM     98  C   UNL A   1      45.185  35.824  28.559  1.00  0.00     0.091 A 
ATOM     99  F   UNL A   1      44.211  34.174  27.139  1.00  0.00    -0.205 F 
ATOM    100  C   UNL A   1      45.781  36.154  29.787  1.00  0.00     0.022 A 
BRANCH  98 101
ATOM    101  S   UNL A   1      44.973  37.151  27.366  1.00  0.00     0.127 S 
ATOM    102  O   UNL A   1      45.366  38.321  28.151  1.00  0.00    -0.237 OA
ATOM    103  O   UNL A   1      45.918  36.776  26.315  1.00  0.00    -0.237 OA
ATOM    104  O   UNL A   1      43.574  37.111  26.964  1.00  0.00    -0.744 OA
ENDBRANCH  98 101
ENDBRANCH  71  94
ENDBRANCH  45  46
ENDBRANCH  38  40
ENDBRANCH  37  38
ENDBRANCH  36  37
ENDBRANCH  35  36
ENDBRANCH  34  35
ENDBRANCH  33  34
ENDBRANCH   1  33
TORSDOF 28
ENDMDL
MODEL 2
REMARK VINA RESULT:      -9.5      2.885      8.064
REMARK SMILES CCCc1cc(OC(F)(F)F)cc2c1O[C@H](C(F)(F)F)C(C(=O)OCCOCCOCCOCCOC(=O)c1ccc(-c3c4nc(c(-c5cccc(S(=O)(=O)[O-])c5F)c5ccc([nH]5)c(-c5cccc(S(=O)(=O)[O-])c5F)c5nc(c(-c6cccc(S(=O)(=O)[O-])c6F)c6ccc3[nH]6)C=C5)C=C4)cc1)=C2
REMARK SMILES IDX 31 1 30 2 29 3 28 4 27 5 26 6 25 7 24 8 22 9 23 10 21 11
REMARK SMILES IDX 4 12 5 13 14 14 6 15 13 16 15 17 12 18 102 19 16 20 3 21
REMARK SMILES IDX 2 22 1 23 7 24 8 25 9 26 10 27 11 28 17 29 18 30 19 31 20 32
REMARK SMILES IDX 32 33 33 34 34 35 35 36 36 37 37 38 38 39 39 40 40 41 101 42
REMARK SMILES IDX 41 43 100 44 42 45 43 46 44 47 94 48 45 49 99 50 93 51 95 52
REMARK SMILES IDX 46 53 98 54 92 55 91 56 47 58 79 59 59 60 78 61 60 62 63 63
REMARK SMILES IDX 77 64 96 65 61 66 62 67 76 69 97 70 64 71 48 72 49 73 57 74
REMARK SMILES IDX 50 75 52 76 58 77 51 78 53 79 54 80 55 81 56 82 80 83 81 84
REMARK SMILES IDX 89 85 82 86 84 87 90 88 83 89 85 90 86 91 87 92 88 93 65 94
REMARK SMILES IDX 66 95 74 96 67 97 69 98 75 99 68 100 70 101 71 102 72 103
REMARK SMILES IDX 73 104
REMARK H PARENT 95 57 63 68
REMARK Flexibility Score: inf
ROOT
ATOM      1  C   UNL A   1      39.932  21.933  26.949  1.00  0.00     0.188 C 
ENDROOT
BRANCH   1   2
ATOM      2  O   UNL A   1      39.063  22.550  26.008  1.00  0.00    -0.377 OA
BRANCH   2   3
ATOM      3  C   UNL A   1      37.757  22.039  25.819  1.00  0.00     0.188 C 
BRANCH   3   4
ATOM      4  C   UNL A   1      37.547  20.857  24.843  1.00  0.00     0.188 C 
BRANCH   4   5
ATOM      5  O   UNL A   1      36.323  20.172  25.023  1.00  0.00    -0.376 OA
BRANCH   5   6
ATOM      6  C   UNL A   1      35.167  20.911  25.360  1.00  0.00     0.202 C 
BRANCH   6   7
ATOM      7  C   UNL A   1      33.859  20.713  24.580  1.00  0.00     0.261 C 
BRANCH   7   8
ATOM      8  O   UNL A   1      32.874  21.751  24.669  1.00  0.00    -0.460 OA
BRANCH   8   9
ATOM      9  C   UNL A   1      32.504  22.379  23.534  1.00  0.00     0.338 C 
ATOM     10  O   UNL A   1      32.223  21.845  22.473  1.00  0.00    -0.246 OA
BRANCH   9  11
ATOM     11  C   UNL A   1      32.332  23.827  23.788  1.00  0.00     0.087 C 
ATOM     12  C   UNL A   1      31.204  27.509  25.314  1.00  0.00    -0.002 A 
ATOM     13  C   UNL A   1      30.722  28.481  24.428  1.00  0.00     0.054 A 
ATOM     14  C   UNL A   1      31.480  26.241  24.795  1.00  0.00     0.131 A 
ATOM     15  C   UNL A   1      30.443  28.172  23.089  1.00  0.00     0.130 A 
ATOM     16  C   UNL A   1      31.279  25.934  23.438  1.00  0.00     0.021 A 
ATOM     17  O   UNL A   1      31.960  25.295  25.678  1.00  0.00    -0.475 OA
ATOM     18  C   UNL A   1      30.750  26.904  22.590  1.00  0.00     0.058 A 
ATOM     19  C   UNL A   1      31.566  24.578  22.979  1.00  0.00     0.027 C 
ATOM     20  C   UNL A   1      32.914  24.395  25.061  1.00  0.00     0.316 C 
BRANCH  12  21
ATOM     21  C   UNL A   1      31.488  27.765  26.778  1.00  0.00     0.039 C 
BRANCH  21  22
ATOM     22  C   UNL A   1      32.273  29.021  27.157  1.00  0.00     0.001 C 
ATOM     23  C   UNL A   1      33.680  29.042  26.576  1.00  0.00     0.004 C 
ENDBRANCH  21  22
ENDBRANCH  12  21
BRANCH  15  24
ATOM     24  O   UNL A   1      29.881  29.034  22.188  1.00  0.00    -0.406 OA
BRANCH  24  25
ATOM     25  C   UNL A   1      28.536  29.415  22.436  1.00  0.00     0.573 C 
ATOM     26  F   UNL A   1      27.812  28.397  22.955  1.00  0.00    -0.132 F 
ATOM     27  F   UNL A   1      28.487  30.468  23.282  1.00  0.00    -0.132 F 
ATOM     28  F   UNL A   1      27.958  29.787  21.273  1.00  0.00    -0.132 F 
ENDBRANCH  24  25
ENDBRANCH  15  24
BRANCH  20  29
ATOM     29  C   UNL A   1      34.288  25.107  24.961  1.00  0.00     0.430 C 
ATOM     30  F   UNL A   1      34.464  25.791  23.807  1.00  0.00    -0.167 F 
ATOM     31  F   UNL A   1      34.430  26.004  25.971  1.00  0.00    -0.167 F 
ATOM     32  F   UNL A   1      35.330  24.258  25.070  1.00  0.00    -0.167 F 
ENDBRANCH  20  29
ENDBRANCH   9  11
ENDBRANCH   8   9
ENDBRANCH   7   8
ENDBRANCH   6   7
ENDBRANCH   5   6
ENDBRANCH   4   5
ENDBRANCH   3   4
ENDBRANCH   2   3
ENDBRANCH   1   2
BRANCH   1  33
ATOM     33  C   UNL A   1      40.956  20.853  26.520  1.00  0.00     0.188 C 
BRANCH  33  34
ATOM     34  O   UNL A   1      41.949  21.288  25.605  1.00  0.00    -0.376 OA
BRANCH  34  35
ATOM     35  C   UNL A   1      43.181  21.753  26.121  1.00  0.00     0.202 C 
BRANCH  35  36
ATOM     36  C   UNL A   1      43.954  22.760  25.260  1.00  0.00     0.261 C 
BRANCH  36  37
ATOM     37  O   UNL A   1      45.104  23.353  25.875  1.00  0.00    -0.460 OA
BRANCH  37  38
ATOM     38  C   UNL A   1      45.651  24.416  25.242  1.00  0.00     0.338 C 
ATOM     39  O   UNL A   1      46.192  24.424  24.157  1.00  0.00    -0.246 OA
BRANCH  38  40
ATOM     40  C   UNL A   1      45.295  25.620  26.020  1.00  0.00     0.060 A 
ATOM     41  C   UNL A   1      44.859  26.762  25.335  1.00  0.00     0.016 A 
ATOM     42  C   UNL A   1      45.364  25.609  27.416  1.00  0.00     0.016 A 
ATOM     43  C   UNL A   1      44.522  27.911  26.045  1.00  0.00     0.010 A 
ATOM     44  C   UNL A   1      45.053  26.771  28.124  1.00  0.00     0.010 A 
ATOM     45  C   UNL A   1      44.668  27.936  27.438  1.00  0.00    -0.014 A 
BRANCH  45  46
ATOM     46  C   UNL A   1      44.632  29.238  28.142  1.00  0.00     0.031 A 
ATOM     47  C   UNL A   1      43.327  29.675  28.750  1.00  0.00     0.074 A 
ATOM     48  C   UNL A   1      45.730  30.003  28.262  1.00  0.00     0.049 A 
ATOM     49  N   UNL A   1      43.045  30.760  29.419  1.00  0.00    -0.248 NA
ATOM     50  C   UNL A   1      42.184  28.759  28.578  1.00  0.00     0.031 C 
ATOM     51  C   UNL A   1      47.049  29.682  27.724  1.00  0.00     0.029 A 
ATOM     52  N   UNL A   1      45.898  31.224  28.866  1.00  0.00    -0.354 N 
ATOM     53  C   UNL A   1      41.693  30.674  29.725  1.00  0.00     0.074 A 
ATOM     54  C   UNL A   1      41.204  29.438  29.156  1.00  0.00     0.031 C 
ATOM     55  C   UNL A   1      47.888  30.696  28.000  1.00  0.00     0.029 A 
ATOM     56  C   UNL A   1      47.160  31.744  28.712  1.00  0.00     0.049 A 
ATOM     57  H   UNL A   1      45.182  31.684  29.362  1.00  0.00     0.167 HD
ATOM     58  C   UNL A   1      40.926  31.539  30.429  1.00  0.00     0.034 A 
ATOM     59  C   UNL A   1      47.659  32.939  29.088  1.00  0.00     0.034 A 
ATOM     60  C   UNL A   1      41.415  32.764  30.998  1.00  0.00     0.049 A 
ATOM     61  C   UNL A   1      46.776  33.900  29.844  1.00  0.00     0.074 A 
ATOM     62  C   UNL A   1      40.730  33.690  31.763  1.00  0.00     0.029 A 
ATOM     63  N   UNL A   1      42.706  33.246  30.847  1.00  0.00    -0.354 N 
ATOM     64  N   UNL A   1      45.531  33.754  30.229  1.00  0.00    -0.248 NA
ATOM     65  C   UNL A   1      47.381  35.178  30.251  1.00  0.00     0.031 C 
ATOM     66  C   UNL A   1      41.597  34.752  32.043  1.00  0.00     0.029 A 
ATOM     67  C   UNL A   1      42.835  34.463  31.492  1.00  0.00     0.049 A 
ATOM     68  H   UNL A   1      43.426  32.788  30.355  1.00  0.00     0.167 HD
ATOM     69  C   UNL A   1      45.216  34.899  30.953  1.00  0.00     0.074 A 
ATOM     70  C   UNL A   1      46.409  35.719  30.973  1.00  0.00     0.031 C 
ATOM     71  C   UNL A   1      44.044  35.247  31.542  1.00  0.00     0.034 A 
BRANCH  58  72
ATOM     72  C   UNL A   1      39.477  31.184  30.624  1.00  0.00     0.023 A 
ATOM     73  C   UNL A   1      39.114  30.208  31.575  1.00  0.00     0.012 A 
ATOM     74  C   UNL A   1      38.471  31.847  29.895  1.00  0.00     0.148 A 
ATOM     75  C   UNL A   1      37.774  29.873  31.772  1.00  0.00     0.002 A 
ATOM     76  C   UNL A   1      37.136  31.543  30.132  1.00  0.00     0.091 A 
ATOM     77  F   UNL A   1      38.839  32.753  28.977  1.00  0.00    -0.205 F 
ATOM     78  C   UNL A   1      36.786  30.548  31.060  1.00  0.00     0.022 A 
BRANCH  76  79
ATOM     79  S   UNL A   1      35.788  32.413  29.325  1.00  0.00     0.127 S 
ATOM     80  O   UNL A   1      35.718  31.720  28.039  1.00  0.00    -0.237 OA
ATOM     81  O   UNL A   1      34.667  32.140  30.226  1.00  0.00    -0.237 OA
ATOM     82  O   UNL A   1      36.191  33.810  29.259  1.00  0.00    -0.744 OA
ENDBRANCH  76  79
ENDBRANCH  58  72
BRANCH  59  83
ATOM     83  C   UNL A   1      49.075  33.291  28.778  1.00  0.00     0.023 A 
ATOM     84  C   UNL A   1      50.084  33.031  29.727  1.00  0.00     0.012 A 
ATOM     85  C   UNL A   1      49.423  33.883  27.550  1.00  0.00     0.148 A 
ATOM     86  C   UNL A   1      51.408  33.388  29.471  1.00  0.00     0.002 A 
ATOM     87  C   UNL A   1      50.752  34.183  27.277  1.00  0.00     0.091 A 
ATOM     88  F   UNL A   1      48.446  34.137  26.667  1.00  0.00    -0.205 F 
ATOM     89  C   UNL A   1      51.744  33.955  28.244  1.00  0.00     0.022 A 
BRANCH  87  90
ATOM     90  S   UNL A   1      51.296  34.796  25.680  1.00  0.00     0.127 S 
ATOM     91  O   UNL A   1      50.784  33.772  24.774  1.00  0.00    -0.237 OA
ATOM     92  O   UNL A   1      50.608  36.086  25.605  1.00  0.00    -0.237 OA
ATOM     93  O   UNL A   1      52.747  34.893  25.767  1.00  0.00    -0.744 OA
ENDBRANCH  87  90
ENDBRANCH  59  83
BRANCH  71  94
ATOM     94  C   UNL A   1      44.000  36.551  32.299  1.00  0.00     0.023 A 
ATOM     95  C   UNL A   1      44.247  36.573  33.687  1.00  0.00     0.012 A 
ATOM     96  C   UNL A   1      43.775  37.765  31.619  1.00  0.00     0.148 A 
ATOM     97  C   UNL A   1      44.224  37.776  34.392  1.00  0.00     0.002 A 
ATOM     98  C   UNL A   1      43.809  38.965  32.319  1.00  0.00     0.091 A 
ATOM     99  F   UNL A   1      43.529  37.725  30.302  1.00  0.00    -0.205 F 
ATOM    100  C   UNL A   1      44.018  38.971  33.708  1.00  0.00     0.022 A 
BRANCH  98 101
ATOM    101  S   UNL A   1      43.655  40.559  31.505  1.00  0.00     0.127 S 
ATOM    102  O   UNL A   1      43.339  41.438  32.630  1.00  0.00    -0.237 OA
ATOM    103  O   UNL A   1      44.991  40.749  30.940  1.00  0.00    -0.237 OA
ATOM    104  O   UNL A   1      42.597  40.405  30.516  1.00  0.00    -0.744 OA
ENDBRANCH  98 101
ENDBRANCH  71  94
ENDBRANCH  45  46
ENDBRANCH  38  40
ENDBRANCH  37  38
ENDBRANCH  36  37
ENDBRANCH  35  36
ENDBRANCH  34  35
ENDBRANCH  33  34
ENDBRANCH   1  33
TORSDOF 28
ENDMDL
MODEL 3
REMARK VINA RESULT:      -9.4      2.157      2.464
REMARK SMILES CCCc1cc(OC(F)(F)F)cc2c1O[C@H](C(F)(F)F)C(C(=O)OCCOCCOCCOCCOC(=O)c1ccc(-c3c4nc(c(-c5cccc(S(=O)(=O)[O-])c5F)c5ccc([nH]5)c(-c5cccc(S(=O)(=O)[O-])c5F)c5nc(c(-c6cccc(S(=O)(=O)[O-])c6F)c6ccc3[nH]6)C=C5)C=C4)cc1)=C2
REMARK SMILES IDX 31 1 30 2 29 3 28 4 27 5 26 6 25 7 24 8 22 9 23 10 21 11
REMARK SMILES IDX 4 12 5 13 14 14 6 15 13 16 15 17 12 18 102 19 16 20 3 21
REMARK SMILES IDX 2 22 1 23 7 24 8 25 9 26 10 27 11 28 17 29 18 30 19 31 20 32
REMARK SMILES IDX 32 33 33 34 34 35 35 36 36 37 37 38 38 39 39 40 40 41 101 42
REMARK SMILES IDX 41 43 100 44 42 45 43 46 44 47 94 48 45 49 99 50 93 51 95 52
REMARK SMILES IDX 46 53 98 54 92 55 91 56 47 58 79 59 59 60 78 61 60 62 63 63
REMARK SMILES IDX 77 64 96 65 61 66 62 67 76 69 97 70 64 71 48 72 49 73 57 74
REMARK SMILES IDX 50 75 52 76 58 77 51 78 53 79 54 80 55 81 56 82 80 83 81 84
REMARK SMILES IDX 89 85 82 86 84 87 90 88 83 89 85 90 86 91 87 92 88 93 65 94
REMARK SMILES IDX 66 95 74 96 67 97 69 98 75 99 68 100 70 101 71 102 72 103
REMARK SMILES IDX 73 104
REMARK H PARENT 95 57 63 68
REMARK Flexibility Score: inf
ROOT
ATOM      1  C   UNL A   1      36.589  21.070  25.362  1.00  0.00     0.188 C 
ENDROOT
BRANCH   1   2
ATOM      2  O   UNL A   1      35.606  20.500  24.507  1.00  0.00    -0.377 OA
BRANCH   2   3
ATOM      3  C   UNL A   1      34.801  19.434  24.976  1.00  0.00     0.188 C 
BRANCH   3   4
ATOM      4  C   UNL A   1      33.275  19.649  25.108  1.00  0.00     0.188 C 
BRANCH   4   5
ATOM      5  O   UNL A   1      32.917  20.714  25.967  1.00  0.00    -0.376 OA
BRANCH   5   6
ATOM      6  C   UNL A   1      32.694  21.995  25.415  1.00  0.00     0.202 C 
BRANCH   6   7
ATOM      7  C   UNL A   1      32.701  22.201  23.892  1.00  0.00     0.261 C 
BRANCH   7   8
ATOM      8  O   UNL A   1      33.757  22.995  23.338  1.00  0.00    -0.460 OA
BRANCH   8   9
ATOM      9  C   UNL A   1      33.465  23.821  22.313  1.00  0.00     0.338 C 
ATOM     10  O   UNL A   1      33.613  23.578  21.126  1.00  0.00    -0.246 OA
BRANCH   9  11
ATOM     11  C   UNL A   1      32.783  25.034  22.817  1.00  0.00     0.087 C 
ATOM     12  C   UNL A   1      30.936  28.725  23.164  1.00  0.00    -0.002 A 
ATOM     13  C   UNL A   1      31.379  29.603  24.163  1.00  0.00     0.054 A 
ATOM     14  C   UNL A   1      31.640  27.530  22.996  1.00  0.00     0.131 A 
ATOM     15  C   UNL A   1      32.535  29.335  24.908  1.00  0.00     0.130 A 
ATOM     16  C   UNL A   1      32.757  27.208  23.787  1.00  0.00     0.021 A 
ATOM     17  O   UNL A   1      31.191  26.672  22.013  1.00  0.00    -0.475 OA
ATOM     18  C   UNL A   1      33.207  28.122  24.737  1.00  0.00     0.058 A 
ATOM     19  C   UNL A   1      33.455  25.951  23.531  1.00  0.00     0.027 C 
ATOM     20  C   UNL A   1      31.359  25.279  22.373  1.00  0.00     0.316 C 
BRANCH  12  21
ATOM     21  C   UNL A   1      29.721  28.973  22.297  1.00  0.00     0.039 C 
BRANCH  21  22
ATOM     22  C   UNL A   1      28.492  29.618  22.937  1.00  0.00     0.001 C 
ATOM     23  C   UNL A   1      27.413  28.609  23.307  1.00  0.00     0.004 C 
ENDBRANCH  21  22
ENDBRANCH  12  21
BRANCH  15  24
ATOM     24  O   UNL A   1      33.086  30.183  25.829  1.00  0.00    -0.406 OA
BRANCH  24  25
ATOM     25  C   UNL A   1      32.194  30.747  26.779  1.00  0.00     0.573 C 
ATOM     26  F   UNL A   1      31.247  31.511  26.189  1.00  0.00    -0.132 F 
ATOM     27  F   UNL A   1      31.592  29.777  27.502  1.00  0.00    -0.132 F 
ATOM     28  F   UNL A   1      32.890  31.530  27.631  1.00  0.00    -0.132 F 
ENDBRANCH  24  25
ENDBRANCH  15  24
BRANCH  20  29
ATOM     29  C   UNL A   1      30.228  24.870  23.352  1.00  0.00     0.430 C 
ATOM     30  F   UNL A   1      29.168  25.711  23.342  1.00  0.00    -0.167 F 
ATOM     31  F   UNL A   1      29.750  23.638  23.034  1.00  0.00    -0.167 F 
ATOM     32  F   UNL A   1      30.644  24.787  24.632  1.00  0.00    -0.167 F 
ENDBRANCH  20  29
ENDBRANCH   9  11
ENDBRANCH   8   9
ENDBRANCH   7   8
ENDBRANCH   6   7
ENDBRANCH   5   6
ENDBRANCH   4   5
ENDBRANCH   3   4
ENDBRANCH   2   3
ENDBRANCH   1   2
BRANCH   1  33
ATOM     33  C   UNL A   1      38.031  21.347  24.869  1.00  0.00     0.188 C 
BRANCH  33  34
ATOM     34  O   UNL A   1      38.875  22.003  25.800  1.00  0.00    -0.376 OA
BRANCH  34  35
ATOM     35  C   UNL A   1      39.628  21.211  26.699  1.00  0.00     0.202 C 
BRANCH  35  36
ATOM     36  C   UNL A   1      40.634  20.232  26.081  1.00  0.00     0.261 C 
BRANCH  36  37
ATOM     37  O   UNL A   1      41.932  20.206  26.687  1.00  0.00    -0.460 OA
BRANCH  37  38
ATOM     38  C   UNL A   1      42.887  20.971  26.110  1.00  0.00     0.338 C 
ATOM     39  O   UNL A   1      43.574  20.686  25.153  1.00  0.00    -0.246 OA
BRANCH  38  40
ATOM     40  C   UNL A   1      42.810  22.311  26.728  1.00  0.00     0.060 A 
ATOM     41  C   UNL A   1      42.677  23.431  25.898  1.00  0.00     0.016 A 
ATOM     42  C   UNL A   1      42.840  22.453  28.118  1.00  0.00     0.016 A 
ATOM     43  C   UNL A   1      42.607  24.704  26.457  1.00  0.00     0.010 A 
ATOM     44  C   UNL A   1      42.798  23.732  28.675  1.00  0.00     0.010 A 
ATOM     45  C   UNL A   1      42.720  24.863  27.844  1.00  0.00    -0.014 A 
BRANCH  45  46
ATOM     46  C   UNL A   1      42.979  26.212  28.395  1.00  0.00     0.031 A 
ATOM     47  C   UNL A   1      44.402  26.698  28.429  1.00  0.00     0.074 A 
ATOM     48  C   UNL A   1      41.980  26.998  28.830  1.00  0.00     0.049 A 
ATOM     49  N   UNL A   1      44.880  27.837  28.853  1.00  0.00    -0.248 NA
ATOM     50  C   UNL A   1      45.426  25.769  27.915  1.00  0.00     0.031 C 
ATOM     51  C   UNL A   1      40.563  26.640  28.839  1.00  0.00     0.029 A 
ATOM     52  N   UNL A   1      42.015  28.260  29.369  1.00  0.00    -0.354 N 
ATOM     53  C   UNL A   1      46.257  27.755  28.683  1.00  0.00     0.074 A 
ATOM     54  C   UNL A   1      46.541  26.449  28.132  1.00  0.00     0.031 C 
ATOM     55  C   UNL A   1      39.864  27.652  29.383  1.00  0.00     0.029 A 
ATOM     56  C   UNL A   1      40.786  28.715  29.781  1.00  0.00     0.049 A 
ATOM     57  H   UNL A   1      42.842  28.788  29.453  1.00  0.00     0.167 HD
ATOM     58  C   UNL A   1      47.201  28.688  28.948  1.00  0.00     0.034 A 
ATOM     59  C   UNL A   1      40.451  29.853  30.423  1.00  0.00     0.034 A 
ATOM     60  C   UNL A   1      46.915  29.987  29.490  1.00  0.00     0.049 A 
ATOM     61  C   UNL A   1      41.526  30.864  30.736  1.00  0.00     0.074 A 
ATOM     62  C   UNL A   1      47.795  31.019  29.757  1.00  0.00     0.029 A 
ATOM     63  N   UNL A   1      45.655  30.426  29.869  1.00  0.00    -0.354 N 
ATOM     64  N   UNL A   1      42.808  30.822  30.462  1.00  0.00    -0.248 NA
ATOM     65  C   UNL A   1      41.100  32.097  31.415  1.00  0.00     0.031 C 
ATOM     66  C   UNL A   1      47.072  32.070  30.334  1.00  0.00     0.029 A 
ATOM     67  C   UNL A   1      45.736  31.708  30.382  1.00  0.00     0.049 A 
ATOM     68  H   UNL A   1      44.826  29.902  29.784  1.00  0.00     0.167 HD
ATOM     69  C   UNL A   1      43.333  32.035  30.899  1.00  0.00     0.074 A 
ATOM     70  C   UNL A   1      42.225  32.798  31.434  1.00  0.00     0.031 C 
ATOM     71  C   UNL A   1      44.617  32.474  30.869  1.00  0.00     0.034 A 
BRANCH  58  72
ATOM     72  C   UNL A   1      48.632  28.333  28.649  1.00  0.00     0.023 A 
ATOM     73  C   UNL A   1      49.444  27.772  29.656  1.00  0.00     0.012 A 
ATOM     74  C   UNL A   1      49.162  28.517  27.357  1.00  0.00     0.148 A 
ATOM     75  C   UNL A   1      50.771  27.432  29.392  1.00  0.00     0.002 A 
ATOM     76  C   UNL A   1      50.469  28.129  27.088  1.00  0.00     0.091 A 
ATOM     77  F   UNL A   1      48.383  29.076  26.421  1.00  0.00    -0.205 F 
ATOM     78  C   UNL A   1      51.279  27.599  28.107  1.00  0.00     0.022 A 
BRANCH  76  79
ATOM     79  S   UNL A   1      51.189  28.230  25.447  1.00  0.00     0.127 S 
ATOM     80  O   UNL A   1      50.186  27.534  24.641  1.00  0.00    -0.237 OA
ATOM     81  O   UNL A   1      51.250  29.676  25.229  1.00  0.00    -0.237 OA
ATOM     82  O   UNL A   1      52.484  27.572  25.533  1.00  0.00    -0.744 OA
ENDBRANCH  76  79
ENDBRANCH  58  72
BRANCH  59  83
ATOM     83  C   UNL A   1      39.031  30.114  30.795  1.00  0.00     0.023 A 
ATOM     84  C   UNL A   1      38.508  29.573  31.986  1.00  0.00     0.012 A 
ATOM     85  C   UNL A   1      38.197  30.894  29.971  1.00  0.00     0.148 A 
ATOM     86  C   UNL A   1      37.172  29.775  32.332  1.00  0.00     0.002 A 
ATOM     87  C   UNL A   1      36.883  31.140  30.350  1.00  0.00     0.091 A 
ATOM     88  F   UNL A   1      38.708  31.386  28.834  1.00  0.00    -0.205 F 
ATOM     89  C   UNL A   1      36.362  30.564  31.520  1.00  0.00     0.022 A 
BRANCH  87  90
ATOM     90  S   UNL A   1      35.805  32.246  29.435  1.00  0.00     0.127 S 
ATOM     91  O   UNL A   1      35.719  31.578  28.139  1.00  0.00    -0.237 OA
ATOM     92  O   UNL A   1      34.580  32.199  30.235  1.00  0.00    -0.237 OA
ATOM     93  O   UNL A   1      36.474  33.540  29.436  1.00  0.00    -0.744 OA
ENDBRANCH  87  90
ENDBRANCH  59  83
BRANCH  71  94
ATOM     94  C   UNL A   1      44.893  33.864  31.387  1.00  0.00     0.023 A 
ATOM     95  C   UNL A   1      44.813  34.972  30.520  1.00  0.00     0.012 A 
ATOM     96  C   UNL A   1      45.172  34.074  32.753  1.00  0.00     0.148 A 
ATOM     97  C   UNL A   1      45.052  36.262  30.995  1.00  0.00     0.002 A 
ATOM     98  C   UNL A   1      45.354  35.367  33.229  1.00  0.00     0.091 A 
ATOM     99  F   UNL A   1      45.257  33.008  33.561  1.00  0.00    -0.205 F 
ATOM    100  C   UNL A   1      45.310  36.460  32.349  1.00  0.00     0.022 A 
BRANCH  98 101
ATOM    101  S   UNL A   1      45.590  35.726  34.974  1.00  0.00     0.127 S 
ATOM    102  O   UNL A   1      45.854  37.164  34.949  1.00  0.00    -0.237 OA
ATOM    103  O   UNL A   1      44.295  35.354  35.544  1.00  0.00    -0.237 OA
ATOM    104  O   UNL A   1      46.703  34.894  35.409  1.00  0.00    -0.744 OA
ENDBRANCH  98 101
ENDBRANCH  71  94
ENDBRANCH  45  46
ENDBRANCH  38  40
ENDBRANCH  37  38
ENDBRANCH  36  37
ENDBRANCH  35  36
ENDBRANCH  34  35
ENDBRANCH  33  34
ENDBRANCH   1  33
TORSDOF 28
ENDMDL
