MODEL 1
REMARK VINA RESULT:      -9.0      0.000      0.000
REMARK SMILES O=C(N[C@@H](Cc1c[nH]c2ccccc12)C(=O)N[C@@H](CO)C(=O)OCCOCCOCCOCCOC(=O)c1ccc(-c2c3nc(c(-c4cccc(S(=O)(=O)[O-])c4F)c4ccc([nH]4)c(-c4cccc(S(=O)(=O)[O-])c4F)c4nc(c(-c5cccc(S(=O)(=O)[O-])c5F)c5ccc2[nH]5)C=C4)C=C3)cc1)c1ccc(F)cc1
REMARK SMILES IDX 28 1 27 2 26 3 25 4 24 5 23 6 21 7 22 8 18 9 17 10 15 11
REMARK SMILES IDX 16 12 4 14 3 15 1 16 2 17 101 19 102 20 107 21 103 22 106 23
REMARK SMILES IDX 104 24 105 25 5 26 6 27 7 28 14 29 8 30 9 31 13 32 10 34
REMARK SMILES IDX 12 35 11 36 19 37 20 38 29 40 30 41 31 42 32 43 33 44 34 45
REMARK SMILES IDX 35 46 36 47 37 48 38 49 39 50 100 51 40 52 99 53 41 54 42 55
REMARK SMILES IDX 43 56 93 57 44 58 98 59 92 60 94 61 45 62 97 63 91 64 90 65
REMARK SMILES IDX 46 67 78 68 58 69 77 70 59 71 62 72 76 73 95 74 60 75 61 76
REMARK SMILES IDX 75 78 96 79 63 80 47 81 48 82 56 83 49 84 51 85 57 86 50 87
REMARK SMILES IDX 52 88 53 89 54 90 55 91 79 92 80 93 88 94 81 95 83 96 89 97
REMARK SMILES IDX 82 98 84 99 85 100 86 101 87 102 64 103 65 104 73 105 66 106
REMARK SMILES IDX 68 107 74 108 67 109 69 110 70 111 71 112 72 113
REMARK H PARENT 17 13 3 18 8 33 20 39 94 66 62 77
REMARK Flexibility Score: inf
ROOT
ATOM      1  C   UNL A   1      36.058  29.952  28.240  1.00  0.00     0.188 C 
ENDROOT
BRANCH   1   2
ATOM      2  C   UNL A   1      35.041  29.505  27.184  1.00  0.00     0.188 C 
BRANCH   2   3
ATOM      3  O   UNL A   1      33.833  28.994  27.723  1.00  0.00    -0.376 OA
BRANCH   3   4
ATOM      4  C   UNL A   1      32.646  29.409  27.062  1.00  0.00     0.202 C 
BRANCH   4   5
ATOM      5  C   UNL A   1      31.820  28.333  26.323  1.00  0.00     0.261 C 
BRANCH   5   6
ATOM      6  O   UNL A   1      31.821  28.385  24.872  1.00  0.00    -0.462 OA
BRANCH   6   7
ATOM      7  C   UNL A   1      32.960  28.067  24.193  1.00  0.00     0.331 C 
ATOM      8  O   UNL A   1      33.896  27.450  24.696  1.00  0.00    -0.250 OA
BRANCH   7   9
ATOM      9  C   UNL A   1      32.911  28.451  22.653  1.00  0.00     0.218 C 
BRANCH   9  10
ATOM     10  N   UNL A   1      33.187  27.368  21.660  1.00  0.00    -0.339 N 
ATOM     11  C   UNL A   1      32.912  26.030  21.546  1.00  0.00     0.243 C 
ATOM     12  O   UNL A   1      33.194  25.541  20.438  1.00  0.00    -0.273 OA
ATOM     13  H   UNL A   1      33.699  27.702  20.889  1.00  0.00     0.164 HD
BRANCH  11  14
ATOM     14  C   UNL A   1      32.266  25.048  22.606  1.00  0.00     0.176 C 
BRANCH  14  15
ATOM     15  N   UNL A   1      31.090  25.603  23.270  1.00  0.00    -0.340 N 
ATOM     16  O   UNL A   1      29.494  25.777  24.845  1.00  0.00    -0.269 OA
ATOM     17  C   UNL A   1      30.592  25.328  24.522  1.00  0.00     0.251 C 
ATOM     18  H   UNL A   1      30.582  26.266  22.749  1.00  0.00     0.164 HD
BRANCH  17  19
ATOM     19  C   UNL A   1      31.311  24.454  25.489  1.00  0.00     0.040 A 
ATOM     20  C   UNL A   1      32.604  24.739  25.951  1.00  0.00     0.017 A 
ATOM     21  C   UNL A   1      30.613  23.357  26.023  1.00  0.00     0.017 A 
ATOM     22  C   UNL A   1      33.207  23.904  26.899  1.00  0.00     0.040 A 
ATOM     23  C   UNL A   1      31.216  22.532  26.976  1.00  0.00     0.040 A 
ATOM     24  C   UNL A   1      32.510  22.810  27.402  1.00  0.00     0.123 A 
ATOM     25  F   UNL A   1      33.085  22.020  28.318  1.00  0.00    -0.207 F 
ENDBRANCH  17  19
ENDBRANCH  14  15
BRANCH  14  26
ATOM     26  C   UNL A   1      32.171  23.498  22.355  1.00  0.00     0.072 C 
BRANCH  26  27
ATOM     27  C   UNL A   1      32.999  22.616  23.242  1.00  0.00    -0.020 A 
ATOM     28  C   UNL A   1      32.533  21.402  23.638  1.00  0.00     0.087 A 
ATOM     29  C   UNL A   1      34.377  22.597  23.664  1.00  0.00     0.003 A 
ATOM     30  N   UNL A   1      33.370  20.785  24.496  1.00  0.00    -0.361 N 
ATOM     31  C   UNL A   1      34.572  21.424  24.416  1.00  0.00     0.046 A 
ATOM     32  C   UNL A   1      35.514  23.397  23.435  1.00  0.00     0.010 A 
ATOM     33  H   UNL A   1      33.154  20.018  25.073  1.00  0.00     0.166 HD
ATOM     34  C   UNL A   1      35.797  20.996  24.922  1.00  0.00     0.026 A 
ATOM     35  C   UNL A   1      36.765  22.972  23.924  1.00  0.00     0.001 A 
ATOM     36  C   UNL A   1      36.903  21.787  24.647  1.00  0.00     0.002 A 
ENDBRANCH  26  27
ENDBRANCH  14  26
ENDBRANCH  11  14
ENDBRANCH   9  10
BRANCH   9  37
ATOM     37  C   UNL A   1      31.548  29.108  22.421  1.00  0.00     0.193 C 
BRANCH  37  38
ATOM     38  O   UNL A   1      30.609  28.192  21.878  1.00  0.00    -0.394 OA
ATOM     39  H   UNL A   1      30.954  27.289  21.961  1.00  0.00     0.210 HD
ENDBRANCH  37  38
ENDBRANCH   9  37
ENDBRANCH   7   9
ENDBRANCH   6   7
ENDBRANCH   5   6
ENDBRANCH   4   5
ENDBRANCH   3   4
ENDBRANCH   2   3
ENDBRANCH   1   2
BRANCH   1  40
ATOM     40  O   UNL A   1      36.945  31.002  27.911  1.00  0.00    -0.377 OA
BRANCH  40  41
ATOM     41  C   UNL A   1      36.677  32.289  28.443  1.00  0.00     0.188 C 
BRANCH  41  42
ATOM     42  C   UNL A   1      35.399  33.028  27.996  1.00  0.00     0.188 C 
BRANCH  42  43
ATOM     43  O   UNL A   1      34.297  32.928  28.891  1.00  0.00    -0.376 OA
BRANCH  43  44
ATOM     44  C   UNL A   1      34.409  33.609  30.133  1.00  0.00     0.202 C 
BRANCH  44  45
ATOM     45  C   UNL A   1      34.877  32.773  31.330  1.00  0.00     0.261 C 
BRANCH  45  46
ATOM     46  O   UNL A   1      36.187  33.072  31.834  1.00  0.00    -0.460 OA
BRANCH  46  47
ATOM     47  C   UNL A   1      36.576  32.504  32.996  1.00  0.00     0.338 C 
ATOM     48  O   UNL A   1      35.922  32.390  34.018  1.00  0.00    -0.246 OA
BRANCH  47  49
ATOM     49  C   UNL A   1      37.868  31.833  32.735  1.00  0.00     0.060 A 
ATOM     50  C   UNL A   1      38.128  30.600  33.351  1.00  0.00     0.016 A 
ATOM     51  C   UNL A   1      38.768  32.367  31.809  1.00  0.00     0.016 A 
ATOM     52  C   UNL A   1      39.300  29.905  33.053  1.00  0.00     0.010 A 
ATOM     53  C   UNL A   1      39.958  31.690  31.539  1.00  0.00     0.010 A 
ATOM     54  C   UNL A   1      40.242  30.472  32.184  1.00  0.00    -0.014 A 
BRANCH  54  55
ATOM     55  C   UNL A   1      41.627  29.947  32.166  1.00  0.00     0.031 A 
ATOM     56  C   UNL A   1      41.970  28.958  31.087  1.00  0.00     0.074 A 
ATOM     57  C   UNL A   1      42.544  30.308  33.079  1.00  0.00     0.049 A 
ATOM     58  N   UNL A   1      43.086  28.316  30.872  1.00  0.00    -0.248 NA
ATOM     59  C   UNL A   1      40.901  28.647  30.119  1.00  0.00     0.031 C 
ATOM     60  C   UNL A   1      42.334  31.260  34.167  1.00  0.00     0.029 A 
ATOM     61  N   UNL A   1      43.840  29.885  33.246  1.00  0.00    -0.354 N 
ATOM     62  C   UNL A   1      42.848  27.510  29.766  1.00  0.00     0.074 A 
ATOM     63  C   UNL A   1      41.481  27.734  29.357  1.00  0.00     0.031 C 
ATOM     64  C   UNL A   1      43.453  31.321  34.913  1.00  0.00     0.029 A 
ATOM     65  C   UNL A   1      44.448  30.399  34.367  1.00  0.00     0.049 A 
ATOM     66  H   UNL A   1      44.292  29.271  32.621  1.00  0.00     0.167 HD
ATOM     67  C   UNL A   1      43.694  26.665  29.136  1.00  0.00     0.034 A 
ATOM     68  C   UNL A   1      45.659  30.131  34.899  1.00  0.00     0.034 A 
ATOM     69  C   UNL A   1      45.053  26.441  29.541  1.00  0.00     0.049 A 
ATOM     70  C   UNL A   1      46.574  29.157  34.197  1.00  0.00     0.074 A 
ATOM     71  C   UNL A   1      46.003  25.632  28.948  1.00  0.00     0.029 A 
ATOM     72  N   UNL A   1      45.647  27.013  30.654  1.00  0.00    -0.354 N 
ATOM     73  N   UNL A   1      46.380  28.496  33.081  1.00  0.00    -0.248 NA
ATOM     74  C   UNL A   1      47.890  28.917  34.811  1.00  0.00     0.031 C 
ATOM     75  C   UNL A   1      47.167  25.692  29.722  1.00  0.00     0.029 A 
ATOM     76  C   UNL A   1      46.950  26.567  30.774  1.00  0.00     0.049 A 
ATOM     77  H   UNL A   1      45.207  27.645  31.269  1.00  0.00     0.167 HD
ATOM     78  C   UNL A   1      47.560  27.798  32.837  1.00  0.00     0.074 A 
ATOM     79  C   UNL A   1      48.470  28.128  33.915  1.00  0.00     0.031 C 
ATOM     80  C   UNL A   1      47.863  26.954  31.819  1.00  0.00     0.034 A 
BRANCH  67  81
ATOM     81  C   UNL A   1      43.171  25.929  27.933  1.00  0.00     0.023 A 
ATOM     82  C   UNL A   1      43.263  26.522  26.657  1.00  0.00     0.012 A 
ATOM     83  C   UNL A   1      42.620  24.641  28.062  1.00  0.00     0.148 A 
ATOM     84  C   UNL A   1      42.786  25.854  25.530  1.00  0.00     0.002 A 
ATOM     85  C   UNL A   1      42.191  23.962  26.929  1.00  0.00     0.091 A 
ATOM     86  F   UNL A   1      42.514  24.110  29.289  1.00  0.00    -0.205 F 
ATOM     87  C   UNL A   1      42.261  24.572  25.665  1.00  0.00     0.022 A 
BRANCH  85  88
ATOM     88  S   UNL A   1      41.572  22.278  26.987  1.00  0.00     0.127 S 
ATOM     89  O   UNL A   1      42.531  21.643  27.890  1.00  0.00    -0.237 OA
ATOM     90  O   UNL A   1      40.234  22.463  27.549  1.00  0.00    -0.237 OA
ATOM     91  O   UNL A   1      41.593  21.793  25.615  1.00  0.00    -0.744 OA
ENDBRANCH  85  88
ENDBRANCH  67  81
BRANCH  68  92
ATOM     92  C   UNL A   1      46.096  30.811  36.153  1.00  0.00     0.023 A 
ATOM     93  C   UNL A   1      46.778  32.041  36.077  1.00  0.00     0.012 A 
ATOM     94  C   UNL A   1      45.844  30.243  37.417  1.00  0.00     0.148 A 
ATOM     95  C   UNL A   1      47.232  32.677  37.235  1.00  0.00     0.002 A 
ATOM     96  C   UNL A   1      46.249  30.909  38.569  1.00  0.00     0.091 A 
ATOM     97  F   UNL A   1      45.213  29.062  37.469  1.00  0.00    -0.205 F 
ATOM     98  C   UNL A   1      46.958  32.116  38.480  1.00  0.00     0.022 A 
BRANCH  96  99
ATOM     99  S   UNL A   1      45.835  30.325  40.216  1.00  0.00     0.127 S 
ATOM    100  O   UNL A   1      44.374  30.319  40.174  1.00  0.00    -0.237 OA
ATOM    101  O   UNL A   1      46.456  29.000  40.229  1.00  0.00    -0.237 OA
ATOM    102  O   UNL A   1      46.436  31.281  41.135  1.00  0.00    -0.744 OA
ENDBRANCH  96  99
ENDBRANCH  68  92
BRANCH  80 103
ATOM    103  C   UNL A   1      49.248  26.362  31.776  1.00  0.00     0.023 A 
ATOM    104  C   UNL A   1      49.497  25.104  32.358  1.00  0.00     0.012 A 
ATOM    105  C   UNL A   1      50.279  27.015  31.071  1.00  0.00     0.148 A 
ATOM    106  C   UNL A   1      50.758  24.518  32.264  1.00  0.00     0.002 A 
ATOM    107  C   UNL A   1      51.519  26.402  30.937  1.00  0.00     0.091 A 
ATOM    108  F   UNL A   1      50.027  28.219  30.537  1.00  0.00    -0.205 F 
ATOM    109  C   UNL A   1      51.764  25.160  31.543  1.00  0.00     0.022 A 
BRANCH 107 110
ATOM    110  S   UNL A   1      52.838  27.106  29.943  1.00  0.00     0.127 S 
ATOM    111  O   UNL A   1      53.887  26.096  30.079  1.00  0.00    -0.237 OA
ATOM    112  O   UNL A   1      52.225  27.173  28.615  1.00  0.00    -0.237 OA
ATOM    113  O   UNL A   1      53.141  28.403  30.534  1.00  0.00    -0.744 OA
ENDBRANCH 107 110
ENDBRANCH  80 103
ENDBRANCH  54  55
ENDBRANCH  47  49
ENDBRANCH  46  47
ENDBRANCH  45  46
ENDBRANCH  44  45
ENDBRANCH  43  44
ENDBRANCH  42  43
ENDBRANCH  41  42
ENDBRANCH  40  41
ENDBRANCH   1  40
TORSDOF 31
ENDMDL
MODEL 2
REMARK VINA RESULT:      -8.4      4.321      6.501
REMARK SMILES O=C(N[C@@H](Cc1c[nH]c2ccccc12)C(=O)N[C@@H](CO)C(=O)OCCOCCOCCOCCOC(=O)c1ccc(-c2c3nc(c(-c4cccc(S(=O)(=O)[O-])c4F)c4ccc([nH]4)c(-c4cccc(S(=O)(=O)[O-])c4F)c4nc(c(-c5cccc(S(=O)(=O)[O-])c5F)c5ccc2[nH]5)C=C4)C=C3)cc1)c1ccc(F)cc1
REMARK SMILES IDX 28 1 27 2 26 3 25 4 24 5 23 6 21 7 22 8 18 9 17 10 15 11
REMARK SMILES IDX 16 12 4 14 3 15 1 16 2 17 101 19 102 20 107 21 103 22 106 23
REMARK SMILES IDX 104 24 105 25 5 26 6 27 7 28 14 29 8 30 9 31 13 32 10 34
REMARK SMILES IDX 12 35 11 36 19 37 20 38 29 40 30 41 31 42 32 43 33 44 34 45
REMARK SMILES IDX 35 46 36 47 37 48 38 49 39 50 100 51 40 52 99 53 41 54 42 55
REMARK SMILES IDX 43 56 93 57 44 58 98 59 92 60 94 61 45 62 97 63 91 64 90 65
REMARK SMILES IDX 46 67 78 68 58 69 77 70 59 71 62 72 76 73 95 74 60 75 61 76
REMARK SMILES IDX 75 78 96 79 63 80 47 81 48 82 56 83 49 84 51 85 57 86 50 87
REMARK SMILES IDX 52 88 53 89 54 90 55 91 79 92 80 93 88 94 81 95 83 96 89 97
REMARK SMILES IDX 82 98 84 99 85 100 86 101 87 102 64 103 65 104 73 105 66 106
REMARK SMILES IDX 68 107 74 108 67 109 69 110 70 111 71 112 72 113
REMARK H PARENT 17 13 3 18 8 33 20 39 94 66 62 77
REMARK Flexibility Score: inf
ROOT
ATOM      1  C   UNL A   1      36.092  30.089  28.223  1.00  0.00     0.188 C 
ENDROOT
BRANCH   1   2
ATOM      2  C   UNL A   1      35.079  29.782  27.114  1.00  0.00     0.188 C 
BRANCH   2   3
ATOM      3  O   UNL A   1      33.863  29.220  27.581  1.00  0.00    -0.376 OA
BRANCH   3   4
ATOM      4  C   UNL A   1      32.689  29.677  26.924  1.00  0.00     0.202 C 
BRANCH   4   5
ATOM      5  C   UNL A   1      31.783  28.621  26.252  1.00  0.00     0.261 C 
BRANCH   5   6
ATOM      6  O   UNL A   1      31.789  28.578  24.801  1.00  0.00    -0.462 OA
BRANCH   6   7
ATOM      7  C   UNL A   1      32.906  28.144  24.149  1.00  0.00     0.331 C 
ATOM      8  O   UNL A   1      33.780  27.468  24.686  1.00  0.00    -0.250 OA
BRANCH   7   9
ATOM      9  C   UNL A   1      32.908  28.480  22.597  1.00  0.00     0.218 C 
BRANCH   9  10
ATOM     10  N   UNL A   1      33.202  27.364  21.648  1.00  0.00    -0.339 N 
ATOM     11  C   UNL A   1      32.939  26.020  21.580  1.00  0.00     0.243 C 
ATOM     12  O   UNL A   1      33.236  25.494  20.494  1.00  0.00    -0.273 OA
ATOM     13  H   UNL A   1      33.720  27.673  20.870  1.00  0.00     0.164 HD
BRANCH  11  14
ATOM     14  C   UNL A   1      32.291  25.073  22.669  1.00  0.00     0.176 C 
BRANCH  14  15
ATOM     15  N   UNL A   1      31.153  25.675  23.359  1.00  0.00    -0.340 N 
ATOM     16  O   UNL A   1      29.595  25.908  24.964  1.00  0.00    -0.269 OA
ATOM     17  C   UNL A   1      30.666  25.411  24.618  1.00  0.00     0.251 C 
ATOM     18  H   UNL A   1      30.667  26.365  22.852  1.00  0.00     0.164 HD
BRANCH  17  19
ATOM     19  C   UNL A   1      31.361  24.497  25.564  1.00  0.00     0.040 A 
ATOM     20  C   UNL A   1      32.666  24.730  26.021  1.00  0.00     0.017 A 
ATOM     21  C   UNL A   1      30.629  23.416  26.085  1.00  0.00     0.017 A 
ATOM     22  C   UNL A   1      33.247  23.859  26.951  1.00  0.00     0.040 A 
ATOM     23  C   UNL A   1      31.211  22.555  27.020  1.00  0.00     0.040 A 
ATOM     24  C   UNL A   1      32.516  22.781  27.440  1.00  0.00     0.123 A 
ATOM     25  F   UNL A   1      33.070  21.956  28.339  1.00  0.00    -0.207 F 
ENDBRANCH  17  19
ENDBRANCH  14  15
BRANCH  14  26
ATOM     26  C   UNL A   1      32.136  23.524  22.439  1.00  0.00     0.072 C 
BRANCH  26  27
ATOM     27  C   UNL A   1      32.977  22.625  23.295  1.00  0.00    -0.020 A 
ATOM     28  C   UNL A   1      32.498  21.425  23.718  1.00  0.00     0.087 A 
ATOM     29  C   UNL A   1      34.371  22.572  23.659  1.00  0.00     0.003 A 
ATOM     30  N   UNL A   1      33.354  20.791  24.543  1.00  0.00    -0.361 N 
ATOM     31  C   UNL A   1      34.568  21.397  24.408  1.00  0.00     0.046 A 
ATOM     32  C   UNL A   1      35.518  23.340  23.377  1.00  0.00     0.010 A 
ATOM     33  H   UNL A   1      33.143  20.032  25.132  1.00  0.00     0.166 HD
ATOM     34  C   UNL A   1      35.801  20.940  24.864  1.00  0.00     0.026 A 
ATOM     35  C   UNL A   1      36.778  22.884  23.814  1.00  0.00     0.001 A 
ATOM     36  C   UNL A   1      36.915  21.700  24.538  1.00  0.00     0.002 A 
ENDBRANCH  26  27
ENDBRANCH  14  26
ENDBRANCH  11  14
ENDBRANCH   9  10
BRANCH   9  37
ATOM     37  C   UNL A   1      31.561  29.143  22.303  1.00  0.00     0.193 C 
BRANCH  37  38
ATOM     38  O   UNL A   1      30.554  28.183  22.019  1.00  0.00    -0.394 OA
ATOM     39  H   UNL A   1      30.798  27.332  22.416  1.00  0.00     0.210 HD
ENDBRANCH  37  38
ENDBRANCH   9  37
ENDBRANCH   7   9
ENDBRANCH   6   7
ENDBRANCH   5   6
ENDBRANCH   4   5
ENDBRANCH   3   4
ENDBRANCH   2   3
ENDBRANCH   1   2
BRANCH   1  40
ATOM     40  O   UNL A   1      36.985  31.168  28.032  1.00  0.00    -0.377 OA
BRANCH  40  41
ATOM     41  C   UNL A   1      36.609  32.438  28.536  1.00  0.00     0.188 C 
BRANCH  41  42
ATOM     42  C   UNL A   1      35.426  33.179  27.880  1.00  0.00     0.188 C 
BRANCH  42  43
ATOM     43  O   UNL A   1      34.229  33.213  28.651  1.00  0.00    -0.376 OA
BRANCH  43  44
ATOM     44  C   UNL A   1      34.119  34.240  29.627  1.00  0.00     0.202 C 
BRANCH  44  45
ATOM     45  C   UNL A   1      34.458  33.848  31.071  1.00  0.00     0.261 C 
BRANCH  45  46
ATOM     46  O   UNL A   1      35.459  34.645  31.720  1.00  0.00    -0.460 OA
BRANCH  46  47
ATOM     47  C   UNL A   1      35.337  34.879  33.046  1.00  0.00     0.338 C 
ATOM     48  O   UNL A   1      34.322  35.165  33.654  1.00  0.00    -0.246 OA
BRANCH  47  49
ATOM     49  C   UNL A   1      36.623  34.496  33.669  1.00  0.00     0.060 A 
ATOM     50  C   UNL A   1      36.609  33.894  34.936  1.00  0.00     0.016 A 
ATOM     51  C   UNL A   1      37.821  34.635  32.963  1.00  0.00     0.016 A 
ATOM     52  C   UNL A   1      37.799  33.444  35.507  1.00  0.00     0.010 A 
ATOM     53  C   UNL A   1      39.016  34.218  33.551  1.00  0.00     0.010 A 
ATOM     54  C   UNL A   1      39.012  33.650  34.837  1.00  0.00    -0.014 A 
BRANCH  54  55
ATOM     55  C   UNL A   1      40.286  33.538  35.585  1.00  0.00     0.031 A 
ATOM     56  C   UNL A   1      41.070  32.266  35.417  1.00  0.00     0.074 A 
ATOM     57  C   UNL A   1      40.729  34.511  36.401  1.00  0.00     0.049 A 
ATOM     58  N   UNL A   1      42.185  31.895  35.985  1.00  0.00    -0.248 NA
ATOM     59  C   UNL A   1      40.513  31.274  34.479  1.00  0.00     0.031 C 
ATOM     60  C   UNL A   1      40.062  35.788  36.642  1.00  0.00     0.029 A 
ATOM     61  N   UNL A   1      41.842  34.552  37.204  1.00  0.00    -0.354 N 
ATOM     62  C   UNL A   1      42.449  30.622  35.497  1.00  0.00     0.074 A 
ATOM     63  C   UNL A   1      41.376  30.277  34.593  1.00  0.00     0.031 C 
ATOM     64  C   UNL A   1      40.763  36.476  37.564  1.00  0.00     0.029 A 
ATOM     65  C   UNL A   1      41.912  35.679  37.990  1.00  0.00     0.049 A 
ATOM     66  H   UNL A   1      42.525  33.843  37.216  1.00  0.00     0.167 HD
ATOM     67  C   UNL A   1      43.497  29.812  35.766  1.00  0.00     0.034 A 
ATOM     68  C   UNL A   1      42.792  36.009  38.958  1.00  0.00     0.034 A 
ATOM     69  C   UNL A   1      44.563  30.153  36.664  1.00  0.00     0.049 A 
ATOM     70  C   UNL A   1      43.936  35.073  39.266  1.00  0.00     0.074 A 
ATOM     71  C   UNL A   1      45.690  29.417  36.977  1.00  0.00     0.029 A 
ATOM     72  N   UNL A   1      44.624  31.320  37.407  1.00  0.00    -0.354 N 
ATOM     73  N   UNL A   1      44.242  33.927  38.707  1.00  0.00    -0.248 NA
ATOM     74  C   UNL A   1      44.877  35.491  40.318  1.00  0.00     0.031 C 
ATOM     75  C   UNL A   1      46.419  30.128  37.935  1.00  0.00     0.029 A 
ATOM     76  C   UNL A   1      45.764  31.322  38.189  1.00  0.00     0.049 A 
ATOM     77  H   UNL A   1      43.955  32.043  37.382  1.00  0.00     0.167 HD
ATOM     78  C   UNL A   1      45.428  33.510  39.305  1.00  0.00     0.074 A 
ATOM     79  C   UNL A   1      45.794  34.534  40.261  1.00  0.00     0.031 C 
ATOM     80  C   UNL A   1      46.146  32.379  39.091  1.00  0.00     0.034 A 
BRANCH  67  81
ATOM     81  C   UNL A   1      43.541  28.481  35.067  1.00  0.00     0.023 A 
ATOM     82  C   UNL A   1      44.072  28.393  33.764  1.00  0.00     0.012 A 
ATOM     83  C   UNL A   1      43.091  27.315  35.713  1.00  0.00     0.148 A 
ATOM     84  C   UNL A   1      44.124  27.168  33.102  1.00  0.00     0.002 A 
ATOM     85  C   UNL A   1      43.190  26.090  35.065  1.00  0.00     0.091 A 
ATOM     86  F   UNL A   1      42.562  27.427  36.941  1.00  0.00    -0.205 F 
ATOM     87  C   UNL A   1      43.694  26.017  33.756  1.00  0.00     0.022 A 
BRANCH  85  88
ATOM     88  S   UNL A   1      42.736  24.542  35.852  1.00  0.00     0.127 S 
ATOM     89  O   UNL A   1      43.915  24.270  36.672  1.00  0.00    -0.237 OA
ATOM     90  O   UNL A   1      41.542  24.921  36.606  1.00  0.00    -0.237 OA
ATOM     91  O   UNL A   1      42.498  23.596  34.771  1.00  0.00    -0.744 OA
ENDBRANCH  85  88
ENDBRANCH  67  81
BRANCH  68  92
ATOM     92  C   UNL A   1      42.650  37.297  39.696  1.00  0.00     0.023 A 
ATOM     93  C   UNL A   1      43.228  38.469  39.171  1.00  0.00     0.012 A 
ATOM     94  C   UNL A   1      41.949  37.366  40.917  1.00  0.00     0.148 A 
ATOM     95  C   UNL A   1      43.141  39.679  39.864  1.00  0.00     0.002 A 
ATOM     96  C   UNL A   1      41.818  38.584  41.574  1.00  0.00     0.091 A 
ATOM     97  F   UNL A   1      41.424  36.236  41.412  1.00  0.00    -0.205 F 
ATOM     98  C   UNL A   1      42.428  39.738  41.058  1.00  0.00     0.022 A 
BRANCH  96  99
ATOM     99  S   UNL A   1      40.817  38.780  43.052  1.00  0.00     0.127 S 
ATOM    100  O   UNL A   1      39.531  38.241  42.617  1.00  0.00    -0.237 OA
ATOM    101  O   UNL A   1      41.540  37.949  44.015  1.00  0.00    -0.237 OA
ATOM    102  O   UNL A   1      40.836  40.205  43.353  1.00  0.00    -0.744 OA
ENDBRANCH  96  99
ENDBRANCH  68  92
BRANCH  80 103
ATOM    103  C   UNL A   1      47.432  32.200  39.855  1.00  0.00     0.023 A 
ATOM    104  C   UNL A   1      47.435  31.503  41.079  1.00  0.00     0.012 A 
ATOM    105  C   UNL A   1      48.653  32.640  39.307  1.00  0.00     0.148 A 
ATOM    106  C   UNL A   1      48.629  31.273  41.760  1.00  0.00     0.002 A 
ATOM    107  C   UNL A   1      49.846  32.362  39.965  1.00  0.00     0.091 A 
ATOM    108  F   UNL A   1      48.629  33.315  38.148  1.00  0.00    -0.205 F 
ATOM    109  C   UNL A   1      49.834  31.690  41.197  1.00  0.00     0.022 A 
BRANCH 107 110
ATOM    110  S   UNL A   1      51.449  32.771  39.266  1.00  0.00     0.127 S 
ATOM    111  O   UNL A   1      52.357  32.305  40.313  1.00  0.00    -0.237 OA
ATOM    112  O   UNL A   1      51.467  31.969  38.042  1.00  0.00    -0.237 OA
ATOM    113  O   UNL A   1      51.437  34.211  39.046  1.00  0.00    -0.744 OA
ENDBRANCH 107 110
ENDBRANCH  80 103
ENDBRANCH  54  55
ENDBRANCH  47  49
ENDBRANCH  46  47
ENDBRANCH  45  46
ENDBRANCH  44  45
ENDBRANCH  43  44
ENDBRANCH  42  43
ENDBRANCH  41  42
ENDBRANCH  40  41
ENDBRANCH   1  40
TORSDOF 31
ENDMDL
MODEL 3
REMARK VINA RESULT:      -8.3      6.139     11.104
REMARK SMILES O=C(N[C@@H](Cc1c[nH]c2ccccc12)C(=O)N[C@@H](CO)C(=O)OCCOCCOCCOCCOC(=O)c1ccc(-c2c3nc(c(-c4cccc(S(=O)(=O)[O-])c4F)c4ccc([nH]4)c(-c4cccc(S(=O)(=O)[O-])c4F)c4nc(c(-c5cccc(S(=O)(=O)[O-])c5F)c5ccc2[nH]5)C=C4)C=C3)cc1)c1ccc(F)cc1
REMARK SMILES IDX 28 1 27 2 26 3 25 4 24 5 23 6 21 7 22 8 18 9 17 10 15 11
REMARK SMILES IDX 16 12 4 14 3 15 1 16 2 17 101 19 102 20 107 21 103 22 106 23
REMARK SMILES IDX 104 24 105 25 5 26 6 27 7 28 14 29 8 30 9 31 13 32 10 34
REMARK SMILES IDX 12 35 11 36 19 37 20 38 29 40 30 41 31 42 32 43 33 44 34 45
REMARK SMILES IDX 35 46 36 47 37 48 38 49 39 50 100 51 40 52 99 53 41 54 42 55
REMARK SMILES IDX 43 56 93 57 44 58 98 59 92 60 94 61 45 62 97 63 91 64 90 65
REMARK SMILES IDX 46 67 78 68 58 69 77 70 59 71 62 72 76 73 95 74 60 75 61 76
REMARK SMILES IDX 75 78 96 79 63 80 47 81 48 82 56 83 49 84 51 85 57 86 50 87
REMARK SMILES IDX 52 88 53 89 54 90 55 91 79 92 80 93 88 94 81 95 83 96 89 97
REMARK SMILES IDX 82 98 84 99 85 100 86 101 87 102 64 103 65 104 73 105 66 106
REMARK SMILES IDX 68 107 74 108 67 109 69 110 70 111 71 112 72 113
REMARK H PARENT 17 13 3 18 8 33 20 39 94 66 62 77
REMARK Flexibility Score: inf
ROOT
ATOM      1  C   UNL A   1      43.966  23.258  28.122  1.00  0.00     0.188 C 
ENDROOT
BRANCH   1   2
ATOM      2  C   UNL A   1      42.756  22.317  28.090  1.00  0.00     0.188 C 
BRANCH   2   3
ATOM      3  O   UNL A   1      42.140  22.210  26.816  1.00  0.00    -0.376 OA
BRANCH   3   4
ATOM      4  C   UNL A   1      40.762  22.552  26.775  1.00  0.00     0.202 C 
BRANCH   4   5
ATOM      5  C   UNL A   1      39.762  21.456  26.342  1.00  0.00     0.261 C 
BRANCH   5   6
ATOM      6  O   UNL A   1      38.653  21.874  25.503  1.00  0.00    -0.462 OA
BRANCH   6   7
ATOM      7  C   UNL A   1      37.756  20.941  25.069  1.00  0.00     0.331 C 
ATOM      8  O   UNL A   1      38.059  19.775  24.829  1.00  0.00    -0.250 OA
BRANCH   7   9
ATOM      9  C   UNL A   1      36.258  21.468  25.033  1.00  0.00     0.218 C 
BRANCH   9  10
ATOM     10  N   UNL A   1      35.477  21.421  26.306  1.00  0.00    -0.339 N 
ATOM     11  C   UNL A   1      34.169  21.600  26.677  1.00  0.00     0.243 C 
ATOM     12  O   UNL A   1      33.925  21.289  27.856  1.00  0.00    -0.273 OA
ATOM     13  H   UNL A   1      36.049  21.208  27.078  1.00  0.00     0.164 HD
BRANCH  11  14
ATOM     14  C   UNL A   1      32.946  22.109  25.813  1.00  0.00     0.176 C 
BRANCH  14  15
ATOM     15  N   UNL A   1      32.719  21.320  24.605  1.00  0.00    -0.340 N 
ATOM     16  O   UNL A   1      32.063  20.915  22.493  1.00  0.00    -0.269 OA
ATOM     17  C   UNL A   1      32.367  21.747  23.346  1.00  0.00     0.251 C 
ATOM     18  H   UNL A   1      32.835  20.348  24.707  1.00  0.00     0.164 HD
BRANCH  17  19
ATOM     19  C   UNL A   1      32.285  23.189  22.989  1.00  0.00     0.040 A 
ATOM     20  C   UNL A   1      31.074  23.897  22.977  1.00  0.00     0.017 A 
ATOM     21  C   UNL A   1      33.489  23.874  22.754  1.00  0.00     0.017 A 
ATOM     22  C   UNL A   1      31.069  25.266  22.681  1.00  0.00     0.040 A 
ATOM     23  C   UNL A   1      33.479  25.242  22.469  1.00  0.00     0.040 A 
ATOM     24  C   UNL A   1      32.269  25.925  22.430  1.00  0.00     0.123 A 
ATOM     25  F   UNL A   1      32.262  27.237  22.160  1.00  0.00    -0.207 F 
ENDBRANCH  17  19
ENDBRANCH  14  15
BRANCH  14  26
ATOM     26  C   UNL A   1      31.619  22.632  26.478  1.00  0.00     0.072 C 
BRANCH  26  27
ATOM     27  C   UNL A   1      31.294  24.084  26.289  1.00  0.00    -0.020 A 
ATOM     28  C   UNL A   1      30.041  24.551  26.535  1.00  0.00     0.087 A 
ATOM     29  C   UNL A   1      32.066  25.288  26.104  1.00  0.00     0.003 A 
ATOM     30  N   UNL A   1      29.910  25.858  26.233  1.00  0.00    -0.361 N 
ATOM     31  C   UNL A   1      31.166  26.371  26.108  1.00  0.00     0.046 A 
ATOM     32  C   UNL A   1      33.435  25.605  26.012  1.00  0.00     0.010 A 
ATOM     33  H   UNL A   1      29.065  26.349  26.124  1.00  0.00     0.166 HD
ATOM     34  C   UNL A   1      31.535  27.712  26.049  1.00  0.00     0.026 A 
ATOM     35  C   UNL A   1      33.828  26.957  25.970  1.00  0.00     0.001 A 
ATOM     36  C   UNL A   1      32.893  27.991  25.996  1.00  0.00     0.002 A 
ENDBRANCH  26  27
ENDBRANCH  14  26
ENDBRANCH  11  14
ENDBRANCH   9  10
BRANCH   9  37
ATOM     37  C   UNL A   1      36.317  22.881  24.447  1.00  0.00     0.193 C 
BRANCH  37  38
ATOM     38  O   UNL A   1      37.105  22.926  23.266  1.00  0.00    -0.394 OA
ATOM     39  H   UNL A   1      36.578  23.295  22.540  1.00  0.00     0.210 HD
ENDBRANCH  37  38
ENDBRANCH   9  37
ENDBRANCH   7   9
ENDBRANCH   6   7
ENDBRANCH   5   6
ENDBRANCH   4   5
ENDBRANCH   3   4
ENDBRANCH   2   3
ENDBRANCH   1   2
BRANCH   1  40
ATOM     40  O   UNL A   1      44.327  23.924  26.928  1.00  0.00    -0.377 OA
BRANCH  40  41
ATOM     41  C   UNL A   1      44.122  25.324  26.861  1.00  0.00     0.188 C 
BRANCH  41  42
ATOM     42  C   UNL A   1      42.760  25.900  27.303  1.00  0.00     0.188 C 
BRANCH  42  43
ATOM     43  O   UNL A   1      42.819  26.850  28.363  1.00  0.00    -0.376 OA
BRANCH  43  44
ATOM     44  C   UNL A   1      42.087  28.055  28.191  1.00  0.00     0.202 C 
BRANCH  44  45
ATOM     45  C   UNL A   1      40.772  28.172  28.972  1.00  0.00     0.261 C 
BRANCH  45  46
ATOM     46  O   UNL A   1      40.503  29.452  29.562  1.00  0.00    -0.460 OA
BRANCH  46  47
ATOM     47  C   UNL A   1      39.258  29.700  30.024  1.00  0.00     0.338 C 
ATOM     48  O   UNL A   1      38.214  29.212  29.630  1.00  0.00    -0.246 OA
BRANCH  47  49
ATOM     49  C   UNL A   1      39.409  30.503  31.258  1.00  0.00     0.060 A 
ATOM     50  C   UNL A   1      38.687  31.700  31.379  1.00  0.00     0.016 A 
ATOM     51  C   UNL A   1      40.175  30.024  32.324  1.00  0.00     0.016 A 
ATOM     52  C   UNL A   1      38.745  32.429  32.567  1.00  0.00     0.010 A 
ATOM     53  C   UNL A   1      40.261  30.773  33.497  1.00  0.00     0.010 A 
ATOM     54  C   UNL A   1      39.571  31.994  33.611  1.00  0.00    -0.014 A 
BRANCH  54  55
ATOM     55  C   UNL A   1      39.938  32.937  34.693  1.00  0.00     0.031 A 
ATOM     56  C   UNL A   1      41.040  33.918  34.402  1.00  0.00     0.074 A 
ATOM     57  C   UNL A   1      39.340  32.919  35.896  1.00  0.00     0.049 A 
ATOM     58  N   UNL A   1      41.581  34.815  35.180  1.00  0.00    -0.248 NA
ATOM     59  C   UNL A   1      41.612  33.875  33.043  1.00  0.00     0.031 C 
ATOM     60  C   UNL A   1      38.259  32.021  36.296  1.00  0.00     0.029 A 
ATOM     61  N   UNL A   1      39.588  33.671  37.018  1.00  0.00    -0.354 N 
ATOM     62  C   UNL A   1      42.571  35.424  34.418  1.00  0.00     0.074 A 
ATOM     63  C   UNL A   1      42.565  34.790  33.120  1.00  0.00     0.031 C 
ATOM     64  C   UNL A   1      37.960  32.251  37.589  1.00  0.00     0.029 A 
ATOM     65  C   UNL A   1      38.842  33.294  38.110  1.00  0.00     0.049 A 
ATOM     66  H   UNL A   1      40.239  34.410  37.039  1.00  0.00     0.167 HD
ATOM     67  C   UNL A   1      43.407  36.429  34.762  1.00  0.00     0.034 A 
ATOM     68  C   UNL A   1      38.889  33.729  39.387  1.00  0.00     0.034 A 
ATOM     69  C   UNL A   1      43.414  37.058  36.051  1.00  0.00     0.049 A 
ATOM     70  C   UNL A   1      39.854  34.829  39.756  1.00  0.00     0.074 A 
ATOM     71  C   UNL A   1      44.197  38.110  36.488  1.00  0.00     0.029 A 
ATOM     72  N   UNL A   1      42.614  36.681  37.117  1.00  0.00    -0.354 N 
ATOM     73  N   UNL A   1      40.699  35.480  38.993  1.00  0.00    -0.248 NA
ATOM     74  C   UNL A   1      39.851  35.278  41.158  1.00  0.00     0.031 C 
ATOM     75  C   UNL A   1      43.890  38.350  37.832  1.00  0.00     0.029 A 
ATOM     76  C   UNL A   1      42.891  37.471  38.218  1.00  0.00     0.049 A 
ATOM     77  H   UNL A   1      41.946  35.957  37.095  1.00  0.00     0.167 HD
ATOM     78  C   UNL A   1      41.293  36.440  39.807  1.00  0.00     0.074 A 
ATOM     79  C   UNL A   1      40.702  36.295  41.122  1.00  0.00     0.031 C 
ATOM     80  C   UNL A   1      42.248  37.354  39.501  1.00  0.00     0.034 A 
BRANCH  67  81
ATOM     81  C   UNL A   1      44.374  36.914  33.717  1.00  0.00     0.023 A 
ATOM     82  C   UNL A   1      45.570  36.202  33.489  1.00  0.00     0.012 A 
ATOM     83  C   UNL A   1      44.083  38.050  32.941  1.00  0.00     0.148 A 
ATOM     84  C   UNL A   1      46.477  36.634  32.523  1.00  0.00     0.002 A 
ATOM     85  C   UNL A   1      44.970  38.447  31.947  1.00  0.00     0.091 A 
ATOM     86  F   UNL A   1      42.955  38.728  33.197  1.00  0.00    -0.205 F 
ATOM     87  C   UNL A   1      46.171  37.748  31.746  1.00  0.00     0.022 A 
BRANCH  85  88
ATOM     88  S   UNL A   1      44.631  39.821  30.843  1.00  0.00     0.127 S 
ATOM     89  O   UNL A   1      45.530  39.531  29.727  1.00  0.00    -0.237 OA
ATOM     90  O   UNL A   1      43.211  39.633  30.547  1.00  0.00    -0.237 OA
ATOM     91  O   UNL A   1      44.940  41.028  31.596  1.00  0.00    -0.744 OA
ENDBRANCH  85  88
ENDBRANCH  67  81
BRANCH  68  92
ATOM     92  C   UNL A   1      37.978  33.146  40.414  1.00  0.00     0.023 A 
ATOM     93  C   UNL A   1      36.630  33.550  40.460  1.00  0.00     0.012 A 
ATOM     94  C   UNL A   1      38.441  32.197  41.347  1.00  0.00     0.148 A 
ATOM     95  C   UNL A   1      35.768  33.047  41.437  1.00  0.00     0.002 A 
ATOM     96  C   UNL A   1      37.565  31.658  42.282  1.00  0.00     0.091 A 
ATOM     97  F   UNL A   1      39.732  31.840  41.301  1.00  0.00    -0.205 F 
ATOM     98  C   UNL A   1      36.233  32.095  42.340  1.00  0.00     0.022 A 
BRANCH  96  99
ATOM     99  S   UNL A   1      38.042  30.340  43.403  1.00  0.00     0.127 S 
ATOM    100  O   UNL A   1      39.233  30.900  44.036  1.00  0.00    -0.237 OA
ATOM    101  O   UNL A   1      36.869  30.247  44.273  1.00  0.00    -0.237 OA
ATOM    102  O   UNL A   1      38.263  29.170  42.565  1.00  0.00    -0.744 OA
ENDBRANCH  96  99
ENDBRANCH  68  92
BRANCH  80 103
ATOM    103  C   UNL A   1      42.684  38.313  40.579  1.00  0.00     0.023 A 
ATOM    104  C   UNL A   1      43.810  38.020  41.372  1.00  0.00     0.012 A 
ATOM    105  C   UNL A   1      42.031  39.552  40.735  1.00  0.00     0.148 A 
ATOM    106  C   UNL A   1      44.261  38.932  42.325  1.00  0.00     0.002 A 
ATOM    107  C   UNL A   1      42.517  40.478  41.651  1.00  0.00     0.091 A 
ATOM    108  F   UNL A   1      40.951  39.807  39.981  1.00  0.00    -0.205 F 
ATOM    109  C   UNL A   1      43.624  40.165  42.455  1.00  0.00     0.022 A 
BRANCH 107 110
ATOM    110  S   UNL A   1      41.823  42.127  41.813  1.00  0.00     0.127 S 
ATOM    111  O   UNL A   1      41.791  42.295  43.265  1.00  0.00    -0.237 OA
ATOM    112  O   UNL A   1      42.818  42.951  41.125  1.00  0.00    -0.237 OA
ATOM    113  O   UNL A   1      40.521  42.082  41.161  1.00  0.00    -0.744 OA
ENDBRANCH 107 110
ENDBRANCH  80 103
ENDBRANCH  54  55
ENDBRANCH  47  49
ENDBRANCH  46  47
ENDBRANCH  45  46
ENDBRANCH  44  45
ENDBRANCH  43  44
ENDBRANCH  42  43
ENDBRANCH  41  42
ENDBRANCH  40  41
ENDBRANCH   1  40
TORSDOF 31
ENDMDL
