MODEL 1
REMARK VINA RESULT:     -10.6      0.000      0.000
REMARK SMILES Cc1c(CC(=O)OCCOCCOCCOCCOC(=O)c2ccc(-c3c4nc(c(-c5cccc(S(=O)(=O)[O-])c5F)c5ccc([nH]5)c(-c5cccc(S(=O)(=O)[O-])c5F)c5nc(c(-c6cccc(S(=O)(=O)[O-])c6F)c6ccc3[nH]6)C=C5)C=C4)cc2)cc(-c2ccccc2)cc1-c1ccccc1
REMARK SMILES IDX 14 1 13 2 12 3 11 4 10 5 9 6 8 7 7 8 5 9 6 10 4 11 3 12 1 13
REMARK SMILES IDX 2 14 94 15 85 16 93 17 86 18 95 19 96 20 100 21 97 22 99 23
REMARK SMILES IDX 98 24 87 25 88 26 92 27 89 28 91 29 90 30 15 31 16 32 17 33
REMARK SMILES IDX 18 34 19 35 20 36 21 37 22 38 23 39 84 40 24 41 83 42 25 43
REMARK SMILES IDX 26 44 27 45 77 46 28 47 82 48 76 49 78 50 29 51 81 52 75 53
REMARK SMILES IDX 74 54 30 56 62 57 42 58 61 59 43 60 46 61 60 62 79 63 44 64
REMARK SMILES IDX 45 65 59 67 80 68 47 69 31 70 32 71 40 72 33 73 35 74 41 75
REMARK SMILES IDX 34 76 36 77 37 78 38 79 39 80 63 81 64 82 72 83 65 84 67 85
REMARK SMILES IDX 73 86 66 87 68 88 69 89 70 90 71 91 48 92 49 93 57 94 50 95
REMARK SMILES IDX 52 96 58 97 51 98 53 99 54 100 55 101 56 102
REMARK H PARENT 78 55 46 66
REMARK Flexibility Score: inf
ROOT
ATOM      1  C   UNL A   1      39.033  21.994  26.198  1.00  0.00     0.188 C 
ENDROOT
BRANCH   1   2
ATOM      2  O   UNL A   1      37.978  22.838  25.801  1.00  0.00    -0.377 OA
BRANCH   2   3
ATOM      3  C   UNL A   1      36.824  22.363  25.164  1.00  0.00     0.188 C 
BRANCH   3   4
ATOM      4  C   UNL A   1      35.911  23.188  24.235  1.00  0.00     0.188 C 
BRANCH   4   5
ATOM      5  O   UNL A   1      34.983  22.626  23.321  1.00  0.00    -0.376 OA
BRANCH   5   6
ATOM      6  C   UNL A   1      33.653  22.470  23.762  1.00  0.00     0.202 C 
BRANCH   6   7
ATOM      7  C   UNL A   1      32.696  22.856  22.640  1.00  0.00     0.261 C 
BRANCH   7   8
ATOM      8  O   UNL A   1      31.337  23.018  23.102  1.00  0.00    -0.463 OA
BRANCH   8   9
ATOM      9  C   UNL A   1      31.071  24.188  23.730  1.00  0.00     0.310 C 
ATOM     10  O   UNL A   1      30.303  24.322  24.678  1.00  0.00    -0.252 OA
BRANCH   9  11
ATOM     11  C   UNL A   1      31.702  25.391  23.064  1.00  0.00     0.158 C 
BRANCH  11  12
ATOM     12  C   UNL A   1      31.513  26.801  23.623  1.00  0.00    -0.033 A 
ATOM     13  C   UNL A   1      32.959  26.238  25.639  1.00  0.00     0.045 C 
ATOM     14  C   UNL A   1      32.177  27.222  24.800  1.00  0.00    -0.039 A 
ATOM     15  C   UNL A   1      32.140  28.590  25.161  1.00  0.00    -0.015 A 
ATOM     16  C   UNL A   1      30.731  27.753  22.910  1.00  0.00     0.013 A 
ATOM     17  C   UNL A   1      31.232  29.447  24.521  1.00  0.00     0.017 A 
ATOM     18  C   UNL A   1      30.491  29.053  23.409  1.00  0.00    -0.017 A 
BRANCH  15  19
ATOM     19  C   UNL A   1      33.183  29.236  25.973  1.00  0.00    -0.018 A 
ATOM     20  C   UNL A   1      34.384  28.603  26.323  1.00  0.00     0.009 A 
ATOM     21  C   UNL A   1      32.866  30.460  26.593  1.00  0.00     0.009 A 
ATOM     22  C   UNL A   1      35.227  29.171  27.282  1.00  0.00     0.001 A 
ATOM     23  C   UNL A   1      33.708  31.030  27.542  1.00  0.00     0.001 A 
ATOM     24  C   UNL A   1      34.886  30.379  27.892  1.00  0.00     0.000 A 
ENDBRANCH  15  19
BRANCH  18  25
ATOM     25  C   UNL A   1      29.480  29.992  22.867  1.00  0.00    -0.018 A 
ATOM     26  C   UNL A   1      29.277  30.076  21.472  1.00  0.00     0.009 A 
ATOM     27  C   UNL A   1      28.696  30.823  23.672  1.00  0.00     0.009 A 
ATOM     28  C   UNL A   1      28.379  30.987  20.900  1.00  0.00     0.001 A 
ATOM     29  C   UNL A   1      27.774  31.718  23.105  1.00  0.00     0.001 A 
ATOM     30  C   UNL A   1      27.630  31.815  21.722  1.00  0.00     0.000 A 
ENDBRANCH  18  25
ENDBRANCH  11  12
ENDBRANCH   9  11
ENDBRANCH   8   9
ENDBRANCH   7   8
ENDBRANCH   6   7
ENDBRANCH   5   6
ENDBRANCH   4   5
ENDBRANCH   3   4
ENDBRANCH   2   3
ENDBRANCH   1   2
BRANCH   1  31
ATOM     31  C   UNL A   1      40.444  22.499  26.314  1.00  0.00     0.188 C 
BRANCH  31  32
ATOM     32  O   UNL A   1      40.789  22.614  27.676  1.00  0.00    -0.376 OA
BRANCH  32  33
ATOM     33  C   UNL A   1      42.140  22.935  27.950  1.00  0.00     0.202 C 
BRANCH  33  34
ATOM     34  C   UNL A   1      42.693  23.945  26.946  1.00  0.00     0.261 C 
BRANCH  34  35
ATOM     35  O   UNL A   1      42.458  25.273  27.467  1.00  0.00    -0.460 OA
BRANCH  35  36
ATOM     36  C   UNL A   1      41.640  26.064  26.703  1.00  0.00     0.338 C 
ATOM     37  O   UNL A   1      41.338  25.811  25.560  1.00  0.00    -0.246 OA
BRANCH  36  38
ATOM     38  C   UNL A   1      41.389  27.378  27.395  1.00  0.00     0.060 A 
ATOM     39  C   UNL A   1      42.468  28.175  27.814  1.00  0.00     0.016 A 
ATOM     40  C   UNL A   1      40.125  27.646  27.908  1.00  0.00     0.016 A 
ATOM     41  C   UNL A   1      42.319  29.094  28.877  1.00  0.00     0.010 A 
ATOM     42  C   UNL A   1      40.016  28.458  29.028  1.00  0.00     0.010 A 
ATOM     43  C   UNL A   1      41.120  29.156  29.570  1.00  0.00    -0.014 A 
BRANCH  43  44
ATOM     44  C   UNL A   1      40.856  29.821  30.876  1.00  0.00     0.031 A 
ATOM     45  C   UNL A   1      39.953  31.020  30.796  1.00  0.00     0.074 A 
ATOM     46  C   UNL A   1      41.027  29.195  32.079  1.00  0.00     0.049 A 
ATOM     47  N   UNL A   1      39.329  31.569  31.779  1.00  0.00    -0.248 NA
ATOM     48  C   UNL A   1      39.645  31.676  29.525  1.00  0.00     0.031 C 
ATOM     49  C   UNL A   1      40.095  29.325  33.206  1.00  0.00     0.029 A 
ATOM     50  N   UNL A   1      41.865  28.199  32.556  1.00  0.00    -0.354 N 
ATOM     51  C   UNL A   1      38.378  32.435  31.282  1.00  0.00     0.074 A 
ATOM     52  C   UNL A   1      38.647  32.494  29.871  1.00  0.00     0.031 C 
ATOM     53  C   UNL A   1      40.350  28.436  34.175  1.00  0.00     0.029 A 
ATOM     54  C   UNL A   1      41.688  27.974  33.934  1.00  0.00     0.049 A 
ATOM     55  H   UNL A   1      42.508  27.705  31.996  1.00  0.00     0.167 HD
ATOM     56  C   UNL A   1      37.431  32.927  32.133  1.00  0.00     0.034 A 
ATOM     57  C   UNL A   1      42.678  28.212  34.852  1.00  0.00     0.034 A 
ATOM     58  C   UNL A   1      37.793  32.649  33.553  1.00  0.00     0.049 A 
ATOM     59  C   UNL A   1      42.455  29.525  35.617  1.00  0.00     0.074 A 
ATOM     60  C   UNL A   1      37.159  32.078  34.645  1.00  0.00     0.029 A 
ATOM     61  N   UNL A   1      39.110  32.885  33.986  1.00  0.00    -0.354 N 
ATOM     62  N   UNL A   1      41.446  30.325  35.361  1.00  0.00    -0.248 NA
ATOM     63  C   UNL A   1      43.239  30.038  36.740  1.00  0.00     0.031 C 
ATOM     64  C   UNL A   1      38.149  31.787  35.636  1.00  0.00     0.029 A 
ATOM     65  C   UNL A   1      39.367  32.302  35.217  1.00  0.00     0.049 A 
ATOM     66  H   UNL A   1      39.773  33.404  33.474  1.00  0.00     0.167 HD
ATOM     67  C   UNL A   1      41.482  31.449  36.117  1.00  0.00     0.074 A 
ATOM     68  C   UNL A   1      42.604  31.200  37.009  1.00  0.00     0.031 C 
ATOM     69  C   UNL A   1      40.647  32.513  35.902  1.00  0.00     0.034 A 
BRANCH  56  70
ATOM     70  C   UNL A   1      36.094  33.576  31.711  1.00  0.00     0.023 A 
ATOM     71  C   UNL A   1      35.460  33.043  30.563  1.00  0.00     0.012 A 
ATOM     72  C   UNL A   1      35.439  34.707  32.283  1.00  0.00     0.148 A 
ATOM     73  C   UNL A   1      34.299  33.593  29.998  1.00  0.00     0.002 A 
ATOM     74  C   UNL A   1      34.235  35.215  31.759  1.00  0.00     0.091 A 
ATOM     75  F   UNL A   1      35.989  35.357  33.309  1.00  0.00    -0.205 F 
ATOM     76  C   UNL A   1      33.678  34.672  30.601  1.00  0.00     0.022 A 
BRANCH  74  77
ATOM     77  S   UNL A   1      33.302  36.569  32.516  1.00  0.00     0.127 S 
ATOM     78  O   UNL A   1      32.021  35.933  32.826  1.00  0.00    -0.237 OA
ATOM     79  O   UNL A   1      34.116  36.886  33.691  1.00  0.00    -0.237 OA
ATOM     80  O   UNL A   1      33.232  37.631  31.521  1.00  0.00    -0.744 OA
ENDBRANCH  74  77
ENDBRANCH  56  70
BRANCH  57  81
ATOM     81  C   UNL A   1      43.916  27.449  34.482  1.00  0.00     0.023 A 
ATOM     82  C   UNL A   1      45.105  28.177  34.774  1.00  0.00     0.012 A 
ATOM     83  C   UNL A   1      43.920  26.059  34.688  1.00  0.00     0.148 A 
ATOM     84  C   UNL A   1      46.117  27.604  35.550  1.00  0.00     0.002 A 
ATOM     85  C   UNL A   1      44.926  25.498  35.480  1.00  0.00     0.091 A 
ATOM     86  F   UNL A   1      42.872  25.345  34.257  1.00  0.00    -0.205 F 
ATOM     87  C   UNL A   1      45.993  26.281  35.957  1.00  0.00     0.022 A 
BRANCH  85  88
ATOM     88  S   UNL A   1      44.733  23.848  36.171  1.00  0.00     0.127 S 
ATOM     89  O   UNL A   1      45.844  23.128  35.559  1.00  0.00    -0.237 OA
ATOM     90  O   UNL A   1      44.876  24.095  37.607  1.00  0.00    -0.237 OA
ATOM     91  O   UNL A   1      43.398  23.430  35.770  1.00  0.00    -0.744 OA
ENDBRANCH  85  88
ENDBRANCH  57  81
BRANCH  69  92
ATOM     92  C   UNL A   1      41.004  33.913  36.342  1.00  0.00     0.023 A 
ATOM     93  C   UNL A   1      41.605  34.815  35.443  1.00  0.00     0.012 A 
ATOM     94  C   UNL A   1      40.562  34.432  37.584  1.00  0.00     0.148 A 
ATOM     95  C   UNL A   1      41.849  36.144  35.786  1.00  0.00     0.002 A 
ATOM     96  C   UNL A   1      40.701  35.784  37.873  1.00  0.00     0.091 A 
ATOM     97  F   UNL A   1      40.008  33.620  38.494  1.00  0.00    -0.205 F 
ATOM     98  C   UNL A   1      41.381  36.633  36.996  1.00  0.00     0.022 A 
BRANCH  96  99
ATOM     99  S   UNL A   1      39.885  36.531  39.290  1.00  0.00     0.127 S 
ATOM    100  O   UNL A   1      39.285  37.722  38.694  1.00  0.00    -0.237 OA
ATOM    101  O   UNL A   1      38.928  35.493  39.677  1.00  0.00    -0.237 OA
ATOM    102  O   UNL A   1      40.937  36.768  40.269  1.00  0.00    -0.744 OA
ENDBRANCH  96  99
ENDBRANCH  69  92
ENDBRANCH  43  44
ENDBRANCH  36  38
ENDBRANCH  35  36
ENDBRANCH  34  35
ENDBRANCH  33  34
ENDBRANCH  32  33
ENDBRANCH  31  32
ENDBRANCH   1  31
TORSDOF 26
ENDMDL
MODEL 2
REMARK VINA RESULT:     -10.3      4.290      6.336
REMARK SMILES Cc1c(CC(=O)OCCOCCOCCOCCOC(=O)c2ccc(-c3c4nc(c(-c5cccc(S(=O)(=O)[O-])c5F)c5ccc([nH]5)c(-c5cccc(S(=O)(=O)[O-])c5F)c5nc(c(-c6cccc(S(=O)(=O)[O-])c6F)c6ccc3[nH]6)C=C5)C=C4)cc2)cc(-c2ccccc2)cc1-c1ccccc1
REMARK SMILES IDX 14 1 13 2 12 3 11 4 10 5 9 6 8 7 7 8 5 9 6 10 4 11 3 12 1 13
REMARK SMILES IDX 2 14 94 15 85 16 93 17 86 18 95 19 96 20 100 21 97 22 99 23
REMARK SMILES IDX 98 24 87 25 88 26 92 27 89 28 91 29 90 30 15 31 16 32 17 33
REMARK SMILES IDX 18 34 19 35 20 36 21 37 22 38 23 39 84 40 24 41 83 42 25 43
REMARK SMILES IDX 26 44 27 45 77 46 28 47 82 48 76 49 78 50 29 51 81 52 75 53
REMARK SMILES IDX 74 54 30 56 62 57 42 58 61 59 43 60 46 61 60 62 79 63 44 64
REMARK SMILES IDX 45 65 59 67 80 68 47 69 31 70 32 71 40 72 33 73 35 74 41 75
REMARK SMILES IDX 34 76 36 77 37 78 38 79 39 80 63 81 64 82 72 83 65 84 67 85
REMARK SMILES IDX 73 86 66 87 68 88 69 89 70 90 71 91 48 92 49 93 57 94 50 95
REMARK SMILES IDX 52 96 58 97 51 98 53 99 54 100 55 101 56 102
REMARK H PARENT 78 55 46 66
REMARK Flexibility Score: inf
ROOT
ATOM      1  C   UNL A   1      33.439  20.854  26.027  1.00  0.00     0.188 C 
ENDROOT
BRANCH   1   2
ATOM      2  O   UNL A   1      32.398  20.275  25.277  1.00  0.00    -0.377 OA
BRANCH   2   3
ATOM      3  C   UNL A   1      32.623  19.531  24.112  1.00  0.00     0.188 C 
BRANCH   3   4
ATOM      4  C   UNL A   1      32.078  19.875  22.710  1.00  0.00     0.188 C 
BRANCH   4   5
ATOM      5  O   UNL A   1      31.787  21.191  22.268  1.00  0.00    -0.376 OA
BRANCH   5   6
ATOM      6  C   UNL A   1      32.548  22.242  22.818  1.00  0.00     0.202 C 
BRANCH   6   7
ATOM      7  C   UNL A   1      32.180  23.551  22.130  1.00  0.00     0.261 C 
BRANCH   7   8
ATOM      8  O   UNL A   1      33.339  24.335  21.772  1.00  0.00    -0.463 OA
BRANCH   8   9
ATOM      9  C   UNL A   1      33.355  25.602  22.248  1.00  0.00     0.310 C 
ATOM     10  O   UNL A   1      33.907  26.554  21.704  1.00  0.00    -0.252 OA
BRANCH   9  11
ATOM     11  C   UNL A   1      32.744  25.741  23.624  1.00  0.00     0.158 C 
BRANCH  11  12
ATOM     12  C   UNL A   1      32.322  27.103  24.175  1.00  0.00    -0.033 A 
ATOM     13  C   UNL A   1      33.872  26.820  26.173  1.00  0.00     0.045 C 
ATOM     14  C   UNL A   1      32.920  27.645  25.338  1.00  0.00    -0.039 A 
ATOM     15  C   UNL A   1      32.652  28.990  25.689  1.00  0.00    -0.015 A 
ATOM     16  C   UNL A   1      31.379  27.899  23.466  1.00  0.00     0.013 A 
ATOM     17  C   UNL A   1      31.602  29.671  25.056  1.00  0.00     0.017 A 
ATOM     18  C   UNL A   1      30.925  29.144  23.959  1.00  0.00    -0.017 A 
BRANCH  15  19
ATOM     19  C   UNL A   1      33.580  29.815  26.480  1.00  0.00    -0.018 A 
ATOM     20  C   UNL A   1      34.929  29.482  26.671  1.00  0.00     0.009 A 
ATOM     21  C   UNL A   1      33.034  30.866  27.242  1.00  0.00     0.009 A 
ATOM     22  C   UNL A   1      35.696  30.169  27.616  1.00  0.00     0.001 A 
ATOM     23  C   UNL A   1      33.800  31.555  28.176  1.00  0.00     0.001 A 
ATOM     24  C   UNL A   1      35.130  31.199  28.369  1.00  0.00     0.000 A 
ENDBRANCH  15  19
BRANCH  18  25
ATOM     25  C   UNL A   1      29.759  29.889  23.424  1.00  0.00    -0.018 A 
ATOM     26  C   UNL A   1      28.995  29.336  22.373  1.00  0.00     0.009 A 
ATOM     27  C   UNL A   1      29.362  31.138  23.908  1.00  0.00     0.009 A 
ATOM     28  C   UNL A   1      27.922  30.021  21.789  1.00  0.00     0.001 A 
ATOM     29  C   UNL A   1      28.269  31.817  23.344  1.00  0.00     0.001 A 
ATOM     30  C   UNL A   1      27.562  31.270  22.274  1.00  0.00     0.000 A 
ENDBRANCH  18  25
ENDBRANCH  11  12
ENDBRANCH   9  11
ENDBRANCH   8   9
ENDBRANCH   7   8
ENDBRANCH   6   7
ENDBRANCH   5   6
ENDBRANCH   4   5
ENDBRANCH   3   4
ENDBRANCH   2   3
ENDBRANCH   1   2
BRANCH   1  31
ATOM     31  C   UNL A   1      34.740  21.255  25.391  1.00  0.00     0.188 C 
BRANCH  31  32
ATOM     32  O   UNL A   1      35.724  21.400  26.389  1.00  0.00    -0.376 OA
BRANCH  32  33
ATOM     33  C   UNL A   1      36.382  22.652  26.437  1.00  0.00     0.202 C 
BRANCH  33  34
ATOM     34  C   UNL A   1      37.143  22.937  25.144  1.00  0.00     0.261 C 
BRANCH  34  35
ATOM     35  O   UNL A   1      38.348  22.137  25.145  1.00  0.00    -0.460 OA
BRANCH  35  36
ATOM     36  C   UNL A   1      39.182  22.340  26.213  1.00  0.00     0.338 C 
ATOM     37  O   UNL A   1      39.572  21.455  26.938  1.00  0.00    -0.246 OA
BRANCH  36  38
ATOM     38  C   UNL A   1      39.329  23.814  26.491  1.00  0.00     0.060 A 
ATOM     39  C   UNL A   1      40.093  24.622  25.634  1.00  0.00     0.016 A 
ATOM     40  C   UNL A   1      38.994  24.305  27.748  1.00  0.00     0.016 A 
ATOM     41  C   UNL A   1      40.679  25.820  26.101  1.00  0.00     0.010 A 
ATOM     42  C   UNL A   1      39.671  25.415  28.234  1.00  0.00     0.010 A 
ATOM     43  C   UNL A   1      40.569  26.165  27.439  1.00  0.00    -0.014 A 
BRANCH  43  44
ATOM     44  C   UNL A   1      41.342  27.199  28.180  1.00  0.00     0.031 A 
ATOM     45  C   UNL A   1      40.522  28.359  28.672  1.00  0.00     0.074 A 
ATOM     46  C   UNL A   1      42.558  26.953  28.753  1.00  0.00     0.049 A 
ATOM     47  N   UNL A   1      40.868  29.203  29.581  1.00  0.00    -0.248 NA
ATOM     48  C   UNL A   1      39.171  28.620  28.176  1.00  0.00     0.031 C 
ATOM     49  C   UNL A   1      42.953  27.454  30.076  1.00  0.00     0.029 A 
ATOM     50  N   UNL A   1      43.621  26.107  28.474  1.00  0.00    -0.354 N 
ATOM     51  C   UNL A   1      39.759  29.924  29.971  1.00  0.00     0.074 A 
ATOM     52  C   UNL A   1      38.736  29.548  29.033  1.00  0.00     0.031 C 
ATOM     53  C   UNL A   1      44.084  26.883  30.513  1.00  0.00     0.029 A 
ATOM     54  C   UNL A   1      44.703  26.311  29.351  1.00  0.00     0.049 A 
ATOM     55  H   UNL A   1      43.618  25.440  27.748  1.00  0.00     0.167 HD
ATOM     56  C   UNL A   1      39.837  30.688  31.099  1.00  0.00     0.034 A 
ATOM     57  C   UNL A   1      45.922  26.766  28.920  1.00  0.00     0.034 A 
ATOM     58  C   UNL A   1      41.252  30.830  31.550  1.00  0.00     0.049 A 
ATOM     59  C   UNL A   1      46.126  28.256  29.234  1.00  0.00     0.074 A 
ATOM     60  C   UNL A   1      41.938  30.638  32.738  1.00  0.00     0.029 A 
ATOM     61  N   UNL A   1      42.250  31.124  30.603  1.00  0.00    -0.354 N 
ATOM     62  N   UNL A   1      45.199  28.989  29.806  1.00  0.00    -0.248 NA
ATOM     63  C   UNL A   1      47.341  29.045  29.026  1.00  0.00     0.031 C 
ATOM     64  C   UNL A   1      43.339  30.613  32.448  1.00  0.00     0.029 A 
ATOM     65  C   UNL A   1      43.525  30.924  31.110  1.00  0.00     0.049 A 
ATOM     66  H   UNL A   1      42.064  31.437  29.688  1.00  0.00     0.167 HD
ATOM     67  C   UNL A   1      45.576  30.283  29.931  1.00  0.00     0.074 A 
ATOM     68  C   UNL A   1      46.957  30.262  29.471  1.00  0.00     0.031 C 
ATOM     69  C   UNL A   1      44.714  31.271  30.324  1.00  0.00     0.034 A 
BRANCH  56  70
ATOM     70  C   UNL A   1      38.634  31.242  31.896  1.00  0.00     0.023 A 
ATOM     71  C   UNL A   1      37.349  30.812  31.490  1.00  0.00     0.012 A 
ATOM     72  C   UNL A   1      38.637  32.202  32.950  1.00  0.00     0.148 A 
ATOM     73  C   UNL A   1      36.159  31.307  32.046  1.00  0.00     0.002 A 
ATOM     74  C   UNL A   1      37.447  32.645  33.557  1.00  0.00     0.091 A 
ATOM     75  F   UNL A   1      39.781  32.756  33.355  1.00  0.00    -0.205 F 
ATOM     76  C   UNL A   1      36.206  32.216  33.088  1.00  0.00     0.022 A 
BRANCH  74  77
ATOM     77  S   UNL A   1      37.402  33.769  34.976  1.00  0.00     0.127 S 
ATOM     78  O   UNL A   1      35.972  33.822  35.289  1.00  0.00    -0.237 OA
ATOM     79  O   UNL A   1      38.208  33.052  35.965  1.00  0.00    -0.237 OA
ATOM     80  O   UNL A   1      37.975  35.031  34.524  1.00  0.00    -0.744 OA
ENDBRANCH  74  77
ENDBRANCH  56  70
BRANCH  57  81
ATOM     81  C   UNL A   1      46.452  25.873  27.838  1.00  0.00     0.023 A 
ATOM     82  C   UNL A   1      45.828  26.121  26.582  1.00  0.00     0.012 A 
ATOM     83  C   UNL A   1      47.823  25.563  27.850  1.00  0.00     0.148 A 
ATOM     84  C   UNL A   1      46.599  26.385  25.445  1.00  0.00     0.002 A 
ATOM     85  C   UNL A   1      48.588  25.846  26.715  1.00  0.00     0.091 A 
ATOM     86  F   UNL A   1      48.377  25.161  29.001  1.00  0.00    -0.205 F 
ATOM     87  C   UNL A   1      47.984  26.311  25.532  1.00  0.00     0.022 A 
BRANCH  85  88
ATOM     88  S   UNL A   1      50.382  25.928  26.819  1.00  0.00     0.127 S 
ATOM     89  O   UNL A   1      50.757  26.207  25.438  1.00  0.00    -0.237 OA
ATOM     90  O   UNL A   1      50.588  27.040  27.749  1.00  0.00    -0.237 OA
ATOM     91  O   UNL A   1      50.784  24.632  27.345  1.00  0.00    -0.744 OA
ENDBRANCH  85  88
ENDBRANCH  57  81
BRANCH  69  92
ATOM     92  C   UNL A   1      44.941  32.721  29.968  1.00  0.00     0.023 A 
ATOM     93  C   UNL A   1      45.460  33.620  30.921  1.00  0.00     0.012 A 
ATOM     94  C   UNL A   1      44.847  33.177  28.630  1.00  0.00     0.148 A 
ATOM     95  C   UNL A   1      45.780  34.936  30.593  1.00  0.00     0.002 A 
ATOM     96  C   UNL A   1      45.279  34.453  28.288  1.00  0.00     0.091 A 
ATOM     97  F   UNL A   1      44.335  32.381  27.683  1.00  0.00    -0.205 F 
ATOM     98  C   UNL A   1      45.706  35.348  29.271  1.00  0.00     0.022 A 
BRANCH  96  99
ATOM     99  S   UNL A   1      45.461  34.953  26.570  1.00  0.00     0.127 S 
ATOM    100  O   UNL A   1      46.543  35.930  26.659  1.00  0.00    -0.237 OA
ATOM    101  O   UNL A   1      45.825  33.694  25.920  1.00  0.00    -0.237 OA
ATOM    102  O   UNL A   1      44.160  35.476  26.174  1.00  0.00    -0.744 OA
ENDBRANCH  96  99
ENDBRANCH  69  92
ENDBRANCH  43  44
ENDBRANCH  36  38
ENDBRANCH  35  36
ENDBRANCH  34  35
ENDBRANCH  33  34
ENDBRANCH  32  33
ENDBRANCH  31  32
ENDBRANCH   1  31
TORSDOF 26
ENDMDL
MODEL 3
REMARK VINA RESULT:     -10.0      6.094      9.895
REMARK SMILES Cc1c(CC(=O)OCCOCCOCCOCCOC(=O)c2ccc(-c3c4nc(c(-c5cccc(S(=O)(=O)[O-])c5F)c5ccc([nH]5)c(-c5cccc(S(=O)(=O)[O-])c5F)c5nc(c(-c6cccc(S(=O)(=O)[O-])c6F)c6ccc3[nH]6)C=C5)C=C4)cc2)cc(-c2ccccc2)cc1-c1ccccc1
REMARK SMILES IDX 14 1 13 2 12 3 11 4 10 5 9 6 8 7 7 8 5 9 6 10 4 11 3 12 1 13
REMARK SMILES IDX 2 14 94 15 85 16 93 17 86 18 95 19 96 20 100 21 97 22 99 23
REMARK SMILES IDX 98 24 87 25 88 26 92 27 89 28 91 29 90 30 15 31 16 32 17 33
REMARK SMILES IDX 18 34 19 35 20 36 21 37 22 38 23 39 84 40 24 41 83 42 25 43
REMARK SMILES IDX 26 44 27 45 77 46 28 47 82 48 76 49 78 50 29 51 81 52 75 53
REMARK SMILES IDX 74 54 30 56 62 57 42 58 61 59 43 60 46 61 60 62 79 63 44 64
REMARK SMILES IDX 45 65 59 67 80 68 47 69 31 70 32 71 40 72 33 73 35 74 41 75
REMARK SMILES IDX 34 76 36 77 37 78 38 79 39 80 63 81 64 82 72 83 65 84 67 85
REMARK SMILES IDX 73 86 66 87 68 88 69 89 70 90 71 91 48 92 49 93 57 94 50 95
REMARK SMILES IDX 52 96 58 97 51 98 53 99 54 100 55 101 56 102
REMARK H PARENT 78 55 46 66
REMARK Flexibility Score: inf
ROOT
ATOM      1  C   UNL A   1      34.733  21.164  26.353  1.00  0.00     0.188 C 
ENDROOT
BRANCH   1   2
ATOM      2  O   UNL A   1      33.629  20.396  25.935  1.00  0.00    -0.377 OA
BRANCH   2   3
ATOM      3  C   UNL A   1      33.621  19.663  24.742  1.00  0.00     0.188 C 
BRANCH   3   4
ATOM      4  C   UNL A   1      32.555  19.770  23.633  1.00  0.00     0.188 C 
BRANCH   4   5
ATOM      5  O   UNL A   1      32.182  20.982  22.998  1.00  0.00    -0.376 OA
BRANCH   5   6
ATOM      6  C   UNL A   1      33.076  22.067  23.099  1.00  0.00     0.202 C 
BRANCH   6   7
ATOM      7  C   UNL A   1      32.520  23.259  22.328  1.00  0.00     0.261 C 
BRANCH   7   8
ATOM      8  O   UNL A   1      33.544  24.208  21.959  1.00  0.00    -0.463 OA
BRANCH   8   9
ATOM      9  C   UNL A   1      33.279  25.500  22.267  1.00  0.00     0.310 C 
ATOM     10  O   UNL A   1      33.886  26.470  21.825  1.00  0.00    -0.252 OA
BRANCH   9  11
ATOM     11  C   UNL A   1      32.234  25.664  23.348  1.00  0.00     0.158 C 
BRANCH  11  12
ATOM     12  C   UNL A   1      31.895  27.038  23.926  1.00  0.00    -0.033 A 
ATOM     13  C   UNL A   1      33.152  26.491  26.069  1.00  0.00     0.045 C 
ATOM     14  C   UNL A   1      32.401  27.455  25.180  1.00  0.00    -0.039 A 
ATOM     15  C   UNL A   1      32.235  28.804  25.577  1.00  0.00    -0.015 A 
ATOM     16  C   UNL A   1      31.132  27.966  23.162  1.00  0.00     0.013 A 
ATOM     17  C   UNL A   1      31.347  29.626  24.869  1.00  0.00     0.017 A 
ATOM     18  C   UNL A   1      30.756  29.228  23.671  1.00  0.00    -0.017 A 
BRANCH  15  19
ATOM     19  C   UNL A   1      33.142  29.482  26.517  1.00  0.00    -0.018 A 
ATOM     20  C   UNL A   1      32.852  30.724  27.100  1.00  0.00     0.009 A 
ATOM     21  C   UNL A   1      34.439  28.957  26.671  1.00  0.00     0.009 A 
ATOM     22  C   UNL A   1      33.842  31.424  27.795  1.00  0.00     0.001 A 
ATOM     23  C   UNL A   1      35.422  29.649  27.369  1.00  0.00     0.001 A 
ATOM     24  C   UNL A   1      35.124  30.889  27.923  1.00  0.00     0.000 A 
ENDBRANCH  15  19
BRANCH  18  25
ATOM     25  C   UNL A   1      29.748  30.122  23.051  1.00  0.00    -0.018 A 
ATOM     26  C   UNL A   1      29.084  31.087  23.841  1.00  0.00     0.009 A 
ATOM     27  C   UNL A   1      29.404  30.066  21.698  1.00  0.00     0.009 A 
ATOM     28  C   UNL A   1      28.081  31.916  23.323  1.00  0.00     0.001 A 
ATOM     29  C   UNL A   1      28.419  30.915  21.167  1.00  0.00     0.001 A 
ATOM     30  C   UNL A   1      27.744  31.824  21.982  1.00  0.00     0.000 A 
ENDBRANCH  18  25
ENDBRANCH  11  12
ENDBRANCH   9  11
ENDBRANCH   8   9
ENDBRANCH   7   8
ENDBRANCH   6   7
ENDBRANCH   5   6
ENDBRANCH   4   5
ENDBRANCH   3   4
ENDBRANCH   2   3
ENDBRANCH   1   2
BRANCH   1  31
ATOM     31  C   UNL A   1      35.734  21.703  25.371  1.00  0.00     0.188 C 
BRANCH  31  32
ATOM     32  O   UNL A   1      37.029  21.300  25.754  1.00  0.00    -0.376 OA
BRANCH  32  33
ATOM     33  C   UNL A   1      38.033  22.295  25.696  1.00  0.00     0.202 C 
BRANCH  33  34
ATOM     34  C   UNL A   1      39.422  21.706  25.930  1.00  0.00     0.261 C 
BRANCH  34  35
ATOM     35  O   UNL A   1      40.037  22.423  27.025  1.00  0.00    -0.460 OA
BRANCH  35  36
ATOM     36  C   UNL A   1      41.313  22.863  26.792  1.00  0.00     0.338 C 
ATOM     37  O   UNL A   1      41.944  22.596  25.796  1.00  0.00    -0.246 OA
BRANCH  36  38
ATOM     38  C   UNL A   1      41.884  23.497  28.034  1.00  0.00     0.060 A 
ATOM     39  C   UNL A   1      41.799  24.886  28.223  1.00  0.00     0.016 A 
ATOM     40  C   UNL A   1      42.770  22.771  28.821  1.00  0.00     0.016 A 
ATOM     41  C   UNL A   1      42.727  25.562  29.046  1.00  0.00     0.010 A 
ATOM     42  C   UNL A   1      43.751  23.453  29.528  1.00  0.00     0.010 A 
ATOM     43  C   UNL A   1      43.783  24.865  29.611  1.00  0.00    -0.014 A 
BRANCH  43  44
ATOM     44  C   UNL A   1      45.007  25.423  30.248  1.00  0.00     0.031 A 
ATOM     45  C   UNL A   1      45.114  25.172  31.726  1.00  0.00     0.074 A 
ATOM     46  C   UNL A   1      46.135  25.741  29.544  1.00  0.00     0.049 A 
ATOM     47  N   UNL A   1      46.183  25.264  32.438  1.00  0.00    -0.248 NA
ATOM     48  C   UNL A   1      43.969  24.729  32.522  1.00  0.00     0.031 C 
ATOM     49  C   UNL A   1      47.497  25.453  30.010  1.00  0.00     0.029 A 
ATOM     50  N   UNL A   1      46.395  26.175  28.252  1.00  0.00    -0.354 N 
ATOM     51  C   UNL A   1      45.960  24.674  33.664  1.00  0.00     0.074 A 
ATOM     52  C   UNL A   1      44.549  24.394  33.678  1.00  0.00     0.031 C 
ATOM     53  C   UNL A   1      48.409  25.638  29.047  1.00  0.00     0.029 A 
ATOM     54  C   UNL A   1      47.762  26.446  28.052  1.00  0.00     0.049 A 
ATOM     55  H   UNL A   1      45.705  26.279  27.557  1.00  0.00     0.167 HD
ATOM     56  C   UNL A   1      47.027  24.427  34.477  1.00  0.00     0.034 A 
ATOM     57  C   UNL A   1      48.228  27.704  27.770  1.00  0.00     0.034 A 
ATOM     58  C   UNL A   1      48.247  25.134  33.985  1.00  0.00     0.049 A 
ATOM     59  C   UNL A   1      48.861  28.375  28.999  1.00  0.00     0.074 A 
ATOM     60  C   UNL A   1      49.552  24.773  33.695  1.00  0.00     0.029 A 
ATOM     61  N   UNL A   1      48.147  26.478  33.584  1.00  0.00    -0.354 N 
ATOM     62  N   UNL A   1      48.890  27.798  30.178  1.00  0.00    -0.248 NA
ATOM     63  C   UNL A   1      49.559  29.659  29.043  1.00  0.00     0.031 C 
ATOM     64  C   UNL A   1      50.151  25.830  32.938  1.00  0.00     0.029 A 
ATOM     65  C   UNL A   1      49.265  26.896  32.879  1.00  0.00     0.049 A 
ATOM     66  H   UNL A   1      47.375  27.055  33.782  1.00  0.00     0.167 HD
ATOM     67  C   UNL A   1      49.443  28.596  31.122  1.00  0.00     0.074 A 
ATOM     68  C   UNL A   1      49.897  29.743  30.349  1.00  0.00     0.031 C 
ATOM     69  C   UNL A   1      49.416  28.292  32.457  1.00  0.00     0.034 A 
BRANCH  56  70
ATOM     70  C   UNL A   1      47.038  23.454  35.677  1.00  0.00     0.023 A 
ATOM     71  C   UNL A   1      46.153  22.352  35.612  1.00  0.00     0.012 A 
ATOM     72  C   UNL A   1      47.773  23.558  36.895  1.00  0.00     0.148 A 
ATOM     73  C   UNL A   1      45.973  21.444  36.667  1.00  0.00     0.002 A 
ATOM     74  C   UNL A   1      47.648  22.606  37.925  1.00  0.00     0.091 A 
ATOM     75  F   UNL A   1      48.569  24.605  37.115  1.00  0.00    -0.205 F 
ATOM     76  C   UNL A   1      46.728  21.563  37.820  1.00  0.00     0.022 A 
BRANCH  74  77
ATOM     77  S   UNL A   1      48.644  22.625  39.437  1.00  0.00     0.127 S 
ATOM     78  O   UNL A   1      48.447  23.991  39.925  1.00  0.00    -0.237 OA
ATOM     79  O   UNL A   1      47.993  21.596  40.249  1.00  0.00    -0.237 OA
ATOM     80  O   UNL A   1      50.009  22.310  39.037  1.00  0.00    -0.744 OA
ENDBRANCH  74  77
ENDBRANCH  56  70
BRANCH  57  81
ATOM     81  C   UNL A   1      47.534  28.251  26.558  1.00  0.00     0.023 A 
ATOM     82  C   UNL A   1      47.598  27.355  25.452  1.00  0.00     0.012 A 
ATOM     83  C   UNL A   1      46.352  28.986  26.750  1.00  0.00     0.148 A 
ATOM     84  C   UNL A   1      46.432  26.964  24.786  1.00  0.00     0.002 A 
ATOM     85  C   UNL A   1      45.189  28.577  26.093  1.00  0.00     0.091 A 
ATOM     86  F   UNL A   1      46.344  29.951  27.679  1.00  0.00    -0.205 F 
ATOM     87  C   UNL A   1      45.218  27.529  25.154  1.00  0.00     0.022 A 
BRANCH  85  88
ATOM     88  S   UNL A   1      43.576  29.152  26.645  1.00  0.00     0.127 S 
ATOM     89  O   UNL A   1      42.678  28.500  25.700  1.00  0.00    -0.237 OA
ATOM     90  O   UNL A   1      43.513  28.633  28.013  1.00  0.00    -0.237 OA
ATOM     91  O   UNL A   1      43.651  30.604  26.564  1.00  0.00    -0.744 OA
ENDBRANCH  85  88
ENDBRANCH  57  81
BRANCH  69  92
ATOM     92  C   UNL A   1      49.529  29.356  33.524  1.00  0.00     0.023 A 
ATOM     93  C   UNL A   1      48.602  30.415  33.580  1.00  0.00     0.012 A 
ATOM     94  C   UNL A   1      50.421  29.216  34.615  1.00  0.00     0.148 A 
ATOM     95  C   UNL A   1      48.616  31.351  34.613  1.00  0.00     0.002 A 
ATOM     96  C   UNL A   1      50.351  30.083  35.699  1.00  0.00     0.091 A 
ATOM     97  F   UNL A   1      51.345  28.246  34.609  1.00  0.00    -0.205 F 
ATOM     98  C   UNL A   1      49.480  31.175  35.682  1.00  0.00     0.022 A 
BRANCH  96  99
ATOM     99  S   UNL A   1      51.247  29.755  37.223  1.00  0.00     0.127 S 
ATOM    100  O   UNL A   1      52.635  29.901  36.789  1.00  0.00    -0.237 OA
ATOM    101  O   UNL A   1      50.766  30.824  38.100  1.00  0.00    -0.237 OA
ATOM    102  O   UNL A   1      50.845  28.418  37.636  1.00  0.00    -0.744 OA
ENDBRANCH  96  99
ENDBRANCH  69  92
ENDBRANCH  43  44
ENDBRANCH  36  38
ENDBRANCH  35  36
ENDBRANCH  34  35
ENDBRANCH  33  34
ENDBRANCH  32  33
ENDBRANCH  31  32
ENDBRANCH   1  31
TORSDOF 26
ENDMDL
