MODEL 1
REMARK VINA RESULT:      -9.6      0.000      0.000
REMARK SMILES Cc1nc2n(n1)[C@@H](c1ccc([N+](=O)[O-])o1)CC(C(=O)OCCOCCOCCOCCOC(=O)c1ccc(-c3c4nc(c(-c5cccc(S(=O)(=O)[O-])c5F)c5ccc([nH]5)c(-c5cccc(S(=O)(=O)[O-])c5F)c5nc(c(-c6cccc(S(=O)(=O)[O-])c6F)c6ccc3[nH]6)C=C5)C=C4)cc1)=N2
REMARK SMILES IDX 27 1 26 2 25 3 24 4 23 5 22 6 21 7 20 8 18 9 19 10 17 11
REMARK SMILES IDX 1 12 2 13 3 14 6 15 4 16 5 17 98 18 7 19 16 20 8 21 9 22
REMARK SMILES IDX 15 23 10 24 11 25 12 26 13 27 14 28 28 29 29 30 30 31 31 32
REMARK SMILES IDX 32 33 33 34 34 35 35 36 36 37 97 38 37 39 96 40 38 41 39 42
REMARK SMILES IDX 40 43 90 44 41 45 95 46 89 47 91 48 42 49 94 50 88 51 87 52
REMARK SMILES IDX 43 54 75 55 55 56 74 57 56 58 59 59 73 60 92 61 57 62 58 63
REMARK SMILES IDX 72 65 93 66 60 67 44 68 45 69 53 70 46 71 48 72 54 73 47 74
REMARK SMILES IDX 49 75 50 76 51 77 52 78 76 79 77 80 85 81 78 82 80 83 86 84
REMARK SMILES IDX 79 85 81 86 82 87 83 88 84 89 61 90 62 91 70 92 63 93 65 94
REMARK SMILES IDX 71 95 64 96 66 97 67 98 68 99 69 100
REMARK H PARENT 91 53 59 64
REMARK Flexibility Score: inf
ROOT
ATOM      1  C   UNL A   1      32.086  28.071  23.988  1.00  0.00     0.188 C 
ENDROOT
BRANCH   1   2
ATOM      2  O   UNL A   1      32.361  26.787  24.557  1.00  0.00    -0.377 OA
BRANCH   2   3
ATOM      3  C   UNL A   1      31.283  25.866  24.515  1.00  0.00     0.188 C 
BRANCH   3   4
ATOM      4  C   UNL A   1      31.111  24.976  25.768  1.00  0.00     0.188 C 
BRANCH   4   5
ATOM      5  O   UNL A   1      32.194  24.655  26.640  1.00  0.00    -0.376 OA
BRANCH   5   6
ATOM      6  C   UNL A   1      33.018  23.524  26.398  1.00  0.00     0.202 C 
BRANCH   6   7
ATOM      7  C   UNL A   1      34.116  23.647  25.338  1.00  0.00     0.261 C 
BRANCH   7   8
ATOM      8  O   UNL A   1      35.369  23.124  25.792  1.00  0.00    -0.459 OA
BRANCH   8   9
ATOM      9  C   UNL A   1      36.401  23.242  24.943  1.00  0.00     0.352 C 
ATOM     10  O   UNL A   1      36.391  23.565  23.772  1.00  0.00    -0.245 OA
BRANCH   9  11
ATOM     11  C   UNL A   1      37.693  23.004  25.709  1.00  0.00     0.132 C 
ATOM     12  C   UNL A   1      42.001  19.649  27.584  1.00  0.00     0.092 C 
ATOM     13  C   UNL A   1      41.041  20.699  27.194  1.00  0.00     0.149 A 
ATOM     14  N   UNL A   1      40.166  20.530  26.156  1.00  0.00    -0.195 NA
ATOM     15  N   UNL A   1      40.917  21.857  27.850  1.00  0.00    -0.154 NA
ATOM     16  C   UNL A   1      39.433  21.623  26.171  1.00  0.00     0.249 A 
ATOM     17  N   UNL A   1      39.935  22.452  27.137  1.00  0.00    -0.219 N 
ATOM     18  N   UNL A   1      38.326  21.901  25.456  1.00  0.00    -0.209 NA
ATOM     19  C   UNL A   1      39.366  23.735  27.499  1.00  0.00     0.184 C 
ATOM     20  C   UNL A   1      38.124  24.086  26.668  1.00  0.00     0.100 C 
BRANCH  19  21
ATOM     21  C   UNL A   1      40.404  24.828  27.460  1.00  0.00     0.136 A 
ATOM     22  C   UNL A   1      40.930  25.714  28.388  1.00  0.00     0.056 A 
ATOM     23  O   UNL A   1      40.940  25.095  26.225  1.00  0.00    -0.404 OA
ATOM     24  C   UNL A   1      41.825  26.569  27.693  1.00  0.00     0.134 A 
ATOM     25  C   UNL A   1      41.796  26.141  26.390  1.00  0.00     0.433 A 
BRANCH  25  26
ATOM     26  N   UNL A   1      42.453  26.621  25.214  1.00  0.00     0.102 N 
ATOM     27  O   UNL A   1      43.231  25.830  24.667  1.00  0.00    -0.256 OA
ATOM     28  O   UNL A   1      42.210  27.781  24.861  1.00  0.00    -0.256 OA
ENDBRANCH  25  26
ENDBRANCH  19  21
ENDBRANCH   9  11
ENDBRANCH   8   9
ENDBRANCH   7   8
ENDBRANCH   6   7
ENDBRANCH   5   6
ENDBRANCH   4   5
ENDBRANCH   3   4
ENDBRANCH   2   3
ENDBRANCH   1   2
BRANCH   1  29
ATOM     29  C   UNL A   1      31.484  29.098  24.960  1.00  0.00     0.188 C 
BRANCH  29  30
ATOM     30  O   UNL A   1      31.821  28.803  26.317  1.00  0.00    -0.376 OA
BRANCH  30  31
ATOM     31  C   UNL A   1      32.732  29.693  26.956  1.00  0.00     0.202 C 
BRANCH  31  32
ATOM     32  C   UNL A   1      34.218  29.441  26.657  1.00  0.00     0.261 C 
BRANCH  32  33
ATOM     33  O   UNL A   1      35.100  29.600  27.780  1.00  0.00    -0.460 OA
BRANCH  33  34
ATOM     34  C   UNL A   1      35.817  30.744  27.807  1.00  0.00     0.338 C 
ATOM     35  O   UNL A   1      35.412  31.877  27.633  1.00  0.00    -0.246 OA
BRANCH  34  36
ATOM     36  C   UNL A   1      37.181  30.425  28.219  1.00  0.00     0.060 A 
ATOM     37  C   UNL A   1      37.675  29.136  28.000  1.00  0.00     0.016 A 
ATOM     38  C   UNL A   1      37.900  31.369  28.948  1.00  0.00     0.016 A 
ATOM     39  C   UNL A   1      38.887  28.772  28.573  1.00  0.00     0.010 A 
ATOM     40  C   UNL A   1      39.099  30.992  29.538  1.00  0.00     0.010 A 
ATOM     41  C   UNL A   1      39.583  29.684  29.385  1.00  0.00    -0.014 A 
BRANCH  41  42
ATOM     42  C   UNL A   1      40.742  29.183  30.161  1.00  0.00     0.031 A 
ATOM     43  C   UNL A   1      42.048  29.877  29.917  1.00  0.00     0.074 A 
ATOM     44  C   UNL A   1      40.504  28.758  31.423  1.00  0.00     0.049 A 
ATOM     45  N   UNL A   1      42.326  31.046  30.415  1.00  0.00    -0.248 NA
ATOM     46  C   UNL A   1      42.995  29.432  28.897  1.00  0.00     0.031 C 
ATOM     47  C   UNL A   1      39.436  29.323  32.268  1.00  0.00     0.029 A 
ATOM     48  N   UNL A   1      41.250  27.993  32.290  1.00  0.00    -0.354 N 
ATOM     49  C   UNL A   1      43.407  31.547  29.712  1.00  0.00     0.074 A 
ATOM     50  C   UNL A   1      43.813  30.494  28.807  1.00  0.00     0.031 C 
ATOM     51  C   UNL A   1      39.698  29.031  33.555  1.00  0.00     0.029 A 
ATOM     52  C   UNL A   1      40.853  28.146  33.619  1.00  0.00     0.049 A 
ATOM     53  H   UNL A   1      41.984  27.402  32.004  1.00  0.00     0.167 HD
ATOM     54  C   UNL A   1      43.881  32.809  29.891  1.00  0.00     0.034 A 
ATOM     55  C   UNL A   1      41.676  28.019  34.696  1.00  0.00     0.034 A 
ATOM     56  C   UNL A   1      43.197  33.593  30.880  1.00  0.00     0.049 A 
ATOM     57  C   UNL A   1      42.410  29.335  34.652  1.00  0.00     0.074 A 
ATOM     58  C   UNL A   1      42.207  34.551  30.892  1.00  0.00     0.029 A 
ATOM     59  N   UNL A   1      43.492  33.379  32.205  1.00  0.00    -0.354 N 
ATOM     60  N   UNL A   1      41.949  30.482  35.088  1.00  0.00    -0.248 NA
ATOM     61  C   UNL A   1      43.537  29.446  33.728  1.00  0.00     0.031 C 
ATOM     62  C   UNL A   1      41.668  34.534  32.216  1.00  0.00     0.029 A 
ATOM     63  C   UNL A   1      42.329  33.527  32.919  1.00  0.00     0.049 A 
ATOM     64  H   UNL A   1      44.378  33.160  32.576  1.00  0.00     0.167 HD
ATOM     65  C   UNL A   1      42.506  31.444  34.238  1.00  0.00     0.074 A 
ATOM     66  C   UNL A   1      43.508  30.744  33.460  1.00  0.00     0.031 C 
ATOM     67  C   UNL A   1      42.002  32.703  34.066  1.00  0.00     0.034 A 
BRANCH  54  68
ATOM     68  C   UNL A   1      45.080  33.373  29.231  1.00  0.00     0.023 A 
ATOM     69  C   UNL A   1      46.165  33.698  30.070  1.00  0.00     0.012 A 
ATOM     70  C   UNL A   1      45.095  33.786  27.888  1.00  0.00     0.148 A 
ATOM     71  C   UNL A   1      47.229  34.461  29.601  1.00  0.00     0.002 A 
ATOM     72  C   UNL A   1      46.169  34.543  27.422  1.00  0.00     0.091 A 
ATOM     73  F   UNL A   1      44.042  33.491  27.111  1.00  0.00    -0.205 F 
ATOM     74  C   UNL A   1      47.228  34.891  28.279  1.00  0.00     0.022 A 
BRANCH  72  75
ATOM     75  S   UNL A   1      46.274  35.144  25.732  1.00  0.00     0.127 S 
ATOM     76  O   UNL A   1      45.872  36.540  25.878  1.00  0.00    -0.237 OA
ATOM     77  O   UNL A   1      47.692  34.947  25.423  1.00  0.00    -0.237 OA
ATOM     78  O   UNL A   1      45.373  34.297  24.962  1.00  0.00    -0.744 OA
ENDBRANCH  72  75
ENDBRANCH  54  68
BRANCH  55  79
ATOM     79  C   UNL A   1      42.293  26.660  34.817  1.00  0.00     0.023 A 
ATOM     80  C   UNL A   1      41.623  25.763  35.687  1.00  0.00     0.012 A 
ATOM     81  C   UNL A   1      43.413  26.174  34.125  1.00  0.00     0.148 A 
ATOM     82  C   UNL A   1      41.980  24.416  35.780  1.00  0.00     0.002 A 
ATOM     83  C   UNL A   1      43.723  24.815  34.162  1.00  0.00     0.091 A 
ATOM     84  F   UNL A   1      44.181  27.026  33.439  1.00  0.00    -0.205 F 
ATOM     85  C   UNL A   1      43.009  23.934  34.988  1.00  0.00     0.022 A 
BRANCH  83  86
ATOM     86  S   UNL A   1      44.954  24.078  33.080  1.00  0.00     0.127 S 
ATOM     87  O   UNL A   1      46.044  23.794  34.011  1.00  0.00    -0.237 OA
ATOM     88  O   UNL A   1      44.241  22.902  32.585  1.00  0.00    -0.237 OA
ATOM     89  O   UNL A   1      45.244  25.086  32.069  1.00  0.00    -0.744 OA
ENDBRANCH  83  86
ENDBRANCH  55  79
BRANCH  67  90
ATOM     90  C   UNL A   1      40.926  33.146  35.013  1.00  0.00     0.023 A 
ATOM     91  C   UNL A   1      41.304  33.836  36.180  1.00  0.00     0.012 A 
ATOM     92  C   UNL A   1      39.555  32.991  34.723  1.00  0.00     0.148 A 
ATOM     93  C   UNL A   1      40.343  34.393  37.023  1.00  0.00     0.002 A 
ATOM     94  C   UNL A   1      38.603  33.595  35.538  1.00  0.00     0.091 A 
ATOM     95  F   UNL A   1      39.196  32.274  33.649  1.00  0.00    -0.205 F 
ATOM     96  C   UNL A   1      38.995  34.292  36.691  1.00  0.00     0.022 A 
BRANCH  94  97
ATOM     97  S   UNL A   1      36.850  33.614  35.142  1.00  0.00     0.127 S 
ATOM     98  O   UNL A   1      36.240  33.782  36.460  1.00  0.00    -0.237 OA
ATOM     99  O   UNL A   1      36.750  34.788  34.271  1.00  0.00    -0.237 OA
ATOM    100  O   UNL A   1      36.563  32.346  34.485  1.00  0.00    -0.744 OA
ENDBRANCH  94  97
ENDBRANCH  67  90
ENDBRANCH  41  42
ENDBRANCH  34  36
ENDBRANCH  33  34
ENDBRANCH  32  33
ENDBRANCH  31  32
ENDBRANCH  30  31
ENDBRANCH  29  30
ENDBRANCH   1  29
TORSDOF 25
ENDMDL
MODEL 2
REMARK VINA RESULT:      -8.6      2.650      6.847
REMARK SMILES Cc1nc2n(n1)[C@@H](c1ccc([N+](=O)[O-])o1)CC(C(=O)OCCOCCOCCOCCOC(=O)c1ccc(-c3c4nc(c(-c5cccc(S(=O)(=O)[O-])c5F)c5ccc([nH]5)c(-c5cccc(S(=O)(=O)[O-])c5F)c5nc(c(-c6cccc(S(=O)(=O)[O-])c6F)c6ccc3[nH]6)C=C5)C=C4)cc1)=N2
REMARK SMILES IDX 27 1 26 2 25 3 24 4 23 5 22 6 21 7 20 8 18 9 19 10 17 11
REMARK SMILES IDX 1 12 2 13 3 14 6 15 4 16 5 17 98 18 7 19 16 20 8 21 9 22
REMARK SMILES IDX 15 23 10 24 11 25 12 26 13 27 14 28 28 29 29 30 30 31 31 32
REMARK SMILES IDX 32 33 33 34 34 35 35 36 36 37 97 38 37 39 96 40 38 41 39 42
REMARK SMILES IDX 40 43 90 44 41 45 95 46 89 47 91 48 42 49 94 50 88 51 87 52
REMARK SMILES IDX 43 54 75 55 55 56 74 57 56 58 59 59 73 60 92 61 57 62 58 63
REMARK SMILES IDX 72 65 93 66 60 67 44 68 45 69 53 70 46 71 48 72 54 73 47 74
REMARK SMILES IDX 49 75 50 76 51 77 52 78 76 79 77 80 85 81 78 82 80 83 86 84
REMARK SMILES IDX 79 85 81 86 82 87 83 88 84 89 61 90 62 91 70 92 63 93 65 94
REMARK SMILES IDX 71 95 64 96 66 97 67 98 68 99 69 100
REMARK H PARENT 91 53 59 64
REMARK Flexibility Score: inf
ROOT
ATOM      1  C   UNL A   1      33.273  26.650  24.441  1.00  0.00     0.188 C 
ENDROOT
BRANCH   1   2
ATOM      2  O   UNL A   1      34.121  25.683  25.069  1.00  0.00    -0.377 OA
BRANCH   2   3
ATOM      3  C   UNL A   1      33.471  24.494  25.485  1.00  0.00     0.188 C 
BRANCH   3   4
ATOM      4  C   UNL A   1      33.696  23.254  24.586  1.00  0.00     0.188 C 
BRANCH   4   5
ATOM      5  O   UNL A   1      34.087  21.985  25.109  1.00  0.00    -0.376 OA
BRANCH   5   6
ATOM      6  C   UNL A   1      35.321  21.824  25.792  1.00  0.00     0.202 C 
BRANCH   6   7
ATOM      7  C   UNL A   1      36.586  22.385  25.136  1.00  0.00     0.261 C 
BRANCH   7   8
ATOM      8  O   UNL A   1      37.597  22.708  26.096  1.00  0.00    -0.459 OA
BRANCH   8   9
ATOM      9  C   UNL A   1      38.710  21.959  26.056  1.00  0.00     0.352 C 
ATOM     10  O   UNL A   1      38.863  20.846  25.596  1.00  0.00    -0.245 OA
BRANCH   9  11
ATOM     11  C   UNL A   1      39.868  22.776  26.609  1.00  0.00     0.132 C 
ATOM     12  C   UNL A   1      45.405  23.482  28.083  1.00  0.00     0.092 C 
ATOM     13  C   UNL A   1      43.970  23.553  27.747  1.00  0.00     0.149 A 
ATOM     14  N   UNL A   1      43.380  22.652  26.904  1.00  0.00    -0.195 NA
ATOM     15  N   UNL A   1      43.138  24.456  28.276  1.00  0.00    -0.154 NA
ATOM     16  C   UNL A   1      42.107  22.983  26.919  1.00  0.00     0.249 A 
ATOM     17  N   UNL A   1      41.975  24.112  27.680  1.00  0.00    -0.219 N 
ATOM     18  N   UNL A   1      41.062  22.325  26.380  1.00  0.00    -0.209 NA
ATOM     19  C   UNL A   1      40.714  24.759  27.983  1.00  0.00     0.184 C 
ATOM     20  C   UNL A   1      39.514  24.044  27.346  1.00  0.00     0.100 C 
BRANCH  19  21
ATOM     21  C   UNL A   1      40.751  26.226  27.637  1.00  0.00     0.136 A 
ATOM     22  C   UNL A   1      39.999  27.337  27.992  1.00  0.00     0.056 A 
ATOM     23  O   UNL A   1      41.689  26.594  26.707  1.00  0.00    -0.404 OA
ATOM     24  C   UNL A   1      40.492  28.436  27.242  1.00  0.00     0.134 A 
ATOM     25  C   UNL A   1      41.519  27.928  26.488  1.00  0.00     0.433 A 
BRANCH  25  26
ATOM     26  N   UNL A   1      42.376  28.531  25.516  1.00  0.00     0.102 N 
ATOM     27  O   UNL A   1      42.450  27.953  24.425  1.00  0.00    -0.256 OA
ATOM     28  O   UNL A   1      42.984  29.555  25.851  1.00  0.00    -0.256 OA
ENDBRANCH  25  26
ENDBRANCH  19  21
ENDBRANCH   9  11
ENDBRANCH   8   9
ENDBRANCH   7   8
ENDBRANCH   6   7
ENDBRANCH   5   6
ENDBRANCH   4   5
ENDBRANCH   3   4
ENDBRANCH   2   3
ENDBRANCH   1   2
BRANCH   1  29
ATOM     29  C   UNL A   1      32.619  27.660  25.398  1.00  0.00     0.188 C 
BRANCH  29  30
ATOM     30  O   UNL A   1      33.072  28.993  25.152  1.00  0.00    -0.376 OA
BRANCH  30  31
ATOM     31  C   UNL A   1      32.710  29.979  26.115  1.00  0.00     0.202 C 
BRANCH  31  32
ATOM     32  C   UNL A   1      33.152  29.684  27.557  1.00  0.00     0.261 C 
BRANCH  32  33
ATOM     33  O   UNL A   1      34.324  30.392  27.990  1.00  0.00    -0.460 OA
BRANCH  33  34
ATOM     34  C   UNL A   1      35.506  29.802  27.706  1.00  0.00     0.338 C 
ATOM     35  O   UNL A   1      35.897  29.408  26.625  1.00  0.00    -0.246 OA
BRANCH  34  36
ATOM     36  C   UNL A   1      36.333  29.822  28.910  1.00  0.00     0.060 A 
ATOM     37  C   UNL A   1      35.715  29.911  30.160  1.00  0.00     0.016 A 
ATOM     38  C   UNL A   1      37.717  29.899  28.771  1.00  0.00     0.016 A 
ATOM     39  C   UNL A   1      36.497  30.139  31.285  1.00  0.00     0.010 A 
ATOM     40  C   UNL A   1      38.492  30.150  29.896  1.00  0.00     0.010 A 
ATOM     41  C   UNL A   1      37.887  30.306  31.153  1.00  0.00    -0.014 A 
BRANCH  41  42
ATOM     42  C   UNL A   1      38.648  30.777  32.334  1.00  0.00     0.031 A 
ATOM     43  C   UNL A   1      39.932  30.059  32.619  1.00  0.00     0.074 A 
ATOM     44  C   UNL A   1      38.619  32.103  32.600  1.00  0.00     0.049 A 
ATOM     45  N   UNL A   1      41.020  30.268  31.938  1.00  0.00    -0.248 NA
ATOM     46  C   UNL A   1      40.000  28.887  33.490  1.00  0.00     0.031 C 
ATOM     47  C   UNL A   1      38.484  33.126  31.547  1.00  0.00     0.029 A 
ATOM     48  N   UNL A   1      38.951  32.821  33.726  1.00  0.00    -0.354 N 
ATOM     49  C   UNL A   1      41.876  29.212  32.194  1.00  0.00     0.074 A 
ATOM     50  C   UNL A   1      41.216  28.401  33.193  1.00  0.00     0.031 C 
ATOM     51  C   UNL A   1      38.901  34.309  32.033  1.00  0.00     0.029 A 
ATOM     52  C   UNL A   1      39.191  34.168  33.454  1.00  0.00     0.049 A 
ATOM     53  H   UNL A   1      39.011  32.426  34.627  1.00  0.00     0.167 HD
ATOM     54  C   UNL A   1      43.059  29.050  31.544  1.00  0.00     0.034 A 
ATOM     55  C   UNL A   1      40.044  34.964  34.156  1.00  0.00     0.034 A 
ATOM     56  C   UNL A   1      43.381  30.063  30.580  1.00  0.00     0.049 A 
ATOM     57  C   UNL A   1      41.374  34.506  33.614  1.00  0.00     0.074 A 
ATOM     58  C   UNL A   1      43.279  30.217  29.214  1.00  0.00     0.029 A 
ATOM     59  N   UNL A   1      43.884  31.260  31.029  1.00  0.00    -0.354 N 
ATOM     60  N   UNL A   1      41.903  34.877  32.474  1.00  0.00    -0.248 NA
ATOM     61  C   UNL A   1      41.948  33.287  34.181  1.00  0.00     0.031 C 
ATOM     62  C   UNL A   1      43.311  31.627  28.980  1.00  0.00     0.029 A 
ATOM     63  C   UNL A   1      43.378  32.251  30.225  1.00  0.00     0.049 A 
ATOM     64  H   UNL A   1      44.496  31.385  31.790  1.00  0.00     0.167 HD
ATOM     65  C   UNL A   1      42.627  33.764  32.031  1.00  0.00     0.074 A 
ATOM     66  C   UNL A   1      42.652  32.844  33.150  1.00  0.00     0.031 C 
ATOM     67  C   UNL A   1      42.999  33.556  30.732  1.00  0.00     0.034 A 
BRANCH  54  68
ATOM     68  C   UNL A   1      44.053  27.989  31.829  1.00  0.00     0.023 A 
ATOM     69  C   UNL A   1      43.941  26.805  31.074  1.00  0.00     0.012 A 
ATOM     70  C   UNL A   1      44.926  28.030  32.929  1.00  0.00     0.148 A 
ATOM     71  C   UNL A   1      44.647  25.661  31.429  1.00  0.00     0.002 A 
ATOM     72  C   UNL A   1      45.638  26.882  33.274  1.00  0.00     0.091 A 
ATOM     73  F   UNL A   1      45.000  29.157  33.651  1.00  0.00    -0.205 F 
ATOM     74  C   UNL A   1      45.490  25.696  32.534  1.00  0.00     0.022 A 
BRANCH  72  75
ATOM     75  S   UNL A   1      46.759  26.819  34.676  1.00  0.00     0.127 S 
ATOM     76  O   UNL A   1      45.934  27.362  35.752  1.00  0.00    -0.237 OA
ATOM     77  O   UNL A   1      47.036  25.385  34.785  1.00  0.00    -0.237 OA
ATOM     78  O   UNL A   1      47.912  27.621  34.289  1.00  0.00    -0.744 OA
ENDBRANCH  72  75
ENDBRANCH  54  68
BRANCH  55  79
ATOM     79  C   UNL A   1      39.673  35.105  35.600  1.00  0.00     0.023 A 
ATOM     80  C   UNL A   1      38.742  34.150  36.084  1.00  0.00     0.012 A 
ATOM     81  C   UNL A   1      40.186  36.032  36.520  1.00  0.00     0.148 A 
ATOM     82  C   UNL A   1      38.422  34.049  37.439  1.00  0.00     0.002 A 
ATOM     83  C   UNL A   1      39.923  35.884  37.882  1.00  0.00     0.091 A 
ATOM     84  F   UNL A   1      40.919  37.058  36.078  1.00  0.00    -0.205 F 
ATOM     85  C   UNL A   1      39.043  34.895  38.345  1.00  0.00     0.022 A 
BRANCH  83  86
ATOM     86  S   UNL A   1      40.775  36.849  39.136  1.00  0.00     0.127 S 
ATOM     87  O   UNL A   1      39.836  37.947  39.362  1.00  0.00    -0.237 OA
ATOM     88  O   UNL A   1      40.873  35.884  40.230  1.00  0.00    -0.237 OA
ATOM     89  O   UNL A   1      42.049  37.231  38.543  1.00  0.00    -0.744 OA
ENDBRANCH  83  86
ENDBRANCH  55  79
BRANCH  67  90
ATOM     90  C   UNL A   1      42.815  34.696  29.775  1.00  0.00     0.023 A 
ATOM     91  C   UNL A   1      41.574  34.831  29.124  1.00  0.00     0.012 A 
ATOM     92  C   UNL A   1      43.796  35.692  29.590  1.00  0.00     0.148 A 
ATOM     93  C   UNL A   1      41.299  35.948  28.336  1.00  0.00     0.002 A 
ATOM     94  C   UNL A   1      43.497  36.829  28.847  1.00  0.00     0.091 A 
ATOM     95  F   UNL A   1      45.002  35.528  30.154  1.00  0.00    -0.205 F 
ATOM     96  C   UNL A   1      42.250  36.956  28.214  1.00  0.00     0.022 A 
BRANCH  94  97
ATOM     97  S   UNL A   1      44.613  38.232  28.717  1.00  0.00     0.127 S 
ATOM     98  O   UNL A   1      44.840  38.574  30.121  1.00  0.00    -0.237 OA
ATOM     99  O   UNL A   1      45.769  37.638  28.042  1.00  0.00    -0.237 OA
ATOM    100  O   UNL A   1      43.911  39.244  27.939  1.00  0.00    -0.744 OA
ENDBRANCH  94  97
ENDBRANCH  67  90
ENDBRANCH  41  42
ENDBRANCH  34  36
ENDBRANCH  33  34
ENDBRANCH  32  33
ENDBRANCH  31  32
ENDBRANCH  30  31
ENDBRANCH  29  30
ENDBRANCH   1  29
TORSDOF 25
ENDMDL
MODEL 3
REMARK VINA RESULT:      -8.3      3.819      9.466
REMARK SMILES Cc1nc2n(n1)[C@@H](c1ccc([N+](=O)[O-])o1)CC(C(=O)OCCOCCOCCOCCOC(=O)c1ccc(-c3c4nc(c(-c5cccc(S(=O)(=O)[O-])c5F)c5ccc([nH]5)c(-c5cccc(S(=O)(=O)[O-])c5F)c5nc(c(-c6cccc(S(=O)(=O)[O-])c6F)c6ccc3[nH]6)C=C5)C=C4)cc1)=N2
REMARK SMILES IDX 27 1 26 2 25 3 24 4 23 5 22 6 21 7 20 8 18 9 19 10 17 11
REMARK SMILES IDX 1 12 2 13 3 14 6 15 4 16 5 17 98 18 7 19 16 20 8 21 9 22
REMARK SMILES IDX 15 23 10 24 11 25 12 26 13 27 14 28 28 29 29 30 30 31 31 32
REMARK SMILES IDX 32 33 33 34 34 35 35 36 36 37 97 38 37 39 96 40 38 41 39 42
REMARK SMILES IDX 40 43 90 44 41 45 95 46 89 47 91 48 42 49 94 50 88 51 87 52
REMARK SMILES IDX 43 54 75 55 55 56 74 57 56 58 59 59 73 60 92 61 57 62 58 63
REMARK SMILES IDX 72 65 93 66 60 67 44 68 45 69 53 70 46 71 48 72 54 73 47 74
REMARK SMILES IDX 49 75 50 76 51 77 52 78 76 79 77 80 85 81 78 82 80 83 86 84
REMARK SMILES IDX 79 85 81 86 82 87 83 88 84 89 61 90 62 91 70 92 63 93 65 94
REMARK SMILES IDX 71 95 64 96 66 97 67 98 68 99 69 100
REMARK H PARENT 91 53 59 64
REMARK Flexibility Score: inf
ROOT
ATOM      1  C   UNL A   1      48.114  28.515  30.712  1.00  0.00     0.188 C 
ENDROOT
BRANCH   1   2
ATOM      2  O   UNL A   1      47.141  28.350  29.676  1.00  0.00    -0.377 OA
BRANCH   2   3
ATOM      3  C   UNL A   1      47.050  29.428  28.759  1.00  0.00     0.188 C 
BRANCH   3   4
ATOM      4  C   UNL A   1      45.678  29.605  28.064  1.00  0.00     0.188 C 
BRANCH   4   5
ATOM      5  O   UNL A   1      45.298  28.860  26.908  1.00  0.00    -0.376 OA
BRANCH   5   6
ATOM      6  C   UNL A   1      46.077  28.901  25.722  1.00  0.00     0.202 C 
BRANCH   6   7
ATOM      7  C   UNL A   1      46.729  27.600  25.244  1.00  0.00     0.261 C 
BRANCH   7   8
ATOM      8  O   UNL A   1      45.767  26.661  24.753  1.00  0.00    -0.459 OA
BRANCH   8   9
ATOM      9  C   UNL A   1      45.793  25.442  25.311  1.00  0.00     0.352 C 
ATOM     10  O   UNL A   1      46.697  24.631  25.329  1.00  0.00    -0.245 OA
BRANCH   9  11
ATOM     11  C   UNL A   1      44.489  25.221  26.064  1.00  0.00     0.132 C 
ATOM     12  C   UNL A   1      39.473  27.032  28.275  1.00  0.00     0.092 C 
ATOM     13  C   UNL A   1      40.670  26.335  27.766  1.00  0.00     0.149 A 
ATOM     14  N   UNL A   1      41.462  26.877  26.792  1.00  0.00    -0.195 NA
ATOM     15  N   UNL A   1      41.096  25.163  28.249  1.00  0.00    -0.154 NA
ATOM     16  C   UNL A   1      42.454  26.021  26.669  1.00  0.00     0.249 A 
ATOM     17  N   UNL A   1      42.193  24.956  27.487  1.00  0.00    -0.219 N 
ATOM     18  N   UNL A   1      43.589  26.148  25.956  1.00  0.00    -0.209 NA
ATOM     19  C   UNL A   1      43.078  23.824  27.674  1.00  0.00     0.184 C 
ATOM     20  C   UNL A   1      44.362  23.933  26.840  1.00  0.00     0.100 C 
BRANCH  19  21
ATOM     21  C   UNL A   1      42.360  22.519  27.443  1.00  0.00     0.136 A 
ATOM     22  C   UNL A   1      41.242  21.904  27.989  1.00  0.00     0.056 A 
ATOM     23  O   UNL A   1      42.943  21.672  26.534  1.00  0.00    -0.404 OA
ATOM     24  C   UNL A   1      41.136  20.619  27.395  1.00  0.00     0.134 A 
ATOM     25  C   UNL A   1      42.188  20.538  26.517  1.00  0.00     0.433 A 
BRANCH  25  26
ATOM     26  N   UNL A   1      42.632  19.487  25.656  1.00  0.00     0.102 N 
ATOM     27  O   UNL A   1      43.541  19.777  24.870  1.00  0.00    -0.256 OA
ATOM     28  O   UNL A   1      42.060  18.395  25.752  1.00  0.00    -0.256 OA
ENDBRANCH  25  26
ENDBRANCH  19  21
ENDBRANCH   9  11
ENDBRANCH   8   9
ENDBRANCH   7   8
ENDBRANCH   6   7
ENDBRANCH   5   6
ENDBRANCH   4   5
ENDBRANCH   3   4
ENDBRANCH   2   3
ENDBRANCH   1   2
BRANCH   1  29
ATOM     29  C   UNL A   1      47.749  29.550  31.788  1.00  0.00     0.188 C 
BRANCH  29  30
ATOM     30  O   UNL A   1      48.887  30.312  32.197  1.00  0.00    -0.376 OA
BRANCH  30  31
ATOM     31  C   UNL A   1      48.639  31.415  33.065  1.00  0.00     0.202 C 
BRANCH  31  32
ATOM     32  C   UNL A   1      48.798  32.804  32.426  1.00  0.00     0.261 C 
BRANCH  32  33
ATOM     33  O   UNL A   1      47.571  33.431  32.021  1.00  0.00    -0.460 OA
BRANCH  33  34
ATOM     34  C   UNL A   1      47.100  33.071  30.807  1.00  0.00     0.338 C 
ATOM     35  O   UNL A   1      47.745  32.772  29.820  1.00  0.00    -0.246 OA
BRANCH  34  36
ATOM     36  C   UNL A   1      45.646  32.962  30.889  1.00  0.00     0.060 A 
ATOM     37  C   UNL A   1      45.051  32.707  32.127  1.00  0.00     0.016 A 
ATOM     38  C   UNL A   1      44.905  32.972  29.710  1.00  0.00     0.016 A 
ATOM     39  C   UNL A   1      43.697  32.399  32.174  1.00  0.00     0.010 A 
ATOM     40  C   UNL A   1      43.558  32.641  29.760  1.00  0.00     0.010 A 
ATOM     41  C   UNL A   1      42.953  32.318  30.985  1.00  0.00    -0.014 A 
BRANCH  41  42
ATOM     42  C   UNL A   1      41.582  31.762  31.057  1.00  0.00     0.031 A 
ATOM     43  C   UNL A   1      41.459  30.381  31.625  1.00  0.00     0.074 A 
ATOM     44  C   UNL A   1      40.577  32.625  31.335  1.00  0.00     0.049 A 
ATOM     45  N   UNL A   1      41.537  30.136  32.901  1.00  0.00    -0.248 NA
ATOM     46  C   UNL A   1      41.516  29.181  30.792  1.00  0.00     0.031 C 
ATOM     47  C   UNL A   1      40.765  33.826  32.168  1.00  0.00     0.029 A 
ATOM     48  N   UNL A   1      39.212  32.521  31.197  1.00  0.00    -0.354 N 
ATOM     49  C   UNL A   1      41.762  28.778  33.047  1.00  0.00     0.074 A 
ATOM     50  C   UNL A   1      41.702  28.221  31.714  1.00  0.00     0.031 C 
ATOM     51  C   UNL A   1      39.564  34.241  32.612  1.00  0.00     0.029 A 
ATOM     52  C   UNL A   1      38.520  33.440  31.987  1.00  0.00     0.049 A 
ATOM     53  H   UNL A   1      38.771  31.869  30.604  1.00  0.00     0.167 HD
ATOM     54  C   UNL A   1      42.019  28.201  34.251  1.00  0.00     0.034 A 
ATOM     55  C   UNL A   1      37.279  33.239  32.507  1.00  0.00     0.034 A 
ATOM     56  C   UNL A   1      42.021  29.090  35.377  1.00  0.00     0.049 A 
ATOM     57  C   UNL A   1      37.596  32.323  33.661  1.00  0.00     0.074 A 
ATOM     58  C   UNL A   1      42.965  29.768  36.118  1.00  0.00     0.029 A 
ATOM     59  N   UNL A   1      40.816  29.478  35.910  1.00  0.00    -0.354 N 
ATOM     60  N   UNL A   1      38.067  32.697  34.826  1.00  0.00    -0.248 NA
ATOM     61  C   UNL A   1      37.768  30.902  33.365  1.00  0.00     0.031 C 
ATOM     62  C   UNL A   1      42.264  30.842  36.750  1.00  0.00     0.029 A 
ATOM     63  C   UNL A   1      40.940  30.784  36.313  1.00  0.00     0.049 A 
ATOM     64  H   UNL A   1      40.008  28.920  35.988  1.00  0.00     0.167 HD
ATOM     65  C   UNL A   1      38.880  31.638  35.245  1.00  0.00     0.074 A 
ATOM     66  C   UNL A   1      38.611  30.552  34.326  1.00  0.00     0.031 C 
ATOM     67  C   UNL A   1      39.868  31.751  36.185  1.00  0.00     0.034 A 
BRANCH  54  68
ATOM     68  C   UNL A   1      42.187  26.748  34.483  1.00  0.00     0.023 A 
ATOM     69  C   UNL A   1      41.234  26.132  35.319  1.00  0.00     0.012 A 
ATOM     70  C   UNL A   1      43.335  26.037  34.099  1.00  0.00     0.148 A 
ATOM     71  C   UNL A   1      41.437  24.845  35.807  1.00  0.00     0.002 A 
ATOM     72  C   UNL A   1      43.528  24.744  34.585  1.00  0.00     0.091 A 
ATOM     73  F   UNL A   1      44.243  26.648  33.325  1.00  0.00    -0.205 F 
ATOM     74  C   UNL A   1      42.587  24.154  35.447  1.00  0.00     0.022 A 
BRANCH  72  75
ATOM     75  S   UNL A   1      44.973  23.757  34.177  1.00  0.00     0.127 S 
ATOM     76  O   UNL A   1      44.724  22.527  34.924  1.00  0.00    -0.237 OA
ATOM     77  O   UNL A   1      44.854  23.622  32.724  1.00  0.00    -0.237 OA
ATOM     78  O   UNL A   1      46.118  24.548  34.610  1.00  0.00    -0.744 OA
ENDBRANCH  72  75
ENDBRANCH  54  68
BRANCH  55  79
ATOM     79  C   UNL A   1      36.225  33.023  31.465  1.00  0.00     0.023 A 
ATOM     80  C   UNL A   1      35.299  34.087  31.307  1.00  0.00     0.012 A 
ATOM     81  C   UNL A   1      36.097  31.922  30.604  1.00  0.00     0.148 A 
ATOM     82  C   UNL A   1      34.363  34.106  30.272  1.00  0.00     0.002 A 
ATOM     83  C   UNL A   1      35.212  31.975  29.527  1.00  0.00     0.091 A 
ATOM     84  F   UNL A   1      36.824  30.824  30.832  1.00  0.00    -0.205 F 
ATOM     85  C   UNL A   1      34.345  33.064  29.358  1.00  0.00     0.022 A 
BRANCH  83  86
ATOM     86  S   UNL A   1      35.205  30.735  28.226  1.00  0.00     0.127 S 
ATOM     87  O   UNL A   1      33.871  30.905  27.653  1.00  0.00    -0.237 OA
ATOM     88  O   UNL A   1      36.305  31.194  27.380  1.00  0.00    -0.237 OA
ATOM     89  O   UNL A   1      35.439  29.462  28.893  1.00  0.00    -0.744 OA
ENDBRANCH  83  86
ENDBRANCH  55  79
BRANCH  67  90
ATOM     90  C   UNL A   1      39.925  33.029  36.967  1.00  0.00     0.023 A 
ATOM     91  C   UNL A   1      39.064  33.178  38.071  1.00  0.00     0.012 A 
ATOM     92  C   UNL A   1      40.879  34.033  36.704  1.00  0.00     0.148 A 
ATOM     93  C   UNL A   1      39.171  34.281  38.916  1.00  0.00     0.002 A 
ATOM     94  C   UNL A   1      41.018  35.103  37.581  1.00  0.00     0.091 A 
ATOM     95  F   UNL A   1      41.651  33.924  35.613  1.00  0.00    -0.205 F 
ATOM     96  C   UNL A   1      40.161  35.232  38.686  1.00  0.00     0.022 A 
BRANCH  94  97
ATOM     97  S   UNL A   1      42.329  36.324  37.433  1.00  0.00     0.127 S 
ATOM     98  O   UNL A   1      43.529  35.489  37.456  1.00  0.00    -0.237 OA
ATOM     99  O   UNL A   1      42.034  36.928  36.132  1.00  0.00    -0.237 OA
ATOM    100  O   UNL A   1      42.181  37.226  38.567  1.00  0.00    -0.744 OA
ENDBRANCH  94  97
ENDBRANCH  67  90
ENDBRANCH  41  42
ENDBRANCH  34  36
ENDBRANCH  33  34
ENDBRANCH  32  33
ENDBRANCH  31  32
ENDBRANCH  30  31
ENDBRANCH  29  30
ENDBRANCH   1  29
TORSDOF 25
ENDMDL
