MODEL 1
REMARK VINA RESULT:      -8.5      0.000      0.000
REMARK SMILES CCc1sc(NC(=O)[C@H]2CC(C)=C(C)C[C@H]2C(=O)OCCOCCOCCOCCOC(=O)c2ccc(-c3c4nc(c(-c5cccc(S(=O)(=O)[O-])c5F)c5ccc([nH]5)c(-c5cccc(S(=O)(=O)[O-])c5F)c5nc(c(-c6cccc(S(=O)(=O)[O-])c6F)c6ccc3[nH]6)C=C5)C=C4)cc2)nc1-c1ccccc1
REMARK SMILES IDX 25 1 24 2 23 3 22 4 21 5 20 6 19 7 17 8 18 9 16 10 9 11
REMARK SMILES IDX 10 12 11 13 15 14 12 15 13 16 14 17 7 18 6 19 8 21 5 22 3 23
REMARK SMILES IDX 4 24 98 25 97 26 2 27 1 28 99 29 100 30 104 31 101 32 103 33
REMARK SMILES IDX 102 34 26 35 27 36 28 37 29 38 30 39 31 40 32 41 33 42 34 43
REMARK SMILES IDX 35 44 96 45 36 46 95 47 37 48 38 49 39 50 89 51 40 52 94 53
REMARK SMILES IDX 88 54 90 55 41 56 93 57 87 58 86 59 42 61 74 62 54 63 73 64
REMARK SMILES IDX 55 65 58 66 72 67 91 68 56 69 57 70 71 72 92 73 59 74 43 75
REMARK SMILES IDX 44 76 52 77 45 78 47 79 53 80 46 81 48 82 49 83 50 84 51 85
REMARK SMILES IDX 75 86 76 87 84 88 77 89 79 90 85 91 78 92 80 93 81 94 82 95
REMARK SMILES IDX 83 96 60 97 61 98 69 99 62 100 64 101 70 102 63 103 65 104
REMARK SMILES IDX 66 105 67 106 68 107
REMARK H PARENT 6 20 90 60 58 71
REMARK Flexibility Score: inf
ROOT
ATOM      1  O   UNL A   1      37.910  31.775  38.038  1.00  0.00    -0.377 OA
ENDROOT
BRANCH   1   2
ATOM      2  C   UNL A   1      38.581  31.911  36.794  1.00  0.00     0.188 C 
BRANCH   2   3
ATOM      3  C   UNL A   1      37.776  32.224  35.541  1.00  0.00     0.188 C 
BRANCH   3   4
ATOM      4  O   UNL A   1      38.327  31.768  34.315  1.00  0.00    -0.376 OA
BRANCH   4   5
ATOM      5  C   UNL A   1      38.212  30.356  34.104  1.00  0.00     0.202 C 
BRANCH   5   6
ATOM      6  C   UNL A   1      37.112  29.958  33.108  1.00  0.00     0.261 C 
BRANCH   6   7
ATOM      7  O   UNL A   1      37.247  28.574  32.693  1.00  0.00    -0.463 OA
BRANCH   7   8
ATOM      8  C   UNL A   1      38.427  28.165  32.175  1.00  0.00     0.310 C 
ATOM      9  O   UNL A   1      39.386  27.809  32.850  1.00  0.00    -0.252 OA
BRANCH   8  10
ATOM     10  C   UNL A   1      38.480  28.230  30.649  1.00  0.00     0.116 C 
ATOM     11  C   UNL A   1      38.697  29.606  30.007  1.00  0.00     0.097 C 
ATOM     12  C   UNL A   1      39.060  29.638  28.526  1.00  0.00     0.045 C 
ATOM     13  C   UNL A   1      39.750  28.425  27.980  1.00  0.00    -0.074 C 
ATOM     14  C   UNL A   1      39.290  27.071  30.061  1.00  0.00     0.046 C 
ATOM     15  C   UNL A   1      40.461  28.717  26.678  1.00  0.00     0.039 C 
ATOM     16  C   UNL A   1      39.822  27.257  28.654  1.00  0.00    -0.073 C 
ATOM     17  C   UNL A   1      40.559  26.068  28.096  1.00  0.00     0.039 C 
BRANCH  11  18
ATOM     18  C   UNL A   1      39.353  30.798  30.687  1.00  0.00     0.230 C 
ATOM     19  N   UNL A   1      38.927  32.074  30.761  1.00  0.00    -0.302 N 
ATOM     20  H   UNL A   1      39.620  32.692  31.091  1.00  0.00     0.172 HD
ATOM     21  O   UNL A   1      40.430  30.538  31.256  1.00  0.00    -0.274 OA
BRANCH  19  22
ATOM     22  C   UNL A   1      37.749  32.703  30.478  1.00  0.00     0.190 A 
ATOM     23  C   UNL A   1      35.822  33.742  29.463  1.00  0.00     0.034 A 
ATOM     24  S   UNL A   1      37.081  32.714  28.932  1.00  0.00    -0.101 S 
ATOM     25  C   UNL A   1      35.915  33.866  30.839  1.00  0.00     0.087 A 
ATOM     26  N   UNL A   1      37.000  33.233  31.417  1.00  0.00    -0.220 NA
BRANCH  23  27
ATOM     27  C   UNL A   1      34.855  34.339  28.484  1.00  0.00     0.046 C 
ATOM     28  C   UNL A   1      34.003  33.264  27.817  1.00  0.00     0.010 C 
ENDBRANCH  23  27
BRANCH  25  29
ATOM     29  C   UNL A   1      34.997  34.666  31.624  1.00  0.00     0.001 A 
ATOM     30  C   UNL A   1      33.753  35.029  31.099  1.00  0.00     0.010 A 
ATOM     31  C   UNL A   1      35.388  35.149  32.879  1.00  0.00     0.010 A 
ATOM     32  C   UNL A   1      32.923  35.899  31.805  1.00  0.00     0.001 A 
ATOM     33  C   UNL A   1      34.557  36.024  33.581  1.00  0.00     0.001 A 
ATOM     34  C   UNL A   1      33.330  36.404  33.041  1.00  0.00     0.000 A 
ENDBRANCH  25  29
ENDBRANCH  19  22
ENDBRANCH  11  18
ENDBRANCH   8  10
ENDBRANCH   7   8
ENDBRANCH   6   7
ENDBRANCH   5   6
ENDBRANCH   4   5
ENDBRANCH   3   4
ENDBRANCH   2   3
ENDBRANCH   1   2
BRANCH   1  35
ATOM     35  C   UNL A   1      37.787  32.919  38.882  1.00  0.00     0.188 C 
BRANCH  35  36
ATOM     36  C   UNL A   1      38.639  33.066  40.164  1.00  0.00     0.188 C 
BRANCH  36  37
ATOM     37  O   UNL A   1      38.552  34.301  40.848  1.00  0.00    -0.376 OA
BRANCH  37  38
ATOM     38  C   UNL A   1      39.753  34.815  41.427  1.00  0.00     0.202 C 
BRANCH  38  39
ATOM     39  C   UNL A   1      40.485  36.001  40.763  1.00  0.00     0.261 C 
BRANCH  39  40
ATOM     40  O   UNL A   1      41.052  35.761  39.469  1.00  0.00    -0.460 OA
BRANCH  40  41
ATOM     41  C   UNL A   1      40.335  36.170  38.411  1.00  0.00     0.338 C 
ATOM     42  O   UNL A   1      39.430  37.004  38.410  1.00  0.00    -0.246 OA
BRANCH  41  43
ATOM     43  C   UNL A   1      40.905  35.562  37.200  1.00  0.00     0.060 A 
ATOM     44  C   UNL A   1      40.063  35.313  36.110  1.00  0.00     0.016 A 
ATOM     45  C   UNL A   1      42.250  35.185  37.165  1.00  0.00     0.016 A 
ATOM     46  C   UNL A   1      40.555  34.647  34.991  1.00  0.00     0.010 A 
ATOM     47  C   UNL A   1      42.735  34.490  36.052  1.00  0.00     0.010 A 
ATOM     48  C   UNL A   1      41.875  34.181  34.983  1.00  0.00    -0.014 A 
BRANCH  48  49
ATOM     49  C   UNL A   1      42.262  33.157  33.984  1.00  0.00     0.031 A 
ATOM     50  C   UNL A   1      42.544  33.616  32.580  1.00  0.00     0.074 A 
ATOM     51  C   UNL A   1      42.397  31.861  34.314  1.00  0.00     0.049 A 
ATOM     52  N   UNL A   1      42.926  32.925  31.539  1.00  0.00    -0.248 NA
ATOM     53  C   UNL A   1      42.377  35.057  32.319  1.00  0.00     0.031 C 
ATOM     54  C   UNL A   1      42.187  31.299  35.645  1.00  0.00     0.029 A 
ATOM     55  N   UNL A   1      42.736  30.782  33.537  1.00  0.00    -0.354 N 
ATOM     56  C   UNL A   1      43.026  33.839  30.497  1.00  0.00     0.074 A 
ATOM     57  C   UNL A   1      42.647  35.131  31.026  1.00  0.00     0.031 C 
ATOM     58  C   UNL A   1      42.383  29.970  35.589  1.00  0.00     0.029 A 
ATOM     59  C   UNL A   1      42.712  29.588  34.215  1.00  0.00     0.049 A 
ATOM     60  H   UNL A   1      42.974  30.857  32.584  1.00  0.00     0.167 HD
ATOM     61  C   UNL A   1      43.413  33.631  29.216  1.00  0.00     0.034 A 
ATOM     62  C   UNL A   1      42.920  28.332  33.770  1.00  0.00     0.034 A 
ATOM     63  C   UNL A   1      43.777  32.345  28.687  1.00  0.00     0.049 A 
ATOM     64  C   UNL A   1      43.277  28.112  32.320  1.00  0.00     0.074 A 
ATOM     65  C   UNL A   1      44.205  32.028  27.411  1.00  0.00     0.029 A 
ATOM     66  N   UNL A   1      43.732  31.157  29.401  1.00  0.00    -0.354 N 
ATOM     67  N   UNL A   1      43.473  28.995  31.371  1.00  0.00    -0.248 NA
ATOM     68  C   UNL A   1      43.470  26.718  31.890  1.00  0.00     0.031 C 
ATOM     69  C   UNL A   1      44.380  30.641  27.342  1.00  0.00     0.029 A 
ATOM     70  C   UNL A   1      44.103  30.100  28.587  1.00  0.00     0.049 A 
ATOM     71  H   UNL A   1      43.472  31.077  30.348  1.00  0.00     0.167 HD
ATOM     72  C   UNL A   1      43.855  28.272  30.244  1.00  0.00     0.074 A 
ATOM     73  C   UNL A   1      43.872  26.876  30.635  1.00  0.00     0.031 C 
ATOM     74  C   UNL A   1      44.159  28.720  29.001  1.00  0.00     0.034 A 
BRANCH  61  75
ATOM     75  C   UNL A   1      43.451  34.832  28.307  1.00  0.00     0.023 A 
ATOM     76  C   UNL A   1      42.264  35.291  27.701  1.00  0.00     0.012 A 
ATOM     77  C   UNL A   1      44.662  35.503  28.048  1.00  0.00     0.148 A 
ATOM     78  C   UNL A   1      42.289  36.364  26.809  1.00  0.00     0.002 A 
ATOM     79  C   UNL A   1      44.671  36.602  27.199  1.00  0.00     0.091 A 
ATOM     80  F   UNL A   1      45.785  35.037  28.612  1.00  0.00    -0.205 F 
ATOM     81  C   UNL A   1      43.491  37.024  26.565  1.00  0.00     0.022 A 
BRANCH  79  82
ATOM     82  S   UNL A   1      46.155  37.563  26.885  1.00  0.00     0.127 S 
ATOM     83  O   UNL A   1      46.830  36.747  25.877  1.00  0.00    -0.237 OA
ATOM     84  O   UNL A   1      45.606  38.823  26.382  1.00  0.00    -0.237 OA
ATOM     85  O   UNL A   1      46.837  37.672  28.167  1.00  0.00    -0.744 OA
ENDBRANCH  79  82
ENDBRANCH  61  75
BRANCH  62  86
ATOM     86  C   UNL A   1      42.844  27.187  34.721  1.00  0.00     0.023 A 
ATOM     87  C   UNL A   1      41.599  26.581  34.975  1.00  0.00     0.012 A 
ATOM     88  C   UNL A   1      43.997  26.678  35.350  1.00  0.00     0.148 A 
ATOM     89  C   UNL A   1      41.497  25.506  35.858  1.00  0.00     0.002 A 
ATOM     90  C   UNL A   1      43.898  25.570  36.183  1.00  0.00     0.091 A 
ATOM     91  F   UNL A   1      45.171  27.274  35.102  1.00  0.00    -0.205 F 
ATOM     92  C   UNL A   1      42.647  24.995  36.455  1.00  0.00     0.022 A 
BRANCH  90  93
ATOM     93  S   UNL A   1      45.334  24.758  36.894  1.00  0.00     0.127 S 
ATOM     94  O   UNL A   1      45.735  23.857  35.816  1.00  0.00    -0.237 OA
ATOM     95  O   UNL A   1      46.233  25.892  37.117  1.00  0.00    -0.237 OA
ATOM     96  O   UNL A   1      44.865  24.110  38.109  1.00  0.00    -0.744 OA
ENDBRANCH  90  93
ENDBRANCH  62  86
BRANCH  74  97
ATOM     97  C   UNL A   1      44.581  27.703  27.967  1.00  0.00     0.023 A 
ATOM     98  C   UNL A   1      43.662  27.259  26.996  1.00  0.00     0.012 A 
ATOM     99  C   UNL A   1      45.916  27.253  27.911  1.00  0.00     0.148 A 
ATOM    100  C   UNL A   1      44.056  26.357  26.008  1.00  0.00     0.002 A 
ATOM    101  C   UNL A   1      46.314  26.395  26.893  1.00  0.00     0.091 A 
ATOM    102  F   UNL A   1      46.773  27.674  28.852  1.00  0.00    -0.205 F 
ATOM    103  C   UNL A   1      45.382  25.935  25.948  1.00  0.00     0.022 A 
BRANCH 101 104
ATOM    104  S   UNL A   1      48.021  25.880  26.676  1.00  0.00     0.127 S 
ATOM    105  O   UNL A   1      47.995  24.524  27.226  1.00  0.00    -0.237 OA
ATOM    106  O   UNL A   1      48.182  25.945  25.223  1.00  0.00    -0.237 OA
ATOM    107  O   UNL A   1      48.829  26.838  27.418  1.00  0.00    -0.744 OA
ENDBRANCH 101 104
ENDBRANCH  74  97
ENDBRANCH  48  49
ENDBRANCH  41  43
ENDBRANCH  40  41
ENDBRANCH  39  40
ENDBRANCH  38  39
ENDBRANCH  37  38
ENDBRANCH  36  37
ENDBRANCH  35  36
ENDBRANCH   1  35
TORSDOF 27
ENDMDL
MODEL 2
REMARK VINA RESULT:      -7.4      7.871     12.130
REMARK SMILES CCc1sc(NC(=O)[C@H]2CC(C)=C(C)C[C@H]2C(=O)OCCOCCOCCOCCOC(=O)c2ccc(-c3c4nc(c(-c5cccc(S(=O)(=O)[O-])c5F)c5ccc([nH]5)c(-c5cccc(S(=O)(=O)[O-])c5F)c5nc(c(-c6cccc(S(=O)(=O)[O-])c6F)c6ccc3[nH]6)C=C5)C=C4)cc2)nc1-c1ccccc1
REMARK SMILES IDX 25 1 24 2 23 3 22 4 21 5 20 6 19 7 17 8 18 9 16 10 9 11
REMARK SMILES IDX 10 12 11 13 15 14 12 15 13 16 14 17 7 18 6 19 8 21 5 22 3 23
REMARK SMILES IDX 4 24 98 25 97 26 2 27 1 28 99 29 100 30 104 31 101 32 103 33
REMARK SMILES IDX 102 34 26 35 27 36 28 37 29 38 30 39 31 40 32 41 33 42 34 43
REMARK SMILES IDX 35 44 96 45 36 46 95 47 37 48 38 49 39 50 89 51 40 52 94 53
REMARK SMILES IDX 88 54 90 55 41 56 93 57 87 58 86 59 42 61 74 62 54 63 73 64
REMARK SMILES IDX 55 65 58 66 72 67 91 68 56 69 57 70 71 72 92 73 59 74 43 75
REMARK SMILES IDX 44 76 52 77 45 78 47 79 53 80 46 81 48 82 49 83 50 84 51 85
REMARK SMILES IDX 75 86 76 87 84 88 77 89 79 90 85 91 78 92 80 93 81 94 82 95
REMARK SMILES IDX 83 96 60 97 61 98 69 99 62 100 64 101 70 102 63 103 65 104
REMARK SMILES IDX 66 105 67 106 68 107
REMARK H PARENT 6 20 90 60 58 71
REMARK Flexibility Score: inf
ROOT
ATOM      1  O   UNL A   1      38.592  29.823  28.278  1.00  0.00    -0.377 OA
ENDROOT
BRANCH   1   2
ATOM      2  C   UNL A   1      37.184  29.885  28.107  1.00  0.00     0.188 C 
BRANCH   2   3
ATOM      3  C   UNL A   1      36.472  31.224  28.252  1.00  0.00     0.188 C 
BRANCH   3   4
ATOM      4  O   UNL A   1      35.141  31.172  28.742  1.00  0.00    -0.376 OA
BRANCH   4   5
ATOM      5  C   UNL A   1      34.151  31.628  27.813  1.00  0.00     0.202 C 
BRANCH   5   6
ATOM      6  C   UNL A   1      33.139  30.551  27.395  1.00  0.00     0.261 C 
BRANCH   6   7
ATOM      7  O   UNL A   1      33.307  30.174  26.004  1.00  0.00    -0.463 OA
BRANCH   7   8
ATOM      8  C   UNL A   1      33.329  28.860  25.686  1.00  0.00     0.310 C 
ATOM      9  O   UNL A   1      34.146  28.060  26.128  1.00  0.00    -0.252 OA
BRANCH   8  10
ATOM     10  C   UNL A   1      32.258  28.459  24.672  1.00  0.00     0.116 C 
ATOM     11  C   UNL A   1      31.535  27.126  24.897  1.00  0.00     0.097 C 
ATOM     12  C   UNL A   1      30.270  26.870  24.085  1.00  0.00     0.045 C 
ATOM     13  C   UNL A   1      29.512  28.079  23.628  1.00  0.00    -0.074 C 
ATOM     14  C   UNL A   1      31.379  29.650  24.278  1.00  0.00     0.046 C 
ATOM     15  C   UNL A   1      28.087  27.744  23.250  1.00  0.00     0.039 C 
ATOM     16  C   UNL A   1      30.024  29.327  23.679  1.00  0.00    -0.073 C 
ATOM     17  C   UNL A   1      29.222  30.528  23.251  1.00  0.00     0.039 C 
BRANCH  11  18
ATOM     18  C   UNL A   1      31.397  26.418  26.236  1.00  0.00     0.230 C 
ATOM     19  N   UNL A   1      31.802  25.181  26.588  1.00  0.00    -0.302 N 
ATOM     20  H   UNL A   1      31.428  24.886  27.451  1.00  0.00     0.172 HD
ATOM     21  O   UNL A   1      30.835  27.091  27.120  1.00  0.00    -0.274 OA
BRANCH  19  22
ATOM     22  C   UNL A   1      32.614  24.245  26.016  1.00  0.00     0.190 A 
ATOM     23  C   UNL A   1      34.373  23.017  24.911  1.00  0.00     0.034 A 
ATOM     24  S   UNL A   1      34.219  24.566  25.620  1.00  0.00    -0.101 S 
ATOM     25  C   UNL A   1      33.220  22.300  25.183  1.00  0.00     0.087 A 
ATOM     26  N   UNL A   1      32.233  23.000  25.853  1.00  0.00    -0.220 NA
BRANCH  23  27
ATOM     27  C   UNL A   1      35.609  22.641  24.150  1.00  0.00     0.046 C 
ATOM     28  C   UNL A   1      36.821  23.432  24.630  1.00  0.00     0.010 C 
ENDBRANCH  23  27
BRANCH  25  29
ATOM     29  C   UNL A   1      33.012  20.938  24.734  1.00  0.00     0.001 A 
ATOM     30  C   UNL A   1      32.541  20.687  23.442  1.00  0.00     0.010 A 
ATOM     31  C   UNL A   1      33.202  19.872  25.622  1.00  0.00     0.010 A 
ATOM     32  C   UNL A   1      32.225  19.386  23.053  1.00  0.00     0.001 A 
ATOM     33  C   UNL A   1      32.880  18.571  25.232  1.00  0.00     0.001 A 
ATOM     34  C   UNL A   1      32.385  18.331  23.952  1.00  0.00     0.000 A 
ENDBRANCH  25  29
ENDBRANCH  19  22
ENDBRANCH  11  18
ENDBRANCH   8  10
ENDBRANCH   7   8
ENDBRANCH   6   7
ENDBRANCH   5   6
ENDBRANCH   4   5
ENDBRANCH   3   4
ENDBRANCH   2   3
ENDBRANCH   1   2
BRANCH   1  35
ATOM     35  C   UNL A   1      39.254  28.574  28.081  1.00  0.00     0.188 C 
BRANCH  35  36
ATOM     36  C   UNL A   1      40.052  27.899  29.220  1.00  0.00     0.188 C 
BRANCH  36  37
ATOM     37  O   UNL A   1      40.587  26.618  28.951  1.00  0.00    -0.376 OA
BRANCH  37  38
ATOM     38  C   UNL A   1      41.931  26.557  28.470  1.00  0.00     0.202 C 
BRANCH  38  39
ATOM     39  C   UNL A   1      42.225  25.989  27.065  1.00  0.00     0.261 C 
BRANCH  39  40
ATOM     40  O   UNL A   1      42.842  24.697  27.012  1.00  0.00    -0.460 OA
BRANCH  40  41
ATOM     41  C   UNL A   1      43.393  24.340  25.841  1.00  0.00     0.338 C 
ATOM     42  O   UNL A   1      42.827  23.797  24.894  1.00  0.00    -0.246 OA
BRANCH  41  43
ATOM     43  C   UNL A   1      44.775  24.839  25.806  1.00  0.00     0.060 A 
ATOM     44  C   UNL A   1      45.821  23.919  25.672  1.00  0.00     0.016 A 
ATOM     45  C   UNL A   1      45.039  26.202  25.967  1.00  0.00     0.016 A 
ATOM     46  C   UNL A   1      47.142  24.355  25.738  1.00  0.00     0.010 A 
ATOM     47  C   UNL A   1      46.365  26.634  26.062  1.00  0.00     0.010 A 
ATOM     48  C   UNL A   1      47.418  25.703  25.993  1.00  0.00    -0.014 A 
BRANCH  48  49
ATOM     49  C   UNL A   1      48.778  26.078  26.444  1.00  0.00     0.031 A 
ATOM     50  C   UNL A   1      49.743  26.596  25.412  1.00  0.00     0.074 A 
ATOM     51  C   UNL A   1      49.144  26.000  27.735  1.00  0.00     0.049 A 
ATOM     52  N   UNL A   1      50.972  27.015  25.558  1.00  0.00    -0.248 NA
ATOM     53  C   UNL A   1      49.247  26.653  24.026  1.00  0.00     0.031 C 
ATOM     54  C   UNL A   1      48.291  25.549  28.831  1.00  0.00     0.029 A 
ATOM     55  N   UNL A   1      50.343  26.292  28.333  1.00  0.00    -0.354 N 
ATOM     56  C   UNL A   1      51.403  27.366  24.284  1.00  0.00     0.074 A 
ATOM     57  C   UNL A   1      50.311  27.094  23.376  1.00  0.00     0.031 C 
ATOM     58  C   UNL A   1      49.003  25.576  29.971  1.00  0.00     0.029 A 
ATOM     59  C   UNL A   1      50.365  26.025  29.681  1.00  0.00     0.049 A 
ATOM     60  H   UNL A   1      51.115  26.658  27.844  1.00  0.00     0.167 HD
ATOM     61  C   UNL A   1      52.594  27.884  23.901  1.00  0.00     0.034 A 
ATOM     62  C   UNL A   1      51.374  26.123  30.569  1.00  0.00     0.034 A 
ATOM     63  C   UNL A   1      53.684  28.142  24.802  1.00  0.00     0.049 A 
ATOM     64  C   UNL A   1      52.718  26.632  30.109  1.00  0.00     0.074 A 
ATOM     65  C   UNL A   1      54.924  28.686  24.521  1.00  0.00     0.029 A 
ATOM     66  N   UNL A   1      53.672  27.851  26.158  1.00  0.00    -0.354 N 
ATOM     67  N   UNL A   1      53.079  27.062  28.924  1.00  0.00    -0.248 NA
ATOM     68  C   UNL A   1      53.785  26.695  31.120  1.00  0.00     0.031 C 
ATOM     69  C   UNL A   1      55.677  28.685  25.701  1.00  0.00     0.029 A 
ATOM     70  C   UNL A   1      54.890  28.182  26.726  1.00  0.00     0.049 A 
ATOM     71  H   UNL A   1      52.908  27.464  26.646  1.00  0.00     0.167 HD
ATOM     72  C   UNL A   1      54.399  27.487  29.055  1.00  0.00     0.074 A 
ATOM     73  C   UNL A   1      54.768  27.272  30.440  1.00  0.00     0.031 C 
ATOM     74  C   UNL A   1      55.230  28.004  28.115  1.00  0.00     0.034 A 
BRANCH  61  75
ATOM     75  C   UNL A   1      52.768  28.195  22.437  1.00  0.00     0.023 A 
ATOM     76  C   UNL A   1      53.303  27.219  21.571  1.00  0.00     0.012 A 
ATOM     77  C   UNL A   1      52.407  29.453  21.919  1.00  0.00     0.148 A 
ATOM     78  C   UNL A   1      53.527  27.509  20.225  1.00  0.00     0.002 A 
ATOM     79  C   UNL A   1      52.587  29.718  20.567  1.00  0.00     0.091 A 
ATOM     80  F   UNL A   1      51.925  30.378  22.761  1.00  0.00    -0.205 F 
ATOM     81  C   UNL A   1      53.161  28.754  19.722  1.00  0.00     0.022 A 
BRANCH  79  82
ATOM     82  S   UNL A   1      52.073  31.265  19.813  1.00  0.00     0.127 S 
ATOM     83  O   UNL A   1      52.347  31.011  18.399  1.00  0.00    -0.237 OA
ATOM     84  O   UNL A   1      50.652  31.319  20.158  1.00  0.00    -0.237 OA
ATOM     85  O   UNL A   1      52.886  32.300  20.436  1.00  0.00    -0.744 OA
ENDBRANCH  79  82
ENDBRANCH  61  75
BRANCH  62  86
ATOM     86  C   UNL A   1      51.137  25.777  32.000  1.00  0.00     0.023 A 
ATOM     87  C   UNL A   1      50.819  26.800  32.915  1.00  0.00     0.012 A 
ATOM     88  C   UNL A   1      51.197  24.445  32.453  1.00  0.00     0.148 A 
ATOM     89  C   UNL A   1      50.590  26.507  34.259  1.00  0.00     0.002 A 
ATOM     90  C   UNL A   1      50.910  24.152  33.781  1.00  0.00     0.091 A 
ATOM     91  F   UNL A   1      51.510  23.488  31.569  1.00  0.00    -0.205 F 
ATOM     92  C   UNL A   1      50.627  25.183  34.691  1.00  0.00     0.022 A 
BRANCH  90  93
ATOM     93  S   UNL A   1      50.802  22.470  34.403  1.00  0.00     0.127 S 
ATOM     94  O   UNL A   1      52.200  22.049  34.376  1.00  0.00    -0.237 OA
ATOM     95  O   UNL A   1      50.247  22.687  35.740  1.00  0.00    -0.237 OA
ATOM     96  O   UNL A   1      49.918  21.763  33.488  1.00  0.00    -0.744 OA
ENDBRANCH  90  93
ENDBRANCH  62  86
BRANCH  74  97
ATOM     97  C   UNL A   1      56.615  28.420  28.549  1.00  0.00     0.023 A 
ATOM     98  C   UNL A   1      57.689  27.513  28.448  1.00  0.00     0.012 A 
ATOM     99  C   UNL A   1      56.864  29.738  28.980  1.00  0.00     0.148 A 
ATOM    100  C   UNL A   1      58.981  27.902  28.800  1.00  0.00     0.002 A 
ATOM    101  C   UNL A   1      58.162  30.134  29.280  1.00  0.00     0.091 A 
ATOM    102  F   UNL A   1      55.828  30.583  29.085  1.00  0.00    -0.205 F 
ATOM    103  C   UNL A   1      59.219  29.214  29.204  1.00  0.00     0.022 A 
BRANCH 101 104
ATOM    104  S   UNL A   1      58.580  31.828  29.710  1.00  0.00     0.127 S 
ATOM    105  O   UNL A   1      58.328  31.840  31.150  1.00  0.00    -0.237 OA
ATOM    106  O   UNL A   1      59.993  31.902  29.338  1.00  0.00    -0.237 OA
ATOM    107  O   UNL A   1      57.700  32.674  28.916  1.00  0.00    -0.744 OA
ENDBRANCH 101 104
ENDBRANCH  74  97
ENDBRANCH  48  49
ENDBRANCH  41  43
ENDBRANCH  40  41
ENDBRANCH  39  40
ENDBRANCH  38  39
ENDBRANCH  37  38
ENDBRANCH  36  37
ENDBRANCH  35  36
ENDBRANCH   1  35
TORSDOF 27
ENDMDL
MODEL 3
REMARK VINA RESULT:      -7.3      1.650      2.342
REMARK SMILES CCc1sc(NC(=O)[C@H]2CC(C)=C(C)C[C@H]2C(=O)OCCOCCOCCOCCOC(=O)c2ccc(-c3c4nc(c(-c5cccc(S(=O)(=O)[O-])c5F)c5ccc([nH]5)c(-c5cccc(S(=O)(=O)[O-])c5F)c5nc(c(-c6cccc(S(=O)(=O)[O-])c6F)c6ccc3[nH]6)C=C5)C=C4)cc2)nc1-c1ccccc1
REMARK SMILES IDX 25 1 24 2 23 3 22 4 21 5 20 6 19 7 17 8 18 9 16 10 9 11
REMARK SMILES IDX 10 12 11 13 15 14 12 15 13 16 14 17 7 18 6 19 8 21 5 22 3 23
REMARK SMILES IDX 4 24 98 25 97 26 2 27 1 28 99 29 100 30 104 31 101 32 103 33
REMARK SMILES IDX 102 34 26 35 27 36 28 37 29 38 30 39 31 40 32 41 33 42 34 43
REMARK SMILES IDX 35 44 96 45 36 46 95 47 37 48 38 49 39 50 89 51 40 52 94 53
REMARK SMILES IDX 88 54 90 55 41 56 93 57 87 58 86 59 42 61 74 62 54 63 73 64
REMARK SMILES IDX 55 65 58 66 72 67 91 68 56 69 57 70 71 72 92 73 59 74 43 75
REMARK SMILES IDX 44 76 52 77 45 78 47 79 53 80 46 81 48 82 49 83 50 84 51 85
REMARK SMILES IDX 75 86 76 87 84 88 77 89 79 90 85 91 78 92 80 93 81 94 82 95
REMARK SMILES IDX 83 96 60 97 61 98 69 99 62 100 64 101 70 102 63 103 65 104
REMARK SMILES IDX 66 105 67 106 68 107
REMARK H PARENT 6 20 90 60 58 71
REMARK Flexibility Score: inf
ROOT
ATOM      1  O   UNL A   1      37.978  31.698  38.273  1.00  0.00    -0.377 OA
ENDROOT
BRANCH   1   2
ATOM      2  C   UNL A   1      38.689  32.158  37.134  1.00  0.00     0.188 C 
BRANCH   2   3
ATOM      3  C   UNL A   1      37.956  32.313  35.808  1.00  0.00     0.188 C 
BRANCH   3   4
ATOM      4  O   UNL A   1      38.579  31.722  34.678  1.00  0.00    -0.376 OA
BRANCH   4   5
ATOM      5  C   UNL A   1      38.177  30.372  34.420  1.00  0.00     0.202 C 
BRANCH   5   6
ATOM      6  C   UNL A   1      37.434  30.181  33.089  1.00  0.00     0.261 C 
BRANCH   6   7
ATOM      7  O   UNL A   1      37.420  28.788  32.684  1.00  0.00    -0.463 OA
BRANCH   7   8
ATOM      8  C   UNL A   1      38.555  28.245  32.190  1.00  0.00     0.310 C 
ATOM      9  O   UNL A   1      39.488  27.854  32.883  1.00  0.00    -0.252 OA
BRANCH   8  10
ATOM     10  C   UNL A   1      38.598  28.203  30.663  1.00  0.00     0.116 C 
ATOM     11  C   UNL A   1      39.228  29.400  29.940  1.00  0.00     0.097 C 
ATOM     12  C   UNL A   1      39.556  29.231  28.460  1.00  0.00     0.045 C 
ATOM     13  C   UNL A   1      39.816  27.833  27.988  1.00  0.00    -0.074 C 
ATOM     14  C   UNL A   1      38.988  26.816  30.145  1.00  0.00     0.046 C 
ATOM     15  C   UNL A   1      40.558  27.810  26.671  1.00  0.00     0.039 C 
ATOM     16  C   UNL A   1      39.526  26.743  28.730  1.00  0.00    -0.073 C 
ATOM     17  C   UNL A   1      39.837  25.351  28.244  1.00  0.00     0.039 C 
BRANCH  11  18
ATOM     18  C   UNL A   1      40.241  30.358  30.548  1.00  0.00     0.230 C 
ATOM     19  N   UNL A   1      40.092  31.658  30.871  1.00  0.00    -0.302 N 
ATOM     20  H   UNL A   1      40.947  32.104  31.072  1.00  0.00     0.172 HD
ATOM     21  O   UNL A   1      41.355  29.853  30.780  1.00  0.00    -0.274 OA
BRANCH  19  22
ATOM     22  C   UNL A   1      39.021  32.496  30.981  1.00  0.00     0.190 A 
ATOM     23  C   UNL A   1      37.322  34.064  31.675  1.00  0.00     0.034 A 
ATOM     24  S   UNL A   1      38.874  33.613  32.234  1.00  0.00    -0.101 S 
ATOM     25  C   UNL A   1      37.100  33.438  30.460  1.00  0.00     0.087 A 
ATOM     26  N   UNL A   1      38.098  32.572  30.051  1.00  0.00    -0.220 NA
BRANCH  23  27
ATOM     27  C   UNL A   1      36.458  34.991  32.477  1.00  0.00     0.046 C 
ATOM     28  C   UNL A   1      35.672  34.237  33.544  1.00  0.00     0.010 C 
ENDBRANCH  23  27
BRANCH  25  29
ATOM     29  C   UNL A   1      35.879  33.603  29.698  1.00  0.00     0.001 A 
ATOM     30  C   UNL A   1      34.763  32.808  29.976  1.00  0.00     0.010 A 
ATOM     31  C   UNL A   1      35.841  34.501  28.624  1.00  0.00     0.010 A 
ATOM     32  C   UNL A   1      33.632  32.882  29.164  1.00  0.00     0.001 A 
ATOM     33  C   UNL A   1      34.710  34.569  27.809  1.00  0.00     0.001 A 
ATOM     34  C   UNL A   1      33.610  33.754  28.075  1.00  0.00     0.000 A 
ENDBRANCH  25  29
ENDBRANCH  19  22
ENDBRANCH  11  18
ENDBRANCH   8  10
ENDBRANCH   7   8
ENDBRANCH   6   7
ENDBRANCH   5   6
ENDBRANCH   4   5
ENDBRANCH   3   4
ENDBRANCH   2   3
ENDBRANCH   1   2
BRANCH   1  35
ATOM     35  C   UNL A   1      37.643  32.632  39.298  1.00  0.00     0.188 C 
BRANCH  35  36
ATOM     36  C   UNL A   1      38.378  32.631  40.658  1.00  0.00     0.188 C 
BRANCH  36  37
ATOM     37  O   UNL A   1      38.141  33.733  41.512  1.00  0.00    -0.376 OA
BRANCH  37  38
ATOM     38  C   UNL A   1      39.270  34.299  42.180  1.00  0.00     0.202 C 
BRANCH  38  39
ATOM     39  C   UNL A   1      39.914  35.597  41.647  1.00  0.00     0.261 C 
BRANCH  39  40
ATOM     40  O   UNL A   1      40.666  35.487  40.431  1.00  0.00    -0.460 OA
BRANCH  40  41
ATOM     41  C   UNL A   1      39.997  35.700  39.287  1.00  0.00     0.338 C 
ATOM     42  O   UNL A   1      38.936  36.308  39.154  1.00  0.00    -0.246 OA
BRANCH  41  43
ATOM     43  C   UNL A   1      40.819  35.212  38.171  1.00  0.00     0.060 A 
ATOM     44  C   UNL A   1      40.323  35.328  36.867  1.00  0.00     0.016 A 
ATOM     45  C   UNL A   1      42.046  34.588  38.415  1.00  0.00     0.016 A 
ATOM     46  C   UNL A   1      41.035  34.782  35.802  1.00  0.00     0.010 A 
ATOM     47  C   UNL A   1      42.745  34.016  37.348  1.00  0.00     0.010 A 
ATOM     48  C   UNL A   1      42.217  34.074  36.045  1.00  0.00    -0.014 A 
BRANCH  48  49
ATOM     49  C   UNL A   1      42.744  33.183  34.985  1.00  0.00     0.031 A 
ATOM     50  C   UNL A   1      43.267  33.821  33.727  1.00  0.00     0.074 A 
ATOM     51  C   UNL A   1      42.795  31.849  35.141  1.00  0.00     0.049 A 
ATOM     52  N   UNL A   1      43.803  33.266  32.673  1.00  0.00    -0.248 NA
ATOM     53  C   UNL A   1      43.176  35.290  33.655  1.00  0.00     0.031 C 
ATOM     54  C   UNL A   1      42.353  31.116  36.324  1.00  0.00     0.029 A 
ATOM     55  N   UNL A   1      43.236  30.875  34.281  1.00  0.00    -0.354 N 
ATOM     56  C   UNL A   1      44.096  34.311  31.805  1.00  0.00     0.074 A 
ATOM     57  C   UNL A   1      43.660  35.532  32.448  1.00  0.00     0.031 C 
ATOM     58  C   UNL A   1      42.528  29.801  36.108  1.00  0.00     0.029 A 
ATOM     59  C   UNL A   1      43.074  29.600  34.765  1.00  0.00     0.049 A 
ATOM     60  H   UNL A   1      43.632  31.072  33.401  1.00  0.00     0.167 HD
ATOM     61  C   UNL A   1      44.687  34.267  30.588  1.00  0.00     0.034 A 
ATOM     62  C   UNL A   1      43.327  28.411  34.182  1.00  0.00     0.034 A 
ATOM     63  C   UNL A   1      45.108  33.053  29.944  1.00  0.00     0.049 A 
ATOM     64  C   UNL A   1      43.917  28.380  32.793  1.00  0.00     0.074 A 
ATOM     65  C   UNL A   1      45.737  32.899  28.722  1.00  0.00     0.029 A 
ATOM     66  N   UNL A   1      44.918  31.779  30.460  1.00  0.00    -0.354 N 
ATOM     67  N   UNL A   1      44.288  29.377  32.027  1.00  0.00    -0.248 NA
ATOM     68  C   UNL A   1      44.150  27.053  32.202  1.00  0.00     0.031 C 
ATOM     69  C   UNL A   1      45.892  31.528  28.482  1.00  0.00     0.029 A 
ATOM     70  C   UNL A   1      45.398  30.831  29.574  1.00  0.00     0.049 A 
ATOM     71  H   UNL A   1      44.503  31.579  31.331  1.00  0.00     0.167 HD
ATOM     72  C   UNL A   1      44.838  28.802  30.885  1.00  0.00     0.074 A 
ATOM     73  C   UNL A   1      44.760  27.366  31.066  1.00  0.00     0.031 C 
ATOM     74  C   UNL A   1      45.355  29.406  29.785  1.00  0.00     0.034 A 
BRANCH  61  75
ATOM     75  C   UNL A   1      44.902  35.580  29.882  1.00  0.00     0.023 A 
ATOM     76  C   UNL A   1      46.088  36.311  30.103  1.00  0.00     0.012 A 
ATOM     77  C   UNL A   1      43.928  36.096  29.006  1.00  0.00     0.148 A 
ATOM     78  C   UNL A   1      46.278  37.557  29.506  1.00  0.00     0.002 A 
ATOM     79  C   UNL A   1      44.147  37.315  28.375  1.00  0.00     0.091 A 
ATOM     80  F   UNL A   1      42.795  35.403  28.828  1.00  0.00    -0.205 F 
ATOM     81  C   UNL A   1      45.312  38.055  28.637  1.00  0.00     0.022 A 
BRANCH  79  82
ATOM     82  S   UNL A   1      42.995  37.999  27.179  1.00  0.00     0.127 S 
ATOM     83  O   UNL A   1      43.787  39.077  26.588  1.00  0.00    -0.237 OA
ATOM     84  O   UNL A   1      42.760  36.860  26.291  1.00  0.00    -0.237 OA
ATOM     85  O   UNL A   1      41.829  38.419  27.943  1.00  0.00    -0.744 OA
ENDBRANCH  79  82
ENDBRANCH  61  75
BRANCH  62  86
ATOM     86  C   UNL A   1      43.069  27.148  34.931  1.00  0.00     0.023 A 
ATOM     87  C   UNL A   1      41.788  26.565  34.882  1.00  0.00     0.012 A 
ATOM     88  C   UNL A   1      44.087  26.509  35.665  1.00  0.00     0.148 A 
ATOM     89  C   UNL A   1      41.517  25.383  35.571  1.00  0.00     0.002 A 
ATOM     90  C   UNL A   1      43.828  25.301  36.301  1.00  0.00     0.091 A 
ATOM     91  F   UNL A   1      45.297  27.085  35.706  1.00  0.00    -0.205 F 
ATOM     92  C   UNL A   1      42.538  24.746  36.273  1.00  0.00     0.022 A 
BRANCH  90  93
ATOM     93  S   UNL A   1      45.106  24.339  37.117  1.00  0.00     0.127 S 
ATOM     94  O   UNL A   1      44.713  24.445  38.520  1.00  0.00    -0.237 OA
ATOM     95  O   UNL A   1      44.907  23.018  36.518  1.00  0.00    -0.237 OA
ATOM     96  O   UNL A   1      46.367  24.977  36.771  1.00  0.00    -0.744 OA
ENDBRANCH  90  93
ENDBRANCH  62  86
BRANCH  74  97
ATOM     97  C   UNL A   1      45.923  28.526  28.698  1.00  0.00     0.023 A 
ATOM     98  C   UNL A   1      47.273  28.122  28.748  1.00  0.00     0.012 A 
ATOM     99  C   UNL A   1      45.093  28.032  27.671  1.00  0.00     0.148 A 
ATOM    100  C   UNL A   1      47.794  27.270  27.775  1.00  0.00     0.002 A 
ATOM    101  C   UNL A   1      45.607  27.142  26.735  1.00  0.00     0.091 A 
ATOM    102  F   UNL A   1      43.816  28.439  27.629  1.00  0.00    -0.205 F 
ATOM    103  C   UNL A   1      46.960  26.771  26.778  1.00  0.00     0.022 A 
BRANCH 101 104
ATOM    104  S   UNL A   1      44.586  26.369  25.476  1.00  0.00     0.127 S 
ATOM    105  O   UNL A   1      44.068  27.532  24.756  1.00  0.00    -0.237 OA
ATOM    106  O   UNL A   1      45.562  25.575  24.729  1.00  0.00    -0.237 OA
ATOM    107  O   UNL A   1      43.588  25.584  26.191  1.00  0.00    -0.744 OA
ENDBRANCH 101 104
ENDBRANCH  74  97
ENDBRANCH  48  49
ENDBRANCH  41  43
ENDBRANCH  40  41
ENDBRANCH  39  40
ENDBRANCH  38  39
ENDBRANCH  37  38
ENDBRANCH  36  37
ENDBRANCH  35  36
ENDBRANCH   1  35
TORSDOF 27
ENDMDL
