MODEL 1
REMARK VINA RESULT:     -12.1      0.000      0.000
REMARK SMILES Cc1cc(/C=C2/C(=O)NC(=S)N=C2OCCOCCOCCOCCOC(=O)c2ccc(-c3c4nc(c(-c5cccc(S(=O)(=O)[O-])c5F)c5ccc([nH]5)c(-c5cccc(S(=O)(=O)[O-])c5F)c5nc(c(-c6cccc(S(=O)(=O)[O-])c6F)c6ccc3[nH]6)C=C5)C=C4)cc2)c(C)n1-c1cccc(C(=O)[O-])c1
REMARK SMILES IDX 21 1 20 2 19 3 18 4 17 5 16 6 15 7 14 8 13 9 5 10 6 11 7 12
REMARK SMILES IDX 8 13 9 14 12 15 10 16 11 18 4 19 1 20 2 21 3 22 94 23 92 24
REMARK SMILES IDX 93 25 95 26 96 27 103 28 97 29 99 30 98 31 100 32 101 33
REMARK SMILES IDX 102 34 22 35 23 36 24 37 25 38 26 39 27 40 28 41 29 42 30 43
REMARK SMILES IDX 91 44 31 45 90 46 32 47 33 48 34 49 84 50 35 51 89 52 83 53
REMARK SMILES IDX 85 54 36 55 88 56 82 57 81 58 37 60 69 61 49 62 68 63 50 64
REMARK SMILES IDX 53 65 67 66 86 67 51 68 52 69 66 71 87 72 54 73 38 74 39 75
REMARK SMILES IDX 47 76 40 77 42 78 48 79 41 80 43 81 44 82 45 83 46 84 70 85
REMARK SMILES IDX 71 86 79 87 72 88 74 89 80 90 73 91 75 92 76 93 77 94 78 95
REMARK SMILES IDX 55 96 56 97 64 98 57 99 59 100 65 101 58 102 60 103 61 104
REMARK SMILES IDX 62 105 63 106
REMARK H PARENT 9 17 85 59 53 70
REMARK Flexibility Score: inf
ROOT
ATOM      1  C   UNL A   1      36.224  31.721  29.641  1.00  0.00     0.188 C 
ENDROOT
BRANCH   1   2
ATOM      2  O   UNL A   1      34.998  31.658  28.940  1.00  0.00    -0.377 OA
BRANCH   2   3
ATOM      3  C   UNL A   1      34.974  31.095  27.651  1.00  0.00     0.188 C 
BRANCH   3   4
ATOM      4  C   UNL A   1      33.665  30.391  27.240  1.00  0.00     0.188 C 
BRANCH   4   5
ATOM      5  O   UNL A   1      33.300  29.084  27.654  1.00  0.00    -0.376 OA
BRANCH   5   6
ATOM      6  C   UNL A   1      32.735  28.056  26.857  1.00  0.00     0.201 C 
BRANCH   6   7
ATOM      7  C   UNL A   1      33.566  27.067  26.005  1.00  0.00     0.260 C 
BRANCH   7   8
ATOM      8  O   UNL A   1      32.869  25.857  25.605  1.00  0.00    -0.475 OA
BRANCH   8   9
ATOM      9  C   UNL A   1      33.563  24.975  24.873  1.00  0.00     0.229 C 
ATOM     10  C   UNL A   1      32.259  25.465  22.632  1.00  0.00     0.029 C 
ATOM     11  C   UNL A   1      33.155  24.849  23.448  1.00  0.00     0.103 C 
ATOM     12  C   UNL A   1      33.880  23.708  22.769  1.00  0.00     0.262 C 
ATOM     13  O   UNL A   1      33.760  23.414  21.584  1.00  0.00    -0.269 OA
ATOM     14  N   UNL A   1      34.700  22.958  23.567  1.00  0.00    -0.297 N 
ATOM     15  N   UNL A   1      34.447  24.263  25.481  1.00  0.00    -0.184 NA
ATOM     16  C   UNL A   1      35.016  23.197  24.869  1.00  0.00     0.203 C 
ATOM     17  H   UNL A   1      35.103  22.161  23.156  1.00  0.00     0.172 HD
ATOM     18  S   UNL A   1      36.031  22.126  25.661  1.00  0.00    -0.038 S 
BRANCH  10  19
ATOM     19  C   UNL A   1      31.253  26.504  22.706  1.00  0.00    -0.003 A 
ATOM     20  C   UNL A   1      27.812  27.691  23.674  1.00  0.00     0.065 C 
ATOM     21  C   UNL A   1      29.216  27.451  23.245  1.00  0.00     0.020 A 
ATOM     22  C   UNL A   1      29.893  26.248  23.087  1.00  0.00     0.031 A 
ATOM     23  N   UNL A   1      30.083  28.447  22.861  1.00  0.00    -0.318 N 
ATOM     24  C   UNL A   1      31.343  27.881  22.691  1.00  0.00     0.027 A 
ATOM     25  C   UNL A   1      32.490  28.795  22.691  1.00  0.00     0.065 C 
BRANCH  23  26
ATOM     26  C   UNL A   1      29.889  29.860  22.806  1.00  0.00     0.046 A 
ATOM     27  C   UNL A   1      29.944  30.555  24.029  1.00  0.00     0.026 A 
ATOM     28  C   UNL A   1      29.243  30.427  21.699  1.00  0.00     0.036 A 
ATOM     29  C   UNL A   1      29.302  31.781  24.172  1.00  0.00     0.003 A 
ATOM     30  C   UNL A   1      28.609  31.674  21.843  1.00  0.00    -0.001 A 
ATOM     31  C   UNL A   1      28.627  32.333  23.085  1.00  0.00     0.010 A 
BRANCH  30  32
ATOM     32  C   UNL A   1      27.832  32.303  20.747  1.00  0.00     0.072 C 
ATOM     33  O   UNL A   1      27.508  33.487  20.705  1.00  0.00    -0.545 OA
ATOM     34  O   UNL A   1      27.513  31.439  19.778  1.00  0.00    -0.545 OA
ENDBRANCH  30  32
ENDBRANCH  23  26
ENDBRANCH  10  19
ENDBRANCH   8   9
ENDBRANCH   7   8
ENDBRANCH   6   7
ENDBRANCH   5   6
ENDBRANCH   4   5
ENDBRANCH   3   4
ENDBRANCH   2   3
ENDBRANCH   1   2
BRANCH   1  35
ATOM     35  C   UNL A   1      36.033  31.971  31.144  1.00  0.00     0.188 C 
BRANCH  35  36
ATOM     36  O   UNL A   1      36.539  33.172  31.699  1.00  0.00    -0.376 OA
BRANCH  36  37
ATOM     37  C   UNL A   1      36.446  33.318  33.102  1.00  0.00     0.202 C 
BRANCH  37  38
ATOM     38  C   UNL A   1      37.571  33.995  33.966  1.00  0.00     0.261 C 
BRANCH  38  39
ATOM     39  O   UNL A   1      38.818  33.396  34.526  1.00  0.00    -0.460 OA
BRANCH  39  40
ATOM     40  C   UNL A   1      40.054  33.501  33.886  1.00  0.00     0.338 C 
ATOM     41  O   UNL A   1      40.743  34.507  33.998  1.00  0.00    -0.246 OA
BRANCH  40  42
ATOM     42  C   UNL A   1      40.544  32.262  33.013  1.00  0.00     0.060 A 
ATOM     43  C   UNL A   1      41.720  31.442  33.089  1.00  0.00     0.016 A 
ATOM     44  C   UNL A   1      39.819  31.874  31.941  1.00  0.00     0.016 A 
ATOM     45  C   UNL A   1      42.119  30.212  32.137  1.00  0.00     0.010 A 
ATOM     46  C   UNL A   1      40.246  30.708  31.123  1.00  0.00     0.010 A 
ATOM     47  C   UNL A   1      41.388  29.752  31.008  1.00  0.00    -0.014 A 
BRANCH  47  48
ATOM     48  C   UNL A   1      41.232  28.011  30.330  1.00  0.00     0.031 A 
ATOM     49  C   UNL A   1      40.048  28.285  29.438  1.00  0.00     0.074 A 
ATOM     50  C   UNL A   1      41.927  26.685  29.909  1.00  0.00     0.049 A 
ATOM     51  N   UNL A   1      40.073  29.500  28.926  1.00  0.00    -0.248 NA
ATOM     52  C   UNL A   1      39.510  27.363  28.457  1.00  0.00     0.031 C 
ATOM     53  C   UNL A   1      43.291  26.181  30.229  1.00  0.00     0.029 A 
ATOM     54  N   UNL A   1      41.608  25.448  28.913  1.00  0.00    -0.354 N 
ATOM     55  C   UNL A   1      40.807  29.168  27.817  1.00  0.00     0.074 A 
ATOM     56  C   UNL A   1      39.937  28.040  27.375  1.00  0.00     0.031 C 
ATOM     57  C   UNL A   1      43.739  25.123  29.473  1.00  0.00     0.029 A 
ATOM     58  C   UNL A   1      42.767  24.553  28.482  1.00  0.00     0.049 A 
ATOM     59  H   UNL A   1      40.691  25.279  28.595  1.00  0.00     0.167 HD
ATOM     60  C   UNL A   1      42.205  29.228  27.663  1.00  0.00     0.034 A 
ATOM     61  C   UNL A   1      43.208  23.375  27.679  1.00  0.00     0.034 A 
ATOM     62  C   UNL A   1      42.587  28.533  26.525  1.00  0.00     0.049 A 
ATOM     63  C   UNL A   1      43.910  24.236  26.663  1.00  0.00     0.074 A 
ATOM     64  C   UNL A   1      42.105  28.292  25.276  1.00  0.00     0.029 A 
ATOM     65  N   UNL A   1      43.701  27.811  26.729  1.00  0.00    -0.354 N 
ATOM     66  N   UNL A   1      45.184  24.469  26.544  1.00  0.00    -0.248 NA
ATOM     67  C   UNL A   1      43.057  24.639  25.515  1.00  0.00     0.031 C 
ATOM     68  C   UNL A   1      43.131  27.566  24.650  1.00  0.00     0.029 A 
ATOM     69  C   UNL A   1      44.209  27.424  25.546  1.00  0.00     0.049 A 
ATOM     70  H   UNL A   1      44.086  27.596  27.610  1.00  0.00     0.167 HD
ATOM     71  C   UNL A   1      45.198  25.323  25.449  1.00  0.00     0.074 A 
ATOM     72  C   UNL A   1      44.040  24.970  24.671  1.00  0.00     0.031 C 
ATOM     73  C   UNL A   1      45.411  26.642  25.714  1.00  0.00     0.034 A 
BRANCH  60  74
ATOM     74  C   UNL A   1      43.587  29.778  28.504  1.00  0.00     0.023 A 
ATOM     75  C   UNL A   1      44.254  29.069  29.549  1.00  0.00     0.012 A 
ATOM     76  C   UNL A   1      44.177  31.030  28.231  1.00  0.00     0.148 A 
ATOM     77  C   UNL A   1      45.236  29.597  30.408  1.00  0.00     0.002 A 
ATOM     78  C   UNL A   1      45.218  31.546  29.048  1.00  0.00     0.091 A 
ATOM     79  F   UNL A   1      43.686  31.747  27.212  1.00  0.00    -0.205 F 
ATOM     80  C   UNL A   1      45.702  30.862  30.171  1.00  0.00     0.022 A 
BRANCH  78  81
ATOM     81  S   UNL A   1      46.013  33.118  28.703  1.00  0.00     0.127 S 
ATOM     82  O   UNL A   1      44.908  34.057  28.893  1.00  0.00    -0.237 OA
ATOM     83  O   UNL A   1      47.063  33.212  29.717  1.00  0.00    -0.237 OA
ATOM     84  O   UNL A   1      46.511  32.993  27.338  1.00  0.00    -0.744 OA
ENDBRANCH  78  81
ENDBRANCH  60  74
BRANCH  61  85
ATOM     85  C   UNL A   1      43.260  21.915  26.647  1.00  0.00     0.023 A 
ATOM     86  C   UNL A   1      42.177  20.996  26.695  1.00  0.00     0.012 A 
ATOM     87  C   UNL A   1      44.404  21.188  26.014  1.00  0.00     0.148 A 
ATOM     88  C   UNL A   1      42.205  19.656  26.096  1.00  0.00     0.002 A 
ATOM     89  C   UNL A   1      44.406  19.941  25.322  1.00  0.00     0.091 A 
ATOM     90  F   UNL A   1      45.657  21.511  26.262  1.00  0.00    -0.205 F 
ATOM     91  C   UNL A   1      43.290  19.147  25.373  1.00  0.00     0.022 A 
BRANCH  89  92
ATOM     92  S   UNL A   1      45.924  19.273  24.492  1.00  0.00     0.127 S 
ATOM     93  O   UNL A   1      46.854  20.403  24.528  1.00  0.00    -0.237 OA
ATOM     94  O   UNL A   1      46.283  18.170  25.384  1.00  0.00    -0.237 OA
ATOM     95  O   UNL A   1      45.537  18.858  23.148  1.00  0.00    -0.744 OA
ENDBRANCH  89  92
ENDBRANCH  61  85
BRANCH  73  96
ATOM     96  C   UNL A   1      46.547  26.856  26.696  1.00  0.00     0.023 A 
ATOM     97  C   UNL A   1      46.559  28.141  27.249  1.00  0.00     0.012 A 
ATOM     98  C   UNL A   1      47.671  26.022  26.943  1.00  0.00     0.148 A 
ATOM     99  C   UNL A   1      47.646  28.596  27.989  1.00  0.00     0.002 A 
ATOM    100  C   UNL A   1      48.777  26.486  27.661  1.00  0.00     0.091 A 
ATOM    101  F   UNL A   1      47.675  24.785  26.449  1.00  0.00    -0.205 F 
ATOM    102  C   UNL A   1      48.754  27.778  28.186  1.00  0.00     0.022 A 
BRANCH 100 103
ATOM    103  S   UNL A   1      50.342  25.590  27.831  1.00  0.00     0.127 S 
ATOM    104  O   UNL A   1      51.122  26.104  26.702  1.00  0.00    -0.237 OA
ATOM    105  O   UNL A   1      50.830  26.012  29.140  1.00  0.00    -0.237 OA
ATOM    106  O   UNL A   1      50.032  24.170  27.722  1.00  0.00    -0.744 OA
ENDBRANCH 100 103
ENDBRANCH  73  96
ENDBRANCH  47  48
ENDBRANCH  40  42
ENDBRANCH  39  40
ENDBRANCH  38  39
ENDBRANCH  37  38
ENDBRANCH  36  37
ENDBRANCH  35  36
ENDBRANCH   1  35
TORSDOF 25
ENDMDL
MODEL 2
REMARK VINA RESULT:     -12.1      2.074      4.758
REMARK SMILES Cc1cc(/C=C2/C(=O)NC(=S)N=C2OCCOCCOCCOCCOC(=O)c2ccc(-c3c4nc(c(-c5cccc(S(=O)(=O)[O-])c5F)c5ccc([nH]5)c(-c5cccc(S(=O)(=O)[O-])c5F)c5nc(c(-c6cccc(S(=O)(=O)[O-])c6F)c6ccc3[nH]6)C=C5)C=C4)cc2)c(C)n1-c1cccc(C(=O)[O-])c1
REMARK SMILES IDX 21 1 20 2 19 3 18 4 17 5 16 6 15 7 14 8 13 9 5 10 6 11 7 12
REMARK SMILES IDX 8 13 9 14 12 15 10 16 11 18 4 19 1 20 2 21 3 22 94 23 92 24
REMARK SMILES IDX 93 25 95 26 96 27 103 28 97 29 99 30 98 31 100 32 101 33
REMARK SMILES IDX 102 34 22 35 23 36 24 37 25 38 26 39 27 40 28 41 29 42 30 43
REMARK SMILES IDX 91 44 31 45 90 46 32 47 33 48 34 49 84 50 35 51 89 52 83 53
REMARK SMILES IDX 85 54 36 55 88 56 82 57 81 58 37 60 69 61 49 62 68 63 50 64
REMARK SMILES IDX 53 65 67 66 86 67 51 68 52 69 66 71 87 72 54 73 38 74 39 75
REMARK SMILES IDX 47 76 40 77 42 78 48 79 41 80 43 81 44 82 45 83 46 84 70 85
REMARK SMILES IDX 71 86 79 87 72 88 74 89 80 90 73 91 75 92 76 93 77 94 78 95
REMARK SMILES IDX 55 96 56 97 64 98 57 99 59 100 65 101 58 102 60 103 61 104
REMARK SMILES IDX 62 105 63 106
REMARK H PARENT 9 17 85 59 53 70
REMARK Flexibility Score: inf
ROOT
ATOM      1  C   UNL A   1      37.055  32.410  30.182  1.00  0.00     0.188 C 
ENDROOT
BRANCH   1   2
ATOM      2  O   UNL A   1      35.879  32.003  29.514  1.00  0.00    -0.377 OA
BRANCH   2   3
ATOM      3  C   UNL A   1      35.965  31.562  28.181  1.00  0.00     0.188 C 
BRANCH   3   4
ATOM      4  C   UNL A   1      34.764  30.752  27.653  1.00  0.00     0.188 C 
BRANCH   4   5
ATOM      5  O   UNL A   1      34.821  29.374  27.317  1.00  0.00    -0.376 OA
BRANCH   5   6
ATOM      6  C   UNL A   1      34.244  28.740  26.186  1.00  0.00     0.201 C 
BRANCH   6   7
ATOM      7  C   UNL A   1      32.730  28.757  25.864  1.00  0.00     0.260 C 
BRANCH   7   8
ATOM      8  O   UNL A   1      32.372  28.258  24.548  1.00  0.00    -0.475 OA
BRANCH   8   9
ATOM      9  C   UNL A   1      31.073  28.300  24.220  1.00  0.00     0.229 C 
ATOM     10  C   UNL A   1      30.644  25.736  24.671  1.00  0.00     0.029 C 
ATOM     11  C   UNL A   1      30.343  27.005  24.287  1.00  0.00     0.103 C 
ATOM     12  C   UNL A   1      28.944  27.135  23.730  1.00  0.00     0.262 C 
ATOM     13  O   UNL A   1      28.117  26.229  23.706  1.00  0.00    -0.269 OA
ATOM     14  N   UNL A   1      28.618  28.354  23.203  1.00  0.00    -0.297 N 
ATOM     15  N   UNL A   1      30.602  29.422  23.798  1.00  0.00    -0.184 NA
ATOM     16  C   UNL A   1      29.376  29.485  23.228  1.00  0.00     0.203 C 
ATOM     17  H   UNL A   1      27.744  28.421  22.757  1.00  0.00     0.172 HD
ATOM     18  S   UNL A   1      28.781  30.869  22.496  1.00  0.00    -0.038 S 
BRANCH  10  19
ATOM     19  C   UNL A   1      31.779  24.988  25.170  1.00  0.00    -0.003 A 
ATOM     20  C   UNL A   1      33.299  22.542  27.598  1.00  0.00     0.065 C 
ATOM     21  C   UNL A   1      32.907  23.494  26.525  1.00  0.00     0.020 A 
ATOM     22  C   UNL A   1      31.747  24.250  26.401  1.00  0.00     0.031 A 
ATOM     23  N   UNL A   1      33.712  23.828  25.462  1.00  0.00    -0.318 N 
ATOM     24  C   UNL A   1      32.964  24.603  24.580  1.00  0.00     0.027 A 
ATOM     25  C   UNL A   1      33.468  24.724  23.207  1.00  0.00     0.065 C 
BRANCH  23  26
ATOM     26  C   UNL A   1      35.019  23.365  25.122  1.00  0.00     0.046 A 
ATOM     27  C   UNL A   1      35.110  22.070  24.577  1.00  0.00     0.026 A 
ATOM     28  C   UNL A   1      36.140  23.967  25.709  1.00  0.00     0.036 A 
ATOM     29  C   UNL A   1      36.295  21.347  24.675  1.00  0.00     0.003 A 
ATOM     30  C   UNL A   1      37.341  23.238  25.792  1.00  0.00    -0.001 A 
ATOM     31  C   UNL A   1      37.403  21.926  25.291  1.00  0.00     0.010 A 
BRANCH  30  32
ATOM     32  C   UNL A   1      38.548  23.768  26.473  1.00  0.00     0.072 C 
ATOM     33  O   UNL A   1      38.606  24.842  27.064  1.00  0.00    -0.545 OA
ATOM     34  O   UNL A   1      39.595  22.941  26.385  1.00  0.00    -0.545 OA
ENDBRANCH  30  32
ENDBRANCH  23  26
ENDBRANCH  10  19
ENDBRANCH   8   9
ENDBRANCH   7   8
ENDBRANCH   6   7
ENDBRANCH   5   6
ENDBRANCH   4   5
ENDBRANCH   3   4
ENDBRANCH   2   3
ENDBRANCH   1   2
BRANCH   1  35
ATOM     35  C   UNL A   1      36.826  32.671  31.678  1.00  0.00     0.188 C 
BRANCH  35  36
ATOM     36  O   UNL A   1      37.426  33.811  32.266  1.00  0.00    -0.376 OA
BRANCH  36  37
ATOM     37  C   UNL A   1      37.460  33.862  33.679  1.00  0.00     0.202 C 
BRANCH  37  38
ATOM     38  C   UNL A   1      38.716  34.350  34.486  1.00  0.00     0.261 C 
BRANCH  38  39
ATOM     39  O   UNL A   1      39.906  33.572  34.940  1.00  0.00    -0.460 OA
BRANCH  39  40
ATOM     40  C   UNL A   1      41.114  33.571  34.240  1.00  0.00     0.338 C 
ATOM     41  O   UNL A   1      41.936  34.466  34.393  1.00  0.00    -0.246 OA
BRANCH  40  42
ATOM     42  C   UNL A   1      41.392  32.362  33.241  1.00  0.00     0.060 A 
ATOM     43  C   UNL A   1      42.586  31.624  32.940  1.00  0.00     0.016 A 
ATOM     44  C   UNL A   1      40.399  31.917  32.441  1.00  0.00     0.016 A 
ATOM     45  C   UNL A   1      42.753  30.417  31.894  1.00  0.00     0.010 A 
ATOM     46  C   UNL A   1      40.630  30.776  31.516  1.00  0.00     0.010 A 
ATOM     47  C   UNL A   1      41.741  29.899  31.041  1.00  0.00    -0.014 A 
BRANCH  47  48
ATOM     48  C   UNL A   1      41.501  28.146  30.421  1.00  0.00     0.031 A 
ATOM     49  C   UNL A   1      40.273  28.428  29.593  1.00  0.00     0.074 A 
ATOM     50  C   UNL A   1      42.135  26.791  29.995  1.00  0.00     0.049 A 
ATOM     51  N   UNL A   1      40.298  29.628  29.048  1.00  0.00    -0.248 NA
ATOM     52  C   UNL A   1      39.653  27.496  28.671  1.00  0.00     0.031 C 
ATOM     53  C   UNL A   1      43.503  26.258  30.247  1.00  0.00     0.029 A 
ATOM     54  N   UNL A   1      41.725  25.538  29.054  1.00  0.00    -0.354 N 
ATOM     55  C   UNL A   1      40.955  29.248  27.907  1.00  0.00     0.074 A 
ATOM     56  C   UNL A   1      40.031  28.134  27.548  1.00  0.00     0.031 C 
ATOM     57  C   UNL A   1      43.877  25.170  29.495  1.00  0.00     0.029 A 
ATOM     58  C   UNL A   1      42.834  24.601  28.580  1.00  0.00     0.049 A 
ATOM     59  H   UNL A   1      40.788  25.386  28.796  1.00  0.00     0.167 HD
ATOM     60  C   UNL A   1      42.342  29.267  27.669  1.00  0.00     0.034 A 
ATOM     61  C   UNL A   1      43.196  23.391  27.784  1.00  0.00     0.034 A 
ATOM     62  C   UNL A   1      42.638  28.533  26.530  1.00  0.00     0.049 A 
ATOM     63  C   UNL A   1      43.857  24.206  26.706  1.00  0.00     0.074 A 
ATOM     64  C   UNL A   1      42.076  28.273  25.318  1.00  0.00     0.029 A 
ATOM     65  N   UNL A   1      43.743  27.787  26.686  1.00  0.00    -0.354 N 
ATOM     66  N   UNL A   1      45.127  24.402  26.504  1.00  0.00    -0.248 NA
ATOM     67  C   UNL A   1      42.947  24.603  25.600  1.00  0.00     0.031 C 
ATOM     68  C   UNL A   1      43.043  27.504  24.653  1.00  0.00     0.029 A 
ATOM     69  C   UNL A   1      44.169  27.356  25.486  1.00  0.00     0.049 A 
ATOM     70  H   UNL A   1      44.175  27.584  27.548  1.00  0.00     0.167 HD
ATOM     71  C   UNL A   1      45.097  25.227  25.388  1.00  0.00     0.074 A 
ATOM     72  C   UNL A   1      43.886  24.886  24.690  1.00  0.00     0.031 C 
ATOM     73  C   UNL A   1      45.358  26.546  25.604  1.00  0.00     0.034 A 
BRANCH  60  74
ATOM     74  C   UNL A   1      43.786  29.801  28.411  1.00  0.00     0.023 A 
ATOM     75  C   UNL A   1      44.721  28.966  29.094  1.00  0.00     0.012 A 
ATOM     76  C   UNL A   1      44.161  31.161  28.421  1.00  0.00     0.148 A 
ATOM     77  C   UNL A   1      45.781  29.407  29.907  1.00  0.00     0.002 A 
ATOM     78  C   UNL A   1      45.272  31.612  29.183  1.00  0.00     0.091 A 
ATOM     79  F   UNL A   1      43.401  32.027  27.738  1.00  0.00    -0.205 F 
ATOM     80  C   UNL A   1      46.040  30.749  29.974  1.00  0.00     0.022 A 
BRANCH  78  81
ATOM     81  S   UNL A   1      45.793  33.329  29.185  1.00  0.00     0.127 S 
ATOM     82  O   UNL A   1      45.930  33.601  27.754  1.00  0.00    -0.237 OA
ATOM     83  O   UNL A   1      44.683  34.034  29.827  1.00  0.00    -0.237 OA
ATOM     84  O   UNL A   1      47.032  33.342  29.954  1.00  0.00    -0.744 OA
ENDBRANCH  78  81
ENDBRANCH  60  74
BRANCH  61  85
ATOM     85  C   UNL A   1      43.148  21.904  26.792  1.00  0.00     0.023 A 
ATOM     86  C   UNL A   1      42.090  20.975  26.988  1.00  0.00     0.012 A 
ATOM     87  C   UNL A   1      44.222  21.173  26.049  1.00  0.00     0.148 A 
ATOM     88  C   UNL A   1      42.068  19.620  26.424  1.00  0.00     0.002 A 
ATOM     89  C   UNL A   1      44.161  19.908  25.394  1.00  0.00     0.091 A 
ATOM     90  F   UNL A   1      45.490  21.516  26.142  1.00  0.00    -0.205 F 
ATOM     91  C   UNL A   1      43.069  19.103  25.594  1.00  0.00     0.022 A 
BRANCH  89  92
ATOM     92  S   UNL A   1      45.582  19.233  24.412  1.00  0.00     0.127 S 
ATOM     93  O   UNL A   1      46.380  20.423  24.111  1.00  0.00    -0.237 OA
ATOM     94  O   UNL A   1      46.199  18.323  25.378  1.00  0.00    -0.237 OA
ATOM     95  O   UNL A   1      45.023  18.575  23.236  1.00  0.00    -0.744 OA
ENDBRANCH  89  92
ENDBRANCH  61  85
BRANCH  73  96
ATOM     96  C   UNL A   1      46.557  26.754  26.511  1.00  0.00     0.023 A 
ATOM     97  C   UNL A   1      46.481  26.016  27.697  1.00  0.00     0.012 A 
ATOM     98  C   UNL A   1      47.588  27.727  26.405  1.00  0.00     0.148 A 
ATOM     99  C   UNL A   1      47.366  26.247  28.746  1.00  0.00     0.002 A 
ATOM    100  C   UNL A   1      48.459  27.982  27.467  1.00  0.00     0.091 A 
ATOM    101  F   UNL A   1      47.697  28.428  25.277  1.00  0.00    -0.205 F 
ATOM    102  C   UNL A   1      48.343  27.231  28.638  1.00  0.00     0.022 A 
BRANCH 100 103
ATOM    103  S   UNL A   1      49.647  29.348  27.518  1.00  0.00     0.127 S 
ATOM    104  O   UNL A   1      48.903  30.435  26.876  1.00  0.00    -0.237 OA
ATOM    105  O   UNL A   1      49.878  29.540  28.946  1.00  0.00    -0.237 OA
ATOM    106  O   UNL A   1      50.817  28.922  26.761  1.00  0.00    -0.744 OA
ENDBRANCH 100 103
ENDBRANCH  73  96
ENDBRANCH  47  48
ENDBRANCH  40  42
ENDBRANCH  39  40
ENDBRANCH  38  39
ENDBRANCH  37  38
ENDBRANCH  36  37
ENDBRANCH  35  36
ENDBRANCH   1  35
TORSDOF 25
ENDMDL
MODEL 3
REMARK VINA RESULT:     -10.0      6.340     10.027
REMARK SMILES Cc1cc(/C=C2/C(=O)NC(=S)N=C2OCCOCCOCCOCCOC(=O)c2ccc(-c3c4nc(c(-c5cccc(S(=O)(=O)[O-])c5F)c5ccc([nH]5)c(-c5cccc(S(=O)(=O)[O-])c5F)c5nc(c(-c6cccc(S(=O)(=O)[O-])c6F)c6ccc3[nH]6)C=C5)C=C4)cc2)c(C)n1-c1cccc(C(=O)[O-])c1
REMARK SMILES IDX 21 1 20 2 19 3 18 4 17 5 16 6 15 7 14 8 13 9 5 10 6 11 7 12
REMARK SMILES IDX 8 13 9 14 12 15 10 16 11 18 4 19 1 20 2 21 3 22 94 23 92 24
REMARK SMILES IDX 93 25 95 26 96 27 103 28 97 29 99 30 98 31 100 32 101 33
REMARK SMILES IDX 102 34 22 35 23 36 24 37 25 38 26 39 27 40 28 41 29 42 30 43
REMARK SMILES IDX 91 44 31 45 90 46 32 47 33 48 34 49 84 50 35 51 89 52 83 53
REMARK SMILES IDX 85 54 36 55 88 56 82 57 81 58 37 60 69 61 49 62 68 63 50 64
REMARK SMILES IDX 53 65 67 66 86 67 51 68 52 69 66 71 87 72 54 73 38 74 39 75
REMARK SMILES IDX 47 76 40 77 42 78 48 79 41 80 43 81 44 82 45 83 46 84 70 85
REMARK SMILES IDX 71 86 79 87 72 88 74 89 80 90 73 91 75 92 76 93 77 94 78 95
REMARK SMILES IDX 55 96 56 97 64 98 57 99 59 100 65 101 58 102 60 103 61 104
REMARK SMILES IDX 62 105 63 106
REMARK H PARENT 9 17 85 59 53 70
REMARK Flexibility Score: inf
ROOT
ATOM      1  C   UNL A   1      33.790  30.410  27.271  1.00  0.00     0.188 C 
ENDROOT
BRANCH   1   2
ATOM      2  O   UNL A   1      34.098  29.216  26.582  1.00  0.00    -0.377 OA
BRANCH   2   3
ATOM      3  C   UNL A   1      33.050  28.423  26.081  1.00  0.00     0.188 C 
BRANCH   3   4
ATOM      4  C   UNL A   1      33.385  27.543  24.860  1.00  0.00     0.188 C 
BRANCH   4   5
ATOM      5  O   UNL A   1      34.280  26.443  24.895  1.00  0.00    -0.376 OA
BRANCH   5   6
ATOM      6  C   UNL A   1      33.949  25.067  24.996  1.00  0.00     0.201 C 
BRANCH   6   7
ATOM      7  C   UNL A   1      34.283  24.185  26.223  1.00  0.00     0.260 C 
BRANCH   7   8
ATOM      8  O   UNL A   1      35.531  23.447  26.134  1.00  0.00    -0.475 OA
BRANCH   8   9
ATOM      9  C   UNL A   1      35.446  22.158  25.781  1.00  0.00     0.229 C 
ATOM     10  C   UNL A   1      38.052  21.743  25.814  1.00  0.00     0.029 C 
ATOM     11  C   UNL A   1      36.740  21.440  25.625  1.00  0.00     0.103 C 
ATOM     12  C   UNL A   1      36.533  20.055  25.056  1.00  0.00     0.262 C 
ATOM     13  O   UNL A   1      37.429  19.238  24.868  1.00  0.00    -0.269 OA
ATOM     14  N   UNL A   1      35.248  19.730  24.716  1.00  0.00    -0.297 N 
ATOM     15  N   UNL A   1      34.275  21.687  25.525  1.00  0.00    -0.184 NA
ATOM     16  C   UNL A   1      34.131  20.475  24.939  1.00  0.00     0.203 C 
ATOM     17  H   UNL A   1      35.118  18.867  24.261  1.00  0.00     0.172 HD
ATOM     18  S   UNL A   1      32.654  19.886  24.414  1.00  0.00    -0.038 S 
BRANCH  10  19
ATOM     19  C   UNL A   1      38.861  22.872  26.222  1.00  0.00    -0.003 A 
ATOM     20  C   UNL A   1      39.202  26.295  27.756  1.00  0.00     0.065 C 
ATOM     21  C   UNL A   1      39.305  24.939  27.154  1.00  0.00     0.020 A 
ATOM     22  C   UNL A   1      38.299  24.120  26.656  1.00  0.00     0.031 A 
ATOM     23  N   UNL A   1      40.494  24.284  26.936  1.00  0.00    -0.318 N 
ATOM     24  C   UNL A   1      40.203  22.987  26.522  1.00  0.00     0.027 A 
ATOM     25  C   UNL A   1      41.278  21.995  26.631  1.00  0.00     0.065 C 
BRANCH  23  26
ATOM     26  C   UNL A   1      41.831  24.688  27.233  1.00  0.00     0.046 A 
ATOM     27  C   UNL A   1      42.264  24.515  28.561  1.00  0.00     0.026 A 
ATOM     28  C   UNL A   1      42.482  25.597  26.388  1.00  0.00     0.036 A 
ATOM     29  C   UNL A   1      43.301  25.292  29.069  1.00  0.00     0.003 A 
ATOM     30  C   UNL A   1      43.539  26.369  26.902  1.00  0.00    -0.001 A 
ATOM     31  C   UNL A   1      43.928  26.224  28.245  1.00  0.00     0.010 A 
BRANCH  30  32
ATOM     32  C   UNL A   1      44.225  27.413  26.101  1.00  0.00     0.072 C 
ATOM     33  O   UNL A   1      43.743  27.977  25.123  1.00  0.00    -0.545 OA
ATOM     34  O   UNL A   1      45.449  27.695  26.559  1.00  0.00    -0.545 OA
ENDBRANCH  30  32
ENDBRANCH  23  26
ENDBRANCH  10  19
ENDBRANCH   8   9
ENDBRANCH   7   8
ENDBRANCH   6   7
ENDBRANCH   5   6
ENDBRANCH   4   5
ENDBRANCH   3   4
ENDBRANCH   2   3
ENDBRANCH   1   2
BRANCH   1  35
ATOM     35  C   UNL A   1      35.012  31.022  27.972  1.00  0.00     0.188 C 
BRANCH  35  36
ATOM     36  O   UNL A   1      36.129  30.191  28.230  1.00  0.00    -0.376 OA
BRANCH  36  37
ATOM     37  C   UNL A   1      36.227  29.633  29.526  1.00  0.00     0.202 C 
BRANCH  37  38
ATOM     38  C   UNL A   1      37.545  28.977  30.075  1.00  0.00     0.261 C 
BRANCH  38  39
ATOM     39  O   UNL A   1      38.944  29.496  30.039  1.00  0.00    -0.460 OA
BRANCH  39  40
ATOM     40  C   UNL A   1      39.602  29.959  31.180  1.00  0.00     0.338 C 
ATOM     41  O   UNL A   1      39.262  31.000  31.729  1.00  0.00    -0.246 OA
BRANCH  40  42
ATOM     42  C   UNL A   1      40.804  29.083  31.749  1.00  0.00     0.060 A 
ATOM     43  C   UNL A   1      41.006  28.444  33.019  1.00  0.00     0.016 A 
ATOM     44  C   UNL A   1      41.911  28.901  30.997  1.00  0.00     0.016 A 
ATOM     45  C   UNL A   1      42.277  27.585  33.492  1.00  0.00     0.010 A 
ATOM     46  C   UNL A   1      43.037  28.071  31.501  1.00  0.00     0.010 A 
ATOM     47  C   UNL A   1      43.459  27.350  32.738  1.00  0.00    -0.014 A 
BRANCH  47  48
ATOM     48  C   UNL A   1      44.587  25.852  32.746  1.00  0.00     0.031 A 
ATOM     49  C   UNL A   1      45.543  26.358  31.695  1.00  0.00     0.074 A 
ATOM     50  C   UNL A   1      45.234  24.683  33.542  1.00  0.00     0.049 A 
ATOM     51  N   UNL A   1      45.706  27.665  31.751  1.00  0.00    -0.248 NA
ATOM     52  C   UNL A   1      46.801  25.732  31.339  1.00  0.00     0.031 C 
ATOM     53  C   UNL A   1      44.857  24.106  34.862  1.00  0.00     0.029 A 
ATOM     54  N   UNL A   1      46.556  23.756  33.416  1.00  0.00    -0.354 N 
ATOM     55  C   UNL A   1      46.741  27.636  32.649  1.00  0.00     0.074 A 
ATOM     56  C   UNL A   1      47.589  26.670  31.894  1.00  0.00     0.031 C 
ATOM     57  C   UNL A   1      45.789  23.286  35.453  1.00  0.00     0.029 A 
ATOM     58  C   UNL A   1      47.029  23.003  34.657  1.00  0.00     0.049 A 
ATOM     59  H   UNL A   1      47.041  23.681  32.562  1.00  0.00     0.167 HD
ATOM     60  C   UNL A   1      46.662  27.730  34.052  1.00  0.00     0.034 A 
ATOM     61  C   UNL A   1      48.038  22.079  35.253  1.00  0.00     0.034 A 
ATOM     62  C   UNL A   1      47.872  27.361  34.621  1.00  0.00     0.049 A 
ATOM     63  C   UNL A   1      48.674  23.176  36.063  1.00  0.00     0.074 A 
ATOM     64  C   UNL A   1      49.199  27.463  34.334  1.00  0.00     0.029 A 
ATOM     65  N   UNL A   1      47.701  26.606  35.718  1.00  0.00    -0.354 N 
ATOM     66  N   UNL A   1      48.536  23.428  37.332  1.00  0.00    -0.248 NA
ATOM     67  C   UNL A   1      49.790  23.874  35.372  1.00  0.00     0.031 C 
ATOM     68  C   UNL A   1      49.832  26.925  35.466  1.00  0.00     0.029 A 
ATOM     69  C   UNL A   1      48.855  26.545  36.406  1.00  0.00     0.049 A 
ATOM     70  H   UNL A   1      46.861  26.164  35.978  1.00  0.00     0.167 HD
ATOM     71  C   UNL A   1      49.352  24.542  37.474  1.00  0.00     0.074 A 
ATOM     72  C   UNL A   1      50.360  24.413  36.455  1.00  0.00     0.031 C 
ATOM     73  C   UNL A   1      48.720  25.742  37.598  1.00  0.00     0.034 A 
BRANCH  60  74
ATOM     74  C   UNL A   1      45.509  28.032  35.276  1.00  0.00     0.023 A 
ATOM     75  C   UNL A   1      44.897  27.036  36.097  1.00  0.00     0.012 A 
ATOM     76  C   UNL A   1      45.044  29.333  35.559  1.00  0.00     0.148 A 
ATOM     77  C   UNL A   1      43.785  27.229  36.937  1.00  0.00     0.002 A 
ATOM     78  C   UNL A   1      43.967  29.549  36.459  1.00  0.00     0.091 A 
ATOM     79  F   UNL A   1      45.609  30.357  34.907  1.00  0.00    -0.205 F 
ATOM     80  C   UNL A   1      43.297  28.497  37.097  1.00  0.00     0.022 A 
BRANCH  78  81
ATOM     81  S   UNL A   1      43.379  31.196  36.866  1.00  0.00     0.127 S 
ATOM     82  O   UNL A   1      42.173  30.898  37.640  1.00  0.00    -0.237 OA
ATOM     83  O   UNL A   1      44.469  31.775  37.652  1.00  0.00    -0.237 OA
ATOM     84  O   UNL A   1      43.162  31.843  35.579  1.00  0.00    -0.744 OA
ENDBRANCH  78  81
ENDBRANCH  60  74
BRANCH  61  85
ATOM     85  C   UNL A   1      49.398  20.946  35.506  1.00  0.00     0.023 A 
ATOM     86  C   UNL A   1      49.516  20.274  36.753  1.00  0.00     0.012 A 
ATOM     87  C   UNL A   1      50.731  20.830  34.836  1.00  0.00     0.148 A 
ATOM     88  C   UNL A   1      50.702  19.519  37.175  1.00  0.00     0.002 A 
ATOM     89  C   UNL A   1      51.840  20.001  35.176  1.00  0.00     0.091 A 
ATOM     90  F   UNL A   1      51.149  21.720  33.959  1.00  0.00    -0.205 F 
ATOM     91  C   UNL A   1      51.838  19.341  36.377  1.00  0.00     0.022 A 
BRANCH  89  92
ATOM     92  S   UNL A   1      53.368  19.914  34.128  1.00  0.00     0.127 S 
ATOM     93  O   UNL A   1      54.192  21.009  34.641  1.00  0.00    -0.237 OA
ATOM     94  O   UNL A   1      53.870  18.579  34.453  1.00  0.00    -0.237 OA
ATOM     95  O   UNL A   1      52.951  20.079  32.740  1.00  0.00    -0.744 OA
ENDBRANCH  89  92
ENDBRANCH  61  85
BRANCH  73  96
ATOM     96  C   UNL A   1      47.558  25.683  38.571  1.00  0.00     0.023 A 
ATOM     97  C   UNL A   1      46.644  24.666  38.272  1.00  0.00     0.012 A 
ATOM     98  C   UNL A   1      47.190  26.626  39.569  1.00  0.00     0.148 A 
ATOM     99  C   UNL A   1      45.408  24.600  38.907  1.00  0.00     0.002 A 
ATOM    100  C   UNL A   1      45.938  26.579  40.187  1.00  0.00     0.091 A 
ATOM    101  F   UNL A   1      48.051  27.591  39.890  1.00  0.00    -0.205 F 
ATOM    102  C   UNL A   1      45.051  25.556  39.852  1.00  0.00     0.022 A 
BRANCH 100 103
ATOM    103  S   UNL A   1      45.288  27.859  41.293  1.00  0.00     0.127 S 
ATOM    104  O   UNL A   1      46.372  28.010  42.268  1.00  0.00    -0.237 OA
ATOM    105  O   UNL A   1      45.111  29.007  40.410  1.00  0.00    -0.237 OA
ATOM    106  O   UNL A   1      44.058  27.335  41.871  1.00  0.00    -0.744 OA
ENDBRANCH 100 103
ENDBRANCH  73  96
ENDBRANCH  47  48
ENDBRANCH  40  42
ENDBRANCH  39  40
ENDBRANCH  38  39
ENDBRANCH  37  38
ENDBRANCH  36  37
ENDBRANCH  35  36
ENDBRANCH   1  35
TORSDOF 25
ENDMDL
