MODEL 1
REMARK VINA RESULT:     -10.0      0.000      0.000
REMARK SMILES O=C1O[C@@H](c2ccc(O)c(O)c2)[C@H](C(=O)OCCOCCOCCOCCOC(=O)c2ccc(-c3c4nc(c(-c5cccc(S(=O)(=O)[O-])c5F)c5ccc([nH]5)c(-c5cccc(S(=O)(=O)[O-])c5F)c5nc(c(-c6cccc(S(=O)(=O)[O-])c6F)c6ccc3[nH]6)C=C5)C=C4)cc2)/C1=C\c1ccc(O)c(O)c1
REMARK SMILES IDX 23 1 22 2 21 3 20 4 19 5 18 6 17 7 16 8 14 9 15 10 13 11
REMARK SMILES IDX 1 12 2 13 3 14 94 15 4 16 95 17 5 18 6 19 12 20 7 21 10 22
REMARK SMILES IDX 8 23 11 24 9 26 96 28 97 29 103 30 98 31 101 32 99 33 102 34
REMARK SMILES IDX 100 36 24 38 25 39 26 40 27 41 28 42 29 43 30 44 31 45 32 46
REMARK SMILES IDX 93 47 33 48 92 49 34 50 35 51 36 52 86 53 37 54 91 55 85 56
REMARK SMILES IDX 87 57 38 58 90 59 84 60 83 61 39 63 71 64 51 65 70 66 52 67
REMARK SMILES IDX 55 68 69 69 88 70 53 71 54 72 68 74 89 75 56 76 40 77 41 78
REMARK SMILES IDX 49 79 42 80 44 81 50 82 43 83 45 84 46 85 47 86 48 87 72 88
REMARK SMILES IDX 73 89 81 90 74 91 76 92 82 93 75 94 77 95 78 96 79 97 80 98
REMARK SMILES IDX 57 99 58 100 66 101 59 102 61 103 67 104 60 105 62 106
REMARK SMILES IDX 63 107 64 108 65 109
REMARK H PARENT 11 25 9 27 102 35 100 37 87 62 55 73
REMARK Flexibility Score: inf
ROOT
ATOM      1  C   UNL A   1      39.561  21.362  25.834  1.00  0.00     0.188 C 
ENDROOT
BRANCH   1   2
ATOM      2  O   UNL A   1      38.139  21.484  25.853  1.00  0.00    -0.377 OA
BRANCH   2   3
ATOM      3  C   UNL A   1      37.526  22.247  24.835  1.00  0.00     0.188 C 
BRANCH   3   4
ATOM      4  C   UNL A   1      36.028  21.976  24.598  1.00  0.00     0.188 C 
BRANCH   4   5
ATOM      5  O   UNL A   1      35.272  23.158  24.405  1.00  0.00    -0.376 OA
BRANCH   5   6
ATOM      6  C   UNL A   1      34.704  23.441  23.142  1.00  0.00     0.202 C 
BRANCH   6   7
ATOM      7  C   UNL A   1      33.994  24.781  22.888  1.00  0.00     0.261 C 
BRANCH   7   8
ATOM      8  O   UNL A   1      32.878  24.739  21.993  1.00  0.00    -0.463 OA
BRANCH   8   9
ATOM      9  C   UNL A   1      31.998  25.773  22.032  1.00  0.00     0.317 C 
ATOM     10  O   UNL A   1      31.398  26.217  21.066  1.00  0.00    -0.251 OA
BRANCH   9  11
ATOM     11  C   UNL A   1      31.836  26.221  23.479  1.00  0.00     0.182 C 
ATOM     12  O   UNL A   1      28.360  26.731  23.833  1.00  0.00    -0.247 OA
ATOM     13  C   UNL A   1      29.576  26.821  23.744  1.00  0.00     0.335 C 
ATOM     14  O   UNL A   1      30.262  27.934  23.367  1.00  0.00    -0.453 OA
ATOM     15  C   UNL A   1      30.551  25.754  24.059  1.00  0.00     0.056 C 
ATOM     16  C   UNL A   1      31.683  27.726  23.488  1.00  0.00     0.226 C 
ATOM     17  C   UNL A   1      30.185  24.693  24.802  1.00  0.00     0.020 C 
BRANCH  16  18
ATOM     18  C   UNL A   1      32.263  28.391  24.734  1.00  0.00    -0.002 A 
ATOM     19  C   UNL A   1      33.415  27.866  25.362  1.00  0.00     0.012 A 
ATOM     20  C   UNL A   1      31.708  29.574  25.245  1.00  0.00     0.057 A 
ATOM     21  C   UNL A   1      33.980  28.488  26.483  1.00  0.00     0.050 A 
ATOM     22  C   UNL A   1      32.278  30.187  26.353  1.00  0.00     0.157 A 
ATOM     23  C   UNL A   1      33.405  29.652  26.970  1.00  0.00     0.157 A 
BRANCH  22  24
ATOM     24  O   UNL A   1      31.731  31.347  26.824  1.00  0.00    -0.504 OA
ATOM     25  H   UNL A   1      32.052  31.728  27.618  1.00  0.00     0.293 HD
ENDBRANCH  22  24
BRANCH  23  26
ATOM     26  O   UNL A   1      33.922  30.323  28.044  1.00  0.00    -0.504 OA
ATOM     27  H   UNL A   1      34.214  29.846  28.797  1.00  0.00     0.293 HD
ENDBRANCH  23  26
ENDBRANCH  16  18
BRANCH  17  28
ATOM     28  C   UNL A   1      31.008  23.591  25.327  1.00  0.00    -0.021 A 
ATOM     29  C   UNL A   1      31.368  22.498  24.520  1.00  0.00     0.012 A 
ATOM     30  C   UNL A   1      31.540  23.676  26.622  1.00  0.00     0.058 A 
ATOM     31  C   UNL A   1      32.224  21.494  25.002  1.00  0.00     0.051 A 
ATOM     32  C   UNL A   1      32.378  22.669  27.098  1.00  0.00     0.157 A 
ATOM     33  C   UNL A   1      32.720  21.584  26.296  1.00  0.00     0.157 A 
BRANCH  32  34
ATOM     34  O   UNL A   1      32.855  22.744  28.376  1.00  0.00    -0.504 OA
ATOM     35  H   UNL A   1      32.717  23.521  28.882  1.00  0.00     0.293 HD
ENDBRANCH  32  34
BRANCH  33  36
ATOM     36  O   UNL A   1      33.546  20.631  26.827  1.00  0.00    -0.504 OA
ATOM     37  H   UNL A   1      33.306  20.191  27.619  1.00  0.00     0.293 HD
ENDBRANCH  33  36
ENDBRANCH  17  28
ENDBRANCH   9  11
ENDBRANCH   8   9
ENDBRANCH   7   8
ENDBRANCH   6   7
ENDBRANCH   5   6
ENDBRANCH   4   5
ENDBRANCH   3   4
ENDBRANCH   2   3
ENDBRANCH   1   2
BRANCH   1  38
ATOM     38  C   UNL A   1      40.465  21.822  27.014  1.00  0.00     0.188 C 
BRANCH  38  39
ATOM     39  O   UNL A   1      41.590  21.008  27.308  1.00  0.00    -0.376 OA
BRANCH  39  40
ATOM     40  C   UNL A   1      41.507  19.614  27.079  1.00  0.00     0.202 C 
BRANCH  40  41
ATOM     41  C   UNL A   1      42.615  18.993  26.216  1.00  0.00     0.261 C 
BRANCH  41  42
ATOM     42  O   UNL A   1      42.947  19.725  25.032  1.00  0.00    -0.460 OA
BRANCH  42  43
ATOM     43  C   UNL A   1      44.265  19.860  24.757  1.00  0.00     0.338 C 
ATOM     44  O   UNL A   1      44.990  19.048  24.214  1.00  0.00    -0.246 OA
BRANCH  43  45
ATOM     45  C   UNL A   1      44.621  21.264  25.033  1.00  0.00     0.060 A 
ATOM     46  C   UNL A   1      45.041  21.619  26.323  1.00  0.00     0.016 A 
ATOM     47  C   UNL A   1      44.590  22.207  24.005  1.00  0.00     0.016 A 
ATOM     48  C   UNL A   1      45.422  22.929  26.594  1.00  0.00     0.010 A 
ATOM     49  C   UNL A   1      44.933  23.527  24.287  1.00  0.00     0.010 A 
ATOM     50  C   UNL A   1      45.320  23.896  25.588  1.00  0.00    -0.014 A 
BRANCH  50  51
ATOM     51  C   UNL A   1      45.381  25.329  25.943  1.00  0.00     0.031 A 
ATOM     52  C   UNL A   1      46.731  25.986  25.943  1.00  0.00     0.074 A 
ATOM     53  C   UNL A   1      44.278  26.016  26.282  1.00  0.00     0.049 A 
ATOM     54  N   UNL A   1      47.068  27.185  26.326  1.00  0.00    -0.248 NA
ATOM     55  C   UNL A   1      47.857  25.169  25.452  1.00  0.00     0.031 C 
ATOM     56  C   UNL A   1      42.917  25.486  26.287  1.00  0.00     0.029 A 
ATOM     57  N   UNL A   1      44.143  27.307  26.725  1.00  0.00    -0.354 N 
ATOM     58  C   UNL A   1      48.446  27.257  26.162  1.00  0.00     0.074 A 
ATOM     59  C   UNL A   1      48.884  25.979  25.647  1.00  0.00     0.031 C 
ATOM     60  C   UNL A   1      42.085  26.434  26.755  1.00  0.00     0.029 A 
ATOM     61  C   UNL A   1      42.862  27.618  27.117  1.00  0.00     0.049 A 
ATOM     62  H   UNL A   1      44.889  27.949  26.760  1.00  0.00     0.167 HD
ATOM     63  C   UNL A   1      49.272  28.296  26.416  1.00  0.00     0.034 A 
ATOM     64  C   UNL A   1      42.389  28.718  27.736  1.00  0.00     0.034 A 
ATOM     65  C   UNL A   1      48.825  29.563  26.923  1.00  0.00     0.049 A 
ATOM     66  C   UNL A   1      43.337  29.846  28.056  1.00  0.00     0.074 A 
ATOM     67  C   UNL A   1      49.573  30.697  27.178  1.00  0.00     0.029 A 
ATOM     68  N   UNL A   1      47.516  29.855  27.274  1.00  0.00    -0.354 N 
ATOM     69  N   UNL A   1      44.622  29.940  27.811  1.00  0.00    -0.248 NA
ATOM     70  C   UNL A   1      42.767  31.031  28.715  1.00  0.00     0.031 C 
ATOM     71  C   UNL A   1      48.722  31.662  27.727  1.00  0.00     0.029 A 
ATOM     72  C   UNL A   1      47.436  31.145  27.762  1.00  0.00     0.049 A 
ATOM     73  H   UNL A   1      46.756  29.234  27.188  1.00  0.00     0.167 HD
ATOM     74  C   UNL A   1      45.003  31.205  28.242  1.00  0.00     0.074 A 
ATOM     75  C   UNL A   1      43.811  31.847  28.758  1.00  0.00     0.031 C 
ATOM     76  C   UNL A   1      46.229  31.785  28.218  1.00  0.00     0.034 A 
BRANCH  63  77
ATOM     77  C   UNL A   1      50.741  28.102  26.158  1.00  0.00     0.023 A 
ATOM     78  C   UNL A   1      51.255  28.255  24.855  1.00  0.00     0.012 A 
ATOM     79  C   UNL A   1      51.617  27.808  27.219  1.00  0.00     0.148 A 
ATOM     80  C   UNL A   1      52.617  28.086  24.607  1.00  0.00     0.002 A 
ATOM     81  C   UNL A   1      52.979  27.692  26.973  1.00  0.00     0.091 A 
ATOM     82  F   UNL A   1      51.103  27.639  28.446  1.00  0.00    -0.205 F 
ATOM     83  C   UNL A   1      53.479  27.817  25.667  1.00  0.00     0.022 A 
BRANCH  81  84
ATOM     84  S   UNL A   1      54.179  27.426  28.283  1.00  0.00     0.127 S 
ATOM     85  O   UNL A   1      53.936  28.584  29.143  1.00  0.00    -0.237 OA
ATOM     86  O   UNL A   1      53.742  26.147  28.842  1.00  0.00    -0.237 OA
ATOM     87  O   UNL A   1      55.483  27.395  27.636  1.00  0.00    -0.744 OA
ENDBRANCH  81  84
ENDBRANCH  63  77
BRANCH  64  88
ATOM     88  C   UNL A   1      40.945  28.809  28.096  1.00  0.00     0.023 A 
ATOM     89  C   UNL A   1      39.997  29.125  27.105  1.00  0.00     0.012 A 
ATOM     90  C   UNL A   1      40.510  28.578  29.415  1.00  0.00     0.148 A 
ATOM     91  C   UNL A   1      38.643  29.243  27.429  1.00  0.00     0.002 A 
ATOM     92  C   UNL A   1      39.155  28.639  29.718  1.00  0.00     0.091 A 
ATOM     93  F   UNL A   1      41.430  28.292  30.348  1.00  0.00    -0.205 F 
ATOM     94  C   UNL A   1      38.222  28.991  28.732  1.00  0.00     0.022 A 
BRANCH  92  95
ATOM     95  S   UNL A   1      38.508  28.207  31.338  1.00  0.00     0.127 S 
ATOM     96  O   UNL A   1      37.171  28.792  31.293  1.00  0.00    -0.237 OA
ATOM     97  O   UNL A   1      38.545  26.744  31.292  1.00  0.00    -0.237 OA
ATOM     98  O   UNL A   1      39.426  28.801  32.301  1.00  0.00    -0.744 OA
ENDBRANCH  92  95
ENDBRANCH  64  88
BRANCH  76  99
ATOM     99  C   UNL A   1      46.352  33.207  28.701  1.00  0.00     0.023 A 
ATOM    100  C   UNL A   1      46.831  33.478  29.997  1.00  0.00     0.012 A 
ATOM    101  C   UNL A   1      46.094  34.275  27.818  1.00  0.00     0.148 A 
ATOM    102  C   UNL A   1      47.030  34.795  30.415  1.00  0.00     0.002 A 
ATOM    103  C   UNL A   1      46.347  35.579  28.222  1.00  0.00     0.091 A 
ATOM    104  F   UNL A   1      45.626  33.993  26.595  1.00  0.00    -0.205 F 
ATOM    105  C   UNL A   1      46.802  35.842  29.524  1.00  0.00     0.022 A 
BRANCH 103 106
ATOM    106  S   UNL A   1      46.185  36.982  27.112  1.00  0.00     0.127 S 
ATOM    107  O   UNL A   1      44.768  36.914  26.753  1.00  0.00    -0.237 OA
ATOM    108  O   UNL A   1      46.541  38.104  27.981  1.00  0.00    -0.237 OA
ATOM    109  O   UNL A   1      47.114  36.741  26.016  1.00  0.00    -0.744 OA
ENDBRANCH 103 106
ENDBRANCH  76  99
ENDBRANCH  50  51
ENDBRANCH  43  45
ENDBRANCH  42  43
ENDBRANCH  41  42
ENDBRANCH  40  41
ENDBRANCH  39  40
ENDBRANCH  38  39
ENDBRANCH   1  38
TORSDOF 29
ENDMDL
MODEL 2
REMARK VINA RESULT:      -9.2      5.030      9.731
REMARK SMILES O=C1O[C@@H](c2ccc(O)c(O)c2)[C@H](C(=O)OCCOCCOCCOCCOC(=O)c2ccc(-c3c4nc(c(-c5cccc(S(=O)(=O)[O-])c5F)c5ccc([nH]5)c(-c5cccc(S(=O)(=O)[O-])c5F)c5nc(c(-c6cccc(S(=O)(=O)[O-])c6F)c6ccc3[nH]6)C=C5)C=C4)cc2)/C1=C\c1ccc(O)c(O)c1
REMARK SMILES IDX 23 1 22 2 21 3 20 4 19 5 18 6 17 7 16 8 14 9 15 10 13 11
REMARK SMILES IDX 1 12 2 13 3 14 94 15 4 16 95 17 5 18 6 19 12 20 7 21 10 22
REMARK SMILES IDX 8 23 11 24 9 26 96 28 97 29 103 30 98 31 101 32 99 33 102 34
REMARK SMILES IDX 100 36 24 38 25 39 26 40 27 41 28 42 29 43 30 44 31 45 32 46
REMARK SMILES IDX 93 47 33 48 92 49 34 50 35 51 36 52 86 53 37 54 91 55 85 56
REMARK SMILES IDX 87 57 38 58 90 59 84 60 83 61 39 63 71 64 51 65 70 66 52 67
REMARK SMILES IDX 55 68 69 69 88 70 53 71 54 72 68 74 89 75 56 76 40 77 41 78
REMARK SMILES IDX 49 79 42 80 44 81 50 82 43 83 45 84 46 85 47 86 48 87 72 88
REMARK SMILES IDX 73 89 81 90 74 91 76 92 82 93 75 94 77 95 78 96 79 97 80 98
REMARK SMILES IDX 57 99 58 100 66 101 59 102 61 103 67 104 60 105 62 106
REMARK SMILES IDX 63 107 64 108 65 109
REMARK H PARENT 11 25 9 27 102 35 100 37 87 62 55 73
REMARK Flexibility Score: inf
ROOT
ATOM      1  C   UNL A   1      33.542  28.690  27.367  1.00  0.00     0.188 C 
ENDROOT
BRANCH   1   2
ATOM      2  O   UNL A   1      32.175  28.748  26.960  1.00  0.00    -0.377 OA
BRANCH   2   3
ATOM      3  C   UNL A   1      31.899  28.820  25.577  1.00  0.00     0.188 C 
BRANCH   3   4
ATOM      4  C   UNL A   1      31.455  27.505  24.908  1.00  0.00     0.188 C 
BRANCH   4   5
ATOM      5  O   UNL A   1      32.527  26.788  24.323  1.00  0.00    -0.376 OA
BRANCH   5   6
ATOM      6  C   UNL A   1      32.296  25.937  23.218  1.00  0.00     0.202 C 
BRANCH   6   7
ATOM      7  C   UNL A   1      33.421  25.638  22.215  1.00  0.00     0.261 C 
BRANCH   7   8
ATOM      8  O   UNL A   1      34.406  24.691  22.642  1.00  0.00    -0.463 OA
BRANCH   8   9
ATOM      9  C   UNL A   1      34.016  23.400  22.794  1.00  0.00     0.317 C 
ATOM     10  O   UNL A   1      33.222  22.820  22.069  1.00  0.00    -0.251 OA
BRANCH   9  11
ATOM     11  C   UNL A   1      34.785  22.790  23.958  1.00  0.00     0.182 C 
ATOM     12  O   UNL A   1      32.749  23.446  26.767  1.00  0.00    -0.247 OA
ATOM     13  C   UNL A   1      33.624  23.389  25.915  1.00  0.00     0.335 C 
ATOM     14  O   UNL A   1      34.553  24.352  25.670  1.00  0.00    -0.453 OA
ATOM     15  C   UNL A   1      33.873  22.254  25.000  1.00  0.00     0.056 C 
ATOM     16  C   UNL A   1      35.503  23.908  24.681  1.00  0.00     0.226 C 
ATOM     17  C   UNL A   1      33.362  21.038  25.267  1.00  0.00     0.020 C 
BRANCH  16  18
ATOM     18  C   UNL A   1      36.830  23.481  25.303  1.00  0.00    -0.002 A 
ATOM     19  C   UNL A   1      37.541  24.355  26.157  1.00  0.00     0.012 A 
ATOM     20  C   UNL A   1      37.342  22.191  25.097  1.00  0.00     0.057 A 
ATOM     21  C   UNL A   1      38.740  23.961  26.765  1.00  0.00     0.050 A 
ATOM     22  C   UNL A   1      38.529  21.808  25.708  1.00  0.00     0.157 A 
ATOM     23  C   UNL A   1      39.225  22.682  26.537  1.00  0.00     0.157 A 
BRANCH  22  24
ATOM     24  O   UNL A   1      39.000  20.541  25.506  1.00  0.00    -0.504 OA
ATOM     25  H   UNL A   1      39.415  20.079  26.208  1.00  0.00     0.293 HD
ENDBRANCH  22  24
BRANCH  23  26
ATOM     26  O   UNL A   1      40.376  22.228  27.120  1.00  0.00    -0.504 OA
ATOM     27  H   UNL A   1      40.931  22.822  27.585  1.00  0.00     0.293 HD
ENDBRANCH  23  26
ENDBRANCH  16  18
BRANCH  17  28
ATOM     28  C   UNL A   1      33.576  19.759  24.569  1.00  0.00    -0.021 A 
ATOM     29  C   UNL A   1      34.710  18.969  24.823  1.00  0.00     0.012 A 
ATOM     30  C   UNL A   1      32.583  19.257  23.715  1.00  0.00     0.058 A 
ATOM     31  C   UNL A   1      34.866  17.710  24.218  1.00  0.00     0.051 A 
ATOM     32  C   UNL A   1      32.751  18.014  23.108  1.00  0.00     0.157 A 
ATOM     33  C   UNL A   1      33.883  17.242  23.356  1.00  0.00     0.157 A 
BRANCH  32  34
ATOM     34  O   UNL A   1      31.795  17.557  22.246  1.00  0.00    -0.504 OA
ATOM     35  H   UNL A   1      31.183  16.905  22.527  1.00  0.00     0.293 HD
ENDBRANCH  32  34
BRANCH  33  36
ATOM     36  O   UNL A   1      33.983  16.033  22.726  1.00  0.00    -0.504 OA
ATOM     37  H   UNL A   1      34.826  15.658  22.561  1.00  0.00     0.293 HD
ENDBRANCH  33  36
ENDBRANCH  17  28
ENDBRANCH   9  11
ENDBRANCH   8   9
ENDBRANCH   7   8
ENDBRANCH   6   7
ENDBRANCH   5   6
ENDBRANCH   4   5
ENDBRANCH   3   4
ENDBRANCH   2   3
ENDBRANCH   1   2
BRANCH   1  38
ATOM     38  C   UNL A   1      34.442  29.953  27.493  1.00  0.00     0.188 C 
BRANCH  38  39
ATOM     39  O   UNL A   1      35.530  29.871  28.402  1.00  0.00    -0.376 OA
BRANCH  39  40
ATOM     40  C   UNL A   1      35.699  30.893  29.365  1.00  0.00     0.202 C 
BRANCH  40  41
ATOM     41  C   UNL A   1      36.680  30.602  30.510  1.00  0.00     0.261 C 
BRANCH  41  42
ATOM     42  O   UNL A   1      37.937  30.046  30.108  1.00  0.00    -0.460 OA
BRANCH  42  43
ATOM     43  C   UNL A   1      38.932  30.927  29.856  1.00  0.00     0.338 C 
ATOM     44  O   UNL A   1      38.817  32.090  29.516  1.00  0.00    -0.246 OA
BRANCH  43  45
ATOM     45  C   UNL A   1      40.190  30.290  30.286  1.00  0.00     0.060 A 
ATOM     46  C   UNL A   1      41.382  31.028  30.226  1.00  0.00     0.016 A 
ATOM     47  C   UNL A   1      40.177  28.990  30.794  1.00  0.00     0.016 A 
ATOM     48  C   UNL A   1      42.573  30.460  30.666  1.00  0.00     0.010 A 
ATOM     49  C   UNL A   1      41.376  28.409  31.196  1.00  0.00     0.010 A 
ATOM     50  C   UNL A   1      42.580  29.132  31.105  1.00  0.00    -0.014 A 
BRANCH  50  51
ATOM     51  C   UNL A   1      43.864  28.413  31.239  1.00  0.00     0.031 A 
ATOM     52  C   UNL A   1      44.630  28.596  32.518  1.00  0.00     0.074 A 
ATOM     53  C   UNL A   1      44.348  27.647  30.248  1.00  0.00     0.049 A 
ATOM     54  N   UNL A   1      45.822  28.176  32.836  1.00  0.00    -0.248 NA
ATOM     55  C   UNL A   1      43.957  29.369  33.578  1.00  0.00     0.031 C 
ATOM     56  C   UNL A   1      43.675  27.377  28.979  1.00  0.00     0.029 A 
ATOM     57  N   UNL A   1      45.544  26.985  30.146  1.00  0.00    -0.354 N 
ATOM     58  C   UNL A   1      46.062  28.666  34.115  1.00  0.00     0.074 A 
ATOM     59  C   UNL A   1      44.892  29.416  34.513  1.00  0.00     0.031 C 
ATOM     60  C   UNL A   1      44.490  26.639  28.206  1.00  0.00     0.029 A 
ATOM     61  C   UNL A   1      45.752  26.419  28.910  1.00  0.00     0.049 A 
ATOM     62  H   UNL A   1      46.192  26.921  30.885  1.00  0.00     0.167 HD
ATOM     63  C   UNL A   1      47.158  28.501  34.887  1.00  0.00     0.034 A 
ATOM     64  C   UNL A   1      46.853  25.832  28.400  1.00  0.00     0.034 A 
ATOM     65  C   UNL A   1      48.313  27.750  34.482  1.00  0.00     0.049 A 
ATOM     66  C   UNL A   1      48.083  25.704  29.263  1.00  0.00     0.074 A 
ATOM     67  C   UNL A   1      49.462  27.487  35.204  1.00  0.00     0.029 A 
ATOM     68  N   UNL A   1      48.473  27.160  33.238  1.00  0.00    -0.354 N 
ATOM     69  N   UNL A   1      48.266  26.088  30.503  1.00  0.00    -0.248 NA
ATOM     70  C   UNL A   1      49.251  25.039  28.665  1.00  0.00     0.031 C 
ATOM     71  C   UNL A   1      50.338  26.776  34.379  1.00  0.00     0.029 A 
ATOM     72  C   UNL A   1      49.710  26.550  33.163  1.00  0.00     0.049 A 
ATOM     73  H   UNL A   1      47.804  27.174  32.515  1.00  0.00     0.167 HD
ATOM     74  C   UNL A   1      49.548  25.673  30.848  1.00  0.00     0.074 A 
ATOM     75  C   UNL A   1      50.095  25.001  29.688  1.00  0.00     0.031 C 
ATOM     76  C   UNL A   1      50.215  25.836  32.018  1.00  0.00     0.034 A 
BRANCH  63  77
ATOM     77  C   UNL A   1      47.163  29.155  36.242  1.00  0.00     0.023 A 
ATOM     78  C   UNL A   1      46.729  28.437  37.374  1.00  0.00     0.012 A 
ATOM     79  C   UNL A   1      47.640  30.470  36.396  1.00  0.00     0.148 A 
ATOM     80  C   UNL A   1      46.740  29.030  38.636  1.00  0.00     0.002 A 
ATOM     81  C   UNL A   1      47.695  31.037  37.663  1.00  0.00     0.091 A 
ATOM     82  F   UNL A   1      48.022  31.145  35.302  1.00  0.00    -0.205 F 
ATOM     83  C   UNL A   1      47.233  30.324  38.781  1.00  0.00     0.022 A 
BRANCH  81  84
ATOM     84  S   UNL A   1      48.387  32.666  37.964  1.00  0.00     0.127 S 
ATOM     85  O   UNL A   1      47.944  32.924  39.334  1.00  0.00    -0.237 OA
ATOM     86  O   UNL A   1      49.822  32.419  37.823  1.00  0.00    -0.237 OA
ATOM     87  O   UNL A   1      47.816  33.541  36.951  1.00  0.00    -0.744 OA
ENDBRANCH  81  84
ENDBRANCH  63  77
BRANCH  64  88
ATOM     88  C   UNL A   1      46.845  25.319  27.000  1.00  0.00     0.023 A 
ATOM     89  C   UNL A   1      47.540  26.020  25.997  1.00  0.00     0.012 A 
ATOM     90  C   UNL A   1      46.155  24.139  26.663  1.00  0.00     0.148 A 
ATOM     91  C   UNL A   1      47.521  25.571  24.674  1.00  0.00     0.002 A 
ATOM     92  C   UNL A   1      46.188  23.666  25.357  1.00  0.00     0.091 A 
ATOM     93  F   UNL A   1      45.487  23.495  27.631  1.00  0.00    -0.205 F 
ATOM     94  C   UNL A   1      46.854  24.391  24.356  1.00  0.00     0.022 A 
BRANCH  92  95
ATOM     95  S   UNL A   1      45.465  22.092  24.882  1.00  0.00     0.127 S 
ATOM     96  O   UNL A   1      44.423  21.925  25.891  1.00  0.00    -0.237 OA
ATOM     97  O   UNL A   1      44.979  22.384  23.532  1.00  0.00    -0.237 OA
ATOM     98  O   UNL A   1      46.554  21.126  24.933  1.00  0.00    -0.744 OA
ENDBRANCH  92  95
ENDBRANCH  64  88
BRANCH  76  99
ATOM     99  C   UNL A   1      51.588  25.229  32.142  1.00  0.00     0.023 A 
ATOM    100  C   UNL A   1      52.736  26.022  31.956  1.00  0.00     0.012 A 
ATOM    101  C   UNL A   1      51.730  23.889  32.557  1.00  0.00     0.148 A 
ATOM    102  C   UNL A   1      54.007  25.484  32.159  1.00  0.00     0.002 A 
ATOM    103  C   UNL A   1      52.995  23.376  32.810  1.00  0.00     0.091 A 
ATOM    104  F   UNL A   1      50.624  23.149  32.715  1.00  0.00    -0.205 F 
ATOM    105  C   UNL A   1      54.136  24.168  32.599  1.00  0.00     0.022 A 
BRANCH 103 106
ATOM    106  S   UNL A   1      53.254  21.730  33.480  1.00  0.00     0.127 S 
ATOM    107  O   UNL A   1      52.834  20.886  32.361  1.00  0.00    -0.237 OA
ATOM    108  O   UNL A   1      54.694  21.727  33.741  1.00  0.00    -0.237 OA
ATOM    109  O   UNL A   1      52.419  21.641  34.670  1.00  0.00    -0.744 OA
ENDBRANCH 103 106
ENDBRANCH  76  99
ENDBRANCH  50  51
ENDBRANCH  43  45
ENDBRANCH  42  43
ENDBRANCH  41  42
ENDBRANCH  40  41
ENDBRANCH  39  40
ENDBRANCH  38  39
ENDBRANCH   1  38
TORSDOF 29
ENDMDL
MODEL 3
REMARK VINA RESULT:      -9.1      4.020      6.281
REMARK SMILES O=C1O[C@@H](c2ccc(O)c(O)c2)[C@H](C(=O)OCCOCCOCCOCCOC(=O)c2ccc(-c3c4nc(c(-c5cccc(S(=O)(=O)[O-])c5F)c5ccc([nH]5)c(-c5cccc(S(=O)(=O)[O-])c5F)c5nc(c(-c6cccc(S(=O)(=O)[O-])c6F)c6ccc3[nH]6)C=C5)C=C4)cc2)/C1=C\c1ccc(O)c(O)c1
REMARK SMILES IDX 23 1 22 2 21 3 20 4 19 5 18 6 17 7 16 8 14 9 15 10 13 11
REMARK SMILES IDX 1 12 2 13 3 14 94 15 4 16 95 17 5 18 6 19 12 20 7 21 10 22
REMARK SMILES IDX 8 23 11 24 9 26 96 28 97 29 103 30 98 31 101 32 99 33 102 34
REMARK SMILES IDX 100 36 24 38 25 39 26 40 27 41 28 42 29 43 30 44 31 45 32 46
REMARK SMILES IDX 93 47 33 48 92 49 34 50 35 51 36 52 86 53 37 54 91 55 85 56
REMARK SMILES IDX 87 57 38 58 90 59 84 60 83 61 39 63 71 64 51 65 70 66 52 67
REMARK SMILES IDX 55 68 69 69 88 70 53 71 54 72 68 74 89 75 56 76 40 77 41 78
REMARK SMILES IDX 49 79 42 80 44 81 50 82 43 83 45 84 46 85 47 86 48 87 72 88
REMARK SMILES IDX 73 89 81 90 74 91 76 92 82 93 75 94 77 95 78 96 79 97 80 98
REMARK SMILES IDX 57 99 58 100 66 101 59 102 61 103 67 104 60 105 62 106
REMARK SMILES IDX 63 107 64 108 65 109
REMARK H PARENT 11 25 9 27 102 35 100 37 87 62 55 73
REMARK Flexibility Score: inf
ROOT
ATOM      1  C   UNL A   1      37.835  21.590  25.132  1.00  0.00     0.188 C 
ENDROOT
BRANCH   1   2
ATOM      2  O   UNL A   1      36.850  22.053  24.209  1.00  0.00    -0.377 OA
BRANCH   2   3
ATOM      3  C   UNL A   1      35.502  22.068  24.631  1.00  0.00     0.188 C 
BRANCH   3   4
ATOM      4  C   UNL A   1      34.459  22.396  23.545  1.00  0.00     0.188 C 
BRANCH   4   5
ATOM      5  O   UNL A   1      33.334  23.095  24.047  1.00  0.00    -0.376 OA
BRANCH   5   6
ATOM      6  C   UNL A   1      32.404  23.679  23.157  1.00  0.00     0.202 C 
BRANCH   6   7
ATOM      7  C   UNL A   1      32.846  24.776  22.174  1.00  0.00     0.261 C 
BRANCH   7   8
ATOM      8  O   UNL A   1      32.412  26.105  22.482  1.00  0.00    -0.463 OA
BRANCH   8   9
ATOM      9  C   UNL A   1      32.905  26.685  23.606  1.00  0.00     0.317 C 
ATOM     10  O   UNL A   1      34.044  26.544  24.024  1.00  0.00    -0.251 OA
BRANCH   9  11
ATOM     11  C   UNL A   1      31.832  27.588  24.201  1.00  0.00     0.182 C 
ATOM     12  O   UNL A   1      30.212  25.542  26.580  1.00  0.00    -0.247 OA
ATOM     13  C   UNL A   1      30.537  26.238  25.628  1.00  0.00     0.335 C 
ATOM     14  O   UNL A   1      29.969  26.203  24.392  1.00  0.00    -0.453 OA
ATOM     15  C   UNL A   1      31.585  27.281  25.632  1.00  0.00     0.056 C 
ATOM     16  C   UNL A   1      30.512  27.238  23.549  1.00  0.00     0.226 C 
ATOM     17  C   UNL A   1      32.041  27.786  26.795  1.00  0.00     0.020 C 
BRANCH  16  18
ATOM     18  C   UNL A   1      29.566  28.428  23.409  1.00  0.00    -0.002 A 
ATOM     19  C   UNL A   1      28.189  28.228  23.162  1.00  0.00     0.012 A 
ATOM     20  C   UNL A   1      30.025  29.742  23.586  1.00  0.00     0.057 A 
ATOM     21  C   UNL A   1      27.302  29.309  23.069  1.00  0.00     0.050 A 
ATOM     22  C   UNL A   1      29.139  30.806  23.498  1.00  0.00     0.157 A 
ATOM     23  C   UNL A   1      27.787  30.597  23.242  1.00  0.00     0.157 A 
BRANCH  22  24
ATOM     24  O   UNL A   1      29.605  32.076  23.691  1.00  0.00    -0.504 OA
ATOM     25  H   UNL A   1      29.882  32.349  24.543  1.00  0.00     0.293 HD
ENDBRANCH  22  24
BRANCH  23  26
ATOM     26  O   UNL A   1      26.970  31.693  23.190  1.00  0.00    -0.504 OA
ATOM     27  H   UNL A   1      27.297  32.532  23.448  1.00  0.00     0.293 HD
ENDBRANCH  23  26
ENDBRANCH  16  18
BRANCH  17  28
ATOM     28  C   UNL A   1      32.980  28.895  27.028  1.00  0.00    -0.021 A 
ATOM     29  C   UNL A   1      32.527  30.215  27.194  1.00  0.00     0.012 A 
ATOM     30  C   UNL A   1      34.346  28.626  27.200  1.00  0.00     0.058 A 
ATOM     31  C   UNL A   1      33.420  31.254  27.502  1.00  0.00     0.051 A 
ATOM     32  C   UNL A   1      35.229  29.664  27.492  1.00  0.00     0.157 A 
ATOM     33  C   UNL A   1      34.773  30.971  27.643  1.00  0.00     0.157 A 
BRANCH  32  34
ATOM     34  O   UNL A   1      36.562  29.393  27.615  1.00  0.00    -0.504 OA
ATOM     35  H   UNL A   1      36.875  28.906  28.351  1.00  0.00     0.293 HD
ENDBRANCH  32  34
BRANCH  33  36
ATOM     36  O   UNL A   1      35.694  31.941  27.928  1.00  0.00    -0.504 OA
ATOM     37  H   UNL A   1      36.119  31.953  28.763  1.00  0.00     0.293 HD
ENDBRANCH  33  36
ENDBRANCH  17  28
ENDBRANCH   9  11
ENDBRANCH   8   9
ENDBRANCH   7   8
ENDBRANCH   6   7
ENDBRANCH   5   6
ENDBRANCH   4   5
ENDBRANCH   3   4
ENDBRANCH   2   3
ENDBRANCH   1   2
BRANCH   1  38
ATOM     38  C   UNL A   1      38.528  22.523  26.168  1.00  0.00     0.188 C 
BRANCH  38  39
ATOM     39  O   UNL A   1      39.641  21.983  26.864  1.00  0.00    -0.376 OA
BRANCH  39  40
ATOM     40  C   UNL A   1      40.939  22.453  26.552  1.00  0.00     0.202 C 
BRANCH  40  41
ATOM     41  C   UNL A   1      41.583  23.414  27.562  1.00  0.00     0.261 C 
BRANCH  41  42
ATOM     42  O   UNL A   1      40.769  24.527  27.947  1.00  0.00    -0.460 OA
BRANCH  42  43
ATOM     43  C   UNL A   1      40.519  25.449  26.989  1.00  0.00     0.338 C 
ATOM     44  O   UNL A   1      39.814  25.317  26.007  1.00  0.00    -0.246 OA
BRANCH  43  45
ATOM     45  C   UNL A   1      41.077  26.728  27.466  1.00  0.00     0.060 A 
ATOM     46  C   UNL A   1      41.824  26.745  28.653  1.00  0.00     0.016 A 
ATOM     47  C   UNL A   1      40.905  27.890  26.712  1.00  0.00     0.016 A 
ATOM     48  C   UNL A   1      42.395  27.933  29.098  1.00  0.00     0.010 A 
ATOM     49  C   UNL A   1      41.443  29.086  27.179  1.00  0.00     0.010 A 
ATOM     50  C   UNL A   1      42.163  29.115  28.388  1.00  0.00    -0.014 A 
BRANCH  50  51
ATOM     51  C   UNL A   1      42.458  30.417  29.020  1.00  0.00     0.031 A 
ATOM     52  C   UNL A   1      43.766  31.071  28.681  1.00  0.00     0.074 A 
ATOM     53  C   UNL A   1      41.605  30.986  29.888  1.00  0.00     0.049 A 
ATOM     54  N   UNL A   1      44.310  32.144  29.184  1.00  0.00    -0.248 NA
ATOM     55  C   UNL A   1      44.575  30.414  27.638  1.00  0.00     0.031 C 
ATOM     56  C   UNL A   1      40.297  30.453  30.265  1.00  0.00     0.029 A 
ATOM     57  N   UNL A   1      41.737  32.126  30.638  1.00  0.00    -0.354 N 
ATOM     58  C   UNL A   1      45.540  32.272  28.550  1.00  0.00     0.074 A 
ATOM     59  C   UNL A   1      45.664  31.166  27.629  1.00  0.00     0.031 C 
ATOM     60  C   UNL A   1      39.764  31.246  31.211  1.00  0.00     0.029 A 
ATOM     61  C   UNL A   1      40.709  32.315  31.531  1.00  0.00     0.049 A 
ATOM     62  H   UNL A   1      42.494  32.749  30.547  1.00  0.00     0.167 HD
ATOM     63  C   UNL A   1      46.480  33.227  28.721  1.00  0.00     0.034 A 
ATOM     64  C   UNL A   1      40.574  33.222  32.518  1.00  0.00     0.034 A 
ATOM     65  C   UNL A   1      46.343  34.324  29.637  1.00  0.00     0.049 A 
ATOM     66  C   UNL A   1      41.659  34.250  32.724  1.00  0.00     0.074 A 
ATOM     67  C   UNL A   1      47.219  35.371  29.859  1.00  0.00     0.029 A 
ATOM     68  N   UNL A   1      45.272  34.504  30.498  1.00  0.00    -0.354 N 
ATOM     69  N   UNL A   1      42.775  34.417  32.057  1.00  0.00    -0.248 NA
ATOM     70  C   UNL A   1      41.455  35.229  33.803  1.00  0.00     0.031 C 
ATOM     71  C   UNL A   1      46.697  36.160  30.889  1.00  0.00     0.029 A 
ATOM     72  C   UNL A   1      45.472  35.633  31.268  1.00  0.00     0.049 A 
ATOM     73  H   UNL A   1      44.485  33.914  30.553  1.00  0.00     0.167 HD
ATOM     74  C   UNL A   1      43.382  35.543  32.603  1.00  0.00     0.074 A 
ATOM     75  C   UNL A   1      42.506  36.023  33.651  1.00  0.00     0.031 C 
ATOM     76  C   UNL A   1      44.561  36.127  32.270  1.00  0.00     0.034 A 
BRANCH  63  77
ATOM     77  C   UNL A   1      47.740  33.121  27.908  1.00  0.00     0.023 A 
ATOM     78  C   UNL A   1      47.860  33.829  26.695  1.00  0.00     0.012 A 
ATOM     79  C   UNL A   1      48.824  32.351  28.371  1.00  0.00     0.148 A 
ATOM     80  C   UNL A   1      49.029  33.744  25.939  1.00  0.00     0.002 A 
ATOM     81  C   UNL A   1      50.003  32.313  27.638  1.00  0.00     0.091 A 
ATOM     82  F   UNL A   1      48.679  31.664  29.513  1.00  0.00    -0.205 F 
ATOM     83  C   UNL A   1      50.103  32.998  26.416  1.00  0.00     0.022 A 
BRANCH  81  84
ATOM     84  S   UNL A   1      51.468  31.445  28.207  1.00  0.00     0.127 S 
ATOM     85  O   UNL A   1      51.075  30.049  28.016  1.00  0.00    -0.237 OA
ATOM     86  O   UNL A   1      52.488  31.925  27.275  1.00  0.00    -0.237 OA
ATOM     87  O   UNL A   1      51.666  31.851  29.591  1.00  0.00    -0.744 OA
ENDBRANCH  81  84
ENDBRANCH  63  77
BRANCH  64  88
ATOM     88  C   UNL A   1      39.365  33.203  33.390  1.00  0.00     0.023 A 
ATOM     89  C   UNL A   1      38.172  33.802  32.944  1.00  0.00     0.012 A 
ATOM     90  C   UNL A   1      39.393  32.590  34.658  1.00  0.00     0.148 A 
ATOM     91  C   UNL A   1      37.038  33.819  33.757  1.00  0.00     0.002 A 
ATOM     92  C   UNL A   1      38.244  32.559  35.438  1.00  0.00     0.091 A 
ATOM     93  F   UNL A   1      40.543  32.038  35.071  1.00  0.00    -0.205 F 
ATOM     94  C   UNL A   1      37.071  33.190  35.000  1.00  0.00     0.022 A 
BRANCH  92  95
ATOM     95  S   UNL A   1      38.158  31.665  36.994  1.00  0.00     0.127 S 
ATOM     96  O   UNL A   1      39.396  32.081  37.648  1.00  0.00    -0.237 OA
ATOM     97  O   UNL A   1      36.934  32.210  37.583  1.00  0.00    -0.237 OA
ATOM     98  O   UNL A   1      38.077  30.255  36.635  1.00  0.00    -0.744 OA
ENDBRANCH  92  95
ENDBRANCH  64  88
BRANCH  76  99
ATOM     99  C   UNL A   1      44.958  37.387  32.992  1.00  0.00     0.023 A 
ATOM    100  C   UNL A   1      44.503  38.640  32.538  1.00  0.00     0.012 A 
ATOM    101  C   UNL A   1      45.694  37.309  34.192  1.00  0.00     0.148 A 
ATOM    102  C   UNL A   1      44.795  39.800  33.256  1.00  0.00     0.002 A 
ATOM    103  C   UNL A   1      45.934  38.461  34.929  1.00  0.00     0.091 A 
ATOM    104  F   UNL A   1      46.128  36.108  34.596  1.00  0.00    -0.205 F 
ATOM    105  C   UNL A   1      45.497  39.709  34.456  1.00  0.00     0.022 A 
BRANCH 103 106
ATOM    106  S   UNL A   1      46.735  38.428  36.536  1.00  0.00     0.127 S 
ATOM    107  O   UNL A   1      48.102  38.049  36.180  1.00  0.00    -0.237 OA
ATOM    108  O   UNL A   1      46.582  39.813  36.983  1.00  0.00    -0.237 OA
ATOM    109  O   UNL A   1      46.008  37.448  37.332  1.00  0.00    -0.744 OA
ENDBRANCH 103 106
ENDBRANCH  76  99
ENDBRANCH  50  51
ENDBRANCH  43  45
ENDBRANCH  42  43
ENDBRANCH  41  42
ENDBRANCH  40  41
ENDBRANCH  39  40
ENDBRANCH  38  39
ENDBRANCH   1  38
TORSDOF 29
ENDMDL
