MODEL 1
REMARK VINA RESULT:      -8.3      0.000      0.000
REMARK SMILES NC(=O)c1ccc(C(=O)OCCOCCOCCOCCOC(=O)c2ccc(-c3c4nc(c(-c5cccc(S(=O)(=O)[O-])c5F)c5ccc([nH]5)c(-c5cccc(S(=O)(=O)[O-])c5F)c5nc(c(-c6cccc(S(=O)(=O)[O-])c6F)c6ccc3[nH]6)C=C5)C=C4)cc2)c(F)c1
REMARK SMILES IDX 17 1 16 2 15 3 14 4 13 5 12 6 11 7 10 8 8 9 9 10 7 11 4 12
REMARK SMILES IDX 5 13 90 14 6 15 88 16 89 17 2 18 1 19 3 22 18 23 19 24 20 25
REMARK SMILES IDX 21 26 22 27 23 28 24 29 25 30 26 31 87 32 27 33 86 34 28 35
REMARK SMILES IDX 29 36 30 37 80 38 31 39 85 40 79 41 81 42 32 43 84 44 78 45
REMARK SMILES IDX 77 46 33 48 65 49 45 50 64 51 46 52 49 53 63 54 82 55 47 56
REMARK SMILES IDX 48 57 62 59 83 60 50 61 34 62 35 63 43 64 36 65 38 66 44 67
REMARK SMILES IDX 37 68 39 69 40 70 41 71 42 72 66 73 67 74 75 75 68 76 70 77
REMARK SMILES IDX 76 78 69 79 71 80 72 81 73 82 74 83 51 84 52 85 60 86 53 87
REMARK SMILES IDX 55 88 61 89 54 90 56 91 57 92 58 93 59 94
REMARK H PARENT 1 20 1 21 81 47 49 58
REMARK Flexibility Score: inf
ROOT
ATOM      1  C   UNL A   1      35.514  32.927  28.011  1.00  0.00     0.188 C 
ENDROOT
BRANCH   1   2
ATOM      2  O   UNL A   1      34.453  32.063  28.402  1.00  0.00    -0.377 OA
BRANCH   2   3
ATOM      3  C   UNL A   1      34.068  30.977  27.577  1.00  0.00     0.188 C 
BRANCH   3   4
ATOM      4  C   UNL A   1      34.633  29.562  27.829  1.00  0.00     0.188 C 
BRANCH   4   5
ATOM      5  O   UNL A   1      34.726  28.750  26.675  1.00  0.00    -0.376 OA
BRANCH   5   6
ATOM      6  C   UNL A   1      33.551  28.196  26.115  1.00  0.00     0.202 C 
BRANCH   6   7
ATOM      7  C   UNL A   1      33.406  26.671  25.985  1.00  0.00     0.261 C 
BRANCH   7   8
ATOM      8  O   UNL A   1      32.176  26.205  25.423  1.00  0.00    -0.460 OA
BRANCH   8   9
ATOM      9  C   UNL A   1      32.128  26.021  24.088  1.00  0.00     0.341 C 
ATOM     10  O   UNL A   1      32.447  25.014  23.477  1.00  0.00    -0.246 OA
BRANCH   9  11
ATOM     11  C   UNL A   1      31.365  27.135  23.492  1.00  0.00     0.095 A 
ATOM     12  C   UNL A   1      29.860  29.248  22.450  1.00  0.00     0.042 A 
ATOM     13  C   UNL A   1      29.218  28.202  23.127  1.00  0.00     0.015 A 
ATOM     14  C   UNL A   1      31.253  29.244  22.311  1.00  0.00     0.054 A 
ATOM     15  C   UNL A   1      29.970  27.140  23.637  1.00  0.00     0.019 A 
ATOM     16  C   UNL A   1      31.998  28.194  22.844  1.00  0.00     0.138 A 
ATOM     17  F   UNL A   1      33.329  28.215  22.700  1.00  0.00    -0.206 F 
BRANCH  12  18
ATOM     18  C   UNL A   1      29.083  30.326  21.798  1.00  0.00     0.248 C 
ATOM     19  N   UNL A   1      29.519  31.608  21.977  1.00  0.00    -0.366 N 
ATOM     20  H   UNL A   1      29.032  32.356  21.561  1.00  0.00     0.159 HD
ATOM     21  H   UNL A   1      30.320  31.784  22.521  1.00  0.00     0.159 HD
ATOM     22  O   UNL A   1      28.090  30.081  21.126  1.00  0.00    -0.270 OA
ENDBRANCH  12  18
ENDBRANCH   9  11
ENDBRANCH   8   9
ENDBRANCH   7   8
ENDBRANCH   6   7
ENDBRANCH   5   6
ENDBRANCH   4   5
ENDBRANCH   3   4
ENDBRANCH   2   3
ENDBRANCH   1   2
BRANCH   1  23
ATOM     23  C   UNL A   1      35.360  34.463  28.112  1.00  0.00     0.188 C 
BRANCH  23  24
ATOM     24  O   UNL A   1      34.031  34.936  27.960  1.00  0.00    -0.376 OA
BRANCH  24  25
ATOM     25  C   UNL A   1      33.765  36.265  28.373  1.00  0.00     0.202 C 
BRANCH  25  26
ATOM     26  C   UNL A   1      32.841  36.451  29.585  1.00  0.00     0.261 C 
BRANCH  26  27
ATOM     27  O   UNL A   1      32.525  35.267  30.331  1.00  0.00    -0.460 OA
BRANCH  27  28
ATOM     28  C   UNL A   1      32.822  35.271  31.653  1.00  0.00     0.338 C 
ATOM     29  O   UNL A   1      32.114  35.642  32.561  1.00  0.00    -0.246 OA
BRANCH  28  30
ATOM     30  C   UNL A   1      34.110  34.559  31.811  1.00  0.00     0.060 A 
ATOM     31  C   UNL A   1      34.105  33.222  32.228  1.00  0.00     0.016 A 
ATOM     32  C   UNL A   1      35.312  35.212  31.531  1.00  0.00     0.016 A 
ATOM     33  C   UNL A   1      35.313  32.543  32.399  1.00  0.00     0.010 A 
ATOM     34  C   UNL A   1      36.519  34.537  31.723  1.00  0.00     0.010 A 
ATOM     35  C   UNL A   1      36.526  33.211  32.190  1.00  0.00    -0.014 A 
BRANCH  35  36
ATOM     36  C   UNL A   1      37.800  32.598  32.635  1.00  0.00     0.031 A 
ATOM     37  C   UNL A   1      38.484  31.628  31.711  1.00  0.00     0.074 A 
ATOM     38  C   UNL A   1      38.338  32.888  33.833  1.00  0.00     0.049 A 
ATOM     39  N   UNL A   1      39.565  30.923  31.904  1.00  0.00    -0.248 NA
ATOM     40  C   UNL A   1      37.861  31.424  30.390  1.00  0.00     0.031 C 
ATOM     41  C   UNL A   1      37.778  33.824  34.806  1.00  0.00     0.029 A 
ATOM     42  N   UNL A   1      39.467  32.400  34.444  1.00  0.00    -0.354 N 
ATOM     43  C   UNL A   1      39.739  30.173  30.748  1.00  0.00     0.074 A 
ATOM     44  C   UNL A   1      38.647  30.499  29.860  1.00  0.00     0.031 C 
ATOM     45  C   UNL A   1      38.556  33.826  35.904  1.00  0.00     0.029 A 
ATOM     46  C   UNL A   1      39.646  32.867  35.725  1.00  0.00     0.049 A 
ATOM     47  H   UNL A   1      40.089  31.775  34.006  1.00  0.00     0.167 HD
ATOM     48  C   UNL A   1      40.730  29.303  30.447  1.00  0.00     0.034 A 
ATOM     49  C   UNL A   1      40.569  32.540  36.653  1.00  0.00     0.034 A 
ATOM     50  C   UNL A   1      41.824  28.997  31.324  1.00  0.00     0.049 A 
ATOM     51  C   UNL A   1      41.638  31.534  36.307  1.00  0.00     0.074 A 
ATOM     52  C   UNL A   1      42.897  28.154  31.092  1.00  0.00     0.029 A 
ATOM     53  N   UNL A   1      41.985  29.509  32.601  1.00  0.00    -0.354 N 
ATOM     54  N   UNL A   1      41.844  30.902  35.176  1.00  0.00    -0.248 NA
ATOM     55  C   UNL A   1      42.623  31.217  37.353  1.00  0.00     0.031 C 
ATOM     56  C   UNL A   1      43.687  28.128  32.242  1.00  0.00     0.029 A 
ATOM     57  C   UNL A   1      43.133  28.990  33.175  1.00  0.00     0.049 A 
ATOM     58  H   UNL A   1      41.374  30.146  33.036  1.00  0.00     0.167 HD
ATOM     59  C   UNL A   1      42.996  30.146  35.362  1.00  0.00     0.074 A 
ATOM     60  C   UNL A   1      43.455  30.408  36.710  1.00  0.00     0.031 C 
ATOM     61  C   UNL A   1      43.612  29.304  34.496  1.00  0.00     0.034 A 
BRANCH  48  62
ATOM     62  C   UNL A   1      40.701  28.633  29.099  1.00  0.00     0.023 A 
ATOM     63  C   UNL A   1      41.155  29.333  27.963  1.00  0.00     0.012 A 
ATOM     64  C   UNL A   1      40.329  27.280  28.977  1.00  0.00     0.148 A 
ATOM     65  C   UNL A   1      41.226  28.701  26.723  1.00  0.00     0.002 A 
ATOM     66  C   UNL A   1      40.448  26.644  27.748  1.00  0.00     0.091 A 
ATOM     67  F   UNL A   1      39.880  26.642  30.067  1.00  0.00    -0.205 F 
ATOM     68  C   UNL A   1      40.886  27.354  26.619  1.00  0.00     0.022 A 
BRANCH  66  69
ATOM     69  S   UNL A   1      40.123  24.891  27.528  1.00  0.00     0.127 S 
ATOM     70  O   UNL A   1      41.161  24.291  28.366  1.00  0.00    -0.237 OA
ATOM     71  O   UNL A   1      38.765  24.763  28.057  1.00  0.00    -0.237 OA
ATOM     72  O   UNL A   1      40.253  24.630  26.101  1.00  0.00    -0.744 OA
ENDBRANCH  66  69
ENDBRANCH  48  62
BRANCH  49  73
ATOM     73  C   UNL A   1      40.543  33.197  37.992  1.00  0.00     0.023 A 
ATOM     74  C   UNL A   1      39.779  32.629  39.030  1.00  0.00     0.012 A 
ATOM     75  C   UNL A   1      41.292  34.361  38.251  1.00  0.00     0.148 A 
ATOM     76  C   UNL A   1      39.743  33.220  40.294  1.00  0.00     0.002 A 
ATOM     77  C   UNL A   1      41.298  34.912  39.527  1.00  0.00     0.091 A 
ATOM     78  F   UNL A   1      41.998  34.898  37.245  1.00  0.00    -0.205 F 
ATOM     79  C   UNL A   1      40.510  34.354  40.545  1.00  0.00     0.022 A 
BRANCH  77  80
ATOM     80  S   UNL A   1      42.355  36.292  39.981  1.00  0.00     0.127 S 
ATOM     81  O   UNL A   1      42.062  37.255  38.921  1.00  0.00    -0.237 OA
ATOM     82  O   UNL A   1      41.830  36.648  41.299  1.00  0.00    -0.237 OA
ATOM     83  O   UNL A   1      43.712  35.764  39.992  1.00  0.00    -0.744 OA
ENDBRANCH  77  80
ENDBRANCH  49  73
BRANCH  61  84
ATOM     84  C   UNL A   1      44.883  28.622  34.940  1.00  0.00     0.023 A 
ATOM     85  C   UNL A   1      46.121  29.275  34.789  1.00  0.00     0.012 A 
ATOM     86  C   UNL A   1      44.827  27.393  35.630  1.00  0.00     0.148 A 
ATOM     87  C   UNL A   1      47.287  28.706  35.300  1.00  0.00     0.002 A 
ATOM     88  C   UNL A   1      45.985  26.860  36.183  1.00  0.00     0.091 A 
ATOM     89  F   UNL A   1      43.640  26.782  35.752  1.00  0.00    -0.205 F 
ATOM     90  C   UNL A   1      47.218  27.509  36.009  1.00  0.00     0.022 A 
BRANCH  88  91
ATOM     91  S   UNL A   1      45.976  25.382  37.205  1.00  0.00     0.127 S 
ATOM     92  O   UNL A   1      45.932  24.323  36.198  1.00  0.00    -0.237 OA
ATOM     93  O   UNL A   1      47.250  25.494  37.918  1.00  0.00    -0.237 OA
ATOM     94  O   UNL A   1      44.796  25.483  38.053  1.00  0.00    -0.744 OA
ENDBRANCH  88  91
ENDBRANCH  61  84
ENDBRANCH  35  36
ENDBRANCH  28  30
ENDBRANCH  27  28
ENDBRANCH  26  27
ENDBRANCH  25  26
ENDBRANCH  24  25
ENDBRANCH  23  24
ENDBRANCH   1  23
TORSDOF 24
ENDMDL
MODEL 2
REMARK VINA RESULT:      -8.0      6.711     10.616
REMARK SMILES NC(=O)c1ccc(C(=O)OCCOCCOCCOCCOC(=O)c2ccc(-c3c4nc(c(-c5cccc(S(=O)(=O)[O-])c5F)c5ccc([nH]5)c(-c5cccc(S(=O)(=O)[O-])c5F)c5nc(c(-c6cccc(S(=O)(=O)[O-])c6F)c6ccc3[nH]6)C=C5)C=C4)cc2)c(F)c1
REMARK SMILES IDX 17 1 16 2 15 3 14 4 13 5 12 6 11 7 10 8 8 9 9 10 7 11 4 12
REMARK SMILES IDX 5 13 90 14 6 15 88 16 89 17 2 18 1 19 3 22 18 23 19 24 20 25
REMARK SMILES IDX 21 26 22 27 23 28 24 29 25 30 26 31 87 32 27 33 86 34 28 35
REMARK SMILES IDX 29 36 30 37 80 38 31 39 85 40 79 41 81 42 32 43 84 44 78 45
REMARK SMILES IDX 77 46 33 48 65 49 45 50 64 51 46 52 49 53 63 54 82 55 47 56
REMARK SMILES IDX 48 57 62 59 83 60 50 61 34 62 35 63 43 64 36 65 38 66 44 67
REMARK SMILES IDX 37 68 39 69 40 70 41 71 42 72 66 73 67 74 75 75 68 76 70 77
REMARK SMILES IDX 76 78 69 79 71 80 72 81 73 82 74 83 51 84 52 85 60 86 53 87
REMARK SMILES IDX 55 88 61 89 54 90 56 91 57 92 58 93 59 94
REMARK H PARENT 1 20 1 21 81 47 49 58
REMARK Flexibility Score: inf
ROOT
ATOM      1  C   UNL A   1      33.998  36.892  32.927  1.00  0.00     0.188 C 
ENDROOT
BRANCH   1   2
ATOM      2  O   UNL A   1      32.608  36.710  32.680  1.00  0.00    -0.377 OA
BRANCH   2   3
ATOM      3  C   UNL A   1      32.144  36.399  31.377  1.00  0.00     0.188 C 
BRANCH   3   4
ATOM      4  C   UNL A   1      33.129  35.919  30.288  1.00  0.00     0.188 C 
BRANCH   4   5
ATOM      5  O   UNL A   1      32.525  35.586  29.053  1.00  0.00    -0.376 OA
BRANCH   5   6
ATOM      6  C   UNL A   1      33.291  34.942  28.053  1.00  0.00     0.202 C 
BRANCH   6   7
ATOM      7  C   UNL A   1      34.214  33.771  28.425  1.00  0.00     0.261 C 
BRANCH   7   8
ATOM      8  O   UNL A   1      33.723  32.464  28.115  1.00  0.00    -0.460 OA
BRANCH   8   9
ATOM      9  C   UNL A   1      34.612  31.552  27.673  1.00  0.00     0.341 C 
ATOM     10  O   UNL A   1      35.822  31.575  27.825  1.00  0.00    -0.246 OA
BRANCH   9  11
ATOM     11  C   UNL A   1      33.866  30.366  27.208  1.00  0.00     0.095 A 
ATOM     12  C   UNL A   1      32.408  28.179  26.255  1.00  0.00     0.042 A 
ATOM     13  C   UNL A   1      31.781  29.424  26.401  1.00  0.00     0.015 A 
ATOM     14  C   UNL A   1      33.764  28.033  26.568  1.00  0.00     0.054 A 
ATOM     15  C   UNL A   1      32.508  30.514  26.889  1.00  0.00     0.019 A 
ATOM     16  C   UNL A   1      34.488  29.131  27.031  1.00  0.00     0.138 A 
ATOM     17  F   UNL A   1      35.785  28.966  27.321  1.00  0.00    -0.206 F 
BRANCH  12  18
ATOM     18  C   UNL A   1      31.637  26.980  25.852  1.00  0.00     0.248 C 
ATOM     19  N   UNL A   1      31.391  26.042  26.815  1.00  0.00    -0.366 N 
ATOM     20  H   UNL A   1      30.882  25.230  26.591  1.00  0.00     0.159 HD
ATOM     21  H   UNL A   1      31.721  26.180  27.732  1.00  0.00     0.159 HD
ATOM     22  O   UNL A   1      31.239  26.833  24.705  1.00  0.00    -0.270 OA
ENDBRANCH  12  18
ENDBRANCH   9  11
ENDBRANCH   8   9
ENDBRANCH   7   8
ENDBRANCH   6   7
ENDBRANCH   5   6
ENDBRANCH   4   5
ENDBRANCH   3   4
ENDBRANCH   2   3
ENDBRANCH   1   2
BRANCH   1  23
ATOM     23  C   UNL A   1      34.891  35.698  33.337  1.00  0.00     0.188 C 
BRANCH  23  24
ATOM     24  O   UNL A   1      34.257  34.431  33.258  1.00  0.00    -0.376 OA
BRANCH  24  25
ATOM     25  C   UNL A   1      34.830  33.372  34.005  1.00  0.00     0.202 C 
BRANCH  25  26
ATOM     26  C   UNL A   1      36.325  33.096  33.797  1.00  0.00     0.261 C 
BRANCH  26  27
ATOM     27  O   UNL A   1      36.673  31.776  33.357  1.00  0.00    -0.460 OA
BRANCH  27  28
ATOM     28  C   UNL A   1      36.583  31.521  32.030  1.00  0.00     0.338 C 
ATOM     29  O   UNL A   1      35.574  31.416  31.371  1.00  0.00    -0.246 OA
BRANCH  28  30
ATOM     30  C   UNL A   1      37.957  31.579  31.482  1.00  0.00     0.060 A 
ATOM     31  C   UNL A   1      39.040  31.684  32.364  1.00  0.00     0.016 A 
ATOM     32  C   UNL A   1      38.167  31.512  30.104  1.00  0.00     0.016 A 
ATOM     33  C   UNL A   1      40.341  31.758  31.862  1.00  0.00     0.010 A 
ATOM     34  C   UNL A   1      39.467  31.606  29.604  1.00  0.00     0.010 A 
ATOM     35  C   UNL A   1      40.557  31.764  30.479  1.00  0.00    -0.014 A 
BRANCH  35  36
ATOM     36  C   UNL A   1      41.888  32.122  29.935  1.00  0.00     0.031 A 
ATOM     37  C   UNL A   1      42.192  33.576  29.698  1.00  0.00     0.074 A 
ATOM     38  C   UNL A   1      42.807  31.182  29.651  1.00  0.00     0.049 A 
ATOM     39  N   UNL A   1      43.254  34.125  29.175  1.00  0.00    -0.248 NA
ATOM     40  C   UNL A   1      41.154  34.542  30.104  1.00  0.00     0.031 C 
ATOM     41  C   UNL A   1      42.635  29.745  29.854  1.00  0.00     0.029 A 
ATOM     42  N   UNL A   1      44.061  31.300  29.104  1.00  0.00    -0.354 N 
ATOM     43  C   UNL A   1      43.006  35.492  29.162  1.00  0.00     0.074 A 
ATOM     44  C   UNL A   1      41.688  35.692  29.719  1.00  0.00     0.031 C 
ATOM     45  C   UNL A   1      43.737  29.110  29.416  1.00  0.00     0.029 A 
ATOM     46  C   UNL A   1      44.675  30.091  28.871  1.00  0.00     0.049 A 
ATOM     47  H   UNL A   1      44.481  32.166  28.900  1.00  0.00     0.167 HD
ATOM     48  C   UNL A   1      43.812  36.493  28.738  1.00  0.00     0.034 A 
ATOM     49  C   UNL A   1      45.848  29.810  28.265  1.00  0.00     0.034 A 
ATOM     50  C   UNL A   1      45.129  36.292  28.203  1.00  0.00     0.049 A 
ATOM     51  C   UNL A   1      46.708  30.942  27.763  1.00  0.00     0.074 A 
ATOM     52  C   UNL A   1      46.036  37.248  27.781  1.00  0.00     0.029 A 
ATOM     53  N   UNL A   1      45.726  35.057  28.007  1.00  0.00    -0.354 N 
ATOM     54  N   UNL A   1      46.502  32.235  27.841  1.00  0.00    -0.248 NA
ATOM     55  C   UNL A   1      47.979  30.581  27.114  1.00  0.00     0.031 C 
ATOM     56  C   UNL A   1      47.166  36.590  27.295  1.00  0.00     0.029 A 
ATOM     57  C   UNL A   1      46.984  35.226  27.457  1.00  0.00     0.049 A 
ATOM     58  H   UNL A   1      45.316  34.189  28.225  1.00  0.00     0.167 HD
ATOM     59  C   UNL A   1      47.627  32.839  27.290  1.00  0.00     0.074 A 
ATOM     60  C   UNL A   1      48.521  31.772  26.893  1.00  0.00     0.031 C 
ATOM     61  C   UNL A   1      47.891  34.158  27.120  1.00  0.00     0.034 A 
BRANCH  48  62
ATOM     62  C   UNL A   1      43.311  37.907  28.859  1.00  0.00     0.023 A 
ATOM     63  C   UNL A   1      42.383  38.401  27.921  1.00  0.00     0.012 A 
ATOM     64  C   UNL A   1      43.674  38.705  29.962  1.00  0.00     0.148 A 
ATOM     65  C   UNL A   1      41.835  39.674  28.069  1.00  0.00     0.002 A 
ATOM     66  C   UNL A   1      43.088  39.953  30.128  1.00  0.00     0.091 A 
ATOM     67  F   UNL A   1      44.575  38.222  30.829  1.00  0.00    -0.205 F 
ATOM     68  C   UNL A   1      42.177  40.443  29.179  1.00  0.00     0.022 A 
BRANCH  66  69
ATOM     69  S   UNL A   1      43.390  40.983  31.568  1.00  0.00     0.127 S 
ATOM     70  O   UNL A   1      44.847  40.907  31.685  1.00  0.00    -0.237 OA
ATOM     71  O   UNL A   1      42.882  42.282  31.127  1.00  0.00    -0.237 OA
ATOM     72  O   UNL A   1      42.650  40.375  32.665  1.00  0.00    -0.744 OA
ENDBRANCH  66  69
ENDBRANCH  48  62
BRANCH  49  73
ATOM     73  C   UNL A   1      46.294  28.393  28.129  1.00  0.00     0.023 A 
ATOM     74  C   UNL A   1      47.076  27.811  29.145  1.00  0.00     0.012 A 
ATOM     75  C   UNL A   1      45.924  27.613  27.017  1.00  0.00     0.148 A 
ATOM     76  C   UNL A   1      47.502  26.486  29.045  1.00  0.00     0.002 A 
ATOM     77  C   UNL A   1      46.301  26.277  26.952  1.00  0.00     0.091 A 
ATOM     78  F   UNL A   1      45.195  28.190  26.051  1.00  0.00    -0.205 F 
ATOM     79  C   UNL A   1      47.105  25.716  27.956  1.00  0.00     0.022 A 
BRANCH  77  80
ATOM     80  S   UNL A   1      45.730  25.171  25.656  1.00  0.00     0.127 S 
ATOM     81  O   UNL A   1      46.742  25.375  24.621  1.00  0.00    -0.237 OA
ATOM     82  O   UNL A   1      45.787  23.872  26.327  1.00  0.00    -0.237 OA
ATOM     83  O   UNL A   1      44.387  25.619  25.317  1.00  0.00    -0.744 OA
ENDBRANCH  77  80
ENDBRANCH  49  73
BRANCH  61  84
ATOM     84  C   UNL A   1      49.216  34.553  26.519  1.00  0.00     0.023 A 
ATOM     85  C   UNL A   1      49.290  34.930  25.164  1.00  0.00     0.012 A 
ATOM     86  C   UNL A   1      50.359  34.681  27.336  1.00  0.00     0.148 A 
ATOM     87  C   UNL A   1      50.485  35.408  24.627  1.00  0.00     0.002 A 
ATOM     88  C   UNL A   1      51.530  35.209  26.807  1.00  0.00     0.091 A 
ATOM     89  F   UNL A   1      50.271  34.306  28.621  1.00  0.00    -0.205 F 
ATOM     90  C   UNL A   1      51.598  35.562  25.449  1.00  0.00     0.022 A 
BRANCH  88  91
ATOM     91  S   UNL A   1      52.979  35.549  27.813  1.00  0.00     0.127 S 
ATOM     92  O   UNL A   1      53.898  36.118  26.829  1.00  0.00    -0.237 OA
ATOM     93  O   UNL A   1      52.459  36.508  28.789  1.00  0.00    -0.237 OA
ATOM     94  O   UNL A   1      53.389  34.270  28.378  1.00  0.00    -0.744 OA
ENDBRANCH  88  91
ENDBRANCH  61  84
ENDBRANCH  35  36
ENDBRANCH  28  30
ENDBRANCH  27  28
ENDBRANCH  26  27
ENDBRANCH  25  26
ENDBRANCH  24  25
ENDBRANCH  23  24
ENDBRANCH   1  23
TORSDOF 24
ENDMDL
MODEL 3
REMARK VINA RESULT:      -8.0      5.257     11.212
REMARK SMILES NC(=O)c1ccc(C(=O)OCCOCCOCCOCCOC(=O)c2ccc(-c3c4nc(c(-c5cccc(S(=O)(=O)[O-])c5F)c5ccc([nH]5)c(-c5cccc(S(=O)(=O)[O-])c5F)c5nc(c(-c6cccc(S(=O)(=O)[O-])c6F)c6ccc3[nH]6)C=C5)C=C4)cc2)c(F)c1
REMARK SMILES IDX 17 1 16 2 15 3 14 4 13 5 12 6 11 7 10 8 8 9 9 10 7 11 4 12
REMARK SMILES IDX 5 13 90 14 6 15 88 16 89 17 2 18 1 19 3 22 18 23 19 24 20 25
REMARK SMILES IDX 21 26 22 27 23 28 24 29 25 30 26 31 87 32 27 33 86 34 28 35
REMARK SMILES IDX 29 36 30 37 80 38 31 39 85 40 79 41 81 42 32 43 84 44 78 45
REMARK SMILES IDX 77 46 33 48 65 49 45 50 64 51 46 52 49 53 63 54 82 55 47 56
REMARK SMILES IDX 48 57 62 59 83 60 50 61 34 62 35 63 43 64 36 65 38 66 44 67
REMARK SMILES IDX 37 68 39 69 40 70 41 71 42 72 66 73 67 74 75 75 68 76 70 77
REMARK SMILES IDX 76 78 69 79 71 80 72 81 73 82 74 83 51 84 52 85 60 86 53 87
REMARK SMILES IDX 55 88 61 89 54 90 56 91 57 92 58 93 59 94
REMARK H PARENT 1 20 1 21 81 47 49 58
REMARK Flexibility Score: inf
ROOT
ATOM      1  C   UNL A   1      46.179  23.998  38.022  1.00  0.00     0.188 C 
ENDROOT
BRANCH   1   2
ATOM      2  O   UNL A   1      44.792  24.202  37.774  1.00  0.00    -0.377 OA
BRANCH   2   3
ATOM      3  C   UNL A   1      44.148  25.386  38.213  1.00  0.00     0.188 C 
BRANCH   3   4
ATOM      4  C   UNL A   1      42.804  25.825  37.592  1.00  0.00     0.188 C 
BRANCH   4   5
ATOM      5  O   UNL A   1      42.675  27.218  37.388  1.00  0.00    -0.376 OA
BRANCH   5   6
ATOM      6  C   UNL A   1      41.886  27.697  36.316  1.00  0.00     0.202 C 
BRANCH   6   7
ATOM      7  C   UNL A   1      41.474  26.747  35.180  1.00  0.00     0.261 C 
BRANCH   7   8
ATOM      8  O   UNL A   1      40.569  27.285  34.212  1.00  0.00    -0.460 OA
BRANCH   8   9
ATOM      9  C   UNL A   1      41.090  28.033  33.218  1.00  0.00     0.341 C 
ATOM     10  O   UNL A   1      42.192  27.912  32.711  1.00  0.00    -0.246 OA
BRANCH   9  11
ATOM     11  C   UNL A   1      40.008  28.856  32.642  1.00  0.00     0.095 A 
ATOM     12  C   UNL A   1      38.008  30.501  31.586  1.00  0.00     0.042 A 
ATOM     13  C   UNL A   1      38.521  30.759  32.865  1.00  0.00     0.015 A 
ATOM     14  C   UNL A   1      38.508  29.433  30.832  1.00  0.00     0.054 A 
ATOM     15  C   UNL A   1      39.512  29.929  33.397  1.00  0.00     0.019 A 
ATOM     16  C   UNL A   1      39.514  28.625  31.359  1.00  0.00     0.138 A 
ATOM     17  F   UNL A   1      39.977  27.612  30.616  1.00  0.00    -0.206 F 
BRANCH  12  18
ATOM     18  C   UNL A   1      36.878  31.289  31.043  1.00  0.00     0.248 C 
ATOM     19  N   UNL A   1      35.758  30.602  30.673  1.00  0.00    -0.366 N 
ATOM     20  H   UNL A   1      34.982  31.087  30.307  1.00  0.00     0.159 HD
ATOM     21  H   UNL A   1      35.725  29.623  30.773  1.00  0.00     0.159 HD
ATOM     22  O   UNL A   1      36.945  32.505  30.929  1.00  0.00    -0.270 OA
ENDBRANCH  12  18
ENDBRANCH   9  11
ENDBRANCH   8   9
ENDBRANCH   7   8
ENDBRANCH   6   7
ENDBRANCH   5   6
ENDBRANCH   4   5
ENDBRANCH   3   4
ENDBRANCH   2   3
ENDBRANCH   1   2
BRANCH   1  23
ATOM     23  C   UNL A   1      46.658  22.823  38.906  1.00  0.00     0.188 C 
BRANCH  23  24
ATOM     24  O   UNL A   1      46.514  21.541  38.314  1.00  0.00    -0.376 OA
BRANCH  24  25
ATOM     25  C   UNL A   1      47.589  20.631  38.470  1.00  0.00     0.202 C 
BRANCH  25  26
ATOM     26  C   UNL A   1      48.312  20.175  37.195  1.00  0.00     0.261 C 
BRANCH  26  27
ATOM     27  O   UNL A   1      47.559  20.249  35.977  1.00  0.00    -0.460 OA
BRANCH  27  28
ATOM     28  C   UNL A   1      48.164  20.819  34.908  1.00  0.00     0.338 C 
ATOM     29  O   UNL A   1      48.986  20.316  34.176  1.00  0.00    -0.246 OA
BRANCH  28  30
ATOM     30  C   UNL A   1      47.499  22.121  34.675  1.00  0.00     0.060 A 
ATOM     31  C   UNL A   1      46.102  22.195  34.737  1.00  0.00     0.016 A 
ATOM     32  C   UNL A   1      48.260  23.261  34.413  1.00  0.00     0.016 A 
ATOM     33  C   UNL A   1      45.458  23.412  34.502  1.00  0.00     0.010 A 
ATOM     34  C   UNL A   1      47.614  24.472  34.158  1.00  0.00     0.010 A 
ATOM     35  C   UNL A   1      46.210  24.546  34.167  1.00  0.00    -0.014 A 
BRANCH  35  36
ATOM     36  C   UNL A   1      45.535  25.757  33.645  1.00  0.00     0.031 A 
ATOM     37  C   UNL A   1      44.964  25.709  32.254  1.00  0.00     0.074 A 
ATOM     38  C   UNL A   1      45.435  26.878  34.381  1.00  0.00     0.049 A 
ATOM     39  N   UNL A   1      44.389  26.656  31.562  1.00  0.00    -0.248 NA
ATOM     40  C   UNL A   1      45.056  24.419  31.547  1.00  0.00     0.031 C 
ATOM     41  C   UNL A   1      45.933  27.040  35.746  1.00  0.00     0.029 A 
ATOM     42  N   UNL A   1      44.900  28.104  34.069  1.00  0.00    -0.354 N 
ATOM     43  C   UNL A   1      44.076  26.089  30.334  1.00  0.00     0.074 A 
ATOM     44  C   UNL A   1      44.534  24.718  30.366  1.00  0.00     0.031 C 
ATOM     45  C   UNL A   1      45.699  28.302  36.147  1.00  0.00     0.029 A 
ATOM     46  C   UNL A   1      45.068  29.046  35.057  1.00  0.00     0.049 A 
ATOM     47  H   UNL A   1      44.439  28.290  33.219  1.00  0.00     0.167 HD
ATOM     48  C   UNL A   1      43.449  26.655  29.277  1.00  0.00     0.034 A 
ATOM     49  C   UNL A   1      44.769  30.362  35.068  1.00  0.00     0.034 A 
ATOM     50  C   UNL A   1      42.978  28.011  29.255  1.00  0.00     0.049 A 
ATOM     51  C   UNL A   1      44.109  30.979  33.861  1.00  0.00     0.074 A 
ATOM     52  C   UNL A   1      42.298  28.664  28.242  1.00  0.00     0.029 A 
ATOM     53  N   UNL A   1      43.143  28.926  30.283  1.00  0.00    -0.354 N 
ATOM     54  N   UNL A   1      43.735  30.408  32.741  1.00  0.00    -0.248 NA
ATOM     55  C   UNL A   1      43.799  32.416  33.928  1.00  0.00     0.031 C 
ATOM     56  C   UNL A   1      42.084  29.984  28.643  1.00  0.00     0.029 A 
ATOM     57  C   UNL A   1      42.590  30.141  29.924  1.00  0.00     0.049 A 
ATOM     58  H   UNL A   1      43.589  28.738  31.140  1.00  0.00     0.167 HD
ATOM     59  C   UNL A   1      43.116  31.402  31.990  1.00  0.00     0.074 A 
ATOM     60  C   UNL A   1      43.151  32.610  32.787  1.00  0.00     0.031 C 
ATOM     61  C   UNL A   1      42.577  31.322  30.749  1.00  0.00     0.034 A 
BRANCH  48  62
ATOM     62  C   UNL A   1      43.203  25.806  28.059  1.00  0.00     0.023 A 
ATOM     63  C   UNL A   1      44.114  25.848  26.984  1.00  0.00     0.012 A 
ATOM     64  C   UNL A   1      42.134  24.889  28.026  1.00  0.00     0.148 A 
ATOM     65  C   UNL A   1      43.957  25.000  25.889  1.00  0.00     0.002 A 
ATOM     66  C   UNL A   1      42.011  24.016  26.954  1.00  0.00     0.091 A 
ATOM     67  F   UNL A   1      41.268  24.883  29.050  1.00  0.00    -0.205 F 
ATOM     68  C   UNL A   1      42.915  24.076  25.880  1.00  0.00     0.022 A 
BRANCH  66  69
ATOM     69  S   UNL A   1      40.761  22.728  26.889  1.00  0.00     0.127 S 
ATOM     70  O   UNL A   1      40.933  22.083  28.191  1.00  0.00    -0.237 OA
ATOM     71  O   UNL A   1      39.529  23.506  26.755  1.00  0.00    -0.237 OA
ATOM     72  O   UNL A   1      41.091  21.899  25.739  1.00  0.00    -0.744 OA
ENDBRANCH  66  69
ENDBRANCH  48  62
BRANCH  49  73
ATOM     73  C   UNL A   1      45.062  31.180  36.281  1.00  0.00     0.023 A 
ATOM     74  C   UNL A   1      46.279  31.884  36.367  1.00  0.00     0.012 A 
ATOM     75  C   UNL A   1      44.132  31.288  37.333  1.00  0.00     0.148 A 
ATOM     76  C   UNL A   1      46.575  32.662  37.487  1.00  0.00     0.002 A 
ATOM     77  C   UNL A   1      44.408  32.111  38.419  1.00  0.00     0.091 A 
ATOM     78  F   UNL A   1      42.988  30.596  37.241  1.00  0.00    -0.205 F 
ATOM     79  C   UNL A   1      45.635  32.784  38.506  1.00  0.00     0.022 A 
BRANCH  77  80
ATOM     80  S   UNL A   1      43.208  32.435  39.716  1.00  0.00     0.127 S 
ATOM     81  O   UNL A   1      43.768  33.627  40.350  1.00  0.00    -0.237 OA
ATOM     82  O   UNL A   1      41.988  32.664  38.942  1.00  0.00    -0.237 OA
ATOM     83  O   UNL A   1      43.185  31.237  40.543  1.00  0.00    -0.744 OA
ENDBRANCH  77  80
ENDBRANCH  49  73
BRANCH  61  84
ATOM     84  C   UNL A   1      41.931  32.554  30.166  1.00  0.00     0.023 A 
ATOM     85  C   UNL A   1      40.569  32.816  30.410  1.00  0.00     0.012 A 
ATOM     86  C   UNL A   1      42.712  33.518  29.494  1.00  0.00     0.148 A 
ATOM     87  C   UNL A   1      39.989  34.007  29.976  1.00  0.00     0.002 A 
ATOM     88  C   UNL A   1      42.140  34.725  29.114  1.00  0.00     0.091 A 
ATOM     89  F   UNL A   1      44.004  33.244  29.262  1.00  0.00    -0.205 F 
ATOM     90  C   UNL A   1      40.776  34.967  29.343  1.00  0.00     0.022 A 
BRANCH  88  91
ATOM     91  S   UNL A   1      43.097  36.064  28.394  1.00  0.00     0.127 S 
ATOM     92  O   UNL A   1      44.117  36.285  29.418  1.00  0.00    -0.237 OA
ATOM     93  O   UNL A   1      43.595  35.458  27.158  1.00  0.00    -0.237 OA
ATOM     94  O   UNL A   1      42.167  37.167  28.197  1.00  0.00    -0.744 OA
ENDBRANCH  88  91
ENDBRANCH  61  84
ENDBRANCH  35  36
ENDBRANCH  28  30
ENDBRANCH  27  28
ENDBRANCH  26  27
ENDBRANCH  25  26
ENDBRANCH  24  25
ENDBRANCH  23  24
ENDBRANCH   1  23
TORSDOF 24
ENDMDL
