MODEL 1
REMARK VINA RESULT:      -7.5      0.000      0.000
REMARK SMILES COc1cccc(-c2c(C(=O)OCCOCCOCCOCCOC(=O)c3ccc(-c4c5nc(c(-c6cccc(S(=O)(=O)[O-])c6F)c6ccc([nH]6)c(-c6cccc(S(=O)(=O)[O-])c6F)c6nc(c(-c7cccc(S(=O)(=O)[O-])c7F)c7ccc4[nH]7)C=C6)C=C5)cc3)nnn2-c2ccc(OC(F)(F)F)cc2)c1
REMARK SMILES IDX 18 1 17 2 16 3 15 4 14 5 13 6 12 7 10 8 11 9 9 10 8 11 92 12
REMARK SMILES IDX 90 13 91 14 7 15 3 16 4 17 104 18 5 19 6 20 2 21 1 22 93 23
REMARK SMILES IDX 94 24 103 25 95 26 102 27 96 28 97 29 98 30 99 31 100 32
REMARK SMILES IDX 101 33 19 34 20 35 21 36 22 37 23 38 24 39 25 40 26 41 27 42
REMARK SMILES IDX 28 43 89 44 29 45 88 46 30 47 31 48 32 49 82 50 33 51 87 52
REMARK SMILES IDX 81 53 83 54 34 55 86 56 80 57 79 58 35 60 67 61 47 62 66 63
REMARK SMILES IDX 48 64 51 65 65 66 84 67 49 68 50 69 64 71 85 72 52 73 36 74
REMARK SMILES IDX 37 75 45 76 38 77 40 78 46 79 39 80 41 81 42 82 43 83 44 84
REMARK SMILES IDX 68 85 69 86 77 87 70 88 72 89 78 90 71 91 73 92 74 93 75 94
REMARK SMILES IDX 76 95 53 96 54 97 62 98 55 99 57 100 63 101 56 102 58 103
REMARK SMILES IDX 59 104 60 105 61 106
REMARK H PARENT 83 59 51 70
REMARK Flexibility Score: inf
ROOT
ATOM      1  O   UNL A   1      54.368  24.995  33.100  1.00  0.00    -0.377 OA
ENDROOT
BRANCH   1   2
ATOM      2  C   UNL A   1      54.773  26.150  32.387  1.00  0.00     0.188 C 
BRANCH   2   3
ATOM      3  C   UNL A   1      53.881  26.481  31.167  1.00  0.00     0.188 C 
BRANCH   3   4
ATOM      4  O   UNL A   1      53.978  27.716  30.457  1.00  0.00    -0.376 OA
BRANCH   4   5
ATOM      5  C   UNL A   1      52.874  28.596  30.319  1.00  0.00     0.202 C 
BRANCH   5   6
ATOM      6  C   UNL A   1      51.535  28.263  30.988  1.00  0.00     0.261 C 
BRANCH   6   7
ATOM      7  O   UNL A   1      50.435  28.083  30.094  1.00  0.00    -0.458 OA
BRANCH   7   8
ATOM      8  C   UNL A   1      50.594  27.115  29.152  1.00  0.00     0.361 C 
ATOM      9  O   UNL A   1      50.728  25.921  29.400  1.00  0.00    -0.244 OA
BRANCH   8  10
ATOM     10  C   UNL A   1      50.478  27.629  27.797  1.00  0.00     0.198 A 
ATOM     11  C   UNL A   1      51.201  27.321  26.648  1.00  0.00     0.109 A 
ATOM     12  N   UNL A   1      50.537  28.072  25.679  1.00  0.00    -0.212 N 
ATOM     13  N   UNL A   1      49.624  28.677  27.526  1.00  0.00    -0.122 NA
ATOM     14  N   UNL A   1      49.784  29.028  26.261  1.00  0.00    -0.061 NA
BRANCH  11  15
ATOM     15  C   UNL A   1      52.328  26.421  26.365  1.00  0.00     0.007 A 
ATOM     16  C   UNL A   1      54.732  26.029  26.223  1.00  0.00     0.119 A 
ATOM     17  C   UNL A   1      54.492  24.811  25.593  1.00  0.00     0.046 A 
ATOM     18  C   UNL A   1      53.656  26.828  26.618  1.00  0.00     0.056 A 
ATOM     19  C   UNL A   1      53.187  24.371  25.388  1.00  0.00     0.005 A 
ATOM     20  C   UNL A   1      52.109  25.174  25.769  1.00  0.00     0.011 A 
BRANCH  16  21
ATOM     21  O   UNL A   1      56.045  26.400  26.304  1.00  0.00    -0.497 OA
ATOM     22  C   UNL A   1      56.899  25.846  25.305  1.00  0.00     0.278 C 
ENDBRANCH  16  21
ENDBRANCH  11  15
BRANCH  12  23
ATOM     23  C   UNL A   1      50.388  27.797  24.302  1.00  0.00     0.067 A 
ATOM     24  C   UNL A   1      51.206  28.423  23.361  1.00  0.00     0.032 A 
ATOM     25  C   UNL A   1      49.359  26.944  23.890  1.00  0.00     0.032 A 
ATOM     26  C   UNL A   1      51.020  28.139  22.006  1.00  0.00     0.049 A 
ATOM     27  C   UNL A   1      49.154  26.702  22.534  1.00  0.00     0.049 A 
ATOM     28  C   UNL A   1      49.992  27.284  21.583  1.00  0.00     0.129 A 
BRANCH  28  29
ATOM     29  O   UNL A   1      49.912  27.102  20.232  1.00  0.00    -0.406 OA
BRANCH  29  30
ATOM     30  C   UNL A   1      50.536  25.947  19.696  1.00  0.00     0.573 C 
ATOM     31  F   UNL A   1      50.905  26.129  18.410  1.00  0.00    -0.132 F 
ATOM     32  F   UNL A   1      51.619  25.599  20.427  1.00  0.00    -0.132 F 
ATOM     33  F   UNL A   1      49.661  24.917  19.739  1.00  0.00    -0.132 F 
ENDBRANCH  29  30
ENDBRANCH  28  29
ENDBRANCH  12  23
ENDBRANCH   8  10
ENDBRANCH   7   8
ENDBRANCH   6   7
ENDBRANCH   5   6
ENDBRANCH   4   5
ENDBRANCH   3   4
ENDBRANCH   2   3
ENDBRANCH   1   2
BRANCH   1  34
ATOM     34  C   UNL A   1      53.227  24.336  32.561  1.00  0.00     0.188 C 
BRANCH  34  35
ATOM     35  C   UNL A   1      52.819  22.980  33.194  1.00  0.00     0.188 C 
BRANCH  35  36
ATOM     36  O   UNL A   1      51.726  23.060  34.110  1.00  0.00    -0.376 OA
BRANCH  36  37
ATOM     37  C   UNL A   1      50.384  23.010  33.639  1.00  0.00     0.202 C 
BRANCH  37  38
ATOM     38  C   UNL A   1      49.554  24.261  33.915  1.00  0.00     0.261 C 
BRANCH  38  39
ATOM     39  O   UNL A   1      48.195  24.076  33.572  1.00  0.00    -0.460 OA
BRANCH  39  40
ATOM     40  C   UNL A   1      47.380  23.727  34.584  1.00  0.00     0.338 C 
ATOM     41  O   UNL A   1      47.534  22.815  35.385  1.00  0.00    -0.246 OA
BRANCH  40  42
ATOM     42  C   UNL A   1      46.226  24.629  34.569  1.00  0.00     0.060 A 
ATOM     43  C   UNL A   1      45.010  24.022  34.247  1.00  0.00     0.016 A 
ATOM     44  C   UNL A   1      46.503  25.977  34.318  1.00  0.00     0.016 A 
ATOM     45  C   UNL A   1      44.255  24.634  33.286  1.00  0.00     0.010 A 
ATOM     46  C   UNL A   1      45.805  26.547  33.303  1.00  0.00     0.010 A 
ATOM     47  C   UNL A   1      44.767  25.808  32.736  1.00  0.00    -0.014 A 
BRANCH  47  48
ATOM     48  C   UNL A   1      44.294  26.221  31.442  1.00  0.00     0.031 A 
ATOM     49  C   UNL A   1      44.503  25.190  30.413  1.00  0.00     0.074 A 
ATOM     50  C   UNL A   1      43.575  27.355  31.339  1.00  0.00     0.049 A 
ATOM     51  N   UNL A   1      45.327  25.212  29.419  1.00  0.00    -0.248 NA
ATOM     52  C   UNL A   1      43.896  23.871  30.664  1.00  0.00     0.031 C 
ATOM     53  C   UNL A   1      43.049  28.190  32.430  1.00  0.00     0.029 A 
ATOM     54  N   UNL A   1      43.001  27.893  30.237  1.00  0.00    -0.354 N 
ATOM     55  C   UNL A   1      45.143  23.977  28.805  1.00  0.00     0.074 A 
ATOM     56  C   UNL A   1      44.546  23.117  29.783  1.00  0.00     0.031 C 
ATOM     57  C   UNL A   1      42.032  28.942  31.952  1.00  0.00     0.029 A 
ATOM     58  C   UNL A   1      41.914  28.708  30.524  1.00  0.00     0.049 A 
ATOM     59  H   UNL A   1      43.323  27.723  29.323  1.00  0.00     0.167 HD
ATOM     60  C   UNL A   1      45.139  23.848  27.452  1.00  0.00     0.034 A 
ATOM     61  C   UNL A   1      40.921  29.032  29.659  1.00  0.00     0.034 A 
ATOM     62  C   UNL A   1      45.713  25.004  26.817  1.00  0.00     0.049 A 
ATOM     63  C   UNL A   1      41.389  28.675  28.294  1.00  0.00     0.074 A 
ATOM     64  C   UNL A   1      46.941  25.631  26.870  1.00  0.00     0.029 A 
ATOM     65  N   UNL A   1      44.833  25.912  26.278  1.00  0.00    -0.354 N 
ATOM     66  N   UNL A   1      42.380  29.268  27.686  1.00  0.00    -0.248 NA
ATOM     67  C   UNL A   1      41.051  27.353  27.787  1.00  0.00     0.031 C 
ATOM     68  C   UNL A   1      46.652  27.020  26.756  1.00  0.00     0.029 A 
ATOM     69  C   UNL A   1      45.271  27.169  26.598  1.00  0.00     0.049 A 
ATOM     70  H   UNL A   1      44.030  25.696  25.753  1.00  0.00     0.167 HD
ATOM     71  C   UNL A   1      43.053  28.244  27.024  1.00  0.00     0.074 A 
ATOM     72  C   UNL A   1      42.127  27.115  27.032  1.00  0.00     0.031 C 
ATOM     73  C   UNL A   1      44.400  28.309  26.807  1.00  0.00     0.034 A 
BRANCH  60  74
ATOM     74  C   UNL A   1      44.280  22.861  26.695  1.00  0.00     0.023 A 
ATOM     75  C   UNL A   1      42.884  23.009  26.824  1.00  0.00     0.012 A 
ATOM     76  C   UNL A   1      44.738  21.673  26.071  1.00  0.00     0.148 A 
ATOM     77  C   UNL A   1      41.999  22.015  26.396  1.00  0.00     0.002 A 
ATOM     78  C   UNL A   1      43.852  20.734  25.561  1.00  0.00     0.091 A 
ATOM     79  F   UNL A   1      46.033  21.348  26.085  1.00  0.00    -0.205 F 
ATOM     80  C   UNL A   1      42.481  20.883  25.751  1.00  0.00     0.022 A 
BRANCH  78  81
ATOM     81  S   UNL A   1      44.446  19.290  24.669  1.00  0.00     0.127 S 
ATOM     82  O   UNL A   1      45.722  19.039  25.332  1.00  0.00    -0.237 OA
ATOM     83  O   UNL A   1      43.397  18.309  24.948  1.00  0.00    -0.237 OA
ATOM     84  O   UNL A   1      44.515  19.701  23.271  1.00  0.00    -0.744 OA
ENDBRANCH  78  81
ENDBRANCH  60  74
BRANCH  61  85
ATOM     85  C   UNL A   1      39.498  29.312  29.964  1.00  0.00     0.023 A 
ATOM     86  C   UNL A   1      38.680  28.292  30.484  1.00  0.00     0.012 A 
ATOM     87  C   UNL A   1      38.991  30.633  29.958  1.00  0.00     0.148 A 
ATOM     88  C   UNL A   1      37.404  28.578  30.986  1.00  0.00     0.002 A 
ATOM     89  C   UNL A   1      37.715  30.909  30.436  1.00  0.00     0.091 A 
ATOM     90  F   UNL A   1      39.794  31.632  29.567  1.00  0.00    -0.205 F 
ATOM     91  C   UNL A   1      36.920  29.883  30.961  1.00  0.00     0.022 A 
BRANCH  89  92
ATOM     92  S   UNL A   1      37.031  32.573  30.432  1.00  0.00     0.127 S 
ATOM     93  O   UNL A   1      37.835  33.234  31.460  1.00  0.00    -0.237 OA
ATOM     94  O   UNL A   1      37.302  33.008  29.066  1.00  0.00    -0.237 OA
ATOM     95  O   UNL A   1      35.622  32.425  30.781  1.00  0.00    -0.744 OA
ENDBRANCH  89  92
ENDBRANCH  61  85
BRANCH  73  96
ATOM     96  C   UNL A   1      45.104  29.616  27.078  1.00  0.00     0.023 A 
ATOM     97  C   UNL A   1      45.100  30.674  26.144  1.00  0.00     0.012 A 
ATOM     98  C   UNL A   1      45.562  29.865  28.384  1.00  0.00     0.148 A 
ATOM     99  C   UNL A   1      45.546  31.948  26.503  1.00  0.00     0.002 A 
ATOM    100  C   UNL A   1      45.952  31.147  28.752  1.00  0.00     0.091 A 
ATOM    101  F   UNL A   1      45.555  28.849  29.260  1.00  0.00    -0.205 F 
ATOM    102  C   UNL A   1      45.953  32.190  27.812  1.00  0.00     0.022 A 
BRANCH 100 103
ATOM    103  S   UNL A   1      46.328  31.557  30.459  1.00  0.00     0.127 S 
ATOM    104  O   UNL A   1      45.024  31.977  30.966  1.00  0.00    -0.237 OA
ATOM    105  O   UNL A   1      46.809  30.279  30.989  1.00  0.00    -0.237 OA
ATOM    106  O   UNL A   1      47.347  32.597  30.403  1.00  0.00    -0.744 OA
ENDBRANCH 100 103
ENDBRANCH  73  96
ENDBRANCH  47  48
ENDBRANCH  40  42
ENDBRANCH  39  40
ENDBRANCH  38  39
ENDBRANCH  37  38
ENDBRANCH  36  37
ENDBRANCH  35  36
ENDBRANCH  34  35
ENDBRANCH   1  34
TORSDOF 28
ENDMDL
MODEL 2
REMARK VINA RESULT:      -7.4      4.064      9.625
REMARK SMILES COc1cccc(-c2c(C(=O)OCCOCCOCCOCCOC(=O)c3ccc(-c4c5nc(c(-c6cccc(S(=O)(=O)[O-])c6F)c6ccc([nH]6)c(-c6cccc(S(=O)(=O)[O-])c6F)c6nc(c(-c7cccc(S(=O)(=O)[O-])c7F)c7ccc4[nH]7)C=C6)C=C5)cc3)nnn2-c2ccc(OC(F)(F)F)cc2)c1
REMARK SMILES IDX 18 1 17 2 16 3 15 4 14 5 13 6 12 7 10 8 11 9 9 10 8 11 92 12
REMARK SMILES IDX 90 13 91 14 7 15 3 16 4 17 104 18 5 19 6 20 2 21 1 22 93 23
REMARK SMILES IDX 94 24 103 25 95 26 102 27 96 28 97 29 98 30 99 31 100 32
REMARK SMILES IDX 101 33 19 34 20 35 21 36 22 37 23 38 24 39 25 40 26 41 27 42
REMARK SMILES IDX 28 43 89 44 29 45 88 46 30 47 31 48 32 49 82 50 33 51 87 52
REMARK SMILES IDX 81 53 83 54 34 55 86 56 80 57 79 58 35 60 67 61 47 62 66 63
REMARK SMILES IDX 48 64 51 65 65 66 84 67 49 68 50 69 64 71 85 72 52 73 36 74
REMARK SMILES IDX 37 75 45 76 38 77 40 78 46 79 39 80 41 81 42 82 43 83 44 84
REMARK SMILES IDX 68 85 69 86 77 87 70 88 72 89 78 90 71 91 73 92 74 93 75 94
REMARK SMILES IDX 76 95 53 96 54 97 62 98 55 99 57 100 63 101 56 102 58 103
REMARK SMILES IDX 59 104 60 105 61 106
REMARK H PARENT 83 59 51 70
REMARK Flexibility Score: inf
ROOT
ATOM      1  O   UNL A   1      50.631  27.138  34.919  1.00  0.00    -0.377 OA
ENDROOT
BRANCH   1   2
ATOM      2  C   UNL A   1      49.788  27.206  33.783  1.00  0.00     0.188 C 
BRANCH   2   3
ATOM      3  C   UNL A   1      49.543  28.643  33.266  1.00  0.00     0.188 C 
BRANCH   3   4
ATOM      4  O   UNL A   1      49.139  28.918  31.924  1.00  0.00    -0.376 OA
BRANCH   4   5
ATOM      5  C   UNL A   1      49.944  28.575  30.808  1.00  0.00     0.202 C 
BRANCH   5   6
ATOM      6  C   UNL A   1      49.381  27.677  29.699  1.00  0.00     0.261 C 
BRANCH   6   7
ATOM      7  O   UNL A   1      48.027  27.258  29.884  1.00  0.00    -0.458 OA
BRANCH   7   8
ATOM      8  C   UNL A   1      47.102  27.900  29.121  1.00  0.00     0.361 C 
ATOM      9  O   UNL A   1      47.083  29.111  28.928  1.00  0.00    -0.244 OA
BRANCH   8  10
ATOM     10  C   UNL A   1      46.191  26.982  28.457  1.00  0.00     0.198 A 
ATOM     11  C   UNL A   1      46.210  26.468  27.163  1.00  0.00     0.109 A 
ATOM     12  N   UNL A   1      45.136  25.581  27.189  1.00  0.00    -0.212 N 
ATOM     13  N   UNL A   1      45.027  26.590  29.081  1.00  0.00    -0.122 NA
ATOM     14  N   UNL A   1      44.327  25.854  28.234  1.00  0.00    -0.061 NA
BRANCH  11  15
ATOM     15  C   UNL A   1      47.096  26.658  26.005  1.00  0.00     0.007 A 
ATOM     16  C   UNL A   1      47.481  27.550  23.767  1.00  0.00     0.119 A 
ATOM     17  C   UNL A   1      48.665  26.822  23.685  1.00  0.00     0.046 A 
ATOM     18  C   UNL A   1      46.703  27.480  24.925  1.00  0.00     0.056 A 
ATOM     19  C   UNL A   1      49.092  26.052  24.764  1.00  0.00     0.005 A 
ATOM     20  C   UNL A   1      48.310  25.967  25.918  1.00  0.00     0.011 A 
BRANCH  16  21
ATOM     21  O   UNL A   1      47.116  28.209  22.627  1.00  0.00    -0.497 OA
ATOM     22  C   UNL A   1      48.100  28.231  21.593  1.00  0.00     0.278 C 
ENDBRANCH  16  21
ENDBRANCH  11  15
BRANCH  12  23
ATOM     23  C   UNL A   1      44.962  24.387  26.455  1.00  0.00     0.067 A 
ATOM     24  C   UNL A   1      45.874  23.339  26.579  1.00  0.00     0.032 A 
ATOM     25  C   UNL A   1      43.901  24.299  25.548  1.00  0.00     0.032 A 
ATOM     26  C   UNL A   1      45.679  22.178  25.826  1.00  0.00     0.049 A 
ATOM     27  C   UNL A   1      43.740  23.156  24.770  1.00  0.00     0.049 A 
ATOM     28  C   UNL A   1      44.617  22.081  24.915  1.00  0.00     0.129 A 
BRANCH  28  29
ATOM     29  O   UNL A   1      44.549  20.899  24.234  1.00  0.00    -0.406 OA
BRANCH  29  30
ATOM     30  C   UNL A   1      44.242  19.736  24.985  1.00  0.00     0.573 C 
ATOM     31  F   UNL A   1      43.570  18.827  24.247  1.00  0.00    -0.132 F 
ATOM     32  F   UNL A   1      45.367  19.168  25.478  1.00  0.00    -0.132 F 
ATOM     33  F   UNL A   1      43.463  20.084  26.033  1.00  0.00    -0.132 F 
ENDBRANCH  29  30
ENDBRANCH  28  29
ENDBRANCH  12  23
ENDBRANCH   8  10
ENDBRANCH   7   8
ENDBRANCH   6   7
ENDBRANCH   5   6
ENDBRANCH   4   5
ENDBRANCH   3   4
ENDBRANCH   2   3
ENDBRANCH   1   2
BRANCH   1  34
ATOM     34  C   UNL A   1      50.316  28.073  35.946  1.00  0.00     0.188 C 
BRANCH  34  35
ATOM     35  C   UNL A   1      49.648  27.523  37.234  1.00  0.00     0.188 C 
BRANCH  35  36
ATOM     36  O   UNL A   1      48.358  26.944  37.031  1.00  0.00    -0.376 OA
BRANCH  36  37
ATOM     37  C   UNL A   1      47.341  27.669  36.350  1.00  0.00     0.202 C 
BRANCH  37  38
ATOM     38  C   UNL A   1      45.915  27.195  36.621  1.00  0.00     0.261 C 
BRANCH  38  39
ATOM     39  O   UNL A   1      45.119  27.227  35.453  1.00  0.00    -0.460 OA
BRANCH  39  40
ATOM     40  C   UNL A   1      45.263  26.181  34.619  1.00  0.00     0.338 C 
ATOM     41  O   UNL A   1      45.558  25.030  34.911  1.00  0.00    -0.246 OA
BRANCH  40  42
ATOM     42  C   UNL A   1      45.022  26.653  33.253  1.00  0.00     0.060 A 
ATOM     43  C   UNL A   1      45.832  27.716  32.848  1.00  0.00     0.016 A 
ATOM     44  C   UNL A   1      43.742  26.422  32.741  1.00  0.00     0.016 A 
ATOM     45  C   UNL A   1      45.200  28.784  32.275  1.00  0.00     0.010 A 
ATOM     46  C   UNL A   1      43.093  27.510  32.254  1.00  0.00     0.010 A 
ATOM     47  C   UNL A   1      43.815  28.698  32.141  1.00  0.00    -0.014 A 
BRANCH  47  48
ATOM     48  C   UNL A   1      43.064  29.917  32.007  1.00  0.00     0.031 A 
ATOM     49  C   UNL A   1      42.531  30.392  33.294  1.00  0.00     0.074 A 
ATOM     50  C   UNL A   1      43.081  30.571  30.831  1.00  0.00     0.049 A 
ATOM     51  N   UNL A   1      41.301  30.418  33.686  1.00  0.00    -0.248 NA
ATOM     52  C   UNL A   1      43.511  30.636  34.367  1.00  0.00     0.031 C 
ATOM     53  C   UNL A   1      43.919  30.288  29.655  1.00  0.00     0.029 A 
ATOM     54  N   UNL A   1      42.489  31.745  30.509  1.00  0.00    -0.354 N 
ATOM     55  C   UNL A   1      41.374  30.911  34.985  1.00  0.00     0.074 A 
ATOM     56  C   UNL A   1      42.717  30.691  35.432  1.00  0.00     0.031 C 
ATOM     57  C   UNL A   1      43.980  31.398  28.885  1.00  0.00     0.029 A 
ATOM     58  C   UNL A   1      43.115  32.411  29.464  1.00  0.00     0.049 A 
ATOM     59  H   UNL A   1      41.692  32.093  30.970  1.00  0.00     0.167 HD
ATOM     60  C   UNL A   1      40.458  31.793  35.465  1.00  0.00     0.034 A 
ATOM     61  C   UNL A   1      43.023  33.739  29.207  1.00  0.00     0.034 A 
ATOM     62  C   UNL A   1      39.278  31.817  34.643  1.00  0.00     0.049 A 
ATOM     63  C   UNL A   1      41.874  34.264  29.992  1.00  0.00     0.074 A 
ATOM     64  C   UNL A   1      38.344  30.877  34.257  1.00  0.00     0.029 A 
ATOM     65  N   UNL A   1      39.159  32.869  33.767  1.00  0.00    -0.354 N 
ATOM     66  N   UNL A   1      40.631  33.933  29.771  1.00  0.00    -0.248 NA
ATOM     67  C   UNL A   1      42.148  34.800  31.317  1.00  0.00     0.031 C 
ATOM     68  C   UNL A   1      38.002  31.224  32.920  1.00  0.00     0.029 A 
ATOM     69  C   UNL A   1      38.711  32.377  32.571  1.00  0.00     0.049 A 
ATOM     70  H   UNL A   1      39.361  33.812  33.965  1.00  0.00     0.167 HD
ATOM     71  C   UNL A   1      40.065  33.818  31.038  1.00  0.00     0.074 A 
ATOM     72  C   UNL A   1      41.012  34.469  31.938  1.00  0.00     0.031 C 
ATOM     73  C   UNL A   1      39.043  32.944  31.278  1.00  0.00     0.034 A 
BRANCH  60  74
ATOM     74  C   UNL A   1      40.775  32.899  36.445  1.00  0.00     0.023 A 
ATOM     75  C   UNL A   1      39.979  32.962  37.606  1.00  0.00     0.012 A 
ATOM     76  C   UNL A   1      41.626  34.006  36.197  1.00  0.00     0.148 A 
ATOM     77  C   UNL A   1      39.996  34.078  38.448  1.00  0.00     0.002 A 
ATOM     78  C   UNL A   1      41.711  35.068  37.086  1.00  0.00     0.091 A 
ATOM     79  F   UNL A   1      42.262  34.133  35.030  1.00  0.00    -0.205 F 
ATOM     80  C   UNL A   1      40.873  35.127  38.197  1.00  0.00     0.022 A 
BRANCH  78  81
ATOM     81  S   UNL A   1      42.879  36.409  36.819  1.00  0.00     0.127 S 
ATOM     82  O   UNL A   1      42.350  37.022  35.605  1.00  0.00    -0.237 OA
ATOM     83  O   UNL A   1      42.717  37.200  38.038  1.00  0.00    -0.237 OA
ATOM     84  O   UNL A   1      44.184  35.766  36.700  1.00  0.00    -0.744 OA
ENDBRANCH  78  81
ENDBRANCH  60  74
BRANCH  61  85
ATOM     85  C   UNL A   1      44.044  34.628  28.604  1.00  0.00     0.023 A 
ATOM     86  C   UNL A   1      43.737  35.359  27.442  1.00  0.00     0.012 A 
ATOM     87  C   UNL A   1      45.246  34.936  29.285  1.00  0.00     0.148 A 
ATOM     88  C   UNL A   1      44.593  36.366  26.977  1.00  0.00     0.002 A 
ATOM     89  C   UNL A   1      46.103  35.921  28.808  1.00  0.00     0.091 A 
ATOM     90  F   UNL A   1      45.502  34.327  30.451  1.00  0.00    -0.205 F 
ATOM     91  C   UNL A   1      45.775  36.647  27.657  1.00  0.00     0.022 A 
BRANCH  89  92
ATOM     92  S   UNL A   1      47.645  36.332  29.639  1.00  0.00     0.127 S 
ATOM     93  O   UNL A   1      48.234  37.309  28.722  1.00  0.00    -0.237 OA
ATOM     94  O   UNL A   1      47.170  36.885  30.903  1.00  0.00    -0.237 OA
ATOM     95  O   UNL A   1      48.390  35.081  29.736  1.00  0.00    -0.744 OA
ENDBRANCH  89  92
ENDBRANCH  61  85
BRANCH  73  96
ATOM     96  C   UNL A   1      38.376  32.283  30.095  1.00  0.00     0.023 A 
ATOM     97  C   UNL A   1      38.811  31.038  29.594  1.00  0.00     0.012 A 
ATOM     98  C   UNL A   1      37.151  32.806  29.647  1.00  0.00     0.148 A 
ATOM     99  C   UNL A   1      38.044  30.333  28.663  1.00  0.00     0.002 A 
ATOM    100  C   UNL A   1      36.366  32.076  28.764  1.00  0.00     0.091 A 
ATOM    101  F   UNL A   1      36.751  33.989  30.137  1.00  0.00    -0.205 F 
ATOM    102  C   UNL A   1      36.812  30.843  28.262  1.00  0.00     0.022 A 
BRANCH 100 103
ATOM    103  S   UNL A   1      34.701  32.598  28.340  1.00  0.00     0.127 S 
ATOM    104  O   UNL A   1      34.952  33.800  27.547  1.00  0.00    -0.237 OA
ATOM    105  O   UNL A   1      34.198  31.455  27.577  1.00  0.00    -0.237 OA
ATOM    106  O   UNL A   1      34.015  32.813  29.609  1.00  0.00    -0.744 OA
ENDBRANCH 100 103
ENDBRANCH  73  96
ENDBRANCH  47  48
ENDBRANCH  40  42
ENDBRANCH  39  40
ENDBRANCH  38  39
ENDBRANCH  37  38
ENDBRANCH  36  37
ENDBRANCH  35  36
ENDBRANCH  34  35
ENDBRANCH   1  34
TORSDOF 28
ENDMDL
MODEL 3
REMARK VINA RESULT:      -7.2      4.291      9.933
REMARK SMILES COc1cccc(-c2c(C(=O)OCCOCCOCCOCCOC(=O)c3ccc(-c4c5nc(c(-c6cccc(S(=O)(=O)[O-])c6F)c6ccc([nH]6)c(-c6cccc(S(=O)(=O)[O-])c6F)c6nc(c(-c7cccc(S(=O)(=O)[O-])c7F)c7ccc4[nH]7)C=C6)C=C5)cc3)nnn2-c2ccc(OC(F)(F)F)cc2)c1
REMARK SMILES IDX 18 1 17 2 16 3 15 4 14 5 13 6 12 7 10 8 11 9 9 10 8 11 92 12
REMARK SMILES IDX 90 13 91 14 7 15 3 16 4 17 104 18 5 19 6 20 2 21 1 22 93 23
REMARK SMILES IDX 94 24 103 25 95 26 102 27 96 28 97 29 98 30 99 31 100 32
REMARK SMILES IDX 101 33 19 34 20 35 21 36 22 37 23 38 24 39 25 40 26 41 27 42
REMARK SMILES IDX 28 43 89 44 29 45 88 46 30 47 31 48 32 49 82 50 33 51 87 52
REMARK SMILES IDX 81 53 83 54 34 55 86 56 80 57 79 58 35 60 67 61 47 62 66 63
REMARK SMILES IDX 48 64 51 65 65 66 84 67 49 68 50 69 64 71 85 72 52 73 36 74
REMARK SMILES IDX 37 75 45 76 38 77 40 78 46 79 39 80 41 81 42 82 43 83 44 84
REMARK SMILES IDX 68 85 69 86 77 87 70 88 72 89 78 90 71 91 73 92 74 93 75 94
REMARK SMILES IDX 76 95 53 96 54 97 62 98 55 99 57 100 63 101 56 102 58 103
REMARK SMILES IDX 59 104 60 105 61 106
REMARK H PARENT 83 59 51 70
REMARK Flexibility Score: inf
ROOT
ATOM      1  O   UNL A   1      45.931  30.885  34.029  1.00  0.00    -0.377 OA
ENDROOT
BRANCH   1   2
ATOM      2  C   UNL A   1      47.207  31.102  33.452  1.00  0.00     0.188 C 
BRANCH   2   3
ATOM      3  C   UNL A   1      47.479  30.251  32.189  1.00  0.00     0.188 C 
BRANCH   3   4
ATOM      4  O   UNL A   1      48.639  29.429  32.052  1.00  0.00    -0.376 OA
BRANCH   4   5
ATOM      5  C   UNL A   1      48.960  28.415  32.990  1.00  0.00     0.202 C 
BRANCH   5   6
ATOM      6  C   UNL A   1      49.796  27.204  32.558  1.00  0.00     0.261 C 
BRANCH   6   7
ATOM      7  O   UNL A   1      49.135  25.941  32.659  1.00  0.00    -0.458 OA
BRANCH   7   8
ATOM      8  C   UNL A   1      49.453  25.195  33.752  1.00  0.00     0.361 C 
ATOM      9  O   UNL A   1      50.426  25.398  34.470  1.00  0.00    -0.244 OA
BRANCH   8  10
ATOM     10  C   UNL A   1      48.448  24.188  34.052  1.00  0.00     0.198 A 
ATOM     11  C   UNL A   1      48.589  22.849  34.405  1.00  0.00     0.109 A 
ATOM     12  N   UNL A   1      47.269  22.475  34.653  1.00  0.00    -0.212 N 
ATOM     13  N   UNL A   1      47.111  24.470  33.873  1.00  0.00    -0.122 NA
ATOM     14  N   UNL A   1      46.419  23.367  34.104  1.00  0.00    -0.061 NA
BRANCH  11  15
ATOM     15  C   UNL A   1      49.745  21.958  34.581  1.00  0.00     0.007 A 
ATOM     16  C   UNL A   1      51.847  21.425  35.701  1.00  0.00     0.119 A 
ATOM     17  C   UNL A   1      52.082  20.418  34.768  1.00  0.00     0.046 A 
ATOM     18  C   UNL A   1      50.678  22.186  35.617  1.00  0.00     0.056 A 
ATOM     19  C   UNL A   1      51.144  20.145  33.776  1.00  0.00     0.005 A 
ATOM     20  C   UNL A   1      49.982  20.914  33.680  1.00  0.00     0.011 A 
BRANCH  16  21
ATOM     21  O   UNL A   1      52.865  21.660  36.582  1.00  0.00    -0.497 OA
ATOM     22  C   UNL A   1      53.909  22.502  36.097  1.00  0.00     0.278 C 
ENDBRANCH  16  21
ENDBRANCH  11  15
BRANCH  12  23
ATOM     23  C   UNL A   1      46.784  21.496  35.547  1.00  0.00     0.067 A 
ATOM     24  C   UNL A   1      46.748  21.744  36.919  1.00  0.00     0.032 A 
ATOM     25  C   UNL A   1      46.409  20.246  35.043  1.00  0.00     0.032 A 
ATOM     26  C   UNL A   1      46.276  20.746  37.776  1.00  0.00     0.049 A 
ATOM     27  C   UNL A   1      45.983  19.243  35.910  1.00  0.00     0.049 A 
ATOM     28  C   UNL A   1      45.897  19.491  37.280  1.00  0.00     0.129 A 
BRANCH  28  29
ATOM     29  O   UNL A   1      45.468  18.603  38.225  1.00  0.00    -0.406 OA
BRANCH  29  30
ATOM     30  C   UNL A   1      46.352  18.322  39.298  1.00  0.00     0.573 C 
ATOM     31  F   UNL A   1      46.251  19.241  40.282  1.00  0.00    -0.132 F 
ATOM     32  F   UNL A   1      46.117  17.092  39.809  1.00  0.00    -0.132 F 
ATOM     33  F   UNL A   1      47.622  18.341  38.836  1.00  0.00    -0.132 F 
ENDBRANCH  29  30
ENDBRANCH  28  29
ENDBRANCH  12  23
ENDBRANCH   8  10
ENDBRANCH   7   8
ENDBRANCH   6   7
ENDBRANCH   5   6
ENDBRANCH   4   5
ENDBRANCH   3   4
ENDBRANCH   2   3
ENDBRANCH   1   2
BRANCH   1  34
ATOM     34  C   UNL A   1      45.078  32.025  34.023  1.00  0.00     0.188 C 
BRANCH  34  35
ATOM     35  C   UNL A   1      45.398  33.163  35.027  1.00  0.00     0.188 C 
BRANCH  35  36
ATOM     36  O   UNL A   1      45.764  34.403  34.419  1.00  0.00    -0.376 OA
BRANCH  36  37
ATOM     37  C   UNL A   1      44.812  35.149  33.671  1.00  0.00     0.202 C 
BRANCH  37  38
ATOM     38  C   UNL A   1      45.252  35.531  32.260  1.00  0.00     0.261 C 
BRANCH  38  39
ATOM     39  O   UNL A   1      44.877  34.553  31.309  1.00  0.00    -0.460 OA
BRANCH  39  40
ATOM     40  C   UNL A   1      44.504  35.023  30.105  1.00  0.00     0.338 C 
ATOM     41  O   UNL A   1      43.729  35.940  29.870  1.00  0.00    -0.246 OA
BRANCH  40  42
ATOM     42  C   UNL A   1      45.178  34.226  29.078  1.00  0.00     0.060 A 
ATOM     43  C   UNL A   1      44.327  33.624  28.149  1.00  0.00     0.016 A 
ATOM     44  C   UNL A   1      46.428  33.705  29.428  1.00  0.00     0.016 A 
ATOM     45  C   UNL A   1      44.524  32.292  27.912  1.00  0.00     0.010 A 
ATOM     46  C   UNL A   1      46.579  32.366  29.266  1.00  0.00     0.010 A 
ATOM     47  C   UNL A   1      45.561  31.675  28.609  1.00  0.00    -0.014 A 
BRANCH  47  48
ATOM     48  C   UNL A   1      45.520  30.247  28.776  1.00  0.00     0.031 A 
ATOM     49  C   UNL A   1      46.547  29.558  27.977  1.00  0.00     0.074 A 
ATOM     50  C   UNL A   1      44.729  29.722  29.730  1.00  0.00     0.049 A 
ATOM     51  N   UNL A   1      46.380  28.809  26.940  1.00  0.00    -0.248 NA
ATOM     52  C   UNL A   1      47.946  29.954  28.217  1.00  0.00     0.031 C 
ATOM     53  C   UNL A   1      43.983  30.438  30.777  1.00  0.00     0.029 A 
ATOM     54  N   UNL A   1      44.579  28.423  30.082  1.00  0.00    -0.354 N 
ATOM     55  C   UNL A   1      47.674  28.467  26.562  1.00  0.00     0.074 A 
ATOM     56  C   UNL A   1      48.544  29.446  27.143  1.00  0.00     0.031 C 
ATOM     57  C   UNL A   1      43.702  29.576  31.780  1.00  0.00     0.029 A 
ATOM     58  C   UNL A   1      44.157  28.251  31.394  1.00  0.00     0.049 A 
ATOM     59  H   UNL A   1      44.752  27.673  29.468  1.00  0.00     0.167 HD
ATOM     60  C   UNL A   1      47.982  27.217  26.126  1.00  0.00     0.034 A 
ATOM     61  C   UNL A   1      44.318  27.127  32.134  1.00  0.00     0.034 A 
ATOM     62  C   UNL A   1      46.799  26.489  25.754  1.00  0.00     0.049 A 
ATOM     63  C   UNL A   1      44.677  26.029  31.199  1.00  0.00     0.074 A 
ATOM     64  C   UNL A   1      45.786  26.686  24.837  1.00  0.00     0.029 A 
ATOM     65  N   UNL A   1      46.334  25.565  26.659  1.00  0.00    -0.354 N 
ATOM     66  N   UNL A   1      43.869  25.553  30.290  1.00  0.00    -0.248 NA
ATOM     67  C   UNL A   1      46.091  25.772  30.967  1.00  0.00     0.031 C 
ATOM     68  C   UNL A   1      44.612  26.193  25.474  1.00  0.00     0.029 A 
ATOM     69  C   UNL A   1      44.972  25.684  26.725  1.00  0.00     0.049 A 
ATOM     70  H   UNL A   1      46.884  24.929  27.170  1.00  0.00     0.167 HD
ATOM     71  C   UNL A   1      44.679  25.319  29.182  1.00  0.00     0.074 A 
ATOM     72  C   UNL A   1      46.045  25.366  29.695  1.00  0.00     0.031 C 
ATOM     73  C   UNL A   1      44.185  25.416  27.913  1.00  0.00     0.034 A 
BRANCH  60  74
ATOM     74  C   UNL A   1      49.300  26.524  26.392  1.00  0.00     0.023 A 
ATOM     75  C   UNL A   1      49.515  26.061  27.705  1.00  0.00     0.012 A 
ATOM     76  C   UNL A   1      50.418  26.511  25.521  1.00  0.00     0.148 A 
ATOM     77  C   UNL A   1      50.779  25.648  28.139  1.00  0.00     0.002 A 
ATOM     78  C   UNL A   1      51.648  26.010  25.928  1.00  0.00     0.091 A 
ATOM     79  F   UNL A   1      50.368  27.115  24.332  1.00  0.00    -0.205 F 
ATOM     80  C   UNL A   1      51.843  25.608  27.247  1.00  0.00     0.022 A 
BRANCH  78  81
ATOM     81  S   UNL A   1      53.025  25.891  24.778  1.00  0.00     0.127 S 
ATOM     82  O   UNL A   1      53.976  26.832  25.361  1.00  0.00    -0.237 OA
ATOM     83  O   UNL A   1      53.395  24.480  24.893  1.00  0.00    -0.237 OA
ATOM     84  O   UNL A   1      52.474  26.254  23.477  1.00  0.00    -0.744 OA
ENDBRANCH  78  81
ENDBRANCH  60  74
BRANCH  61  85
ATOM     85  C   UNL A   1      44.507  27.016  33.599  1.00  0.00     0.023 A 
ATOM     86  C   UNL A   1      45.705  27.461  34.187  1.00  0.00     0.012 A 
ATOM     87  C   UNL A   1      43.431  26.681  34.456  1.00  0.00     0.148 A 
ATOM     88  C   UNL A   1      45.828  27.574  35.577  1.00  0.00     0.002 A 
ATOM     89  C   UNL A   1      43.564  26.774  35.837  1.00  0.00     0.091 A 
ATOM     90  F   UNL A   1      42.248  26.360  33.913  1.00  0.00    -0.205 F 
ATOM     91  C   UNL A   1      44.760  27.230  36.403  1.00  0.00     0.022 A 
BRANCH  89  92
ATOM     92  S   UNL A   1      42.224  26.345  36.958  1.00  0.00     0.127 S 
ATOM     93  O   UNL A   1      42.899  26.354  38.256  1.00  0.00    -0.237 OA
ATOM     94  O   UNL A   1      41.287  27.444  36.745  1.00  0.00    -0.237 OA
ATOM     95  O   UNL A   1      41.760  25.028  36.537  1.00  0.00    -0.744 OA
ENDBRANCH  89  92
ENDBRANCH  61  85
BRANCH  73  96
ATOM     96  C   UNL A   1      42.690  25.541  27.737  1.00  0.00     0.023 A 
ATOM     97  C   UNL A   1      41.825  24.439  27.903  1.00  0.00     0.012 A 
ATOM     98  C   UNL A   1      42.138  26.830  27.646  1.00  0.00     0.148 A 
ATOM     99  C   UNL A   1      40.442  24.617  27.972  1.00  0.00     0.002 A 
ATOM    100  C   UNL A   1      40.766  27.009  27.772  1.00  0.00     0.091 A 
ATOM    101  F   UNL A   1      42.975  27.867  27.492  1.00  0.00    -0.205 F 
ATOM    102  C   UNL A   1      39.913  25.904  27.926  1.00  0.00     0.022 A 
BRANCH 100 103
ATOM    103  S   UNL A   1      40.042  28.648  27.886  1.00  0.00     0.127 S 
ATOM    104  O   UNL A   1      40.234  29.161  26.531  1.00  0.00    -0.237 OA
ATOM    105  O   UNL A   1      38.652  28.353  28.239  1.00  0.00    -0.237 OA
ATOM    106  O   UNL A   1      40.786  29.340  28.932  1.00  0.00    -0.744 OA
ENDBRANCH 100 103
ENDBRANCH  73  96
ENDBRANCH  47  48
ENDBRANCH  40  42
ENDBRANCH  39  40
ENDBRANCH  38  39
ENDBRANCH  37  38
ENDBRANCH  36  37
ENDBRANCH  35  36
ENDBRANCH  34  35
ENDBRANCH   1  34
TORSDOF 28
ENDMDL
