MODEL 1
REMARK VINA RESULT:      -8.5      0.000      0.000
REMARK SMILES O=C(CCNc1cc(N2CCC3(CC2)OCCO3)c2noc3c2c1C(=O)c1ccccc1-3)OCCOCCOCCOCCOC(=O)c1ccc(-c2c3nc(c(-c4cccc(S(=O)(=O)[O-])c4F)c4ccc([nH]4)c(-c4cccc(S(=O)(=O)[O-])c4F)c4nc(c(-c5cccc(S(=O)(=O)[O-])c5F)c5ccc2[nH]5)C=C4)C=C3)cc1
REMARK SMILES IDX 38 1 37 2 36 3 35 4 34 5 33 6 2 7 1 8 3 9 4 10 5 11 6 13
REMARK SMILES IDX 7 14 24 15 8 16 23 17 25 18 19 19 22 20 26 21 27 22 20 23
REMARK SMILES IDX 21 24 32 25 28 26 31 27 29 28 30 29 9 30 10 31 14 32 11 33
REMARK SMILES IDX 13 34 12 35 15 36 18 37 16 38 17 39 39 40 40 41 41 42 42 43
REMARK SMILES IDX 43 44 44 45 45 46 46 47 47 48 48 49 49 50 110 51 50 52
REMARK SMILES IDX 109 53 51 54 52 55 53 56 103 57 54 58 108 59 102 60 104 61
REMARK SMILES IDX 55 62 107 63 101 64 100 65 56 67 88 68 68 69 87 70 69 71
REMARK SMILES IDX 72 72 86 73 105 74 70 75 71 76 85 78 106 79 73 80 57 81
REMARK SMILES IDX 58 82 66 83 59 84 61 85 67 86 60 87 62 88 63 89 64 90 65 91
REMARK SMILES IDX 89 92 90 93 98 94 91 95 93 96 99 97 92 98 94 99 95 100
REMARK SMILES IDX 96 101 97 102 74 103 75 104 83 105 76 106 78 107 84 108
REMARK SMILES IDX 77 109 79 110 80 111 81 112 82 113
REMARK H PARENT 5 12 104 66 72 77
REMARK Flexibility Score: inf
ROOT
ATOM      1  C   UNL A   1      34.684  34.845  33.800  1.00  0.00     0.188 C 
ENDROOT
BRANCH   1   2
ATOM      2  C   UNL A   1      36.118  34.479  34.172  1.00  0.00     0.188 C 
BRANCH   2   3
ATOM      3  O   UNL A   1      36.196  33.403  35.090  1.00  0.00    -0.376 OA
BRANCH   3   4
ATOM      4  C   UNL A   1      37.400  32.664  35.264  1.00  0.00     0.202 C 
BRANCH   4   5
ATOM      5  C   UNL A   1      37.936  31.712  34.180  1.00  0.00     0.261 C 
BRANCH   5   6
ATOM      6  O   UNL A   1      39.065  30.892  34.522  1.00  0.00    -0.463 OA
BRANCH   6   7
ATOM      7  C   UNL A   1      39.352  29.642  34.114  1.00  0.00     0.307 C 
ATOM      8  O   UNL A   1      38.447  28.980  33.591  1.00  0.00    -0.252 OA
BRANCH   7   9
ATOM      9  C   UNL A   1      40.583  28.932  34.607  1.00  0.00     0.144 C 
BRANCH   9  10
ATOM     10  C   UNL A   1      41.168  27.721  33.904  1.00  0.00     0.124 C 
BRANCH  10  11
ATOM     11  N   UNL A   1      41.915  26.780  34.743  1.00  0.00    -0.384 N 
ATOM     12  H   UNL A   1      41.395  26.204  35.348  1.00  0.00     0.160 HD
BRANCH  11  13
ATOM     13  C   UNL A   1      43.306  26.630  34.754  1.00  0.00     0.048 A 
ATOM     14  C   UNL A   1      43.955  26.526  33.439  1.00  0.00     0.054 A 
ATOM     15  C   UNL A   1      44.078  26.489  35.917  1.00  0.00     0.059 A 
ATOM     16  C   UNL A   1      45.362  26.392  33.144  1.00  0.00     0.069 A 
ATOM     17  C   UNL A   1      45.423  26.385  35.604  1.00  0.00     0.065 A 
ATOM     18  C   UNL A   1      43.686  26.417  37.354  1.00  0.00     0.196 C 
ATOM     19  C   UNL A   1      46.104  26.335  34.353  1.00  0.00     0.138 A 
ATOM     20  C   UNL A   1      46.353  26.348  36.588  1.00  0.00     0.176 A 
ATOM     21  O   UNL A   1      42.539  26.304  37.757  1.00  0.00    -0.288 OA
ATOM     22  C   UNL A   1      44.758  26.474  38.390  1.00  0.00     0.034 A 
ATOM     23  N   UNL A   1      47.433  26.253  34.619  1.00  0.00    -0.077 NA
ATOM     24  O   UNL A   1      47.578  26.271  36.018  1.00  0.00    -0.355 OA
ATOM     25  C   UNL A   1      46.114  26.425  38.009  1.00  0.00     0.032 A 
ATOM     26  C   UNL A   1      44.386  26.579  39.734  1.00  0.00     0.013 A 
ATOM     27  C   UNL A   1      47.095  26.473  38.995  1.00  0.00     0.013 A 
ATOM     28  C   UNL A   1      45.369  26.632  40.711  1.00  0.00     0.001 A 
ATOM     29  C   UNL A   1      46.717  26.576  40.343  1.00  0.00     0.001 A 
BRANCH  16  30
ATOM     30  N   UNL A   1      45.813  26.308  31.834  1.00  0.00    -0.369 N 
ATOM     31  C   UNL A   1      45.597  25.099  31.042  1.00  0.00     0.122 C 
ATOM     32  C   UNL A   1      46.908  27.163  31.384  1.00  0.00     0.122 C 
ATOM     33  C   UNL A   1      45.255  25.520  29.611  1.00  0.00     0.087 C 
ATOM     34  C   UNL A   1      46.654  27.613  29.949  1.00  0.00     0.087 C 
ATOM     35  C   UNL A   1      46.321  26.448  29.014  1.00  0.00     0.171 C 
ATOM     36  O   UNL A   1      47.514  25.697  28.705  1.00  0.00    -0.347 OA
ATOM     37  O   UNL A   1      45.813  27.016  27.792  1.00  0.00    -0.347 OA
ATOM     38  C   UNL A   1      47.348  25.342  27.325  1.00  0.00     0.192 C 
ATOM     39  C   UNL A   1      46.650  26.540  26.742  1.00  0.00     0.192 C 
ENDBRANCH  16  30
ENDBRANCH  11  13
ENDBRANCH  10  11
ENDBRANCH   9  10
ENDBRANCH   7   9
ENDBRANCH   6   7
ENDBRANCH   5   6
ENDBRANCH   4   5
ENDBRANCH   3   4
ENDBRANCH   2   3
ENDBRANCH   1   2
BRANCH   1  40
ATOM     40  O   UNL A   1      34.478  36.253  33.910  1.00  0.00    -0.377 OA
BRANCH  40  41
ATOM     41  C   UNL A   1      33.594  36.772  32.926  1.00  0.00     0.188 C 
BRANCH  41  42
ATOM     42  C   UNL A   1      33.733  36.256  31.476  1.00  0.00     0.188 C 
BRANCH  42  43
ATOM     43  O   UNL A   1      32.783  36.602  30.476  1.00  0.00    -0.376 OA
BRANCH  43  44
ATOM     44  C   UNL A   1      33.132  36.418  29.114  1.00  0.00     0.202 C 
BRANCH  44  45
ATOM     45  C   UNL A   1      34.125  35.290  28.798  1.00  0.00     0.261 C 
BRANCH  45  46
ATOM     46  O   UNL A   1      33.761  34.023  29.377  1.00  0.00    -0.460 OA
BRANCH  46  47
ATOM     47  C   UNL A   1      33.927  32.908  28.609  1.00  0.00     0.338 C 
ATOM     48  O   UNL A   1      33.343  32.629  27.587  1.00  0.00    -0.246 OA
BRANCH  47  49
ATOM     49  C   UNL A   1      35.126  32.185  29.117  1.00  0.00     0.060 A 
ATOM     50  C   UNL A   1      35.521  32.300  30.452  1.00  0.00     0.016 A 
ATOM     51  C   UNL A   1      35.981  31.581  28.185  1.00  0.00     0.016 A 
ATOM     52  C   UNL A   1      36.780  31.834  30.846  1.00  0.00     0.010 A 
ATOM     53  C   UNL A   1      37.258  31.156  28.577  1.00  0.00     0.010 A 
ATOM     54  C   UNL A   1      37.678  31.278  29.912  1.00  0.00    -0.014 A 
BRANCH  54  55
ATOM     55  C   UNL A   1      38.957  30.696  30.394  1.00  0.00     0.031 A 
ATOM     56  C   UNL A   1      39.344  29.339  29.883  1.00  0.00     0.074 A 
ATOM     57  C   UNL A   1      39.948  31.439  30.931  1.00  0.00     0.049 A 
ATOM     58  N   UNL A   1      40.104  29.129  28.846  1.00  0.00    -0.248 NA
ATOM     59  C   UNL A   1      38.691  28.134  30.396  1.00  0.00     0.031 C 
ATOM     60  C   UNL A   1      40.428  32.705  30.365  1.00  0.00     0.029 A 
ATOM     61  N   UNL A   1      40.885  31.118  31.888  1.00  0.00    -0.354 N 
ATOM     62  C   UNL A   1      40.014  27.777  28.543  1.00  0.00     0.074 A 
ATOM     63  C   UNL A   1      39.122  27.206  29.530  1.00  0.00     0.031 C 
ATOM     64  C   UNL A   1      41.656  32.963  30.869  1.00  0.00     0.029 A 
ATOM     65  C   UNL A   1      41.974  31.985  31.905  1.00  0.00     0.049 A 
ATOM     66  H   UNL A   1      40.793  30.351  32.499  1.00  0.00     0.167 HD
ATOM     67  C   UNL A   1      40.670  27.165  27.520  1.00  0.00     0.034 A 
ATOM     68  C   UNL A   1      43.222  31.676  32.356  1.00  0.00     0.034 A 
ATOM     69  C   UNL A   1      41.570  27.981  26.761  1.00  0.00     0.049 A 
ATOM     70  C   UNL A   1      43.718  30.783  31.244  1.00  0.00     0.074 A 
ATOM     71  C   UNL A   1      41.539  28.721  25.599  1.00  0.00     0.029 A 
ATOM     72  N   UNL A   1      42.836  28.175  27.257  1.00  0.00    -0.354 N 
ATOM     73  N   UNL A   1      44.241  31.158  30.110  1.00  0.00    -0.248 NA
ATOM     74  C   UNL A   1      43.264  29.390  31.284  1.00  0.00     0.031 C 
ATOM     75  C   UNL A   1      42.612  29.663  25.708  1.00  0.00     0.029 A 
ATOM     76  C   UNL A   1      43.208  29.460  26.950  1.00  0.00     0.049 A 
ATOM     77  H   UNL A   1      43.379  27.514  27.745  1.00  0.00     0.167 HD
ATOM     78  C   UNL A   1      43.896  30.150  29.208  1.00  0.00     0.074 A 
ATOM     79  C   UNL A   1      43.281  29.101  29.992  1.00  0.00     0.031 C 
ATOM     80  C   UNL A   1      43.986  30.274  27.854  1.00  0.00     0.034 A 
BRANCH  67  81
ATOM     81  C   UNL A   1      40.659  25.695  27.320  1.00  0.00     0.023 A 
ATOM     82  C   UNL A   1      39.492  25.125  26.776  1.00  0.00     0.012 A 
ATOM     83  C   UNL A   1      41.689  24.857  27.783  1.00  0.00     0.148 A 
ATOM     84  C   UNL A   1      39.330  23.743  26.723  1.00  0.00     0.002 A 
ATOM     85  C   UNL A   1      41.526  23.475  27.720  1.00  0.00     0.091 A 
ATOM     86  F   UNL A   1      42.791  25.417  28.300  1.00  0.00    -0.205 F 
ATOM     87  C   UNL A   1      40.343  22.918  27.200  1.00  0.00     0.022 A 
BRANCH  85  88
ATOM     88  S   UNL A   1      42.773  22.314  28.296  1.00  0.00     0.127 S 
ATOM     89  O   UNL A   1      42.128  21.026  28.051  1.00  0.00    -0.237 OA
ATOM     90  O   UNL A   1      43.897  22.613  27.407  1.00  0.00    -0.237 OA
ATOM     91  O   UNL A   1      43.013  22.637  29.697  1.00  0.00    -0.744 OA
ENDBRANCH  85  88
ENDBRANCH  67  81
BRANCH  68  92
ATOM     92  C   UNL A   1      43.330  31.247  33.796  1.00  0.00     0.023 A 
ATOM     93  C   UNL A   1      44.271  30.239  34.118  1.00  0.00     0.012 A 
ATOM     94  C   UNL A   1      42.552  31.770  34.848  1.00  0.00     0.148 A 
ATOM     95  C   UNL A   1      44.509  29.851  35.438  1.00  0.00     0.002 A 
ATOM     96  C   UNL A   1      42.834  31.425  36.169  1.00  0.00     0.091 A 
ATOM     97  F   UNL A   1      41.556  32.616  34.560  1.00  0.00    -0.205 F 
ATOM     98  C   UNL A   1      43.811  30.467  36.467  1.00  0.00     0.022 A 
BRANCH  96  99
ATOM     99  S   UNL A   1      42.052  32.242  37.568  1.00  0.00     0.127 S 
ATOM    100  O   UNL A   1      42.418  33.640  37.350  1.00  0.00    -0.237 OA
ATOM    101  O   UNL A   1      40.644  31.928  37.331  1.00  0.00    -0.237 OA
ATOM    102  O   UNL A   1      42.631  31.633  38.757  1.00  0.00    -0.744 OA
ENDBRANCH  96  99
ENDBRANCH  68  92
BRANCH  80 103
ATOM    103  C   UNL A   1      44.816  31.405  27.348  1.00  0.00     0.023 A 
ATOM    104  C   UNL A   1      44.196  32.660  27.177  1.00  0.00     0.012 A 
ATOM    105  C   UNL A   1      46.196  31.298  27.144  1.00  0.00     0.148 A 
ATOM    106  C   UNL A   1      44.937  33.790  26.837  1.00  0.00     0.002 A 
ATOM    107  C   UNL A   1      46.937  32.444  26.873  1.00  0.00     0.091 A 
ATOM    108  F   UNL A   1      46.784  30.093  27.227  1.00  0.00    -0.205 F 
ATOM    109  C   UNL A   1      46.317  33.687  26.707  1.00  0.00     0.022 A 
BRANCH 107 110
ATOM    110  S   UNL A   1      48.717  32.394  26.967  1.00  0.00     0.127 S 
ATOM    111  O   UNL A   1      48.985  32.758  28.351  1.00  0.00    -0.237 OA
ATOM    112  O   UNL A   1      49.033  31.008  26.628  1.00  0.00    -0.237 OA
ATOM    113  O   UNL A   1      49.144  33.363  25.962  1.00  0.00    -0.744 OA
ENDBRANCH 107 110
ENDBRANCH  80 103
ENDBRANCH  54  55
ENDBRANCH  47  49
ENDBRANCH  46  47
ENDBRANCH  45  46
ENDBRANCH  44  45
ENDBRANCH  43  44
ENDBRANCH  42  43
ENDBRANCH  41  42
ENDBRANCH  40  41
ENDBRANCH   1  40
TORSDOF 27
ENDMDL
MODEL 2
REMARK VINA RESULT:      -7.0      6.274     13.162
REMARK SMILES O=C(CCNc1cc(N2CCC3(CC2)OCCO3)c2noc3c2c1C(=O)c1ccccc1-3)OCCOCCOCCOCCOC(=O)c1ccc(-c2c3nc(c(-c4cccc(S(=O)(=O)[O-])c4F)c4ccc([nH]4)c(-c4cccc(S(=O)(=O)[O-])c4F)c4nc(c(-c5cccc(S(=O)(=O)[O-])c5F)c5ccc2[nH]5)C=C4)C=C3)cc1
REMARK SMILES IDX 38 1 37 2 36 3 35 4 34 5 33 6 2 7 1 8 3 9 4 10 5 11 6 13
REMARK SMILES IDX 7 14 24 15 8 16 23 17 25 18 19 19 22 20 26 21 27 22 20 23
REMARK SMILES IDX 21 24 32 25 28 26 31 27 29 28 30 29 9 30 10 31 14 32 11 33
REMARK SMILES IDX 13 34 12 35 15 36 18 37 16 38 17 39 39 40 40 41 41 42 42 43
REMARK SMILES IDX 43 44 44 45 45 46 46 47 47 48 48 49 49 50 110 51 50 52
REMARK SMILES IDX 109 53 51 54 52 55 53 56 103 57 54 58 108 59 102 60 104 61
REMARK SMILES IDX 55 62 107 63 101 64 100 65 56 67 88 68 68 69 87 70 69 71
REMARK SMILES IDX 72 72 86 73 105 74 70 75 71 76 85 78 106 79 73 80 57 81
REMARK SMILES IDX 58 82 66 83 59 84 61 85 67 86 60 87 62 88 63 89 64 90 65 91
REMARK SMILES IDX 89 92 90 93 98 94 91 95 93 96 99 97 92 98 94 99 95 100
REMARK SMILES IDX 96 101 97 102 74 103 75 104 83 105 76 106 78 107 84 108
REMARK SMILES IDX 77 109 79 110 80 111 81 112 82 113
REMARK H PARENT 5 12 104 66 72 77
REMARK Flexibility Score: inf
ROOT
ATOM      1  C   UNL A   1      46.997  27.652  26.338  1.00  0.00     0.188 C 
ENDROOT
BRANCH   1   2
ATOM      2  C   UNL A   1      46.360  28.015  25.001  1.00  0.00     0.188 C 
BRANCH   2   3
ATOM      3  O   UNL A   1      44.947  27.901  25.010  1.00  0.00    -0.376 OA
BRANCH   3   4
ATOM      4  C   UNL A   1      44.212  27.923  26.229  1.00  0.00     0.202 C 
BRANCH   4   5
ATOM      5  C   UNL A   1      43.718  29.236  26.861  1.00  0.00     0.261 C 
BRANCH   5   6
ATOM      6  O   UNL A   1      42.391  29.246  27.413  1.00  0.00    -0.463 OA
BRANCH   6   7
ATOM      7  C   UNL A   1      41.636  28.204  27.806  1.00  0.00     0.307 C 
ATOM      8  O   UNL A   1      42.037  27.520  28.756  1.00  0.00    -0.252 OA
BRANCH   7   9
ATOM      9  C   UNL A   1      40.562  27.649  26.911  1.00  0.00     0.144 C 
BRANCH   9  10
ATOM     10  C   UNL A   1      40.493  26.184  26.523  1.00  0.00     0.124 C 
BRANCH  10  11
ATOM     11  N   UNL A   1      39.459  25.384  27.183  1.00  0.00    -0.384 N 
ATOM     12  H   UNL A   1      39.133  25.699  28.057  1.00  0.00     0.160 HD
BRANCH  11  13
ATOM     13  C   UNL A   1      38.893  24.209  26.675  1.00  0.00     0.048 A 
ATOM     14  C   UNL A   1      37.488  24.300  26.251  1.00  0.00     0.054 A 
ATOM     15  C   UNL A   1      39.547  22.968  26.633  1.00  0.00     0.059 A 
ATOM     16  C   UNL A   1      36.661  23.269  25.671  1.00  0.00     0.069 A 
ATOM     17  C   UNL A   1      38.738  22.006  26.053  1.00  0.00     0.065 A 
ATOM     18  C   UNL A   1      40.896  22.552  27.112  1.00  0.00     0.196 C 
ATOM     19  C   UNL A   1      37.395  22.057  25.578  1.00  0.00     0.138 A 
ATOM     20  C   UNL A   1      39.216  20.761  25.818  1.00  0.00     0.176 A 
ATOM     21  O   UNL A   1      41.631  23.239  27.806  1.00  0.00    -0.288 OA
ATOM     22  C   UNL A   1      41.400  21.198  26.739  1.00  0.00     0.034 A 
ATOM     23  N   UNL A   1      37.095  20.830  25.081  1.00  0.00    -0.077 NA
ATOM     24  O   UNL A   1      38.242  20.031  25.228  1.00  0.00    -0.355 OA
ATOM     25  C   UNL A   1      40.548  20.279  26.095  1.00  0.00     0.032 A 
ATOM     26  C   UNL A   1      42.726  20.871  27.040  1.00  0.00     0.013 A 
ATOM     27  C   UNL A   1      41.041  19.020  25.763  1.00  0.00     0.013 A 
ATOM     28  C   UNL A   1      43.211  19.616  26.701  1.00  0.00     0.001 A 
ATOM     29  C   UNL A   1      42.371  18.694  26.068  1.00  0.00     0.001 A 
BRANCH  16  30
ATOM     30  N   UNL A   1      35.341  23.524  25.322  1.00  0.00    -0.369 N 
ATOM     31  C   UNL A   1      34.753  24.846  25.523  1.00  0.00     0.122 C 
ATOM     32  C   UNL A   1      34.386  22.422  25.231  1.00  0.00     0.122 C 
ATOM     33  C   UNL A   1      33.852  25.155  24.324  1.00  0.00     0.087 C 
ATOM     34  C   UNL A   1      33.432  22.664  24.067  1.00  0.00     0.087 C 
ATOM     35  C   UNL A   1      32.803  24.059  24.096  1.00  0.00     0.171 C 
ATOM     36  O   UNL A   1      31.785  24.128  25.115  1.00  0.00    -0.347 OA
ATOM     37  O   UNL A   1      32.180  24.271  22.816  1.00  0.00    -0.347 OA
ATOM     38  C   UNL A   1      30.762  24.941  24.523  1.00  0.00     0.192 C 
ATOM     39  C   UNL A   1      30.806  24.549  23.072  1.00  0.00     0.192 C 
ENDBRANCH  16  30
ENDBRANCH  11  13
ENDBRANCH  10  11
ENDBRANCH   9  10
ENDBRANCH   7   9
ENDBRANCH   6   7
ENDBRANCH   5   6
ENDBRANCH   4   5
ENDBRANCH   3   4
ENDBRANCH   2   3
ENDBRANCH   1   2
BRANCH   1  40
ATOM     40  O   UNL A   1      47.544  26.334  26.296  1.00  0.00    -0.377 OA
BRANCH  40  41
ATOM     41  C   UNL A   1      48.922  26.285  26.638  1.00  0.00     0.188 C 
BRANCH  41  42
ATOM     42  C   UNL A   1      49.771  27.559  26.430  1.00  0.00     0.188 C 
BRANCH  42  43
ATOM     43  O   UNL A   1      50.722  27.978  27.401  1.00  0.00    -0.376 OA
BRANCH  43  44
ATOM     44  C   UNL A   1      50.849  29.363  27.675  1.00  0.00     0.202 C 
BRANCH  44  45
ATOM     45  C   UNL A   1      50.749  30.320  26.479  1.00  0.00     0.261 C 
BRANCH  45  46
ATOM     46  O   UNL A   1      50.361  31.658  26.841  1.00  0.00    -0.460 OA
BRANCH  46  47
ATOM     47  C   UNL A   1      50.651  32.659  25.961  1.00  0.00     0.338 C 
ATOM     48  O   UNL A   1      51.436  32.621  25.041  1.00  0.00    -0.246 OA
BRANCH  47  49
ATOM     49  C   UNL A   1      49.662  33.751  26.179  1.00  0.00     0.060 A 
ATOM     50  C   UNL A   1      48.717  33.669  27.205  1.00  0.00     0.016 A 
ATOM     51  C   UNL A   1      49.543  34.744  25.197  1.00  0.00     0.016 A 
ATOM     52  C   UNL A   1      47.642  34.564  27.230  1.00  0.00     0.010 A 
ATOM     53  C   UNL A   1      48.440  35.609  25.205  1.00  0.00     0.010 A 
ATOM     54  C   UNL A   1      47.472  35.531  26.220  1.00  0.00    -0.014 A 
BRANCH  54  55
ATOM     55  C   UNL A   1      46.380  36.532  26.348  1.00  0.00     0.031 A 
ATOM     56  C   UNL A   1      45.077  36.072  26.932  1.00  0.00     0.074 A 
ATOM     57  C   UNL A   1      46.598  37.864  26.341  1.00  0.00     0.049 A 
ATOM     58  N   UNL A   1      44.760  36.160  28.193  1.00  0.00    -0.248 NA
ATOM     59  C   UNL A   1      44.145  35.268  26.140  1.00  0.00     0.031 C 
ATOM     60  C   UNL A   1      47.659  38.530  27.105  1.00  0.00     0.029 A 
ATOM     61  N   UNL A   1      45.799  38.895  25.899  1.00  0.00    -0.354 N 
ATOM     62  C   UNL A   1      43.610  35.406  28.377  1.00  0.00     0.074 A 
ATOM     63  C   UNL A   1      43.272  34.870  27.075  1.00  0.00     0.031 C 
ATOM     64  C   UNL A   1      47.350  39.841  27.218  1.00  0.00     0.029 A 
ATOM     65  C   UNL A   1      46.174  40.137  26.404  1.00  0.00     0.049 A 
ATOM     66  H   UNL A   1      45.038  38.766  25.287  1.00  0.00     0.167 HD
ATOM     67  C   UNL A   1      42.964  35.251  29.565  1.00  0.00     0.034 A 
ATOM     68  C   UNL A   1      45.348  41.210  26.555  1.00  0.00     0.034 A 
ATOM     69  C   UNL A   1      43.486  35.991  30.675  1.00  0.00     0.049 A 
ATOM     70  C   UNL A   1      44.521  40.774  27.740  1.00  0.00     0.074 A 
ATOM     71  C   UNL A   1      44.355  35.776  31.722  1.00  0.00     0.029 A 
ATOM     72  N   UNL A   1      43.105  37.304  30.810  1.00  0.00    -0.354 N 
ATOM     73  N   UNL A   1      44.843  40.869  29.000  1.00  0.00    -0.248 NA
ATOM     74  C   UNL A   1      43.416  39.854  27.453  1.00  0.00     0.031 C 
ATOM     75  C   UNL A   1      44.791  37.074  32.141  1.00  0.00     0.029 A 
ATOM     76  C   UNL A   1      44.184  38.000  31.296  1.00  0.00     0.049 A 
ATOM     77  H   UNL A   1      42.219  37.678  30.597  1.00  0.00     0.167 HD
ATOM     78  C   UNL A   1      44.196  39.795  29.615  1.00  0.00     0.074 A 
ATOM     79  C   UNL A   1      43.350  39.201  28.603  1.00  0.00     0.031 C 
ATOM     80  C   UNL A   1      44.489  39.345  30.868  1.00  0.00     0.034 A 
BRANCH  67  81
ATOM     81  C   UNL A   1      41.659  34.556  29.688  1.00  0.00     0.023 A 
ATOM     82  C   UNL A   1      40.507  35.273  29.312  1.00  0.00     0.012 A 
ATOM     83  C   UNL A   1      41.523  33.294  30.293  1.00  0.00     0.148 A 
ATOM     84  C   UNL A   1      39.236  34.764  29.563  1.00  0.00     0.002 A 
ATOM     85  C   UNL A   1      40.250  32.785  30.535  1.00  0.00     0.091 A 
ATOM     86  F   UNL A   1      42.631  32.628  30.647  1.00  0.00    -0.205 F 
ATOM     87  C   UNL A   1      39.106  33.524  30.181  1.00  0.00     0.022 A 
BRANCH  85  88
ATOM     88  S   UNL A   1      39.964  31.190  31.315  1.00  0.00     0.127 S 
ATOM     89  O   UNL A   1      40.915  31.216  32.424  1.00  0.00    -0.237 OA
ATOM     90  O   UNL A   1      38.559  31.297  31.714  1.00  0.00    -0.237 OA
ATOM     91  O   UNL A   1      40.223  30.185  30.292  1.00  0.00    -0.744 OA
ENDBRANCH  85  88
ENDBRANCH  67  81
BRANCH  68  92
ATOM     92  C   UNL A   1      44.689  41.732  25.305  1.00  0.00     0.023 A 
ATOM     93  C   UNL A   1      43.277  41.671  25.226  1.00  0.00     0.012 A 
ATOM     94  C   UNL A   1      45.380  42.269  24.200  1.00  0.00     0.148 A 
ATOM     95  C   UNL A   1      42.577  42.222  24.150  1.00  0.00     0.002 A 
ATOM     96  C   UNL A   1      44.677  42.871  23.157  1.00  0.00     0.091 A 
ATOM     97  F   UNL A   1      46.717  42.208  24.178  1.00  0.00    -0.205 F 
ATOM     98  C   UNL A   1      43.277  42.850  23.130  1.00  0.00     0.022 A 
BRANCH  96  99
ATOM     99  S   UNL A   1      45.496  43.791  21.847  1.00  0.00     0.127 S 
ATOM    100  O   UNL A   1      44.370  44.188  21.002  1.00  0.00    -0.237 OA
ATOM    101  O   UNL A   1      46.113  44.878  22.604  1.00  0.00    -0.237 OA
ATOM    102  O   UNL A   1      46.428  42.859  21.229  1.00  0.00    -0.744 OA
ENDBRANCH  96  99
ENDBRANCH  68  92
BRANCH  80 103
ATOM    103  C   UNL A   1      45.285  40.263  31.732  1.00  0.00     0.023 A 
ATOM    104  C   UNL A   1      46.685  40.100  31.761  1.00  0.00     0.012 A 
ATOM    105  C   UNL A   1      44.713  41.339  32.419  1.00  0.00     0.148 A 
ATOM    106  C   UNL A   1      47.502  41.005  32.438  1.00  0.00     0.002 A 
ATOM    107  C   UNL A   1      45.540  42.274  33.034  1.00  0.00     0.091 A 
ATOM    108  F   UNL A   1      43.376  41.458  32.464  1.00  0.00    -0.205 F 
ATOM    109  C   UNL A   1      46.930  42.109  33.058  1.00  0.00     0.022 A 
BRANCH 107 110
ATOM    110  S   UNL A   1      44.864  43.824  33.598  1.00  0.00     0.127 S 
ATOM    111  O   UNL A   1      46.050  44.603  33.925  1.00  0.00    -0.237 OA
ATOM    112  O   UNL A   1      44.117  44.307  32.438  1.00  0.00    -0.237 OA
ATOM    113  O   UNL A   1      44.022  43.443  34.729  1.00  0.00    -0.744 OA
ENDBRANCH 107 110
ENDBRANCH  80 103
ENDBRANCH  54  55
ENDBRANCH  47  49
ENDBRANCH  46  47
ENDBRANCH  45  46
ENDBRANCH  44  45
ENDBRANCH  43  44
ENDBRANCH  42  43
ENDBRANCH  41  42
ENDBRANCH  40  41
ENDBRANCH   1  40
TORSDOF 27
ENDMDL
MODEL 3
REMARK VINA RESULT:      -6.8      6.191     12.839
REMARK SMILES O=C(CCNc1cc(N2CCC3(CC2)OCCO3)c2noc3c2c1C(=O)c1ccccc1-3)OCCOCCOCCOCCOC(=O)c1ccc(-c2c3nc(c(-c4cccc(S(=O)(=O)[O-])c4F)c4ccc([nH]4)c(-c4cccc(S(=O)(=O)[O-])c4F)c4nc(c(-c5cccc(S(=O)(=O)[O-])c5F)c5ccc2[nH]5)C=C4)C=C3)cc1
REMARK SMILES IDX 38 1 37 2 36 3 35 4 34 5 33 6 2 7 1 8 3 9 4 10 5 11 6 13
REMARK SMILES IDX 7 14 24 15 8 16 23 17 25 18 19 19 22 20 26 21 27 22 20 23
REMARK SMILES IDX 21 24 32 25 28 26 31 27 29 28 30 29 9 30 10 31 14 32 11 33
REMARK SMILES IDX 13 34 12 35 15 36 18 37 16 38 17 39 39 40 40 41 41 42 42 43
REMARK SMILES IDX 43 44 44 45 45 46 46 47 47 48 48 49 49 50 110 51 50 52
REMARK SMILES IDX 109 53 51 54 52 55 53 56 103 57 54 58 108 59 102 60 104 61
REMARK SMILES IDX 55 62 107 63 101 64 100 65 56 67 88 68 68 69 87 70 69 71
REMARK SMILES IDX 72 72 86 73 105 74 70 75 71 76 85 78 106 79 73 80 57 81
REMARK SMILES IDX 58 82 66 83 59 84 61 85 67 86 60 87 62 88 63 89 64 90 65 91
REMARK SMILES IDX 89 92 90 93 98 94 91 95 93 96 99 97 92 98 94 99 95 100
REMARK SMILES IDX 96 101 97 102 74 103 75 104 83 105 76 106 78 107 84 108
REMARK SMILES IDX 77 109 79 110 80 111 81 112 82 113
REMARK H PARENT 5 12 104 66 72 77
REMARK Flexibility Score: inf
ROOT
ATOM      1  C   UNL A   1      34.787  32.721  31.048  1.00  0.00     0.188 C 
ENDROOT
BRANCH   1   2
ATOM      2  C   UNL A   1      34.383  34.122  30.599  1.00  0.00     0.188 C 
BRANCH   2   3
ATOM      3  O   UNL A   1      34.985  34.507  29.375  1.00  0.00    -0.376 OA
BRANCH   3   4
ATOM      4  C   UNL A   1      34.290  34.387  28.139  1.00  0.00     0.202 C 
BRANCH   4   5
ATOM      5  C   UNL A   1      32.995  33.565  28.007  1.00  0.00     0.261 C 
BRANCH   5   6
ATOM      6  O   UNL A   1      33.075  32.318  27.297  1.00  0.00    -0.463 OA
BRANCH   6   7
ATOM      7  C   UNL A   1      33.737  31.197  27.637  1.00  0.00     0.307 C 
ATOM      8  O   UNL A   1      34.967  31.261  27.753  1.00  0.00    -0.252 OA
BRANCH   7   9
ATOM      9  C   UNL A   1      33.087  29.847  27.508  1.00  0.00     0.144 C 
BRANCH   9  10
ATOM     10  C   UNL A   1      33.881  28.569  27.309  1.00  0.00     0.124 C 
BRANCH  10  11
ATOM     11  N   UNL A   1      33.894  28.016  25.953  1.00  0.00    -0.384 N 
ATOM     12  H   UNL A   1      34.685  28.201  25.397  1.00  0.00     0.160 HD
BRANCH  11  13
ATOM     13  C   UNL A   1      32.877  27.243  25.382  1.00  0.00     0.048 A 
ATOM     14  C   UNL A   1      33.066  25.786  25.433  1.00  0.00     0.054 A 
ATOM     15  C   UNL A   1      31.765  27.770  24.707  1.00  0.00     0.059 A 
ATOM     16  C   UNL A   1      32.180  24.752  24.952  1.00  0.00     0.069 A 
ATOM     17  C   UNL A   1      30.925  26.758  24.277  1.00  0.00     0.065 A 
ATOM     18  C   UNL A   1      31.389  29.177  24.383  1.00  0.00     0.196 C 
ATOM     19  C   UNL A   1      31.036  25.339  24.350  1.00  0.00     0.138 A 
ATOM     20  C   UNL A   1      29.738  27.054  23.696  1.00  0.00     0.176 A 
ATOM     21  O   UNL A   1      32.120  30.144  24.529  1.00  0.00    -0.288 OA
ATOM     22  C   UNL A   1      30.029  29.442  23.829  1.00  0.00     0.034 A 
ATOM     23  N   UNL A   1      29.914  24.815  23.794  1.00  0.00    -0.077 NA
ATOM     24  O   UNL A   1      29.106  25.896  23.396  1.00  0.00    -0.355 OA
ATOM     25  C   UNL A   1      29.192  28.369  23.464  1.00  0.00     0.032 A 
ATOM     26  C   UNL A   1      29.612  30.769  23.685  1.00  0.00     0.013 A 
ATOM     27  C   UNL A   1      27.930  28.644  22.944  1.00  0.00     0.013 A 
ATOM     28  C   UNL A   1      28.351  31.035  23.171  1.00  0.00     0.001 A 
ATOM     29  C   UNL A   1      27.516  29.977  22.799  1.00  0.00     0.001 A 
BRANCH  16  30
ATOM     30  N   UNL A   1      32.513  23.410  25.081  1.00  0.00    -0.369 N 
ATOM     31  C   UNL A   1      31.494  22.411  25.397  1.00  0.00     0.122 C 
ATOM     32  C   UNL A   1      33.885  23.027  25.404  1.00  0.00     0.122 C 
ATOM     33  C   UNL A   1      31.792  21.150  24.581  1.00  0.00     0.087 C 
ATOM     34  C   UNL A   1      34.257  21.759  24.643  1.00  0.00     0.087 C 
ATOM     35  C   UNL A   1      33.223  20.644  24.809  1.00  0.00     0.171 C 
ATOM     36  O   UNL A   1      33.333  20.048  26.118  1.00  0.00    -0.347 OA
ATOM     37  O   UNL A   1      33.521  19.637  23.825  1.00  0.00    -0.347 OA
ATOM     38  C   UNL A   1      33.099  18.653  25.881  1.00  0.00     0.192 C 
ATOM     39  C   UNL A   1      33.731  18.419  24.537  1.00  0.00     0.192 C 
ENDBRANCH  16  30
ENDBRANCH  11  13
ENDBRANCH  10  11
ENDBRANCH   9  10
ENDBRANCH   7   9
ENDBRANCH   6   7
ENDBRANCH   5   6
ENDBRANCH   4   5
ENDBRANCH   3   4
ENDBRANCH   2   3
ENDBRANCH   1   2
BRANCH   1  40
ATOM     40  O   UNL A   1      36.121  32.719  31.556  1.00  0.00    -0.377 OA
BRANCH  40  41
ATOM     41  C   UNL A   1      37.096  32.379  30.580  1.00  0.00     0.188 C 
BRANCH  41  42
ATOM     42  C   UNL A   1      37.478  30.891  30.420  1.00  0.00     0.188 C 
BRANCH  42  43
ATOM     43  O   UNL A   1      38.647  30.359  31.031  1.00  0.00    -0.376 OA
BRANCH  43  44
ATOM     44  C   UNL A   1      39.908  30.642  30.448  1.00  0.00     0.202 C 
BRANCH  44  45
ATOM     45  C   UNL A   1      40.346  29.753  29.276  1.00  0.00     0.261 C 
BRANCH  45  46
ATOM     46  O   UNL A   1      41.698  29.270  29.392  1.00  0.00    -0.460 OA
BRANCH  46  47
ATOM     47  C   UNL A   1      42.054  28.200  28.626  1.00  0.00     0.338 C 
ATOM     48  O   UNL A   1      41.510  27.807  27.619  1.00  0.00    -0.246 OA
BRANCH  47  49
ATOM     49  C   UNL A   1      43.378  27.720  29.109  1.00  0.00     0.060 A 
ATOM     50  C   UNL A   1      44.537  28.468  28.886  1.00  0.00     0.016 A 
ATOM     51  C   UNL A   1      43.477  26.403  29.578  1.00  0.00     0.016 A 
ATOM     52  C   UNL A   1      45.791  27.888  29.109  1.00  0.00     0.010 A 
ATOM     53  C   UNL A   1      44.736  25.814  29.757  1.00  0.00     0.010 A 
ATOM     54  C   UNL A   1      45.912  26.547  29.524  1.00  0.00    -0.014 A 
BRANCH  54  55
ATOM     55  C   UNL A   1      47.257  26.008  29.855  1.00  0.00     0.031 A 
ATOM     56  C   UNL A   1      48.272  25.937  28.752  1.00  0.00     0.074 A 
ATOM     57  C   UNL A   1      47.736  25.947  31.116  1.00  0.00     0.049 A 
ATOM     58  N   UNL A   1      49.150  26.865  28.494  1.00  0.00    -0.248 NA
ATOM     59  C   UNL A   1      48.190  24.895  27.728  1.00  0.00     0.031 C 
ATOM     60  C   UNL A   1      47.643  27.044  32.086  1.00  0.00     0.029 A 
ATOM     61  N   UNL A   1      48.608  25.053  31.696  1.00  0.00    -0.354 N 
ATOM     62  C   UNL A   1      49.719  26.556  27.267  1.00  0.00     0.074 A 
ATOM     63  C   UNL A   1      49.087  25.329  26.831  1.00  0.00     0.031 C 
ATOM     64  C   UNL A   1      48.555  26.835  33.061  1.00  0.00     0.029 A 
ATOM     65  C   UNL A   1      49.172  25.523  32.878  1.00  0.00     0.049 A 
ATOM     66  H   UNL A   1      48.812  24.169  31.312  1.00  0.00     0.167 HD
ATOM     67  C   UNL A   1      50.687  27.290  26.653  1.00  0.00     0.034 A 
ATOM     68  C   UNL A   1      50.368  25.124  33.396  1.00  0.00     0.034 A 
ATOM     69  C   UNL A   1      51.191  28.416  27.381  1.00  0.00     0.049 A 
ATOM     70  C   UNL A   1      51.332  25.802  32.451  1.00  0.00     0.074 A 
ATOM     71  C   UNL A   1      50.950  29.771  27.455  1.00  0.00     0.029 A 
ATOM     72  N   UNL A   1      52.168  28.191  28.320  1.00  0.00    -0.354 N 
ATOM     73  N   UNL A   1      51.744  27.038  32.504  1.00  0.00    -0.248 NA
ATOM     74  C   UNL A   1      51.563  25.128  31.170  1.00  0.00     0.031 C 
ATOM     75  C   UNL A   1      51.456  30.189  28.728  1.00  0.00     0.029 A 
ATOM     76  C   UNL A   1      51.943  29.051  29.366  1.00  0.00     0.049 A 
ATOM     77  H   UNL A   1      52.897  27.531  28.256  1.00  0.00     0.167 HD
ATOM     78  C   UNL A   1      51.995  27.386  31.175  1.00  0.00     0.074 A 
ATOM     79  C   UNL A   1      51.846  26.170  30.405  1.00  0.00     0.031 C 
ATOM     80  C   UNL A   1      52.163  28.667  30.741  1.00  0.00     0.034 A 
BRANCH  67  81
ATOM     81  C   UNL A   1      51.369  26.847  25.412  1.00  0.00     0.023 A 
ATOM     82  C   UNL A   1      52.534  26.070  25.558  1.00  0.00     0.012 A 
ATOM     83  C   UNL A   1      50.987  27.291  24.134  1.00  0.00     0.148 A 
ATOM     84  C   UNL A   1      53.331  25.766  24.458  1.00  0.00     0.002 A 
ATOM     85  C   UNL A   1      51.783  26.977  23.035  1.00  0.00     0.091 A 
ATOM     86  F   UNL A   1      49.877  28.033  24.016  1.00  0.00    -0.205 F 
ATOM     87  C   UNL A   1      52.960  26.225  23.198  1.00  0.00     0.022 A 
BRANCH  85  88
ATOM     88  S   UNL A   1      51.395  27.506  21.361  1.00  0.00     0.127 S 
ATOM     89  O   UNL A   1      52.519  26.965  20.600  1.00  0.00    -0.237 OA
ATOM     90  O   UNL A   1      50.116  26.835  21.121  1.00  0.00    -0.237 OA
ATOM     91  O   UNL A   1      51.311  28.961  21.403  1.00  0.00    -0.744 OA
ENDBRANCH  85  88
ENDBRANCH  67  81
BRANCH  68  92
ATOM     92  C   UNL A   1      50.505  23.659  33.718  1.00  0.00     0.023 A 
ATOM     93  C   UNL A   1      49.344  22.961  34.131  1.00  0.00     0.012 A 
ATOM     94  C   UNL A   1      51.711  22.932  33.650  1.00  0.00     0.148 A 
ATOM     95  C   UNL A   1      49.356  21.582  34.353  1.00  0.00     0.002 A 
ATOM     96  C   UNL A   1      51.707  21.548  33.814  1.00  0.00     0.091 A 
ATOM     97  F   UNL A   1      52.851  23.589  33.406  1.00  0.00    -0.205 F 
ATOM     98  C   UNL A   1      50.532  20.871  34.164  1.00  0.00     0.022 A 
BRANCH  96  99
ATOM     99  S   UNL A   1      53.157  20.535  33.493  1.00  0.00     0.127 S 
ATOM    100  O   UNL A   1      54.134  21.095  34.425  1.00  0.00    -0.237 OA
ATOM    101  O   UNL A   1      52.660  19.206  33.844  1.00  0.00    -0.237 OA
ATOM    102  O   UNL A   1      53.472  20.726  32.085  1.00  0.00    -0.744 OA
ENDBRANCH  96  99
ENDBRANCH  68  92
BRANCH  80 103
ATOM    103  C   UNL A   1      52.434  29.691  31.790  1.00  0.00     0.023 A 
ATOM    104  C   UNL A   1      51.334  30.362  32.363  1.00  0.00     0.012 A 
ATOM    105  C   UNL A   1      53.714  29.928  32.301  1.00  0.00     0.148 A 
ATOM    106  C   UNL A   1      51.501  31.232  33.439  1.00  0.00     0.002 A 
ATOM    107  C   UNL A   1      53.862  30.744  33.419  1.00  0.00     0.091 A 
ATOM    108  F   UNL A   1      54.777  29.355  31.712  1.00  0.00    -0.205 F 
ATOM    109  C   UNL A   1      52.767  31.406  33.985  1.00  0.00     0.022 A 
BRANCH 107 110
ATOM    110  S   UNL A   1      55.413  30.773  34.297  1.00  0.00     0.127 S 
ATOM    111  O   UNL A   1      55.643  29.370  34.611  1.00  0.00    -0.237 OA
ATOM    112  O   UNL A   1      56.342  31.341  33.322  1.00  0.00    -0.237 OA
ATOM    113  O   UNL A   1      55.148  31.643  35.440  1.00  0.00    -0.744 OA
ENDBRANCH 107 110
ENDBRANCH  80 103
ENDBRANCH  54  55
ENDBRANCH  47  49
ENDBRANCH  46  47
ENDBRANCH  45  46
ENDBRANCH  44  45
ENDBRANCH  43  44
ENDBRANCH  42  43
ENDBRANCH  41  42
ENDBRANCH  40  41
ENDBRANCH   1  40
TORSDOF 27
ENDMDL
