MODEL 1
REMARK VINA RESULT:      -9.9      0.000      0.000
REMARK SMILES Cc1coc2c(C)c3oc(=O)c(CCC(=O)N[C@H](CC(C)C)C(=O)OCCOCCOCCOCCOC(=O)c4ccc(-c5c6nc(c(-c7cccc(S(=O)(=O)[O-])c7F)c7ccc([nH]7)c(-c7cccc(S(=O)(=O)[O-])c7F)c7nc(c(-c8cccc(S(=O)(=O)[O-])c8F)c8ccc5[nH]8)C=C7)C=C6)cc4)c(C)c3cc12
REMARK SMILES IDX 30 1 29 2 28 3 27 4 26 5 25 6 23 7 24 8 18 9 17 10 15 11
REMARK SMILES IDX 16 12 14 14 13 15 12 16 1 17 2 18 3 19 107 20 4 21 5 22
REMARK SMILES IDX 106 23 6 24 105 25 7 26 8 27 103 28 9 29 104 30 10 31 11 32
REMARK SMILES IDX 19 33 20 34 21 35 22 36 31 37 32 38 33 39 34 40 35 41 36 42
REMARK SMILES IDX 37 43 38 44 39 45 40 46 41 47 102 48 42 49 101 50 43 51
REMARK SMILES IDX 44 52 45 53 95 54 46 55 100 56 94 57 96 58 47 59 99 60 93 61
REMARK SMILES IDX 92 62 48 64 80 65 60 66 79 67 61 68 64 69 78 70 97 71 62 72
REMARK SMILES IDX 63 73 77 75 98 76 65 77 49 78 50 79 58 80 51 81 53 82 59 83
REMARK SMILES IDX 52 84 54 85 55 86 56 87 57 88 81 89 82 90 90 91 83 92 85 93
REMARK SMILES IDX 91 94 84 95 86 96 87 97 88 98 89 99 66 100 67 101 75 102
REMARK SMILES IDX 68 103 70 104 76 105 69 106 71 107 72 108 73 109 74 110
REMARK H PARENT 17 13 96 63 64 74
REMARK Flexibility Score: inf
ROOT
ATOM      1  C   UNL A   1      31.903  27.941  24.186  1.00  0.00     0.188 C 
ENDROOT
BRANCH   1   2
ATOM      2  C   UNL A   1      31.587  27.372  22.799  1.00  0.00     0.188 C 
BRANCH   2   3
ATOM      3  O   UNL A   1      32.636  26.839  22.005  1.00  0.00    -0.376 OA
BRANCH   3   4
ATOM      4  C   UNL A   1      33.230  25.608  22.404  1.00  0.00     0.202 C 
BRANCH   4   5
ATOM      5  C   UNL A   1      32.785  24.315  21.688  1.00  0.00     0.261 C 
BRANCH   5   6
ATOM      6  O   UNL A   1      33.296  23.074  22.249  1.00  0.00    -0.462 OA
BRANCH   6   7
ATOM      7  C   UNL A   1      32.398  22.252  22.838  1.00  0.00     0.328 C 
ATOM      8  O   UNL A   1      31.796  21.373  22.217  1.00  0.00    -0.250 OA
BRANCH   7   9
ATOM      9  C   UNL A   1      32.144  22.437  24.379  1.00  0.00     0.192 C 
BRANCH   9  10
ATOM     10  N   UNL A   1      31.988  21.031  24.823  1.00  0.00    -0.343 N 
ATOM     11  C   UNL A   1      32.845  20.072  25.237  1.00  0.00     0.221 C 
ATOM     12  O   UNL A   1      32.427  18.911  25.263  1.00  0.00    -0.275 OA
ATOM     13  H   UNL A   1      31.051  20.729  24.813  1.00  0.00     0.164 HD
BRANCH  11  14
ATOM     14  C   UNL A   1      34.248  20.387  25.684  1.00  0.00     0.105 C 
BRANCH  14  15
ATOM     15  C   UNL A   1      35.235  21.001  24.667  1.00  0.00     0.053 C 
BRANCH  15  16
ATOM     16  C   UNL A   1      36.590  21.520  25.131  1.00  0.00     0.042 A 
ATOM     17  C   UNL A   1      39.340  27.160  28.149  1.00  0.00     0.048 C 
ATOM     18  C   UNL A   1      40.028  25.854  28.020  1.00  0.00    -0.005 A 
ATOM     19  C   UNL A   1      41.258  25.475  28.514  1.00  0.00     0.199 A 
ATOM     20  C   UNL A   1      39.518  24.706  27.354  1.00  0.00     0.024 A 
ATOM     21  O   UNL A   1      41.521  24.174  28.218  1.00  0.00    -0.464 OA
ATOM     22  C   UNL A   1      40.452  23.695  27.515  1.00  0.00     0.140 A 
ATOM     23  C   UNL A   1      38.331  24.427  26.661  1.00  0.00     0.024 A 
ATOM     24  C   UNL A   1      40.294  22.386  27.045  1.00  0.00     0.036 A 
ATOM     25  C   UNL A   1      38.118  23.156  26.113  1.00  0.00     0.022 A 
ATOM     26  C   UNL A   1      41.299  21.316  27.334  1.00  0.00     0.052 C 
ATOM     27  C   UNL A   1      39.101  22.179  26.308  1.00  0.00     0.145 A 
ATOM     28  C   UNL A   1      36.842  22.807  25.455  1.00  0.00    -0.030 A 
ATOM     29  O   UNL A   1      38.897  20.898  25.753  1.00  0.00    -0.422 OA
ATOM     30  C   UNL A   1      35.844  23.921  25.263  1.00  0.00     0.046 C 
ATOM     31  C   UNL A   1      37.714  20.532  25.122  1.00  0.00     0.339 A 
ATOM     32  O   UNL A   1      37.605  19.433  24.593  1.00  0.00    -0.246 OA
ENDBRANCH  15  16
ENDBRANCH  14  15
ENDBRANCH  11  14
ENDBRANCH   9  10
BRANCH   9  33
ATOM     33  C   UNL A   1      31.085  23.393  24.997  1.00  0.00     0.040 C 
BRANCH  33  34
ATOM     34  C   UNL A   1      31.486  23.968  26.412  1.00  0.00    -0.015 C 
ATOM     35  C   UNL A   1      32.329  23.080  27.322  1.00  0.00     0.007 C 
ATOM     36  C   UNL A   1      32.185  25.324  26.308  1.00  0.00     0.007 C 
ENDBRANCH  33  34
ENDBRANCH   9  33
ENDBRANCH   7   9
ENDBRANCH   6   7
ENDBRANCH   5   6
ENDBRANCH   4   5
ENDBRANCH   3   4
ENDBRANCH   2   3
ENDBRANCH   1   2
BRANCH   1  37
ATOM     37  O   UNL A   1      32.156  29.327  24.253  1.00  0.00    -0.377 OA
BRANCH  37  38
ATOM     38  C   UNL A   1      32.760  29.794  25.446  1.00  0.00     0.188 C 
BRANCH  38  39
ATOM     39  C   UNL A   1      33.767  28.841  26.127  1.00  0.00     0.188 C 
BRANCH  39  40
ATOM     40  O   UNL A   1      34.333  29.328  27.336  1.00  0.00    -0.376 OA
BRANCH  40  41
ATOM     41  C   UNL A   1      34.952  30.593  27.491  1.00  0.00     0.202 C 
BRANCH  41  42
ATOM     42  C   UNL A   1      35.658  31.068  28.766  1.00  0.00     0.261 C 
BRANCH  42  43
ATOM     43  O   UNL A   1      35.826  32.458  28.905  1.00  0.00    -0.460 OA
BRANCH  43  44
ATOM     44  C   UNL A   1      34.914  33.004  29.721  1.00  0.00     0.338 C 
ATOM     45  O   UNL A   1      33.760  33.327  29.421  1.00  0.00    -0.246 OA
BRANCH  44  46
ATOM     46  C   UNL A   1      35.497  33.234  31.034  1.00  0.00     0.060 A 
ATOM     47  C   UNL A   1      36.505  34.194  31.089  1.00  0.00     0.016 A 
ATOM     48  C   UNL A   1      35.287  32.285  32.048  1.00  0.00     0.016 A 
ATOM     49  C   UNL A   1      37.494  34.011  32.016  1.00  0.00     0.010 A 
ATOM     50  C   UNL A   1      36.278  32.109  32.980  1.00  0.00     0.010 A 
ATOM     51  C   UNL A   1      37.416  32.900  32.866  1.00  0.00    -0.014 A 
BRANCH  51  52
ATOM     52  C   UNL A   1      38.591  32.604  33.642  1.00  0.00     0.031 A 
ATOM     53  C   UNL A   1      38.567  33.253  34.962  1.00  0.00     0.074 A 
ATOM     54  C   UNL A   1      39.595  31.845  33.171  1.00  0.00     0.049 A 
ATOM     55  N   UNL A   1      39.202  34.322  35.306  1.00  0.00    -0.248 NA
ATOM     56  C   UNL A   1      37.549  32.808  35.917  1.00  0.00     0.031 C 
ATOM     57  C   UNL A   1      39.609  30.968  31.997  1.00  0.00     0.029 A 
ATOM     58  N   UNL A   1      40.805  31.617  33.742  1.00  0.00    -0.354 N 
ATOM     59  C   UNL A   1      38.842  34.539  36.629  1.00  0.00     0.074 A 
ATOM     60  C   UNL A   1      37.669  33.742  36.861  1.00  0.00     0.031 C 
ATOM     61  C   UNL A   1      40.660  30.119  32.099  1.00  0.00     0.029 A 
ATOM     62  C   UNL A   1      41.459  30.497  33.253  1.00  0.00     0.049 A 
ATOM     63  H   UNL A   1      41.184  32.197  34.442  1.00  0.00     0.167 HD
ATOM     64  C   UNL A   1      39.712  35.131  37.491  1.00  0.00     0.034 A 
ATOM     65  C   UNL A   1      42.520  29.891  33.839  1.00  0.00     0.034 A 
ATOM     66  C   UNL A   1      40.778  35.795  36.780  1.00  0.00     0.049 A 
ATOM     67  C   UNL A   1      43.158  30.896  34.725  1.00  0.00     0.074 A 
ATOM     68  C   UNL A   1      40.858  36.827  35.867  1.00  0.00     0.029 A 
ATOM     69  N   UNL A   1      41.977  35.127  36.710  1.00  0.00    -0.354 N 
ATOM     70  N   UNL A   1      43.761  31.965  34.283  1.00  0.00    -0.248 NA
ATOM     71  C   UNL A   1      42.753  30.938  36.120  1.00  0.00     0.031 C 
ATOM     72  C   UNL A   1      41.924  36.468  34.991  1.00  0.00     0.029 A 
ATOM     73  C   UNL A   1      42.468  35.262  35.440  1.00  0.00     0.049 A 
ATOM     74  H   UNL A   1      42.408  34.635  37.445  1.00  0.00     0.167 HD
ATOM     75  C   UNL A   1      43.400  32.961  35.182  1.00  0.00     0.074 A 
ATOM     76  C   UNL A   1      42.883  32.249  36.349  1.00  0.00     0.031 C 
ATOM     77  C   UNL A   1      43.280  34.260  34.779  1.00  0.00     0.034 A 
BRANCH  64  78
ATOM     78  C   UNL A   1      39.854  34.764  38.953  1.00  0.00     0.023 A 
ATOM     79  C   UNL A   1      39.614  35.798  39.886  1.00  0.00     0.012 A 
ATOM     80  C   UNL A   1      40.472  33.593  39.447  1.00  0.00     0.148 A 
ATOM     81  C   UNL A   1      40.050  35.708  41.211  1.00  0.00     0.002 A 
ATOM     82  C   UNL A   1      40.834  33.476  40.782  1.00  0.00     0.091 A 
ATOM     83  F   UNL A   1      40.839  32.616  38.617  1.00  0.00    -0.205 F 
ATOM     84  C   UNL A   1      40.662  34.546  41.660  1.00  0.00     0.022 A 
BRANCH  82  85
ATOM     85  S   UNL A   1      41.586  31.975  41.426  1.00  0.00     0.127 S 
ATOM     86  O   UNL A   1      42.205  32.463  42.654  1.00  0.00    -0.237 OA
ATOM     87  O   UNL A   1      40.416  31.117  41.617  1.00  0.00    -0.237 OA
ATOM     88  O   UNL A   1      42.499  31.512  40.388  1.00  0.00    -0.744 OA
ENDBRANCH  82  85
ENDBRANCH  64  78
BRANCH  65  89
ATOM     89  C   UNL A   1      42.822  28.445  33.961  1.00  0.00     0.023 A 
ATOM     90  C   UNL A   1      43.917  27.910  33.252  1.00  0.00     0.012 A 
ATOM     91  C   UNL A   1      42.254  27.668  34.995  1.00  0.00     0.148 A 
ATOM     92  C   UNL A   1      44.459  26.665  33.593  1.00  0.00     0.002 A 
ATOM     93  C   UNL A   1      42.797  26.431  35.331  1.00  0.00     0.091 A 
ATOM     94  F   UNL A   1      41.246  28.182  35.712  1.00  0.00    -0.205 F 
ATOM     95  C   UNL A   1      43.908  25.932  34.640  1.00  0.00     0.022 A 
BRANCH  93  96
ATOM     96  S   UNL A   1      42.173  25.449  36.703  1.00  0.00     0.127 S 
ATOM     97  O   UNL A   1      42.564  26.260  37.855  1.00  0.00    -0.237 OA
ATOM     98  O   UNL A   1      40.739  25.426  36.427  1.00  0.00    -0.237 OA
ATOM     99  O   UNL A   1      42.852  24.163  36.615  1.00  0.00    -0.744 OA
ENDBRANCH  93  96
ENDBRANCH  65  89
BRANCH  77 100
ATOM    100  C   UNL A   1      43.803  34.634  33.414  1.00  0.00     0.023 A 
ATOM    101  C   UNL A   1      45.127  35.074  33.208  1.00  0.00     0.012 A 
ATOM    102  C   UNL A   1      43.004  34.342  32.295  1.00  0.00     0.148 A 
ATOM    103  C   UNL A   1      45.638  35.230  31.916  1.00  0.00     0.002 A 
ATOM    104  C   UNL A   1      43.532  34.445  31.015  1.00  0.00     0.091 A 
ATOM    105  F   UNL A   1      41.746  33.923  32.509  1.00  0.00    -0.205 F 
ATOM    106  C   UNL A   1      44.845  34.899  30.819  1.00  0.00     0.022 A 
BRANCH 104 107
ATOM    107  S   UNL A   1      42.614  33.893  29.574  1.00  0.00     0.127 S 
ATOM    108  O   UNL A   1      41.551  34.891  29.488  1.00  0.00    -0.237 OA
ATOM    109  O   UNL A   1      43.620  33.976  28.513  1.00  0.00    -0.237 OA
ATOM    110  O   UNL A   1      42.176  32.535  29.872  1.00  0.00    -0.744 OA
ENDBRANCH 104 107
ENDBRANCH  77 100
ENDBRANCH  51  52
ENDBRANCH  44  46
ENDBRANCH  43  44
ENDBRANCH  42  43
ENDBRANCH  41  42
ENDBRANCH  40  41
ENDBRANCH  39  40
ENDBRANCH  38  39
ENDBRANCH  37  38
ENDBRANCH   1  37
TORSDOF 29
ENDMDL
MODEL 2
REMARK VINA RESULT:      -9.3      1.705      2.047
REMARK SMILES Cc1coc2c(C)c3oc(=O)c(CCC(=O)N[C@H](CC(C)C)C(=O)OCCOCCOCCOCCOC(=O)c4ccc(-c5c6nc(c(-c7cccc(S(=O)(=O)[O-])c7F)c7ccc([nH]7)c(-c7cccc(S(=O)(=O)[O-])c7F)c7nc(c(-c8cccc(S(=O)(=O)[O-])c8F)c8ccc5[nH]8)C=C7)C=C6)cc4)c(C)c3cc12
REMARK SMILES IDX 30 1 29 2 28 3 27 4 26 5 25 6 23 7 24 8 18 9 17 10 15 11
REMARK SMILES IDX 16 12 14 14 13 15 12 16 1 17 2 18 3 19 107 20 4 21 5 22
REMARK SMILES IDX 106 23 6 24 105 25 7 26 8 27 103 28 9 29 104 30 10 31 11 32
REMARK SMILES IDX 19 33 20 34 21 35 22 36 31 37 32 38 33 39 34 40 35 41 36 42
REMARK SMILES IDX 37 43 38 44 39 45 40 46 41 47 102 48 42 49 101 50 43 51
REMARK SMILES IDX 44 52 45 53 95 54 46 55 100 56 94 57 96 58 47 59 99 60 93 61
REMARK SMILES IDX 92 62 48 64 80 65 60 66 79 67 61 68 64 69 78 70 97 71 62 72
REMARK SMILES IDX 63 73 77 75 98 76 65 77 49 78 50 79 58 80 51 81 53 82 59 83
REMARK SMILES IDX 52 84 54 85 55 86 56 87 57 88 81 89 82 90 90 91 83 92 85 93
REMARK SMILES IDX 91 94 84 95 86 96 87 97 88 98 89 99 66 100 67 101 75 102
REMARK SMILES IDX 68 103 70 104 76 105 69 106 71 107 72 108 73 109 74 110
REMARK H PARENT 17 13 96 63 64 74
REMARK Flexibility Score: inf
ROOT
ATOM      1  C   UNL A   1      31.909  27.948  24.196  1.00  0.00     0.188 C 
ENDROOT
BRANCH   1   2
ATOM      2  C   UNL A   1      31.540  27.505  22.777  1.00  0.00     0.188 C 
BRANCH   2   3
ATOM      3  O   UNL A   1      32.532  26.925  21.944  1.00  0.00    -0.376 OA
BRANCH   3   4
ATOM      4  C   UNL A   1      33.232  25.780  22.418  1.00  0.00     0.202 C 
BRANCH   4   5
ATOM      5  C   UNL A   1      32.925  24.414  21.770  1.00  0.00     0.261 C 
BRANCH   5   6
ATOM      6  O   UNL A   1      33.423  23.248  22.485  1.00  0.00    -0.462 OA
BRANCH   6   7
ATOM      7  C   UNL A   1      32.503  22.374  22.948  1.00  0.00     0.328 C 
ATOM      8  O   UNL A   1      32.031  21.473  22.249  1.00  0.00    -0.250 OA
BRANCH   7   9
ATOM      9  C   UNL A   1      32.044  22.524  24.445  1.00  0.00     0.192 C 
BRANCH   9  10
ATOM     10  N   UNL A   1      32.077  21.116  24.907  1.00  0.00    -0.343 N 
ATOM     11  C   UNL A   1      33.048  20.295  25.366  1.00  0.00     0.221 C 
ATOM     12  O   UNL A   1      32.800  19.087  25.396  1.00  0.00    -0.275 OA
ATOM     13  H   UNL A   1      31.194  20.682  24.871  1.00  0.00     0.164 HD
BRANCH  11  14
ATOM     14  C   UNL A   1      34.374  20.815  25.855  1.00  0.00     0.105 C 
BRANCH  14  15
ATOM     15  C   UNL A   1      35.515  21.021  24.836  1.00  0.00     0.053 C 
BRANCH  15  16
ATOM     16  C   UNL A   1      36.845  21.616  25.283  1.00  0.00     0.042 A 
ATOM     17  C   UNL A   1      39.317  27.439  28.191  1.00  0.00     0.048 C 
ATOM     18  C   UNL A   1      40.071  26.168  28.080  1.00  0.00    -0.005 A 
ATOM     19  C   UNL A   1      41.321  25.861  28.574  1.00  0.00     0.199 A 
ATOM     20  C   UNL A   1      39.617  24.984  27.437  1.00  0.00     0.024 A 
ATOM     21  O   UNL A   1      41.648  24.570  28.298  1.00  0.00    -0.464 OA
ATOM     22  C   UNL A   1      40.602  24.025  27.609  1.00  0.00     0.140 A 
ATOM     23  C   UNL A   1      38.442  24.634  26.755  1.00  0.00     0.024 A 
ATOM     24  C   UNL A   1      40.508  22.702  27.162  1.00  0.00     0.036 A 
ATOM     25  C   UNL A   1      38.291  23.344  26.229  1.00  0.00     0.022 A 
ATOM     26  C   UNL A   1      41.567  21.689  27.463  1.00  0.00     0.052 C 
ATOM     27  C   UNL A   1      39.324  22.423  26.435  1.00  0.00     0.145 A 
ATOM     28  C   UNL A   1      37.032  22.919  25.584  1.00  0.00    -0.030 A 
ATOM     29  O   UNL A   1      39.183  21.123  25.903  1.00  0.00    -0.422 OA
ATOM     30  C   UNL A   1      35.978  23.979  25.379  1.00  0.00     0.046 C 
ATOM     31  C   UNL A   1      38.017  20.687  25.285  1.00  0.00     0.339 A 
ATOM     32  O   UNL A   1      37.962  19.574  24.775  1.00  0.00    -0.246 OA
ENDBRANCH  15  16
ENDBRANCH  14  15
ENDBRANCH  11  14
ENDBRANCH   9  10
BRANCH   9  33
ATOM     33  C   UNL A   1      30.775  23.291  24.914  1.00  0.00     0.040 C 
BRANCH  33  34
ATOM     34  C   UNL A   1      31.044  24.335  26.068  1.00  0.00    -0.015 C 
ATOM     35  C   UNL A   1      32.439  24.947  26.156  1.00  0.00     0.007 C 
ATOM     36  C   UNL A   1      30.033  25.482  26.057  1.00  0.00     0.007 C 
ENDBRANCH  33  34
ENDBRANCH   9  33
ENDBRANCH   7   9
ENDBRANCH   6   7
ENDBRANCH   5   6
ENDBRANCH   4   5
ENDBRANCH   3   4
ENDBRANCH   2   3
ENDBRANCH   1   2
BRANCH   1  37
ATOM     37  O   UNL A   1      32.268  29.301  24.357  1.00  0.00    -0.377 OA
BRANCH  37  38
ATOM     38  C   UNL A   1      32.982  29.621  25.538  1.00  0.00     0.188 C 
BRANCH  38  39
ATOM     39  C   UNL A   1      33.980  28.559  26.049  1.00  0.00     0.188 C 
BRANCH  39  40
ATOM     40  O   UNL A   1      34.597  28.862  27.293  1.00  0.00    -0.376 OA
BRANCH  40  41
ATOM     41  C   UNL A   1      35.417  29.991  27.539  1.00  0.00     0.202 C 
BRANCH  41  42
ATOM     42  C   UNL A   1      36.021  30.350  28.901  1.00  0.00     0.261 C 
BRANCH  42  43
ATOM     43  O   UNL A   1      36.277  31.715  29.130  1.00  0.00    -0.460 OA
BRANCH  43  44
ATOM     44  C   UNL A   1      35.364  32.279  29.931  1.00  0.00     0.338 C 
ATOM     45  O   UNL A   1      34.187  32.524  29.644  1.00  0.00    -0.246 OA
BRANCH  44  46
ATOM     46  C   UNL A   1      35.971  32.636  31.204  1.00  0.00     0.060 A 
ATOM     47  C   UNL A   1      37.069  33.490  31.131  1.00  0.00     0.016 A 
ATOM     48  C   UNL A   1      35.672  31.868  32.341  1.00  0.00     0.016 A 
ATOM     49  C   UNL A   1      38.039  33.345  32.085  1.00  0.00     0.010 A 
ATOM     50  C   UNL A   1      36.645  31.730  33.298  1.00  0.00     0.010 A 
ATOM     51  C   UNL A   1      37.854  32.381  33.084  1.00  0.00    -0.014 A 
BRANCH  51  52
ATOM     52  C   UNL A   1      38.998  32.085  33.907  1.00  0.00     0.031 A 
ATOM     53  C   UNL A   1      39.068  32.946  35.097  1.00  0.00     0.074 A 
ATOM     54  C   UNL A   1      39.899  31.144  33.578  1.00  0.00     0.049 A 
ATOM     55  N   UNL A   1      39.828  33.976  35.259  1.00  0.00    -0.248 NA
ATOM     56  C   UNL A   1      38.017  32.792  36.107  1.00  0.00     0.031 C 
ATOM     57  C   UNL A   1      39.795  30.086  32.571  1.00  0.00     0.029 A 
ATOM     58  N   UNL A   1      41.082  30.876  34.187  1.00  0.00    -0.354 N 
ATOM     59  C   UNL A   1      39.514  34.455  36.523  1.00  0.00     0.074 A 
ATOM     60  C   UNL A   1      38.258  33.852  36.880  1.00  0.00     0.031 C 
ATOM     61  C   UNL A   1      40.741  29.149  32.822  1.00  0.00     0.029 A 
ATOM     62  C   UNL A   1      41.594  29.620  33.900  1.00  0.00     0.049 A 
ATOM     63  H   UNL A   1      41.536  31.518  34.781  1.00  0.00     0.167 HD
ATOM     64  C   UNL A   1      40.459  35.078  37.278  1.00  0.00     0.034 A 
ATOM     65  C   UNL A   1      42.585  29.001  34.587  1.00  0.00     0.034 A 
ATOM     66  C   UNL A   1      41.585  35.482  36.471  1.00  0.00     0.049 A 
ATOM     67  C   UNL A   1      43.349  30.060  35.294  1.00  0.00     0.074 A 
ATOM     68  C   UNL A   1      41.773  36.328  35.396  1.00  0.00     0.029 A 
ATOM     69  N   UNL A   1      42.697  34.676  36.523  1.00  0.00    -0.354 N 
ATOM     70  N   UNL A   1      44.066  30.961  34.680  1.00  0.00    -0.248 NA
ATOM     71  C   UNL A   1      42.970  30.386  36.659  1.00  0.00     0.031 C 
ATOM     72  C   UNL A   1      42.777  35.702  34.601  1.00  0.00     0.029 A 
ATOM     73  C   UNL A   1      43.183  34.535  35.252  1.00  0.00     0.049 A 
ATOM     74  H   UNL A   1      43.077  34.269  37.333  1.00  0.00     0.167 HD
ATOM     75  C   UNL A   1      43.836  32.130  35.394  1.00  0.00     0.074 A 
ATOM     76  C   UNL A   1      43.256  31.692  36.662  1.00  0.00     0.031 C 
ATOM     77  C   UNL A   1      43.863  33.347  34.776  1.00  0.00     0.034 A 
BRANCH  64  78
ATOM     78  C   UNL A   1      40.576  34.951  38.781  1.00  0.00     0.023 A 
ATOM     79  C   UNL A   1      40.414  36.140  39.528  1.00  0.00     0.012 A 
ATOM     80  C   UNL A   1      41.109  33.836  39.469  1.00  0.00     0.148 A 
ATOM     81  C   UNL A   1      40.846  36.240  40.853  1.00  0.00     0.002 A 
ATOM     82  C   UNL A   1      41.465  33.918  40.809  1.00  0.00     0.091 A 
ATOM     83  F   UNL A   1      41.403  32.711  38.816  1.00  0.00    -0.205 F 
ATOM     84  C   UNL A   1      41.373  35.129  41.495  1.00  0.00     0.022 A 
BRANCH  82  85
ATOM     85  S   UNL A   1      42.107  32.495  41.701  1.00  0.00     0.127 S 
ATOM     86  O   UNL A   1      41.098  31.484  41.402  1.00  0.00    -0.237 OA
ATOM     87  O   UNL A   1      43.401  32.295  41.047  1.00  0.00    -0.237 OA
ATOM     88  O   UNL A   1      42.204  32.912  43.095  1.00  0.00    -0.744 OA
ENDBRANCH  82  85
ENDBRANCH  64  78
BRANCH  65  89
ATOM     89  C   UNL A   1      42.718  27.572  34.955  1.00  0.00     0.023 A 
ATOM     90  C   UNL A   1      41.776  26.999  35.834  1.00  0.00     0.012 A 
ATOM     91  C   UNL A   1      43.554  26.706  34.215  1.00  0.00     0.148 A 
ATOM     92  C   UNL A   1      41.638  25.610  35.937  1.00  0.00     0.002 A 
ATOM     93  C   UNL A   1      43.411  25.325  34.321  1.00  0.00     0.091 A 
ATOM     94  F   UNL A   1      44.419  27.232  33.339  1.00  0.00    -0.205 F 
ATOM     95  C   UNL A   1      42.444  24.774  35.171  1.00  0.00     0.022 A 
BRANCH  93  96
ATOM     96  S   UNL A   1      44.381  24.181  33.328  1.00  0.00     0.127 S 
ATOM     97  O   UNL A   1      44.305  24.794  32.003  1.00  0.00    -0.237 OA
ATOM     98  O   UNL A   1      45.691  24.265  33.968  1.00  0.00    -0.237 OA
ATOM     99  O   UNL A   1      43.710  22.892  33.434  1.00  0.00    -0.744 OA
ENDBRANCH  93  96
ENDBRANCH  65  89
BRANCH  77 100
ATOM    100  C   UNL A   1      44.408  33.420  33.370  1.00  0.00     0.023 A 
ATOM    101  C   UNL A   1      43.599  33.206  32.235  1.00  0.00     0.012 A 
ATOM    102  C   UNL A   1      45.711  33.914  33.190  1.00  0.00     0.148 A 
ATOM    103  C   UNL A   1      44.083  33.466  30.950  1.00  0.00     0.002 A 
ATOM    104  C   UNL A   1      46.170  34.223  31.917  1.00  0.00     0.091 A 
ATOM    105  F   UNL A   1      46.468  34.113  34.282  1.00  0.00    -0.205 F 
ATOM    106  C   UNL A   1      45.364  33.992  30.792  1.00  0.00     0.022 A 
BRANCH 104 107
ATOM    107  S   UNL A   1      47.748  35.039  31.661  1.00  0.00     0.127 S 
ATOM    108  O   UNL A   1      48.694  34.032  32.136  1.00  0.00    -0.237 OA
ATOM    109  O   UNL A   1      47.758  35.253  30.212  1.00  0.00    -0.237 OA
ATOM    110  O   UNL A   1      47.697  36.269  32.442  1.00  0.00    -0.744 OA
ENDBRANCH 104 107
ENDBRANCH  77 100
ENDBRANCH  51  52
ENDBRANCH  44  46
ENDBRANCH  43  44
ENDBRANCH  42  43
ENDBRANCH  41  42
ENDBRANCH  40  41
ENDBRANCH  39  40
ENDBRANCH  38  39
ENDBRANCH  37  38
ENDBRANCH   1  37
TORSDOF 29
ENDMDL
MODEL 3
REMARK VINA RESULT:      -9.2      3.417      7.332
REMARK SMILES Cc1coc2c(C)c3oc(=O)c(CCC(=O)N[C@H](CC(C)C)C(=O)OCCOCCOCCOCCOC(=O)c4ccc(-c5c6nc(c(-c7cccc(S(=O)(=O)[O-])c7F)c7ccc([nH]7)c(-c7cccc(S(=O)(=O)[O-])c7F)c7nc(c(-c8cccc(S(=O)(=O)[O-])c8F)c8ccc5[nH]8)C=C7)C=C6)cc4)c(C)c3cc12
REMARK SMILES IDX 30 1 29 2 28 3 27 4 26 5 25 6 23 7 24 8 18 9 17 10 15 11
REMARK SMILES IDX 16 12 14 14 13 15 12 16 1 17 2 18 3 19 107 20 4 21 5 22
REMARK SMILES IDX 106 23 6 24 105 25 7 26 8 27 103 28 9 29 104 30 10 31 11 32
REMARK SMILES IDX 19 33 20 34 21 35 22 36 31 37 32 38 33 39 34 40 35 41 36 42
REMARK SMILES IDX 37 43 38 44 39 45 40 46 41 47 102 48 42 49 101 50 43 51
REMARK SMILES IDX 44 52 45 53 95 54 46 55 100 56 94 57 96 58 47 59 99 60 93 61
REMARK SMILES IDX 92 62 48 64 80 65 60 66 79 67 61 68 64 69 78 70 97 71 62 72
REMARK SMILES IDX 63 73 77 75 98 76 65 77 49 78 50 79 58 80 51 81 53 82 59 83
REMARK SMILES IDX 52 84 54 85 55 86 56 87 57 88 81 89 82 90 90 91 83 92 85 93
REMARK SMILES IDX 91 94 84 95 86 96 87 97 88 98 89 99 66 100 67 101 75 102
REMARK SMILES IDX 68 103 70 104 76 105 69 106 71 107 72 108 73 109 74 110
REMARK H PARENT 17 13 96 63 64 74
REMARK Flexibility Score: inf
ROOT
ATOM      1  C   UNL A   1      40.784  23.774  27.635  1.00  0.00     0.188 C 
ENDROOT
BRANCH   1   2
ATOM      2  C   UNL A   1      39.679  24.229  26.677  1.00  0.00     0.188 C 
BRANCH   2   3
ATOM      3  O   UNL A   1      38.326  24.193  27.101  1.00  0.00    -0.376 OA
BRANCH   3   4
ATOM      4  C   UNL A   1      37.435  23.292  26.452  1.00  0.00     0.202 C 
BRANCH   4   5
ATOM      5  C   UNL A   1      38.008  22.345  25.376  1.00  0.00     0.261 C 
BRANCH   5   6
ATOM      6  O   UNL A   1      37.092  21.972  24.309  1.00  0.00    -0.462 OA
BRANCH   6   7
ATOM      7  C   UNL A   1      36.203  20.991  24.580  1.00  0.00     0.328 C 
ATOM      8  O   UNL A   1      36.542  19.895  25.036  1.00  0.00    -0.250 OA
BRANCH   7   9
ATOM      9  C   UNL A   1      34.683  21.290  24.309  1.00  0.00     0.192 C 
BRANCH   9  10
ATOM     10  N   UNL A   1      34.732  22.710  23.888  1.00  0.00    -0.343 N 
ATOM     11  C   UNL A   1      33.873  23.535  23.249  1.00  0.00     0.221 C 
ATOM     12  O   UNL A   1      34.331  24.587  22.794  1.00  0.00    -0.275 OA
ATOM     13  H   UNL A   1      35.579  23.150  24.128  1.00  0.00     0.164 HD
BRANCH  11  14
ATOM     14  C   UNL A   1      32.407  23.219  23.113  1.00  0.00     0.105 C 
BRANCH  14  15
ATOM     15  C   UNL A   1      31.443  23.659  24.236  1.00  0.00     0.053 C 
BRANCH  15  16
ATOM     16  C   UNL A   1      31.475  25.092  24.757  1.00  0.00     0.042 A 
ATOM     17  C   UNL A   1      35.719  29.340  28.281  1.00  0.00     0.048 C 
ATOM     18  C   UNL A   1      34.534  29.784  27.510  1.00  0.00    -0.005 A 
ATOM     19  C   UNL A   1      34.091  31.067  27.272  1.00  0.00     0.199 A 
ATOM     20  C   UNL A   1      33.614  28.935  26.834  1.00  0.00     0.024 A 
ATOM     21  O   UNL A   1      32.984  31.061  26.481  1.00  0.00    -0.464 OA
ATOM     22  C   UNL A   1      32.694  29.756  26.202  1.00  0.00     0.140 A 
ATOM     23  C   UNL A   1      33.504  27.546  26.675  1.00  0.00     0.024 A 
ATOM     24  C   UNL A   1      31.652  29.299  25.386  1.00  0.00     0.036 A 
ATOM     25  C   UNL A   1      32.458  27.004  25.918  1.00  0.00     0.022 A 
ATOM     26  C   UNL A   1      30.749  30.241  24.656  1.00  0.00     0.052 C 
ATOM     27  C   UNL A   1      31.560  27.887  25.307  1.00  0.00     0.145 A 
ATOM     28  C   UNL A   1      32.367  25.553  25.660  1.00  0.00    -0.030 A 
ATOM     29  O   UNL A   1      30.498  27.349  24.548  1.00  0.00    -0.422 OA
ATOM     30  C   UNL A   1      33.358  24.668  26.374  1.00  0.00     0.046 C 
ATOM     31  C   UNL A   1      30.375  25.989  24.288  1.00  0.00     0.339 A 
ATOM     32  O   UNL A   1      29.400  25.558  23.683  1.00  0.00    -0.246 OA
ENDBRANCH  15  16
ENDBRANCH  14  15
ENDBRANCH  11  14
ENDBRANCH   9  10
BRANCH   9  33
ATOM     33  C   UNL A   1      33.527  20.988  25.305  1.00  0.00     0.040 C 
BRANCH  33  34
ATOM     34  C   UNL A   1      32.462  19.958  24.759  1.00  0.00    -0.015 C 
ATOM     35  C   UNL A   1      32.502  19.621  23.271  1.00  0.00     0.007 C 
ATOM     36  C   UNL A   1      32.482  18.639  25.534  1.00  0.00     0.007 C 
ENDBRANCH  33  34
ENDBRANCH   9  33
ENDBRANCH   7   9
ENDBRANCH   6   7
ENDBRANCH   5   6
ENDBRANCH   4   5
ENDBRANCH   3   4
ENDBRANCH   2   3
ENDBRANCH   1   2
BRANCH   1  37
ATOM     37  O   UNL A   1      40.785  22.409  27.988  1.00  0.00    -0.377 OA
BRANCH  37  38
ATOM     38  C   UNL A   1      41.970  21.689  27.694  1.00  0.00     0.188 C 
BRANCH  38  39
ATOM     39  C   UNL A   1      42.690  22.055  26.377  1.00  0.00     0.188 C 
BRANCH  39  40
ATOM     40  O   UNL A   1      43.946  22.700  26.538  1.00  0.00    -0.376 OA
BRANCH  40  41
ATOM     41  C   UNL A   1      44.544  23.562  25.587  1.00  0.00     0.202 C 
BRANCH  41  42
ATOM     42  C   UNL A   1      43.876  24.811  25.001  1.00  0.00     0.261 C 
BRANCH  42  43
ATOM     43  O   UNL A   1      42.817  25.360  25.748  1.00  0.00    -0.460 OA
BRANCH  43  44
ATOM     44  C   UNL A   1      42.803  26.699  25.709  1.00  0.00     0.338 C 
ATOM     45  O   UNL A   1      43.344  27.414  24.859  1.00  0.00    -0.246 OA
BRANCH  44  46
ATOM     46  C   UNL A   1      42.097  27.223  26.868  1.00  0.00     0.060 A 
ATOM     47  C   UNL A   1      41.410  28.419  26.667  1.00  0.00     0.016 A 
ATOM     48  C   UNL A   1      42.417  26.728  28.142  1.00  0.00     0.016 A 
ATOM     49  C   UNL A   1      41.312  29.270  27.734  1.00  0.00     0.010 A 
ATOM     50  C   UNL A   1      42.311  27.583  29.210  1.00  0.00     0.010 A 
ATOM     51  C   UNL A   1      41.872  28.877  28.956  1.00  0.00    -0.014 A 
BRANCH  51  52
ATOM     52  C   UNL A   1      41.974  29.894  29.970  1.00  0.00     0.031 A 
ATOM     53  C   UNL A   1      40.659  30.287  30.500  1.00  0.00     0.074 A 
ATOM     54  C   UNL A   1      43.149  30.427  30.343  1.00  0.00     0.049 A 
ATOM     55  N   UNL A   1      39.990  31.347  30.193  1.00  0.00    -0.248 NA
ATOM     56  C   UNL A   1      39.908  29.285  31.261  1.00  0.00     0.031 C 
ATOM     57  C   UNL A   1      44.505  29.944  30.065  1.00  0.00     0.029 A 
ATOM     58  N   UNL A   1      43.360  31.481  31.170  1.00  0.00    -0.354 N 
ATOM     59  C   UNL A   1      38.820  31.257  30.933  1.00  0.00     0.074 A 
ATOM     60  C   UNL A   1      38.723  29.888  31.364  1.00  0.00     0.031 C 
ATOM     61  C   UNL A   1      45.366  30.543  30.922  1.00  0.00     0.029 A 
ATOM     62  C   UNL A   1      44.645  31.545  31.689  1.00  0.00     0.049 A 
ATOM     63  H   UNL A   1      42.662  32.142  31.383  1.00  0.00     0.167 HD
ATOM     64  C   UNL A   1      38.189  32.382  31.364  1.00  0.00     0.034 A 
ATOM     65  C   UNL A   1      45.028  32.308  32.742  1.00  0.00     0.034 A 
ATOM     66  C   UNL A   1      38.654  33.545  30.648  1.00  0.00     0.049 A 
ATOM     67  C   UNL A   1      44.033  33.401  32.870  1.00  0.00     0.074 A 
ATOM     68  C   UNL A   1      38.654  33.954  29.329  1.00  0.00     0.029 A 
ATOM     69  N   UNL A   1      39.574  34.335  31.294  1.00  0.00    -0.354 N 
ATOM     70  N   UNL A   1      43.886  34.348  31.984  1.00  0.00    -0.248 NA
ATOM     71  C   UNL A   1      42.906  33.204  33.766  1.00  0.00     0.031 C 
ATOM     72  C   UNL A   1      39.876  34.668  29.161  1.00  0.00     0.029 A 
ATOM     73  C   UNL A   1      40.536  34.698  30.392  1.00  0.00     0.049 A 
ATOM     74  H   UNL A   1      39.547  34.595  32.243  1.00  0.00     0.167 HD
ATOM     75  C   UNL A   1      42.512  34.539  31.908  1.00  0.00     0.074 A 
ATOM     76  C   UNL A   1      41.974  33.898  33.106  1.00  0.00     0.031 C 
ATOM     77  C   UNL A   1      41.921  34.935  30.743  1.00  0.00     0.034 A 
BRANCH  64  78
ATOM     78  C   UNL A   1      37.480  32.511  32.695  1.00  0.00     0.023 A 
ATOM     79  C   UNL A   1      36.299  33.288  32.705  1.00  0.00     0.012 A 
ATOM     80  C   UNL A   1      38.034  32.179  33.952  1.00  0.00     0.148 A 
ATOM     81  C   UNL A   1      35.756  33.784  33.894  1.00  0.00     0.002 A 
ATOM     82  C   UNL A   1      37.448  32.609  35.135  1.00  0.00     0.091 A 
ATOM     83  F   UNL A   1      39.207  31.550  34.035  1.00  0.00    -0.205 F 
ATOM     84  C   UNL A   1      36.331  33.445  35.111  1.00  0.00     0.022 A 
BRANCH  82  85
ATOM     85  S   UNL A   1      38.124  32.160  36.740  1.00  0.00     0.127 S 
ATOM     86  O   UNL A   1      37.092  32.660  37.641  1.00  0.00    -0.237 OA
ATOM     87  O   UNL A   1      38.203  30.703  36.629  1.00  0.00    -0.237 OA
ATOM     88  O   UNL A   1      39.422  32.820  36.821  1.00  0.00    -0.744 OA
ENDBRANCH  82  85
ENDBRANCH  64  78
BRANCH  65  89
ATOM     89  C   UNL A   1      45.970  31.983  33.839  1.00  0.00     0.023 A 
ATOM     90  C   UNL A   1      45.829  30.759  34.525  1.00  0.00     0.012 A 
ATOM     91  C   UNL A   1      47.175  32.703  33.999  1.00  0.00     0.148 A 
ATOM     92  C   UNL A   1      46.871  30.246  35.306  1.00  0.00     0.002 A 
ATOM     93  C   UNL A   1      48.209  32.187  34.776  1.00  0.00     0.091 A 
ATOM     94  F   UNL A   1      47.346  33.841  33.315  1.00  0.00    -0.205 F 
ATOM     95  C   UNL A   1      48.065  30.952  35.420  1.00  0.00     0.022 A 
BRANCH  93  96
ATOM     96  S   UNL A   1      49.798  33.015  34.932  1.00  0.00     0.127 S 
ATOM     97  O   UNL A   1      49.432  34.234  35.652  1.00  0.00    -0.237 OA
ATOM     98  O   UNL A   1      50.565  32.049  35.713  1.00  0.00    -0.237 OA
ATOM     99  O   UNL A   1      50.267  33.239  33.570  1.00  0.00    -0.744 OA
ENDBRANCH  93  96
ENDBRANCH  65  89
BRANCH  77 100
ATOM    100  C   UNL A   1      42.810  35.418  29.622  1.00  0.00     0.023 A 
ATOM    101  C   UNL A   1      43.256  36.753  29.534  1.00  0.00     0.012 A 
ATOM    102  C   UNL A   1      43.366  34.459  28.758  1.00  0.00     0.148 A 
ATOM    103  C   UNL A   1      44.226  37.124  28.598  1.00  0.00     0.002 A 
ATOM    104  C   UNL A   1      44.368  34.820  27.867  1.00  0.00     0.091 A 
ATOM    105  F   UNL A   1      42.930  33.192  28.855  1.00  0.00    -0.205 F 
ATOM    106  C   UNL A   1      44.794  36.154  27.776  1.00  0.00     0.022 A 
BRANCH 104 107
ATOM    107  S   UNL A   1      45.242  33.594  26.890  1.00  0.00     0.127 S 
ATOM    108  O   UNL A   1      46.224  34.412  26.181  1.00  0.00    -0.237 OA
ATOM    109  O   UNL A   1      45.805  32.718  27.919  1.00  0.00    -0.237 OA
ATOM    110  O   UNL A   1      44.236  32.956  26.051  1.00  0.00    -0.744 OA
ENDBRANCH 104 107
ENDBRANCH  77 100
ENDBRANCH  51  52
ENDBRANCH  44  46
ENDBRANCH  43  44
ENDBRANCH  42  43
ENDBRANCH  41  42
ENDBRANCH  40  41
ENDBRANCH  39  40
ENDBRANCH  38  39
ENDBRANCH  37  38
ENDBRANCH   1  37
TORSDOF 29
ENDMDL
