MODEL 1
REMARK VINA RESULT:     -10.2      0.000      0.000
REMARK SMILES O=C(OCCOCCOCCOCCOC(=O)C1(C/C=C/c2ccccc2)Cc2ccccc2C1)c1ccc(-c2c3nc(c(-c4cccc(S(=O)(=O)[O-])c4F)c4ccc([nH]4)c(-c4cccc(S(=O)(=O)[O-])c4F)c4nc(c(-c5cccc(S(=O)(=O)[O-])c5F)c5ccc2[nH]5)C=C4)C=C3)cc1
REMARK SMILES IDX 9 1 8 2 7 3 6 4 5 5 4 6 3 7 2 8 1 9 36 10 37 11 98 12 38 13
REMARK SMILES IDX 97 14 39 15 40 16 41 17 91 18 42 19 96 20 90 21 92 22 43 23
REMARK SMILES IDX 95 24 89 25 88 26 44 28 76 29 56 30 75 31 57 32 60 33 74 34
REMARK SMILES IDX 93 35 58 36 59 37 73 39 94 40 61 41 45 42 46 43 54 44 47 45
REMARK SMILES IDX 49 46 55 47 48 48 50 49 51 50 52 51 53 52 77 53 78 54 86 55
REMARK SMILES IDX 79 56 81 57 87 58 80 59 82 60 83 61 84 62 85 63 62 64 63 65
REMARK SMILES IDX 71 66 64 67 66 68 72 69 65 70 67 71 68 72 69 73 70 74 10 75
REMARK SMILES IDX 11 76 12 77 13 78 14 79 15 80 16 81 17 82 18 83 28 84 35 85
REMARK SMILES IDX 29 86 34 87 30 88 33 89 31 90 32 91 19 92 20 93 21 94 22 95
REMARK SMILES IDX 23 96 27 97 24 98 26 99 25 100
REMARK H PARENT 92 27 60 38
REMARK Flexibility Score: inf
ROOT
ATOM      1  O   UNL A   1      41.661  18.969  25.607  1.00  0.00    -0.377 OA
ENDROOT
BRANCH   1   2
ATOM      2  C   UNL A   1      42.768  18.213  26.080  1.00  0.00     0.188 C 
BRANCH   2   3
ATOM      3  C   UNL A   1      44.082  18.961  25.967  1.00  0.00     0.188 C 
BRANCH   3   4
ATOM      4  O   UNL A   1      44.476  19.012  24.606  1.00  0.00    -0.376 OA
BRANCH   4   5
ATOM      5  C   UNL A   1      45.199  20.148  24.157  1.00  0.00     0.202 C 
BRANCH   5   6
ATOM      6  C   UNL A   1      45.469  21.201  25.223  1.00  0.00     0.261 C 
BRANCH   6   7
ATOM      7  O   UNL A   1      45.202  22.555  24.818  1.00  0.00    -0.460 OA
BRANCH   7   8
ATOM      8  C   UNL A   1      44.052  23.271  24.842  1.00  0.00     0.338 C 
ATOM      9  O   UNL A   1      43.095  22.841  24.198  1.00  0.00    -0.246 OA
BRANCH   8  10
ATOM     10  C   UNL A   1      43.862  24.551  25.588  1.00  0.00     0.060 A 
ATOM     11  C   UNL A   1      43.411  25.744  25.033  1.00  0.00     0.016 A 
ATOM     12  C   UNL A   1      44.049  24.521  26.978  1.00  0.00     0.016 A 
ATOM     13  C   UNL A   1      43.211  26.885  25.774  1.00  0.00     0.010 A 
ATOM     14  C   UNL A   1      43.830  25.664  27.754  1.00  0.00     0.010 A 
ATOM     15  C   UNL A   1      43.435  26.856  27.137  1.00  0.00    -0.014 A 
BRANCH  15  16
ATOM     16  C   UNL A   1      43.450  28.158  27.805  1.00  0.00     0.031 A 
ATOM     17  C   UNL A   1      44.720  28.943  27.731  1.00  0.00     0.074 A 
ATOM     18  C   UNL A   1      42.301  28.680  28.271  1.00  0.00     0.049 A 
ATOM     19  N   UNL A   1      45.016  30.081  28.283  1.00  0.00    -0.248 NA
ATOM     20  C   UNL A   1      45.801  28.374  26.900  1.00  0.00     0.031 C 
ATOM     21  C   UNL A   1      40.984  28.036  28.194  1.00  0.00     0.029 A 
ATOM     22  N   UNL A   1      42.050  29.877  28.880  1.00  0.00    -0.354 N 
ATOM     23  C   UNL A   1      46.339  30.323  27.941  1.00  0.00     0.074 A 
ATOM     24  C   UNL A   1      46.781  29.241  27.095  1.00  0.00     0.031 C 
ATOM     25  C   UNL A   1      40.068  28.841  28.755  1.00  0.00     0.029 A 
ATOM     26  C   UNL A   1      40.747  30.006  29.302  1.00  0.00     0.049 A 
ATOM     27  H   UNL A   1      42.731  30.575  29.004  1.00  0.00     0.167 HD
ATOM     28  C   UNL A   1      47.112  31.356  28.332  1.00  0.00     0.034 A 
ATOM     29  C   UNL A   1      40.200  30.938  30.103  1.00  0.00     0.034 A 
ATOM     30  C   UNL A   1      46.619  32.413  29.165  1.00  0.00     0.049 A 
ATOM     31  C   UNL A   1      41.110  32.031  30.596  1.00  0.00     0.074 A 
ATOM     32  C   UNL A   1      47.300  33.494  29.684  1.00  0.00     0.029 A 
ATOM     33  N   UNL A   1      45.306  32.504  29.608  1.00  0.00    -0.354 N 
ATOM     34  N   UNL A   1      42.371  32.251  30.298  1.00  0.00    -0.248 NA
ATOM     35  C   UNL A   1      40.532  33.007  31.525  1.00  0.00     0.031 C 
ATOM     36  C   UNL A   1      46.404  34.219  30.475  1.00  0.00     0.029 A 
ATOM     37  C   UNL A   1      45.155  33.617  30.409  1.00  0.00     0.049 A 
ATOM     38  H   UNL A   1      44.588  31.869  29.384  1.00  0.00     0.167 HD
ATOM     39  C   UNL A   1      42.730  33.405  30.978  1.00  0.00     0.074 A 
ATOM     40  C   UNL A   1      41.542  33.852  31.683  1.00  0.00     0.031 C 
ATOM     41  C   UNL A   1      43.928  34.037  31.039  1.00  0.00     0.034 A 
BRANCH  28  42
ATOM     42  C   UNL A   1      48.558  31.328  27.933  1.00  0.00     0.023 A 
ATOM     43  C   UNL A   1      49.446  30.394  28.501  1.00  0.00     0.012 A 
ATOM     44  C   UNL A   1      49.038  32.257  26.989  1.00  0.00     0.148 A 
ATOM     45  C   UNL A   1      50.797  30.401  28.153  1.00  0.00     0.002 A 
ATOM     46  C   UNL A   1      50.373  32.229  26.612  1.00  0.00     0.091 A 
ATOM     47  F   UNL A   1      48.181  33.160  26.493  1.00  0.00    -0.205 F 
ATOM     48  C   UNL A   1      51.258  31.311  27.202  1.00  0.00     0.022 A 
BRANCH  46  49
ATOM     49  S   UNL A   1      51.051  33.316  25.355  1.00  0.00     0.127 S 
ATOM     50  O   UNL A   1      51.414  32.367  24.306  1.00  0.00    -0.237 OA
ATOM     51  O   UNL A   1      49.907  34.167  25.044  1.00  0.00    -0.237 OA
ATOM     52  O   UNL A   1      52.178  34.003  25.981  1.00  0.00    -0.744 OA
ENDBRANCH  46  49
ENDBRANCH  28  42
BRANCH  29  53
ATOM     53  C   UNL A   1      38.774  30.847  30.530  1.00  0.00     0.023 A 
ATOM     54  C   UNL A   1      38.400  29.948  31.546  1.00  0.00     0.012 A 
ATOM     55  C   UNL A   1      37.777  31.636  29.918  1.00  0.00     0.148 A 
ATOM     56  C   UNL A   1      37.060  29.803  31.913  1.00  0.00     0.002 A 
ATOM     57  C   UNL A   1      36.453  31.531  30.328  1.00  0.00     0.091 A 
ATOM     58  F   UNL A   1      38.140  32.475  28.938  1.00  0.00    -0.205 F 
ATOM     59  C   UNL A   1      36.089  30.598  31.310  1.00  0.00     0.022 A 
BRANCH  57  60
ATOM     60  S   UNL A   1      35.160  32.602  29.689  1.00  0.00     0.127 S 
ATOM     61  O   UNL A   1      35.928  33.761  29.240  1.00  0.00    -0.237 OA
ATOM     62  O   UNL A   1      34.592  31.786  28.616  1.00  0.00    -0.237 OA
ATOM     63  O   UNL A   1      34.256  32.835  30.807  1.00  0.00    -0.744 OA
ENDBRANCH  57  60
ENDBRANCH  29  53
BRANCH  41  64
ATOM     64  C   UNL A   1      43.990  35.299  31.846  1.00  0.00     0.023 A 
ATOM     65  C   UNL A   1      44.275  35.242  33.223  1.00  0.00     0.012 A 
ATOM     66  C   UNL A   1      43.864  36.546  31.206  1.00  0.00     0.148 A 
ATOM     67  C   UNL A   1      44.401  36.416  33.961  1.00  0.00     0.002 A 
ATOM     68  C   UNL A   1      44.052  37.710  31.935  1.00  0.00     0.091 A 
ATOM     69  F   UNL A   1      43.576  36.567  29.897  1.00  0.00    -0.205 F 
ATOM     70  C   UNL A   1      44.306  37.648  33.315  1.00  0.00     0.022 A 
BRANCH  68  71
ATOM     71  S   UNL A   1      44.066  39.328  31.161  1.00  0.00     0.127 S 
ATOM     72  O   UNL A   1      43.538  40.173  32.230  1.00  0.00    -0.237 OA
ATOM     73  O   UNL A   1      45.488  39.520  30.876  1.00  0.00    -0.237 OA
ATOM     74  O   UNL A   1      43.223  39.218  29.978  1.00  0.00    -0.744 OA
ENDBRANCH  68  71
ENDBRANCH  41  64
ENDBRANCH  15  16
ENDBRANCH   8  10
ENDBRANCH   7   8
ENDBRANCH   6   7
ENDBRANCH   5   6
ENDBRANCH   4   5
ENDBRANCH   3   4
ENDBRANCH   2   3
ENDBRANCH   1   2
BRANCH   1  75
ATOM     75  C   UNL A   1      41.443  20.254  26.193  1.00  0.00     0.188 C 
BRANCH  75  76
ATOM     76  C   UNL A   1      40.039  20.793  26.492  1.00  0.00     0.188 C 
BRANCH  76  77
ATOM     77  O   UNL A   1      39.993  22.132  26.947  1.00  0.00    -0.376 OA
BRANCH  77  78
ATOM     78  C   UNL A   1      38.912  22.890  26.406  1.00  0.00     0.202 C 
BRANCH  78  79
ATOM     79  C   UNL A   1      37.829  22.071  25.676  1.00  0.00     0.261 C 
BRANCH  79  80
ATOM     80  O   UNL A   1      36.599  22.804  25.459  1.00  0.00    -0.463 OA
BRANCH  80  81
ATOM     81  C   UNL A   1      36.071  22.942  24.228  1.00  0.00     0.313 C 
ATOM     82  O   UNL A   1      36.646  22.576  23.206  1.00  0.00    -0.252 OA
BRANCH  81  83
ATOM     83  C   UNL A   1      34.655  23.580  24.220  1.00  0.00     0.079 C 
ATOM     84  C   UNL A   1      34.551  25.053  24.742  1.00  0.00     0.055 C 
ATOM     85  C   UNL A   1      34.278  23.732  22.712  1.00  0.00     0.055 C 
ATOM     86  C   UNL A   1      33.485  25.647  23.877  1.00  0.00    -0.044 A 
ATOM     87  C   UNL A   1      33.344  24.902  22.711  1.00  0.00    -0.044 A 
ATOM     88  C   UNL A   1      32.701  26.761  24.131  1.00  0.00     0.004 A 
ATOM     89  C   UNL A   1      32.445  25.286  21.735  1.00  0.00     0.004 A 
ATOM     90  C   UNL A   1      31.766  27.137  23.168  1.00  0.00     0.000 A 
ATOM     91  C   UNL A   1      31.648  26.410  21.973  1.00  0.00     0.000 A 
BRANCH  83  92
ATOM     92  C   UNL A   1      33.609  22.683  24.977  1.00  0.00     0.047 C 
BRANCH  92  93
ATOM     93  C   UNL A   1      33.609  21.241  24.560  1.00  0.00    -0.025 C 
ATOM     94  C   UNL A   1      32.787  20.304  25.062  1.00  0.00     0.004 C 
BRANCH  94  95
ATOM     95  C   UNL A   1      33.002  18.871  24.815  1.00  0.00    -0.026 A 
ATOM     96  C   UNL A   1      33.425  18.413  23.564  1.00  0.00     0.008 A 
ATOM     97  C   UNL A   1      32.678  17.931  25.806  1.00  0.00     0.008 A 
ATOM     98  C   UNL A   1      33.554  17.041  23.323  1.00  0.00     0.001 A 
ATOM     99  C   UNL A   1      32.806  16.564  25.565  1.00  0.00     0.001 A 
ATOM    100  C   UNL A   1      33.248  16.119  24.323  1.00  0.00     0.000 A 
ENDBRANCH  94  95
ENDBRANCH  92  93
ENDBRANCH  83  92
ENDBRANCH  81  83
ENDBRANCH  80  81
ENDBRANCH  79  80
ENDBRANCH  78  79
ENDBRANCH  77  78
ENDBRANCH  76  77
ENDBRANCH  75  76
ENDBRANCH   1  75
TORSDOF 26
ENDMDL
MODEL 2
REMARK VINA RESULT:     -10.0      3.840      9.159
REMARK SMILES O=C(OCCOCCOCCOCCOC(=O)C1(C/C=C/c2ccccc2)Cc2ccccc2C1)c1ccc(-c2c3nc(c(-c4cccc(S(=O)(=O)[O-])c4F)c4ccc([nH]4)c(-c4cccc(S(=O)(=O)[O-])c4F)c4nc(c(-c5cccc(S(=O)(=O)[O-])c5F)c5ccc2[nH]5)C=C4)C=C3)cc1
REMARK SMILES IDX 9 1 8 2 7 3 6 4 5 5 4 6 3 7 2 8 1 9 36 10 37 11 98 12 38 13
REMARK SMILES IDX 97 14 39 15 40 16 41 17 91 18 42 19 96 20 90 21 92 22 43 23
REMARK SMILES IDX 95 24 89 25 88 26 44 28 76 29 56 30 75 31 57 32 60 33 74 34
REMARK SMILES IDX 93 35 58 36 59 37 73 39 94 40 61 41 45 42 46 43 54 44 47 45
REMARK SMILES IDX 49 46 55 47 48 48 50 49 51 50 52 51 53 52 77 53 78 54 86 55
REMARK SMILES IDX 79 56 81 57 87 58 80 59 82 60 83 61 84 62 85 63 62 64 63 65
REMARK SMILES IDX 71 66 64 67 66 68 72 69 65 70 67 71 68 72 69 73 70 74 10 75
REMARK SMILES IDX 11 76 12 77 13 78 14 79 15 80 16 81 17 82 18 83 28 84 35 85
REMARK SMILES IDX 29 86 34 87 30 88 33 89 31 90 32 91 19 92 20 93 21 94 22 95
REMARK SMILES IDX 23 96 27 97 24 98 26 99 25 100
REMARK H PARENT 92 27 60 38
REMARK Flexibility Score: inf
ROOT
ATOM      1  O   UNL A   1      41.556  19.383  25.578  1.00  0.00    -0.377 OA
ENDROOT
BRANCH   1   2
ATOM      2  C   UNL A   1      42.630  18.467  25.746  1.00  0.00     0.188 C 
BRANCH   2   3
ATOM      3  C   UNL A   1      43.969  19.156  25.921  1.00  0.00     0.188 C 
BRANCH   3   4
ATOM      4  O   UNL A   1      44.745  18.975  24.749  1.00  0.00    -0.376 OA
BRANCH   4   5
ATOM      5  C   UNL A   1      45.507  20.073  24.270  1.00  0.00     0.202 C 
BRANCH   5   6
ATOM      6  C   UNL A   1      45.799  21.152  25.304  1.00  0.00     0.261 C 
BRANCH   6   7
ATOM      7  O   UNL A   1      45.090  22.388  25.105  1.00  0.00    -0.460 OA
BRANCH   7   8
ATOM      8  C   UNL A   1      44.802  23.388  25.973  1.00  0.00     0.338 C 
ATOM      9  O   UNL A   1      43.915  23.190  26.803  1.00  0.00    -0.246 OA
BRANCH   8  10
ATOM     10  C   UNL A   1      45.481  24.718  25.993  1.00  0.00     0.060 A 
ATOM     11  C   UNL A   1      45.439  25.655  24.965  1.00  0.00     0.016 A 
ATOM     12  C   UNL A   1      46.120  25.099  27.182  1.00  0.00     0.016 A 
ATOM     13  C   UNL A   1      46.047  26.886  25.051  1.00  0.00     0.010 A 
ATOM     14  C   UNL A   1      46.725  26.355  27.299  1.00  0.00     0.010 A 
ATOM     15  C   UNL A   1      46.707  27.236  26.212  1.00  0.00    -0.014 A 
BRANCH  15  16
ATOM     16  C   UNL A   1      47.536  28.440  26.132  1.00  0.00     0.031 A 
ATOM     17  C   UNL A   1      46.851  29.749  26.361  1.00  0.00     0.074 A 
ATOM     18  C   UNL A   1      48.874  28.324  26.061  1.00  0.00     0.049 A 
ATOM     19  N   UNL A   1      47.333  30.954  26.285  1.00  0.00    -0.248 NA
ATOM     20  C   UNL A   1      45.428  29.692  26.752  1.00  0.00     0.031 C 
ATOM     21  C   UNL A   1      49.615  27.057  26.030  1.00  0.00     0.029 A 
ATOM     22  N   UNL A   1      49.849  29.280  26.024  1.00  0.00    -0.354 N 
ATOM     23  C   UNL A   1      46.259  31.796  26.533  1.00  0.00     0.074 A 
ATOM     24  C   UNL A   1      45.107  30.973  26.807  1.00  0.00     0.031 C 
ATOM     25  C   UNL A   1      50.930  27.319  25.959  1.00  0.00     0.029 A 
ATOM     26  C   UNL A   1      51.110  28.759  25.852  1.00  0.00     0.049 A 
ATOM     27  H   UNL A   1      49.668  30.243  26.110  1.00  0.00     0.167 HD
ATOM     28  C   UNL A   1      46.250  33.145  26.501  1.00  0.00     0.034 A 
ATOM     29  C   UNL A   1      52.263  29.394  25.570  1.00  0.00     0.034 A 
ATOM     30  C   UNL A   1      47.428  33.915  26.235  1.00  0.00     0.049 A 
ATOM     31  C   UNL A   1      52.203  30.893  25.455  1.00  0.00     0.074 A 
ATOM     32  C   UNL A   1      47.558  35.284  26.118  1.00  0.00     0.029 A 
ATOM     33  N   UNL A   1      48.687  33.364  26.030  1.00  0.00    -0.354 N 
ATOM     34  N   UNL A   1      51.183  31.696  25.660  1.00  0.00    -0.248 NA
ATOM     35  C   UNL A   1      53.443  31.580  25.077  1.00  0.00     0.031 C 
ATOM     36  C   UNL A   1      48.893  35.557  25.804  1.00  0.00     0.029 A 
ATOM     37  C   UNL A   1      49.602  34.364  25.773  1.00  0.00     0.049 A 
ATOM     38  H   UNL A   1      48.895  32.403  26.063  1.00  0.00     0.167 HD
ATOM     39  C   UNL A   1      51.663  32.983  25.466  1.00  0.00     0.074 A 
ATOM     40  C   UNL A   1      53.074  32.851  25.153  1.00  0.00     0.031 C 
ATOM     41  C   UNL A   1      51.007  34.169  25.521  1.00  0.00     0.034 A 
BRANCH  28  42
ATOM     42  C   UNL A   1      44.927  33.831  26.675  1.00  0.00     0.023 A 
ATOM     43  C   UNL A   1      44.168  34.231  25.558  1.00  0.00     0.012 A 
ATOM     44  C   UNL A   1      44.444  34.093  27.973  1.00  0.00     0.148 A 
ATOM     45  C   UNL A   1      42.958  34.904  25.730  1.00  0.00     0.002 A 
ATOM     46  C   UNL A   1      43.218  34.722  28.137  1.00  0.00     0.091 A 
ATOM     47  F   UNL A   1      45.204  33.738  29.018  1.00  0.00    -0.205 F 
ATOM     48  C   UNL A   1      42.479  35.140  27.018  1.00  0.00     0.022 A 
BRANCH  46  49
ATOM     49  S   UNL A   1      42.487  35.017  29.749  1.00  0.00     0.127 S 
ATOM     50  O   UNL A   1      41.103  35.323  29.396  1.00  0.00    -0.237 OA
ATOM     51  O   UNL A   1      42.683  33.731  30.410  1.00  0.00    -0.237 OA
ATOM     52  O   UNL A   1      43.233  36.129  30.333  1.00  0.00    -0.744 OA
ENDBRANCH  46  49
ENDBRANCH  28  42
BRANCH  29  53
ATOM     53  C   UNL A   1      53.520  28.633  25.320  1.00  0.00     0.023 A 
ATOM     54  C   UNL A   1      54.247  28.101  26.402  1.00  0.00     0.012 A 
ATOM     55  C   UNL A   1      54.014  28.447  24.012  1.00  0.00     0.148 A 
ATOM     56  C   UNL A   1      55.461  27.442  26.190  1.00  0.00     0.002 A 
ATOM     57  C   UNL A   1      55.192  27.738  23.803  1.00  0.00     0.091 A 
ATOM     58  F   UNL A   1      53.325  28.974  22.989  1.00  0.00    -0.205 F 
ATOM     59  C   UNL A   1      55.929  27.254  24.893  1.00  0.00     0.022 A 
BRANCH  57  60
ATOM     60  S   UNL A   1      55.800  27.348  22.158  1.00  0.00     0.127 S 
ATOM     61  O   UNL A   1      54.633  26.713  21.551  1.00  0.00    -0.237 OA
ATOM     62  O   UNL A   1      56.124  28.674  21.632  1.00  0.00    -0.237 OA
ATOM     63  O   UNL A   1      56.957  26.487  22.362  1.00  0.00    -0.744 OA
ENDBRANCH  57  60
ENDBRANCH  29  53
BRANCH  41  64
ATOM     64  C   UNL A   1      51.823  35.407  25.293  1.00  0.00     0.023 A 
ATOM     65  C   UNL A   1      51.977  35.918  23.991  1.00  0.00     0.012 A 
ATOM     66  C   UNL A   1      52.348  36.112  26.392  1.00  0.00     0.148 A 
ATOM     67  C   UNL A   1      52.677  37.105  23.784  1.00  0.00     0.002 A 
ATOM     68  C   UNL A   1      52.989  37.323  26.183  1.00  0.00     0.091 A 
ATOM     69  F   UNL A   1      52.200  35.588  27.618  1.00  0.00    -0.205 F 
ATOM     70  C   UNL A   1      53.167  37.815  24.880  1.00  0.00     0.022 A 
BRANCH  68  71
ATOM     71  S   UNL A   1      53.542  38.355  27.542  1.00  0.00     0.127 S 
ATOM     72  O   UNL A   1      53.737  39.643  26.877  1.00  0.00    -0.237 OA
ATOM     73  O   UNL A   1      52.398  38.304  28.452  1.00  0.00    -0.237 OA
ATOM     74  O   UNL A   1      54.753  37.730  28.058  1.00  0.00    -0.744 OA
ENDBRANCH  68  71
ENDBRANCH  41  64
ENDBRANCH  15  16
ENDBRANCH   8  10
ENDBRANCH   7   8
ENDBRANCH   6   7
ENDBRANCH   5   6
ENDBRANCH   4   5
ENDBRANCH   3   4
ENDBRANCH   2   3
ENDBRANCH   1   2
BRANCH   1  75
ATOM     75  C   UNL A   1      41.646  20.635  26.262  1.00  0.00     0.188 C 
BRANCH  75  76
ATOM     76  C   UNL A   1      40.608  21.080  27.300  1.00  0.00     0.188 C 
BRANCH  76  77
ATOM     77  O   UNL A   1      40.347  22.471  27.332  1.00  0.00    -0.376 OA
BRANCH  77  78
ATOM     78  C   UNL A   1      39.298  22.882  26.456  1.00  0.00     0.202 C 
BRANCH  78  79
ATOM     79  C   UNL A   1      38.322  21.770  26.025  1.00  0.00     0.261 C 
BRANCH  79  80
ATOM     80  O   UNL A   1      36.965  22.238  25.828  1.00  0.00    -0.463 OA
BRANCH  80  81
ATOM     81  C   UNL A   1      36.452  22.406  24.594  1.00  0.00     0.313 C 
ATOM     82  O   UNL A   1      37.013  22.014  23.575  1.00  0.00    -0.252 OA
BRANCH  81  83
ATOM     83  C   UNL A   1      35.070  23.114  24.579  1.00  0.00     0.079 C 
ATOM     84  C   UNL A   1      35.047  24.606  25.055  1.00  0.00     0.055 C 
ATOM     85  C   UNL A   1      34.683  23.237  23.072  1.00  0.00     0.055 C 
ATOM     86  C   UNL A   1      34.002  25.226  24.182  1.00  0.00    -0.044 A 
ATOM     87  C   UNL A   1      33.810  24.453  23.042  1.00  0.00    -0.044 A 
ATOM     88  C   UNL A   1      33.279  26.386  24.407  1.00  0.00     0.004 A 
ATOM     89  C   UNL A   1      32.920  24.851  22.064  1.00  0.00     0.004 A 
ATOM     90  C   UNL A   1      32.352  26.778  23.443  1.00  0.00     0.000 A 
ATOM     91  C   UNL A   1      32.184  26.021  22.272  1.00  0.00     0.000 A 
BRANCH  83  92
ATOM     92  C   UNL A   1      33.990  22.296  25.376  1.00  0.00     0.047 C 
BRANCH  92  93
ATOM     93  C   UNL A   1      34.154  20.806  25.296  1.00  0.00    -0.025 C 
ATOM     94  C   UNL A   1      33.437  20.004  24.490  1.00  0.00     0.004 C 
BRANCH  94  95
ATOM     95  C   UNL A   1      33.451  18.542  24.640  1.00  0.00    -0.026 A 
ATOM     96  C   UNL A   1      34.251  17.744  23.816  1.00  0.00     0.008 A 
ATOM     97  C   UNL A   1      32.574  17.919  25.540  1.00  0.00     0.008 A 
ATOM     98  C   UNL A   1      34.198  16.349  23.920  1.00  0.00     0.001 A 
ATOM     99  C   UNL A   1      32.521  16.529  25.643  1.00  0.00     0.001 A 
ATOM    100  C   UNL A   1      33.337  15.745  24.835  1.00  0.00     0.000 A 
ENDBRANCH  94  95
ENDBRANCH  92  93
ENDBRANCH  83  92
ENDBRANCH  81  83
ENDBRANCH  80  81
ENDBRANCH  79  80
ENDBRANCH  78  79
ENDBRANCH  77  78
ENDBRANCH  76  77
ENDBRANCH  75  76
ENDBRANCH   1  75
TORSDOF 26
ENDMDL
MODEL 3
REMARK VINA RESULT:     -10.0      2.047      2.369
REMARK SMILES O=C(OCCOCCOCCOCCOC(=O)C1(C/C=C/c2ccccc2)Cc2ccccc2C1)c1ccc(-c2c3nc(c(-c4cccc(S(=O)(=O)[O-])c4F)c4ccc([nH]4)c(-c4cccc(S(=O)(=O)[O-])c4F)c4nc(c(-c5cccc(S(=O)(=O)[O-])c5F)c5ccc2[nH]5)C=C4)C=C3)cc1
REMARK SMILES IDX 9 1 8 2 7 3 6 4 5 5 4 6 3 7 2 8 1 9 36 10 37 11 98 12 38 13
REMARK SMILES IDX 97 14 39 15 40 16 41 17 91 18 42 19 96 20 90 21 92 22 43 23
REMARK SMILES IDX 95 24 89 25 88 26 44 28 76 29 56 30 75 31 57 32 60 33 74 34
REMARK SMILES IDX 93 35 58 36 59 37 73 39 94 40 61 41 45 42 46 43 54 44 47 45
REMARK SMILES IDX 49 46 55 47 48 48 50 49 51 50 52 51 53 52 77 53 78 54 86 55
REMARK SMILES IDX 79 56 81 57 87 58 80 59 82 60 83 61 84 62 85 63 62 64 63 65
REMARK SMILES IDX 71 66 64 67 66 68 72 69 65 70 67 71 68 72 69 73 70 74 10 75
REMARK SMILES IDX 11 76 12 77 13 78 14 79 15 80 16 81 17 82 18 83 28 84 35 85
REMARK SMILES IDX 29 86 34 87 30 88 33 89 31 90 32 91 19 92 20 93 21 94 22 95
REMARK SMILES IDX 23 96 27 97 24 98 26 99 25 100
REMARK H PARENT 92 27 60 38
REMARK Flexibility Score: inf
ROOT
ATOM      1  O   UNL A   1      41.559  18.919  25.704  1.00  0.00    -0.377 OA
ENDROOT
BRANCH   1   2
ATOM      2  C   UNL A   1      42.646  18.093  26.099  1.00  0.00     0.188 C 
BRANCH   2   3
ATOM      3  C   UNL A   1      43.989  18.782  25.962  1.00  0.00     0.188 C 
BRANCH   3   4
ATOM      4  O   UNL A   1      44.372  18.794  24.597  1.00  0.00    -0.376 OA
BRANCH   4   5
ATOM      5  C   UNL A   1      45.115  19.904  24.115  1.00  0.00     0.202 C 
BRANCH   5   6
ATOM      6  C   UNL A   1      45.456  20.953  25.165  1.00  0.00     0.261 C 
BRANCH   6   7
ATOM      7  O   UNL A   1      45.191  22.311  24.772  1.00  0.00    -0.460 OA
BRANCH   7   8
ATOM      8  C   UNL A   1      44.045  23.032  24.812  1.00  0.00     0.338 C 
ATOM      9  O   UNL A   1      43.078  22.609  24.177  1.00  0.00    -0.246 OA
BRANCH   8  10
ATOM     10  C   UNL A   1      43.868  24.308  25.566  1.00  0.00     0.060 A 
ATOM     11  C   UNL A   1      43.546  25.537  24.999  1.00  0.00     0.016 A 
ATOM     12  C   UNL A   1      43.926  24.244  26.967  1.00  0.00     0.016 A 
ATOM     13  C   UNL A   1      43.351  26.677  25.745  1.00  0.00     0.010 A 
ATOM     14  C   UNL A   1      43.710  25.386  27.745  1.00  0.00     0.010 A 
ATOM     15  C   UNL A   1      43.449  26.610  27.122  1.00  0.00    -0.014 A 
BRANCH  15  16
ATOM     16  C   UNL A   1      43.484  27.898  27.817  1.00  0.00     0.031 A 
ATOM     17  C   UNL A   1      44.794  28.618  27.842  1.00  0.00     0.074 A 
ATOM     18  C   UNL A   1      42.335  28.469  28.220  1.00  0.00     0.049 A 
ATOM     19  N   UNL A   1      45.110  29.729  28.436  1.00  0.00    -0.248 NA
ATOM     20  C   UNL A   1      45.897  28.010  27.070  1.00  0.00     0.031 C 
ATOM     21  C   UNL A   1      40.995  27.894  28.045  1.00  0.00     0.029 A 
ATOM     22  N   UNL A   1      42.104  29.666  28.838  1.00  0.00    -0.354 N 
ATOM     23  C   UNL A   1      46.463  29.910  28.184  1.00  0.00     0.074 A 
ATOM     24  C   UNL A   1      46.904  28.822  27.346  1.00  0.00     0.031 C 
ATOM     25  C   UNL A   1      40.086  28.734  28.564  1.00  0.00     0.029 A 
ATOM     26  C   UNL A   1      40.785  29.853  29.178  1.00  0.00     0.049 A 
ATOM     27  H   UNL A   1      42.810  30.326  29.020  1.00  0.00     0.167 HD
ATOM     28  C   UNL A   1      47.259  30.895  28.647  1.00  0.00     0.034 A 
ATOM     29  C   UNL A   1      40.234  30.797  29.963  1.00  0.00     0.034 A 
ATOM     30  C   UNL A   1      46.766  31.960  29.469  1.00  0.00     0.049 A 
ATOM     31  C   UNL A   1      41.164  31.833  30.536  1.00  0.00     0.074 A 
ATOM     32  C   UNL A   1      47.465  32.995  30.054  1.00  0.00     0.029 A 
ATOM     33  N   UNL A   1      45.433  32.110  29.829  1.00  0.00    -0.354 N 
ATOM     34  N   UNL A   1      42.450  31.994  30.324  1.00  0.00    -0.248 NA
ATOM     35  C   UNL A   1      40.576  32.819  31.448  1.00  0.00     0.031 C 
ATOM     36  C   UNL A   1      46.557  33.750  30.802  1.00  0.00     0.029 A 
ATOM     37  C   UNL A   1      45.286  33.214  30.642  1.00  0.00     0.049 A 
ATOM     38  H   UNL A   1      44.701  31.516  29.546  1.00  0.00     0.167 HD
ATOM     39  C   UNL A   1      42.821  33.115  31.051  1.00  0.00     0.074 A 
ATOM     40  C   UNL A   1      41.614  33.609  31.688  1.00  0.00     0.031 C 
ATOM     41  C   UNL A   1      44.043  33.684  31.201  1.00  0.00     0.034 A 
BRANCH  28  42
ATOM     42  C   UNL A   1      48.725  30.800  28.340  1.00  0.00     0.023 A 
ATOM     43  C   UNL A   1      49.274  31.458  27.223  1.00  0.00     0.012 A 
ATOM     44  C   UNL A   1      49.561  30.030  29.172  1.00  0.00     0.148 A 
ATOM     45  C   UNL A   1      50.630  31.331  26.924  1.00  0.00     0.002 A 
ATOM     46  C   UNL A   1      50.919  29.945  28.896  1.00  0.00     0.091 A 
ATOM     47  F   UNL A   1      49.008  29.381  30.207  1.00  0.00    -0.205 F 
ATOM     48  C   UNL A   1      51.453  30.584  27.765  1.00  0.00     0.022 A 
BRANCH  46  49
ATOM     49  S   UNL A   1      52.071  29.060  29.949  1.00  0.00     0.127 S 
ATOM     50  O   UNL A   1      51.779  27.670  29.606  1.00  0.00    -0.237 OA
ATOM     51  O   UNL A   1      53.358  29.553  29.469  1.00  0.00    -0.237 OA
ATOM     52  O   UNL A   1      51.739  29.439  31.319  1.00  0.00    -0.744 OA
ENDBRANCH  46  49
ENDBRANCH  28  42
BRANCH  29  53
ATOM     53  C   UNL A   1      38.781  30.771  30.295  1.00  0.00     0.023 A 
ATOM     54  C   UNL A   1      38.295  29.864  31.256  1.00  0.00     0.012 A 
ATOM     55  C   UNL A   1      37.868  31.630  29.648  1.00  0.00     0.148 A 
ATOM     56  C   UNL A   1      36.928  29.782  31.532  1.00  0.00     0.002 A 
ATOM     57  C   UNL A   1      36.516  31.585  29.970  1.00  0.00     0.091 A 
ATOM     58  F   UNL A   1      38.337  32.477  28.720  1.00  0.00    -0.205 F 
ATOM     59  C   UNL A   1      36.041  30.645  30.896  1.00  0.00     0.022 A 
BRANCH  57  60
ATOM     60  S   UNL A   1      35.326  32.743  29.286  1.00  0.00     0.127 S 
ATOM     61  O   UNL A   1      34.178  32.548  30.168  1.00  0.00    -0.237 OA
ATOM     62  O   UNL A   1      36.018  34.021  29.449  1.00  0.00    -0.237 OA
ATOM     63  O   UNL A   1      35.137  32.338  27.899  1.00  0.00    -0.744 OA
ENDBRANCH  57  60
ENDBRANCH  29  53
BRANCH  41  64
ATOM     64  C   UNL A   1      44.115  34.927  32.038  1.00  0.00     0.023 A 
ATOM     65  C   UNL A   1      43.951  36.189  31.439  1.00  0.00     0.012 A 
ATOM     66  C   UNL A   1      44.246  34.823  33.435  1.00  0.00     0.148 A 
ATOM     67  C   UNL A   1      43.949  37.341  32.222  1.00  0.00     0.002 A 
ATOM     68  C   UNL A   1      44.181  35.969  34.213  1.00  0.00     0.091 A 
ATOM     69  F   UNL A   1      44.419  33.608  33.974  1.00  0.00    -0.205 F 
ATOM     70  C   UNL A   1      44.048  37.229  33.608  1.00  0.00     0.022 A 
BRANCH  68  71
ATOM     71  S   UNL A   1      44.179  35.904  36.006  1.00  0.00     0.127 S 
ATOM     72  O   UNL A   1      44.044  37.318  36.354  1.00  0.00    -0.237 OA
ATOM     73  O   UNL A   1      42.995  35.091  36.282  1.00  0.00    -0.237 OA
ATOM     74  O   UNL A   1      45.440  35.285  36.390  1.00  0.00    -0.744 OA
ENDBRANCH  68  71
ENDBRANCH  41  64
ENDBRANCH  15  16
ENDBRANCH   8  10
ENDBRANCH   7   8
ENDBRANCH   6   7
ENDBRANCH   5   6
ENDBRANCH   4   5
ENDBRANCH   3   4
ENDBRANCH   2   3
ENDBRANCH   1   2
BRANCH   1  75
ATOM     75  C   UNL A   1      41.529  20.255  26.211  1.00  0.00     0.188 C 
BRANCH  75  76
ATOM     76  C   UNL A   1      40.246  20.901  26.749  1.00  0.00     0.188 C 
BRANCH  76  77
ATOM     77  O   UNL A   1      40.347  22.281  27.046  1.00  0.00    -0.376 OA
BRANCH  77  78
ATOM     78  C   UNL A   1      39.307  23.073  26.473  1.00  0.00     0.202 C 
BRANCH  78  79
ATOM     79  C   UNL A   1      38.126  22.285  25.876  1.00  0.00     0.261 C 
BRANCH  79  80
ATOM     80  O   UNL A   1      36.878  23.019  25.885  1.00  0.00    -0.463 OA
BRANCH  80  81
ATOM     81  C   UNL A   1      36.309  23.452  24.744  1.00  0.00     0.313 C 
ATOM     82  O   UNL A   1      36.863  23.386  23.650  1.00  0.00    -0.252 OA
BRANCH  81  83
ATOM     83  C   UNL A   1      34.874  24.015  24.932  1.00  0.00     0.079 C 
ATOM     84  C   UNL A   1      34.742  25.312  25.800  1.00  0.00     0.055 C 
ATOM     85  C   UNL A   1      34.435  24.513  23.519  1.00  0.00     0.055 C 
ATOM     86  C   UNL A   1      33.626  26.055  25.136  1.00  0.00    -0.044 A 
ATOM     87  C   UNL A   1      33.465  25.610  23.829  1.00  0.00    -0.044 A 
ATOM     88  C   UNL A   1      32.818  27.042  25.677  1.00  0.00     0.004 A 
ATOM     89  C   UNL A   1      32.518  26.182  23.003  1.00  0.00     0.004 A 
ATOM     90  C   UNL A   1      31.835  27.602  24.862  1.00  0.00     0.000 A 
ATOM     91  C   UNL A   1      31.695  27.182  23.529  1.00  0.00     0.000 A 
BRANCH  83  92
ATOM     92  C   UNL A   1      33.887  22.920  25.479  1.00  0.00     0.047 C 
BRANCH  92  93
ATOM     93  C   UNL A   1      33.884  21.639  24.696  1.00  0.00    -0.025 C 
ATOM     94  C   UNL A   1      33.118  20.573  24.984  1.00  0.00     0.004 C 
BRANCH  94  95
ATOM     95  C   UNL A   1      33.343  19.264  24.356  1.00  0.00    -0.026 A 
ATOM     96  C   UNL A   1      34.477  18.505  24.662  1.00  0.00     0.008 A 
ATOM     97  C   UNL A   1      32.474  18.808  23.352  1.00  0.00     0.008 A 
ATOM     98  C   UNL A   1      34.715  17.296  24.000  1.00  0.00     0.001 A 
ATOM     99  C   UNL A   1      32.712  17.603  22.693  1.00  0.00     0.001 A 
ATOM    100  C   UNL A   1      33.831  16.844  23.021  1.00  0.00     0.000 A 
ENDBRANCH  94  95
ENDBRANCH  92  93
ENDBRANCH  83  92
ENDBRANCH  81  83
ENDBRANCH  80  81
ENDBRANCH  79  80
ENDBRANCH  78  79
ENDBRANCH  77  78
ENDBRANCH  76  77
ENDBRANCH  75  76
ENDBRANCH   1  75
TORSDOF 26
ENDMDL
