MODEL 1
REMARK VINA RESULT:     -10.6      0.000      0.000
REMARK SMILES C#Cc1cc(Cl)c2c(c1)C=C(C(=O)OCCOCCOCCOCCOC(=O)c1ccc(-c3c4nc(c(-c5cccc(S(=O)(=O)[O-])c5F)c5ccc([nH]5)c(-c5cccc(S(=O)(=O)[O-])c5F)c5nc(c(-c6cccc(S(=O)(=O)[O-])c6F)c6ccc3[nH]6)C=C5)C=C4)cc1)[C@@H](C(F)(F)F)O2
REMARK SMILES IDX 21 1 20 2 19 3 18 4 17 5 16 6 15 7 14 8 12 9 13 10 11 11
REMARK SMILES IDX 3 12 4 13 9 14 5 15 8 16 6 17 7 18 10 19 97 20 92 21 2 22
REMARK SMILES IDX 1 23 93 24 94 25 95 26 96 27 22 28 23 29 24 30 25 31 26 32
REMARK SMILES IDX 27 33 28 34 29 35 30 36 91 37 31 38 90 39 32 40 33 41 34 42
REMARK SMILES IDX 84 43 35 44 89 45 83 46 85 47 36 48 88 49 82 50 81 51 37 53
REMARK SMILES IDX 69 54 49 55 68 56 50 57 53 58 67 59 86 60 51 61 52 62 66 64
REMARK SMILES IDX 87 65 54 66 38 67 39 68 47 69 40 70 42 71 48 72 41 73 43 74
REMARK SMILES IDX 44 75 45 76 46 77 70 78 71 79 79 80 72 81 74 82 80 83 73 84
REMARK SMILES IDX 75 85 76 86 77 87 78 88 55 89 56 90 64 91 57 92 59 93 65 94
REMARK SMILES IDX 58 95 60 96 61 97 62 98 63 99
REMARK H PARENT 85 52 53 63
REMARK Flexibility Score: inf
ROOT
ATOM      1  C   UNL A   1      32.625  28.725  23.820  1.00  0.00     0.188 C 
ENDROOT
BRANCH   1   2
ATOM      2  O   UNL A   1      31.607  28.776  22.823  1.00  0.00    -0.377 OA
BRANCH   2   3
ATOM      3  C   UNL A   1      30.819  27.630  22.580  1.00  0.00     0.188 C 
BRANCH   3   4
ATOM      4  C   UNL A   1      29.678  27.370  23.585  1.00  0.00     0.188 C 
BRANCH   4   5
ATOM      5  O   UNL A   1      29.778  26.231  24.413  1.00  0.00    -0.376 OA
BRANCH   5   6
ATOM      6  C   UNL A   1      30.497  26.198  25.634  1.00  0.00     0.202 C 
BRANCH   6   7
ATOM      7  C   UNL A   1      31.833  25.483  25.901  1.00  0.00     0.261 C 
BRANCH   7   8
ATOM      8  O   UNL A   1      31.787  24.096  26.209  1.00  0.00    -0.460 OA
BRANCH   8   9
ATOM      9  C   UNL A   1      32.940  23.417  26.075  1.00  0.00     0.338 C 
ATOM     10  O   UNL A   1      33.976  23.597  26.693  1.00  0.00    -0.246 OA
BRANCH   9  11
ATOM     11  C   UNL A   1      32.688  22.264  25.185  1.00  0.00     0.087 C 
ATOM     12  C   UNL A   1      32.753  17.502  24.575  1.00  0.00     0.027 A 
ATOM     13  C   UNL A   1      32.562  17.672  23.205  1.00  0.00     0.041 A 
ATOM     14  C   UNL A   1      32.747  18.611  25.421  1.00  0.00     0.029 A 
ATOM     15  C   UNL A   1      32.341  18.949  22.685  1.00  0.00     0.084 A 
ATOM     16  C   UNL A   1      32.585  19.897  24.890  1.00  0.00     0.020 A 
ATOM     17  Cl  UNL A   1      32.123  19.106  20.979  1.00  0.00    -0.080 Cl
ATOM     18  C   UNL A   1      32.347  20.071  23.524  1.00  0.00     0.146 A 
ATOM     19  C   UNL A   1      32.763  21.053  25.747  1.00  0.00     0.027 C 
ATOM     20  O   UNL A   1      32.127  21.297  22.960  1.00  0.00    -0.474 OA
ATOM     21  C   UNL A   1      32.321  22.506  23.744  1.00  0.00     0.316 C 
BRANCH  12  22
ATOM     22  C   UNL A   1      33.014  16.199  25.111  1.00  0.00    -0.070 C 
ATOM     23  C   UNL A   1      33.211  15.099  25.537  1.00  0.00     0.010 C 
ENDBRANCH  12  22
BRANCH  21  24
ATOM     24  C   UNL A   1      33.365  23.382  23.038  1.00  0.00     0.430 C 
ATOM     25  F   UNL A   1      34.517  23.446  23.739  1.00  0.00    -0.167 F 
ATOM     26  F   UNL A   1      33.667  22.911  21.806  1.00  0.00    -0.167 F 
ATOM     27  F   UNL A   1      32.909  24.649  22.882  1.00  0.00    -0.167 F 
ENDBRANCH  21  24
ENDBRANCH   9  11
ENDBRANCH   8   9
ENDBRANCH   7   8
ENDBRANCH   6   7
ENDBRANCH   5   6
ENDBRANCH   4   5
ENDBRANCH   3   4
ENDBRANCH   2   3
ENDBRANCH   1   2
BRANCH   1  28
ATOM     28  C   UNL A   1      32.628  29.653  25.063  1.00  0.00     0.188 C 
BRANCH  28  29
ATOM     29  O   UNL A   1      31.402  30.297  25.341  1.00  0.00    -0.376 OA
BRANCH  29  30
ATOM     30  C   UNL A   1      31.353  31.443  26.163  1.00  0.00     0.202 C 
BRANCH  30  31
ATOM     31  C   UNL A   1      32.446  31.708  27.209  1.00  0.00     0.261 C 
BRANCH  31  32
ATOM     32  O   UNL A   1      33.305  32.831  26.988  1.00  0.00    -0.460 OA
BRANCH  32  33
ATOM     33  C   UNL A   1      33.820  33.440  28.079  1.00  0.00     0.338 C 
ATOM     34  O   UNL A   1      33.300  34.321  28.738  1.00  0.00    -0.246 OA
BRANCH  33  35
ATOM     35  C   UNL A   1      35.047  32.701  28.457  1.00  0.00     0.060 A 
ATOM     36  C   UNL A   1      34.953  31.343  28.789  1.00  0.00     0.016 A 
ATOM     37  C   UNL A   1      36.286  33.345  28.454  1.00  0.00     0.016 A 
ATOM     38  C   UNL A   1      36.095  30.628  29.145  1.00  0.00     0.010 A 
ATOM     39  C   UNL A   1      37.425  32.636  28.844  1.00  0.00     0.010 A 
ATOM     40  C   UNL A   1      37.329  31.285  29.224  1.00  0.00    -0.014 A 
BRANCH  40  41
ATOM     41  C   UNL A   1      38.465  30.622  29.907  1.00  0.00     0.031 A 
ATOM     42  C   UNL A   1      38.763  31.017  31.328  1.00  0.00     0.074 A 
ATOM     43  C   UNL A   1      39.201  29.677  29.294  1.00  0.00     0.049 A 
ATOM     44  N   UNL A   1      39.725  30.613  32.114  1.00  0.00    -0.248 NA
ATOM     45  C   UNL A   1      37.852  31.997  31.945  1.00  0.00     0.031 C 
ATOM     46  C   UNL A   1      38.987  29.186  27.934  1.00  0.00     0.029 A 
ATOM     47  N   UNL A   1      40.294  28.973  29.739  1.00  0.00    -0.354 N 
ATOM     48  C   UNL A   1      39.552  31.307  33.305  1.00  0.00     0.074 A 
ATOM     49  C   UNL A   1      38.405  32.168  33.137  1.00  0.00     0.031 C 
ATOM     50  C   UNL A   1      39.934  28.275  27.647  1.00  0.00     0.029 A 
ATOM     51  C   UNL A   1      40.840  28.143  28.787  1.00  0.00     0.049 A 
ATOM     52  H   UNL A   1      40.653  29.055  30.652  1.00  0.00     0.167 HD
ATOM     53  C   UNL A   1      40.275  31.219  34.445  1.00  0.00     0.034 A 
ATOM     54  C   UNL A   1      41.956  27.387  28.826  1.00  0.00     0.034 A 
ATOM     55  C   UNL A   1      41.404  30.347  34.614  1.00  0.00     0.049 A 
ATOM     56  C   UNL A   1      42.779  27.354  30.091  1.00  0.00     0.074 A 
ATOM     57  C   UNL A   1      42.182  30.167  35.743  1.00  0.00     0.029 A 
ATOM     58  N   UNL A   1      41.921  29.517  33.632  1.00  0.00    -0.354 N 
ATOM     59  N   UNL A   1      42.554  27.946  31.239  1.00  0.00    -0.248 NA
ATOM     60  C   UNL A   1      43.997  26.527  30.077  1.00  0.00     0.031 C 
ATOM     61  C   UNL A   1      43.199  29.263  35.430  1.00  0.00     0.029 A 
ATOM     62  C   UNL A   1      43.021  28.837  34.124  1.00  0.00     0.049 A 
ATOM     63  H   UNL A   1      41.560  29.425  32.721  1.00  0.00     0.167 HD
ATOM     64  C   UNL A   1      43.575  27.535  32.092  1.00  0.00     0.074 A 
ATOM     65  C   UNL A   1      44.407  26.624  31.334  1.00  0.00     0.031 C 
ATOM     66  C   UNL A   1      43.811  27.890  33.379  1.00  0.00     0.034 A 
BRANCH  53  67
ATOM     67  C   UNL A   1      39.860  32.064  35.620  1.00  0.00     0.023 A 
ATOM     68  C   UNL A   1      40.303  33.398  35.712  1.00  0.00     0.012 A 
ATOM     69  C   UNL A   1      38.936  31.573  36.565  1.00  0.00     0.148 A 
ATOM     70  C   UNL A   1      39.842  34.229  36.733  1.00  0.00     0.002 A 
ATOM     71  C   UNL A   1      38.441  32.422  37.546  1.00  0.00     0.091 A 
ATOM     72  F   UNL A   1      38.546  30.294  36.470  1.00  0.00    -0.205 F 
ATOM     73  C   UNL A   1      38.900  33.746  37.637  1.00  0.00     0.022 A 
BRANCH  71  74
ATOM     74  S   UNL A   1      37.157  31.929  38.701  1.00  0.00     0.127 S 
ATOM     75  O   UNL A   1      37.767  32.273  39.985  1.00  0.00    -0.237 OA
ATOM     76  O   UNL A   1      36.044  32.790  38.303  1.00  0.00    -0.237 OA
ATOM     77  O   UNL A   1      36.941  30.505  38.483  1.00  0.00    -0.744 OA
ENDBRANCH  71  74
ENDBRANCH  53  67
BRANCH  54  78
ATOM     78  C   UNL A   1      42.354  26.573  27.640  1.00  0.00     0.023 A 
ATOM     79  C   UNL A   1      43.140  27.158  26.627  1.00  0.00     0.012 A 
ATOM     80  C   UNL A   1      41.967  25.224  27.511  1.00  0.00     0.148 A 
ATOM     81  C   UNL A   1      43.505  26.426  25.496  1.00  0.00     0.002 A 
ATOM     82  C   UNL A   1      42.387  24.483  26.414  1.00  0.00     0.091 A 
ATOM     83  F   UNL A   1      41.203  24.690  28.475  1.00  0.00    -0.205 F 
ATOM     84  C   UNL A   1      43.140  25.087  25.394  1.00  0.00     0.022 A 
BRANCH  82  85
ATOM     85  S   UNL A   1      42.079  22.720  26.260  1.00  0.00     0.127 S 
ATOM     86  O   UNL A   1      42.594  22.442  24.921  1.00  0.00    -0.237 OA
ATOM     87  O   UNL A   1      42.884  22.182  27.356  1.00  0.00    -0.237 OA
ATOM     88  O   UNL A   1      40.641  22.554  26.427  1.00  0.00    -0.744 OA
ENDBRANCH  82  85
ENDBRANCH  54  78
BRANCH  66  89
ATOM     89  C   UNL A   1      44.996  27.279  34.086  1.00  0.00     0.023 A 
ATOM     90  C   UNL A   1      46.230  27.957  34.104  1.00  0.00     0.012 A 
ATOM     91  C   UNL A   1      44.848  26.094  34.839  1.00  0.00     0.148 A 
ATOM     92  C   UNL A   1      47.306  27.453  34.834  1.00  0.00     0.002 A 
ATOM     93  C   UNL A   1      45.906  25.631  35.610  1.00  0.00     0.091 A 
ATOM     94  F   UNL A   1      43.668  25.458  34.803  1.00  0.00    -0.205 F 
ATOM     95  C   UNL A   1      47.140  26.301  35.599  1.00  0.00     0.022 A 
BRANCH  93  96
ATOM     96  S   UNL A   1      45.756  24.221  36.716  1.00  0.00     0.127 S 
ATOM     97  O   UNL A   1      45.417  23.147  35.783  1.00  0.00    -0.237 OA
ATOM     98  O   UNL A   1      47.100  24.133  37.285  1.00  0.00    -0.237 OA
ATOM     99  O   UNL A   1      44.710  24.564  37.670  1.00  0.00    -0.744 OA
ENDBRANCH  93  96
ENDBRANCH  66  89
ENDBRANCH  40  41
ENDBRANCH  33  35
ENDBRANCH  32  33
ENDBRANCH  31  32
ENDBRANCH  30  31
ENDBRANCH  29  30
ENDBRANCH  28  29
ENDBRANCH   1  28
TORSDOF 25
ENDMDL
MODEL 2
REMARK VINA RESULT:     -10.1      1.840      7.351
REMARK SMILES C#Cc1cc(Cl)c2c(c1)C=C(C(=O)OCCOCCOCCOCCOC(=O)c1ccc(-c3c4nc(c(-c5cccc(S(=O)(=O)[O-])c5F)c5ccc([nH]5)c(-c5cccc(S(=O)(=O)[O-])c5F)c5nc(c(-c6cccc(S(=O)(=O)[O-])c6F)c6ccc3[nH]6)C=C5)C=C4)cc1)[C@@H](C(F)(F)F)O2
REMARK SMILES IDX 21 1 20 2 19 3 18 4 17 5 16 6 15 7 14 8 12 9 13 10 11 11
REMARK SMILES IDX 3 12 4 13 9 14 5 15 8 16 6 17 7 18 10 19 97 20 92 21 2 22
REMARK SMILES IDX 1 23 93 24 94 25 95 26 96 27 22 28 23 29 24 30 25 31 26 32
REMARK SMILES IDX 27 33 28 34 29 35 30 36 91 37 31 38 90 39 32 40 33 41 34 42
REMARK SMILES IDX 84 43 35 44 89 45 83 46 85 47 36 48 88 49 82 50 81 51 37 53
REMARK SMILES IDX 69 54 49 55 68 56 50 57 53 58 67 59 86 60 51 61 52 62 66 64
REMARK SMILES IDX 87 65 54 66 38 67 39 68 47 69 40 70 42 71 48 72 41 73 43 74
REMARK SMILES IDX 44 75 45 76 46 77 70 78 71 79 79 80 72 81 74 82 80 83 73 84
REMARK SMILES IDX 75 85 76 86 77 87 78 88 55 89 56 90 64 91 57 92 59 93 65 94
REMARK SMILES IDX 58 95 60 96 61 97 62 98 63 99
REMARK H PARENT 85 52 53 63
REMARK Flexibility Score: inf
ROOT
ATOM      1  C   UNL A   1      32.160  28.972  25.633  1.00  0.00     0.188 C 
ENDROOT
BRANCH   1   2
ATOM      2  O   UNL A   1      31.022  29.427  24.906  1.00  0.00    -0.377 OA
BRANCH   2   3
ATOM      3  C   UNL A   1      30.771  28.909  23.616  1.00  0.00     0.188 C 
BRANCH   3   4
ATOM      4  C   UNL A   1      31.057  27.405  23.427  1.00  0.00     0.188 C 
BRANCH   4   5
ATOM      5  O   UNL A   1      30.045  26.492  23.795  1.00  0.00    -0.376 OA
BRANCH   5   6
ATOM      6  C   UNL A   1      30.275  25.306  24.536  1.00  0.00     0.202 C 
BRANCH   6   7
ATOM      7  C   UNL A   1      31.121  25.164  25.814  1.00  0.00     0.261 C 
BRANCH   7   8
ATOM      8  O   UNL A   1      31.600  23.867  26.146  1.00  0.00    -0.460 OA
BRANCH   8   9
ATOM      9  C   UNL A   1      32.784  23.516  25.615  1.00  0.00     0.338 C 
ATOM     10  O   UNL A   1      33.876  23.993  25.873  1.00  0.00    -0.246 OA
BRANCH   9  11
ATOM     11  C   UNL A   1      32.575  22.299  24.803  1.00  0.00     0.087 C 
ATOM     12  C   UNL A   1      32.748  17.508  24.529  1.00  0.00     0.027 A 
ATOM     13  C   UNL A   1      32.585  17.578  23.147  1.00  0.00     0.041 A 
ATOM     14  C   UNL A   1      32.702  18.673  25.295  1.00  0.00     0.029 A 
ATOM     15  C   UNL A   1      32.350  18.811  22.534  1.00  0.00     0.084 A 
ATOM     16  C   UNL A   1      32.526  19.916  24.672  1.00  0.00     0.020 A 
ATOM     17  Cl  UNL A   1      32.166  18.845  20.817  1.00  0.00    -0.080 Cl
ATOM     18  C   UNL A   1      32.315  19.989  23.293  1.00  0.00     0.146 A 
ATOM     19  C   UNL A   1      32.662  21.131  25.450  1.00  0.00     0.027 C 
ATOM     20  O   UNL A   1      32.082  21.167  22.640  1.00  0.00    -0.474 OA
ATOM     21  C   UNL A   1      32.235  22.432  23.342  1.00  0.00     0.316 C 
BRANCH  12  22
ATOM     22  C   UNL A   1      33.023  16.252  25.159  1.00  0.00    -0.070 C 
ATOM     23  C   UNL A   1      33.278  15.198  25.668  1.00  0.00     0.010 C 
ENDBRANCH  12  22
BRANCH  21  24
ATOM     24  C   UNL A   1      33.276  23.279  22.597  1.00  0.00     0.430 C 
ATOM     25  F   UNL A   1      33.199  23.101  21.261  1.00  0.00    -0.167 F 
ATOM     26  F   UNL A   1      33.117  24.600  22.839  1.00  0.00    -0.167 F 
ATOM     27  F   UNL A   1      34.534  22.950  22.981  1.00  0.00    -0.167 F 
ENDBRANCH  21  24
ENDBRANCH   9  11
ENDBRANCH   8   9
ENDBRANCH   7   8
ENDBRANCH   6   7
ENDBRANCH   5   6
ENDBRANCH   4   5
ENDBRANCH   3   4
ENDBRANCH   2   3
ENDBRANCH   1   2
BRANCH   1  28
ATOM     28  C   UNL A   1      32.857  29.829  26.722  1.00  0.00     0.188 C 
BRANCH  28  29
ATOM     29  O   UNL A   1      32.450  31.180  26.782  1.00  0.00    -0.376 OA
BRANCH  29  30
ATOM     30  C   UNL A   1      33.161  32.120  27.558  1.00  0.00     0.202 C 
BRANCH  30  31
ATOM     31  C   UNL A   1      32.752  33.600  27.568  1.00  0.00     0.261 C 
BRANCH  31  32
ATOM     32  O   UNL A   1      32.531  34.209  28.844  1.00  0.00    -0.460 OA
BRANCH  32  33
ATOM     33  C   UNL A   1      33.510  35.006  29.326  1.00  0.00     0.338 C 
ATOM     34  O   UNL A   1      33.430  36.196  29.572  1.00  0.00    -0.246 OA
BRANCH  33  35
ATOM     35  C   UNL A   1      34.646  34.132  29.698  1.00  0.00     0.060 A 
ATOM     36  C   UNL A   1      34.447  33.114  30.640  1.00  0.00     0.016 A 
ATOM     37  C   UNL A   1      35.894  34.304  29.095  1.00  0.00     0.016 A 
ATOM     38  C   UNL A   1      35.502  32.278  31.002  1.00  0.00     0.010 A 
ATOM     39  C   UNL A   1      36.959  33.487  29.484  1.00  0.00     0.010 A 
ATOM     40  C   UNL A   1      36.776  32.494  30.464  1.00  0.00    -0.014 A 
BRANCH  40  41
ATOM     41  C   UNL A   1      37.949  31.832  31.081  1.00  0.00     0.031 A 
ATOM     42  C   UNL A   1      38.644  30.751  30.298  1.00  0.00     0.074 A 
ATOM     43  C   UNL A   1      38.405  32.194  32.294  1.00  0.00     0.049 A 
ATOM     44  N   UNL A   1      39.656  30.001  30.642  1.00  0.00    -0.248 NA
ATOM     45  C   UNL A   1      38.127  30.481  28.943  1.00  0.00     0.031 C 
ATOM     46  C   UNL A   1      37.839  33.249  33.131  1.00  0.00     0.029 A 
ATOM     47  N   UNL A   1      39.445  31.693  33.039  1.00  0.00    -0.354 N 
ATOM     48  C   UNL A   1      39.881  29.155  29.563  1.00  0.00     0.074 A 
ATOM     49  C   UNL A   1      38.893  29.471  28.557  1.00  0.00     0.031 C 
ATOM     50  C   UNL A   1      38.526  33.303  34.287  1.00  0.00     0.029 A 
ATOM     51  C   UNL A   1      39.556  32.265  34.286  1.00  0.00     0.049 A 
ATOM     52  H   UNL A   1      40.053  30.991  32.712  1.00  0.00     0.167 HD
ATOM     53  C   UNL A   1      40.839  28.212  29.415  1.00  0.00     0.034 A 
ATOM     54  C   UNL A   1      40.378  31.966  35.312  1.00  0.00     0.034 A 
ATOM     55  C   UNL A   1      41.832  27.915  30.410  1.00  0.00     0.049 A 
ATOM     56  C   UNL A   1      41.398  30.867  35.143  1.00  0.00     0.074 A 
ATOM     57  C   UNL A   1      42.863  26.996  30.339  1.00  0.00     0.029 A 
ATOM     58  N   UNL A   1      41.917  28.520  31.654  1.00  0.00    -0.354 N 
ATOM     59  N   UNL A   1      41.658  30.137  34.085  1.00  0.00    -0.248 NA
ATOM     60  C   UNL A   1      42.259  30.568  36.299  1.00  0.00     0.031 C 
ATOM     61  C   UNL A   1      43.543  27.011  31.558  1.00  0.00     0.029 A 
ATOM     62  C   UNL A   1      42.972  27.980  32.367  1.00  0.00     0.049 A 
ATOM     63  H   UNL A   1      41.317  29.228  31.981  1.00  0.00     0.167 HD
ATOM     64  C   UNL A   1      42.732  29.322  34.434  1.00  0.00     0.074 A 
ATOM     65  C   UNL A   1      43.090  29.666  35.794  1.00  0.00     0.031 C 
ATOM     66  C   UNL A   1      43.355  28.367  33.701  1.00  0.00     0.034 A 
BRANCH  53  67
ATOM     67  C   UNL A   1      40.890  27.443  28.122  1.00  0.00     0.023 A 
ATOM     68  C   UNL A   1      41.505  28.017  26.992  1.00  0.00     0.012 A 
ATOM     69  C   UNL A   1      40.438  26.109  28.063  1.00  0.00     0.148 A 
ATOM     70  C   UNL A   1      41.660  27.280  25.819  1.00  0.00     0.002 A 
ATOM     71  C   UNL A   1      40.644  25.364  26.909  1.00  0.00     0.091 A 
ATOM     72  F   UNL A   1      39.837  25.591  29.143  1.00  0.00    -0.205 F 
ATOM     73  C   UNL A   1      41.246  25.951  25.784  1.00  0.00     0.022 A 
BRANCH  71  74
ATOM     74  S   UNL A   1      40.234  23.620  26.791  1.00  0.00     0.127 S 
ATOM     75  O   UNL A   1      38.861  23.673  26.290  1.00  0.00    -0.237 OA
ATOM     76  O   UNL A   1      41.220  23.142  25.822  1.00  0.00    -0.237 OA
ATOM     77  O   UNL A   1      40.380  23.078  28.135  1.00  0.00    -0.744 OA
ENDBRANCH  71  74
ENDBRANCH  53  67
BRANCH  54  78
ATOM     78  C   UNL A   1      40.293  32.734  36.590  1.00  0.00     0.023 A 
ATOM     79  C   UNL A   1      39.322  32.383  37.549  1.00  0.00     0.012 A 
ATOM     80  C   UNL A   1      41.171  33.801  36.865  1.00  0.00     0.148 A 
ATOM     81  C   UNL A   1      39.205  33.100  38.741  1.00  0.00     0.002 A 
ATOM     82  C   UNL A   1      41.091  34.469  38.081  1.00  0.00     0.091 A 
ATOM     83  F   UNL A   1      42.076  34.133  35.933  1.00  0.00    -0.205 F 
ATOM     84  C   UNL A   1      40.096  34.134  39.013  1.00  0.00     0.022 A 
BRANCH  82  85
ATOM     85  S   UNL A   1      42.277  35.724  38.575  1.00  0.00     0.127 S 
ATOM     86  O   UNL A   1      43.548  35.076  38.257  1.00  0.00    -0.237 OA
ATOM     87  O   UNL A   1      41.914  36.836  37.697  1.00  0.00    -0.237 OA
ATOM     88  O   UNL A   1      42.032  35.964  39.991  1.00  0.00    -0.744 OA
ENDBRANCH  82  85
ENDBRANCH  54  78
BRANCH  66  89
ATOM     89  C   UNL A   1      44.517  27.630  34.321  1.00  0.00     0.023 A 
ATOM     90  C   UNL A   1      45.807  28.194  34.283  1.00  0.00     0.012 A 
ATOM     91  C   UNL A   1      44.305  26.440  35.050  1.00  0.00     0.148 A 
ATOM     92  C   UNL A   1      46.872  27.572  34.935  1.00  0.00     0.002 A 
ATOM     93  C   UNL A   1      45.358  25.860  35.746  1.00  0.00     0.091 A 
ATOM     94  F   UNL A   1      43.071  25.914  35.068  1.00  0.00    -0.205 F 
ATOM     95  C   UNL A   1      46.645  26.417  35.678  1.00  0.00     0.022 A 
BRANCH  93  96
ATOM     96  S   UNL A   1      45.142  24.436  36.821  1.00  0.00     0.127 S 
ATOM     97  O   UNL A   1      44.695  23.414  35.875  1.00  0.00    -0.237 OA
ATOM     98  O   UNL A   1      46.494  24.236  37.341  1.00  0.00    -0.237 OA
ATOM     99  O   UNL A   1      44.156  24.827  37.820  1.00  0.00    -0.744 OA
ENDBRANCH  93  96
ENDBRANCH  66  89
ENDBRANCH  40  41
ENDBRANCH  33  35
ENDBRANCH  32  33
ENDBRANCH  31  32
ENDBRANCH  30  31
ENDBRANCH  29  30
ENDBRANCH  28  29
ENDBRANCH   1  28
TORSDOF 25
ENDMDL
MODEL 3
REMARK VINA RESULT:      -9.5      2.313      3.171
REMARK SMILES C#Cc1cc(Cl)c2c(c1)C=C(C(=O)OCCOCCOCCOCCOC(=O)c1ccc(-c3c4nc(c(-c5cccc(S(=O)(=O)[O-])c5F)c5ccc([nH]5)c(-c5cccc(S(=O)(=O)[O-])c5F)c5nc(c(-c6cccc(S(=O)(=O)[O-])c6F)c6ccc3[nH]6)C=C5)C=C4)cc1)[C@@H](C(F)(F)F)O2
REMARK SMILES IDX 21 1 20 2 19 3 18 4 17 5 16 6 15 7 14 8 12 9 13 10 11 11
REMARK SMILES IDX 3 12 4 13 9 14 5 15 8 16 6 17 7 18 10 19 97 20 92 21 2 22
REMARK SMILES IDX 1 23 93 24 94 25 95 26 96 27 22 28 23 29 24 30 25 31 26 32
REMARK SMILES IDX 27 33 28 34 29 35 30 36 91 37 31 38 90 39 32 40 33 41 34 42
REMARK SMILES IDX 84 43 35 44 89 45 83 46 85 47 36 48 88 49 82 50 81 51 37 53
REMARK SMILES IDX 69 54 49 55 68 56 50 57 53 58 67 59 86 60 51 61 52 62 66 64
REMARK SMILES IDX 87 65 54 66 38 67 39 68 47 69 40 70 42 71 48 72 41 73 43 74
REMARK SMILES IDX 44 75 45 76 46 77 70 78 71 79 79 80 72 81 74 82 80 83 73 84
REMARK SMILES IDX 75 85 76 86 77 87 78 88 55 89 56 90 64 91 57 92 59 93 65 94
REMARK SMILES IDX 58 95 60 96 61 97 62 98 63 99
REMARK H PARENT 85 52 53 63
REMARK Flexibility Score: inf
ROOT
ATOM      1  C   UNL A   1      33.310  28.016  26.219  1.00  0.00     0.188 C 
ENDROOT
BRANCH   1   2
ATOM      2  O   UNL A   1      33.524  28.242  24.827  1.00  0.00    -0.377 OA
BRANCH   2   3
ATOM      3  C   UNL A   1      32.564  28.968  24.089  1.00  0.00     0.188 C 
BRANCH   3   4
ATOM      4  C   UNL A   1      31.939  28.231  22.887  1.00  0.00     0.188 C 
BRANCH   4   5
ATOM      5  O   UNL A   1      31.080  27.143  23.158  1.00  0.00    -0.376 OA
BRANCH   5   6
ATOM      6  C   UNL A   1      30.380  26.969  24.377  1.00  0.00     0.202 C 
BRANCH   6   7
ATOM      7  C   UNL A   1      29.846  25.647  24.956  1.00  0.00     0.261 C 
BRANCH   7   8
ATOM      8  O   UNL A   1      30.785  24.606  25.194  1.00  0.00    -0.460 OA
BRANCH   8   9
ATOM      9  C   UNL A   1      31.130  23.861  24.129  1.00  0.00     0.338 C 
ATOM     10  O   UNL A   1      30.632  23.892  23.016  1.00  0.00    -0.246 OA
BRANCH   9  11
ATOM     11  C   UNL A   1      32.367  23.127  24.470  1.00  0.00     0.087 C 
ATOM     12  C   UNL A   1      36.915  23.302  25.999  1.00  0.00     0.027 A 
ATOM     13  C   UNL A   1      37.097  21.974  25.620  1.00  0.00     0.041 A 
ATOM     14  C   UNL A   1      35.658  23.893  25.880  1.00  0.00     0.029 A 
ATOM     15  C   UNL A   1      36.014  21.230  25.147  1.00  0.00     0.084 A 
ATOM     16  C   UNL A   1      34.586  23.164  25.349  1.00  0.00     0.020 A 
ATOM     17  Cl  UNL A   1      36.296  19.591  24.679  1.00  0.00    -0.080 Cl
ATOM     18  C   UNL A   1      34.750  21.818  25.011  1.00  0.00     0.146 A 
ATOM     19  C   UNL A   1      33.336  23.837  25.059  1.00  0.00     0.027 C 
ATOM     20  O   UNL A   1      33.727  21.042  24.541  1.00  0.00    -0.474 OA
ATOM     21  C   UNL A   1      32.453  21.649  24.191  1.00  0.00     0.316 C 
BRANCH  12  22
ATOM     22  C   UNL A   1      38.028  24.081  26.454  1.00  0.00    -0.070 C 
ATOM     23  C   UNL A   1      38.942  24.758  26.827  1.00  0.00     0.010 C 
ENDBRANCH  12  22
BRANCH  21  24
ATOM     24  C   UNL A   1      32.152  21.337  22.719  1.00  0.00     0.430 C 
ATOM     25  F   UNL A   1      32.644  20.133  22.356  1.00  0.00    -0.167 F 
ATOM     26  F   UNL A   1      30.823  21.323  22.468  1.00  0.00    -0.167 F 
ATOM     27  F   UNL A   1      32.704  22.268  21.902  1.00  0.00    -0.167 F 
ENDBRANCH  21  24
ENDBRANCH   9  11
ENDBRANCH   8   9
ENDBRANCH   7   8
ENDBRANCH   6   7
ENDBRANCH   5   6
ENDBRANCH   4   5
ENDBRANCH   3   4
ENDBRANCH   2   3
ENDBRANCH   1   2
BRANCH   1  28
ATOM     28  C   UNL A   1      32.646  29.067  27.146  1.00  0.00     0.188 C 
BRANCH  28  29
ATOM     29  O   UNL A   1      32.843  30.415  26.773  1.00  0.00    -0.376 OA
BRANCH  29  30
ATOM     30  C   UNL A   1      31.747  31.280  26.566  1.00  0.00     0.202 C 
BRANCH  30  31
ATOM     31  C   UNL A   1      31.786  32.731  27.066  1.00  0.00     0.261 C 
BRANCH  31  32
ATOM     32  O   UNL A   1      33.041  33.414  26.992  1.00  0.00    -0.460 OA
BRANCH  32  33
ATOM     33  C   UNL A   1      33.512  33.966  28.132  1.00  0.00     0.338 C 
ATOM     34  O   UNL A   1      32.973  34.826  28.805  1.00  0.00    -0.246 OA
BRANCH  33  35
ATOM     35  C   UNL A   1      34.709  33.193  28.534  1.00  0.00     0.060 A 
ATOM     36  C   UNL A   1      34.547  31.900  29.049  1.00  0.00     0.016 A 
ATOM     37  C   UNL A   1      35.985  33.738  28.376  1.00  0.00     0.016 A 
ATOM     38  C   UNL A   1      35.661  31.154  29.430  1.00  0.00     0.010 A 
ATOM     39  C   UNL A   1      37.099  33.002  28.791  1.00  0.00     0.010 A 
ATOM     40  C   UNL A   1      36.938  31.721  29.351  1.00  0.00    -0.014 A 
BRANCH  40  41
ATOM     41  C   UNL A   1      38.071  31.068  30.050  1.00  0.00     0.031 A 
ATOM     42  C   UNL A   1      38.293  31.403  31.500  1.00  0.00     0.074 A 
ATOM     43  C   UNL A   1      38.869  30.184  29.424  1.00  0.00     0.049 A 
ATOM     44  N   UNL A   1      39.237  30.997  32.307  1.00  0.00    -0.248 NA
ATOM     45  C   UNL A   1      37.318  32.316  32.124  1.00  0.00     0.031 C 
ATOM     46  C   UNL A   1      38.731  29.754  28.035  1.00  0.00     0.029 A 
ATOM     47  N   UNL A   1      39.969  29.501  29.883  1.00  0.00    -0.354 N 
ATOM     48  C   UNL A   1      38.987  31.623  33.522  1.00  0.00     0.074 A 
ATOM     49  C   UNL A   1      37.814  32.448  33.346  1.00  0.00     0.031 C 
ATOM     50  C   UNL A   1      39.726  28.895  27.745  1.00  0.00     0.029 A 
ATOM     51  C   UNL A   1      40.588  28.741  28.916  1.00  0.00     0.049 A 
ATOM     52  H   UNL A   1      40.286  29.551  30.813  1.00  0.00     0.167 HD
ATOM     53  C   UNL A   1      39.665  31.506  34.686  1.00  0.00     0.034 A 
ATOM     54  C   UNL A   1      41.731  28.026  28.967  1.00  0.00     0.034 A 
ATOM     55  C   UNL A   1      40.819  30.670  34.861  1.00  0.00     0.049 A 
ATOM     56  C   UNL A   1      42.501  27.962  30.263  1.00  0.00     0.074 A 
ATOM     57  C   UNL A   1      41.557  30.463  36.013  1.00  0.00     0.029 A 
ATOM     58  N   UNL A   1      41.410  29.911  33.864  1.00  0.00    -0.354 N 
ATOM     59  N   UNL A   1      42.204  28.487  31.428  1.00  0.00    -0.248 NA
ATOM     60  C   UNL A   1      43.750  27.183  30.262  1.00  0.00     0.031 C 
ATOM     61  C   UNL A   1      42.621  29.616  35.702  1.00  0.00     0.029 A 
ATOM     62  C   UNL A   1      42.515  29.249  34.370  1.00  0.00     0.049 A 
ATOM     63  H   UNL A   1      41.091  29.851  32.935  1.00  0.00     0.167 HD
ATOM     64  C   UNL A   1      43.205  28.072  32.304  1.00  0.00     0.074 A 
ATOM     65  C   UNL A   1      44.104  27.233  31.540  1.00  0.00     0.031 C 
ATOM     66  C   UNL A   1      43.373  28.371  33.615  1.00  0.00     0.034 A 
BRANCH  53  67
ATOM     67  C   UNL A   1      39.167  32.275  35.882  1.00  0.00     0.023 A 
ATOM     68  C   UNL A   1      38.231  31.683  36.752  1.00  0.00     0.012 A 
ATOM     69  C   UNL A   1      39.719  33.530  36.207  1.00  0.00     0.148 A 
ATOM     70  C   UNL A   1      37.842  32.333  37.922  1.00  0.00     0.002 A 
ATOM     71  C   UNL A   1      39.366  34.147  37.400  1.00  0.00     0.091 A 
ATOM     72  F   UNL A   1      40.591  34.084  35.353  1.00  0.00    -0.205 F 
ATOM     73  C   UNL A   1      38.421  33.555  38.253  1.00  0.00     0.022 A 
BRANCH  71  74
ATOM     74  S   UNL A   1      40.123  35.674  37.965  1.00  0.00     0.127 S 
ATOM     75  O   UNL A   1      39.570  35.796  39.314  1.00  0.00    -0.237 OA
ATOM     76  O   UNL A   1      41.547  35.343  37.917  1.00  0.00    -0.237 OA
ATOM     77  O   UNL A   1      39.700  36.707  37.030  1.00  0.00    -0.744 OA
ENDBRANCH  71  74
ENDBRANCH  53  67
BRANCH  54  78
ATOM     78  C   UNL A   1      42.210  27.289  27.761  1.00  0.00     0.023 A 
ATOM     79  C   UNL A   1      42.696  28.010  26.653  1.00  0.00     0.012 A 
ATOM     80  C   UNL A   1      42.195  25.881  27.708  1.00  0.00     0.148 A 
ATOM     81  C   UNL A   1      43.128  27.345  25.503  1.00  0.00     0.002 A 
ATOM     82  C   UNL A   1      42.685  25.224  26.585  1.00  0.00     0.091 A 
ATOM     83  F   UNL A   1      41.711  25.212  28.764  1.00  0.00    -0.205 F 
ATOM     84  C   UNL A   1      43.134  25.954  25.474  1.00  0.00     0.022 A 
BRANCH  82  85
ATOM     85  S   UNL A   1      42.856  23.437  26.507  1.00  0.00     0.127 S 
ATOM     86  O   UNL A   1      42.482  23.162  25.122  1.00  0.00    -0.237 OA
ATOM     87  O   UNL A   1      44.276  23.262  26.810  1.00  0.00    -0.237 OA
ATOM     88  O   UNL A   1      41.951  22.909  27.519  1.00  0.00    -0.744 OA
ENDBRANCH  82  85
ENDBRANCH  54  78
BRANCH  66  89
ATOM     89  C   UNL A   1      44.550  27.771  34.343  1.00  0.00     0.023 A 
ATOM     90  C   UNL A   1      44.443  26.489  34.915  1.00  0.00     0.012 A 
ATOM     91  C   UNL A   1      45.799  28.429  34.350  1.00  0.00     0.148 A 
ATOM     92  C   UNL A   1      45.552  25.882  35.507  1.00  0.00     0.002 A 
ATOM     93  C   UNL A   1      46.911  27.793  34.888  1.00  0.00     0.091 A 
ATOM     94  F   UNL A   1      45.880  29.653  33.808  1.00  0.00    -0.205 F 
ATOM     95  C   UNL A   1      46.786  26.525  35.479  1.00  0.00     0.022 A 
BRANCH  93  96
ATOM     96  S   UNL A   1      48.565  28.490  34.799  1.00  0.00     0.127 S 
ATOM     97  O   UNL A   1      48.432  29.679  35.641  1.00  0.00    -0.237 OA
ATOM     98  O   UNL A   1      49.380  27.422  35.378  1.00  0.00    -0.237 OA
ATOM     99  O   UNL A   1      48.819  28.755  33.389  1.00  0.00    -0.744 OA
ENDBRANCH  93  96
ENDBRANCH  66  89
ENDBRANCH  40  41
ENDBRANCH  33  35
ENDBRANCH  32  33
ENDBRANCH  31  32
ENDBRANCH  30  31
ENDBRANCH  29  30
ENDBRANCH  28  29
ENDBRANCH   1  28
TORSDOF 25
ENDMDL
