MODEL 1
REMARK VINA RESULT:      -7.2      0.000      0.000
REMARK SMILES O=C(CSc1nnnn1-c1ccc(C(=O)OCCOCCOCCOCCOC(=O)c2ccc(-c3c4nc(c(-c5cccc(S(=O)(=O)[O-])c5F)c5ccc([nH]5)c(-c5cccc(S(=O)(=O)[O-])c5F)c5nc(c(-c6cccc(S(=O)(=O)[O-])c6F)c6ccc3[nH]6)C=C5)C=C4)cc2)cc1)Nc1nc(-c2ccccc2)cs1
REMARK SMILES IDX 20 1 19 2 18 3 17 4 16 5 14 6 15 7 13 8 10 9 11 10 95 11
REMARK SMILES IDX 12 12 94 13 9 14 5 15 6 16 7 17 8 18 4 19 3 20 2 21 1 22
REMARK SMILES IDX 96 23 97 25 98 26 107 27 99 28 106 29 100 30 101 31 105 32
REMARK SMILES IDX 102 33 104 34 103 35 21 36 22 37 23 38 24 39 25 40 26 41
REMARK SMILES IDX 27 42 28 43 29 44 30 45 31 46 32 47 93 48 33 49 92 50 34 51
REMARK SMILES IDX 35 52 36 53 86 54 37 55 91 56 85 57 87 58 38 59 90 60 84 61
REMARK SMILES IDX 83 62 39 64 71 65 51 66 70 67 52 68 55 69 69 70 88 71 53 72
REMARK SMILES IDX 54 73 68 75 89 76 56 77 40 78 41 79 49 80 42 81 44 82 50 83
REMARK SMILES IDX 43 84 45 85 46 86 47 87 48 88 72 89 73 90 81 91 74 92 76 93
REMARK SMILES IDX 82 94 75 95 77 96 78 97 79 98 80 99 57 100 58 101 66 102
REMARK SMILES IDX 59 103 61 104 67 105 60 106 62 107 63 108 64 109 65 110
REMARK H PARENT 96 24 87 63 55 74
REMARK Flexibility Score: inf
ROOT
ATOM      1  C   UNL A   1      45.788  32.244  26.306  1.00  0.00     0.188 C 
ENDROOT
BRANCH   1   2
ATOM      2  O   UNL A   1      44.488  31.671  26.327  1.00  0.00    -0.376 OA
BRANCH   2   3
ATOM      3  C   UNL A   1      44.227  30.363  26.808  1.00  0.00     0.202 C 
BRANCH   3   4
ATOM      4  C   UNL A   1      42.838  29.702  26.808  1.00  0.00     0.261 C 
BRANCH   4   5
ATOM      5  O   UNL A   1      42.767  28.340  26.405  1.00  0.00    -0.460 OA
BRANCH   5   6
ATOM      6  C   UNL A   1      42.776  27.435  27.403  1.00  0.00     0.338 C 
ATOM      7  O   UNL A   1      42.696  27.646  28.602  1.00  0.00    -0.246 OA
BRANCH   6   8
ATOM      8  C   UNL A   1      42.728  26.088  26.798  1.00  0.00     0.060 A 
ATOM      9  C   UNL A   1      42.816  23.520  25.778  1.00  0.00     0.069 A 
ATOM     10  C   UNL A   1      42.479  23.697  27.122  1.00  0.00     0.029 A 
ATOM     11  C   UNL A   1      42.968  24.616  24.913  1.00  0.00     0.029 A 
ATOM     12  C   UNL A   1      42.478  24.990  27.637  1.00  0.00     0.018 A 
ATOM     13  C   UNL A   1      42.904  25.908  25.424  1.00  0.00     0.018 A 
BRANCH   9  14
ATOM     14  N   UNL A   1      43.224  22.243  25.348  1.00  0.00    -0.187 N 
ATOM     15  C   UNL A   1      44.477  21.874  24.884  1.00  0.00     0.214 A 
ATOM     16  N   UNL A   1      44.499  20.575  24.706  1.00  0.00    -0.101 NA
ATOM     17  N   UNL A   1      43.273  20.121  25.136  1.00  0.00    -0.022 NA
ATOM     18  N   UNL A   1      42.534  21.113  25.619  1.00  0.00    -0.039 NA
BRANCH  15  19
ATOM     19  S   UNL A   1      45.861  22.925  24.949  1.00  0.00    -0.074 SA
BRANCH  19  20
ATOM     20  C   UNL A   1      46.000  23.297  26.704  1.00  0.00     0.178 C 
BRANCH  20  21
ATOM     21  C   UNL A   1      46.666  24.622  27.031  1.00  0.00     0.236 C 
ATOM     22  O   UNL A   1      47.564  25.030  26.297  1.00  0.00    -0.274 OA
ATOM     23  N   UNL A   1      46.120  25.303  28.098  1.00  0.00    -0.301 N 
ATOM     24  H   UNL A   1      45.393  24.884  28.613  1.00  0.00     0.172 HD
BRANCH  23  25
ATOM     25  C   UNL A   1      46.562  26.544  28.457  1.00  0.00     0.189 A 
ATOM     26  N   UNL A   1      45.951  27.460  29.158  1.00  0.00    -0.220 NA
ATOM     27  S   UNL A   1      48.128  26.936  27.898  1.00  0.00    -0.105 S 
ATOM     28  C   UNL A   1      46.709  28.609  29.175  1.00  0.00     0.084 A 
ATOM     29  C   UNL A   1      47.928  28.524  28.529  1.00  0.00     0.097 A 
BRANCH  28  30
ATOM     30  C   UNL A   1      46.225  29.804  29.833  1.00  0.00     0.001 A 
ATOM     31  C   UNL A   1      47.131  30.802  30.211  1.00  0.00     0.010 A 
ATOM     32  C   UNL A   1      44.869  29.942  30.149  1.00  0.00     0.010 A 
ATOM     33  C   UNL A   1      46.679  31.941  30.881  1.00  0.00     0.001 A 
ATOM     34  C   UNL A   1      44.422  31.077  30.829  1.00  0.00     0.001 A 
ATOM     35  C   UNL A   1      45.327  32.077  31.190  1.00  0.00     0.000 A 
ENDBRANCH  28  30
ENDBRANCH  23  25
ENDBRANCH  20  21
ENDBRANCH  19  20
ENDBRANCH  15  19
ENDBRANCH   9  14
ENDBRANCH   6   8
ENDBRANCH   5   6
ENDBRANCH   4   5
ENDBRANCH   3   4
ENDBRANCH   2   3
ENDBRANCH   1   2
BRANCH   1  36
ATOM     36  C   UNL A   1      46.230  33.307  27.337  1.00  0.00     0.188 C 
BRANCH  36  37
ATOM     37  O   UNL A   1      45.646  34.580  27.126  1.00  0.00    -0.377 OA
BRANCH  37  38
ATOM     38  C   UNL A   1      45.142  35.232  28.291  1.00  0.00     0.188 C 
BRANCH  38  39
ATOM     39  C   UNL A   1      43.649  35.649  28.315  1.00  0.00     0.188 C 
BRANCH  39  40
ATOM     40  O   UNL A   1      43.378  36.935  27.767  1.00  0.00    -0.376 OA
BRANCH  40  41
ATOM     41  C   UNL A   1      44.092  38.090  28.169  1.00  0.00     0.202 C 
BRANCH  41  42
ATOM     42  C   UNL A   1      43.846  38.593  29.587  1.00  0.00     0.261 C 
BRANCH  42  43
ATOM     43  O   UNL A   1      44.884  38.255  30.481  1.00  0.00    -0.460 OA
BRANCH  43  44
ATOM     44  C   UNL A   1      44.718  38.695  31.735  1.00  0.00     0.338 C 
ATOM     45  O   UNL A   1      44.852  39.847  32.151  1.00  0.00    -0.246 OA
BRANCH  44  46
ATOM     46  C   UNL A   1      44.443  37.545  32.579  1.00  0.00     0.060 A 
ATOM     47  C   UNL A   1      44.928  36.312  32.142  1.00  0.00     0.016 A 
ATOM     48  C   UNL A   1      43.431  37.675  33.543  1.00  0.00     0.016 A 
ATOM     49  C   UNL A   1      44.207  35.197  32.479  1.00  0.00     0.010 A 
ATOM     50  C   UNL A   1      42.695  36.570  33.849  1.00  0.00     0.010 A 
ATOM     51  C   UNL A   1      43.041  35.373  33.229  1.00  0.00    -0.014 A 
BRANCH  51  52
ATOM     52  C   UNL A   1      42.166  34.245  33.393  1.00  0.00     0.031 A 
ATOM     53  C   UNL A   1      41.127  34.194  32.350  1.00  0.00     0.074 A 
ATOM     54  C   UNL A   1      42.405  33.321  34.341  1.00  0.00     0.049 A 
ATOM     55  N   UNL A   1      39.863  34.402  32.492  1.00  0.00    -0.248 NA
ATOM     56  C   UNL A   1      41.578  34.122  30.950  1.00  0.00     0.031 C 
ATOM     57  C   UNL A   1      43.598  33.189  35.186  1.00  0.00     0.029 A 
ATOM     58  N   UNL A   1      41.695  32.203  34.634  1.00  0.00    -0.354 N 
ATOM     59  C   UNL A   1      39.335  34.203  31.222  1.00  0.00     0.074 A 
ATOM     60  C   UNL A   1      40.431  34.310  30.299  1.00  0.00     0.031 C 
ATOM     61  C   UNL A   1      43.643  31.934  35.689  1.00  0.00     0.029 A 
ATOM     62  C   UNL A   1      42.433  31.231  35.299  1.00  0.00     0.049 A 
ATOM     63  H   UNL A   1      40.746  32.091  34.397  1.00  0.00     0.167 HD
ATOM     64  C   UNL A   1      38.119  33.624  31.060  1.00  0.00     0.034 A 
ATOM     65  C   UNL A   1      42.106  29.919  35.405  1.00  0.00     0.034 A 
ATOM     66  C   UNL A   1      37.344  33.670  32.273  1.00  0.00     0.049 A 
ATOM     67  C   UNL A   1      40.659  29.800  35.099  1.00  0.00     0.074 A 
ATOM     68  C   UNL A   1      36.909  34.677  33.111  1.00  0.00     0.029 A 
ATOM     69  N   UNL A   1      37.253  32.504  32.996  1.00  0.00    -0.354 N 
ATOM     70  N   UNL A   1      39.719  30.294  35.853  1.00  0.00    -0.248 NA
ATOM     71  C   UNL A   1      40.275  29.522  33.723  1.00  0.00     0.031 C 
ATOM     72  C   UNL A   1      37.009  34.135  34.424  1.00  0.00     0.029 A 
ATOM     73  C   UNL A   1      37.439  32.810  34.318  1.00  0.00     0.049 A 
ATOM     74  H   UNL A   1      37.085  31.607  32.627  1.00  0.00     0.167 HD
ATOM     75  C   UNL A   1      38.792  30.813  34.957  1.00  0.00     0.074 A 
ATOM     76  C   UNL A   1      39.127  30.205  33.671  1.00  0.00     0.031 C 
ATOM     77  C   UNL A   1      38.044  31.911  35.278  1.00  0.00     0.034 A 
BRANCH  64  78
ATOM     78  C   UNL A   1      37.800  32.663  29.941  1.00  0.00     0.023 A 
ATOM     79  C   UNL A   1      36.555  32.815  29.298  1.00  0.00     0.012 A 
ATOM     80  C   UNL A   1      38.523  31.477  29.665  1.00  0.00     0.148 A 
ATOM     81  C   UNL A   1      36.045  31.824  28.453  1.00  0.00     0.002 A 
ATOM     82  C   UNL A   1      38.059  30.544  28.749  1.00  0.00     0.091 A 
ATOM     83  F   UNL A   1      39.598  31.156  30.389  1.00  0.00    -0.205 F 
ATOM     84  C   UNL A   1      36.803  30.696  28.165  1.00  0.00     0.022 A 
BRANCH  82  85
ATOM     85  S   UNL A   1      39.042  29.108  28.302  1.00  0.00     0.127 S 
ATOM     86  O   UNL A   1      40.104  29.157  29.301  1.00  0.00    -0.237 OA
ATOM     87  O   UNL A   1      38.077  28.021  28.471  1.00  0.00    -0.237 OA
ATOM     88  O   UNL A   1      39.447  29.331  26.919  1.00  0.00    -0.744 OA
ENDBRANCH  82  85
ENDBRANCH  64  78
BRANCH  65  89
ATOM     89  C   UNL A   1      42.992  28.732  35.450  1.00  0.00     0.023 A 
ATOM     90  C   UNL A   1      42.887  27.830  36.528  1.00  0.00     0.012 A 
ATOM     91  C   UNL A   1      43.741  28.334  34.320  1.00  0.00     0.148 A 
ATOM     92  C   UNL A   1      43.478  26.562  36.468  1.00  0.00     0.002 A 
ATOM     93  C   UNL A   1      44.337  27.077  34.269  1.00  0.00     0.091 A 
ATOM     94  F   UNL A   1      43.786  29.145  33.256  1.00  0.00    -0.205 F 
ATOM     95  C   UNL A   1      44.197  26.183  35.337  1.00  0.00     0.022 A 
BRANCH  93  96
ATOM     96  S   UNL A   1      45.260  26.515  32.833  1.00  0.00     0.127 S 
ATOM     97  O   UNL A   1      46.165  27.641  32.596  1.00  0.00    -0.237 OA
ATOM     98  O   UNL A   1      45.905  25.308  33.343  1.00  0.00    -0.237 OA
ATOM     99  O   UNL A   1      44.273  26.310  31.780  1.00  0.00    -0.744 OA
ENDBRANCH  93  96
ENDBRANCH  65  89
BRANCH  77 100
ATOM    100  C   UNL A   1      38.051  32.377  36.713  1.00  0.00     0.023 A 
ATOM    101  C   UNL A   1      37.302  31.737  37.723  1.00  0.00     0.012 A 
ATOM    102  C   UNL A   1      38.968  33.376  37.079  1.00  0.00     0.148 A 
ATOM    103  C   UNL A   1      37.449  32.101  39.065  1.00  0.00     0.002 A 
ATOM    104  C   UNL A   1      39.147  33.703  38.418  1.00  0.00     0.091 A 
ATOM    105  F   UNL A   1      39.676  33.974  36.108  1.00  0.00    -0.205 F 
ATOM    106  C   UNL A   1      38.382  33.075  39.414  1.00  0.00     0.022 A 
BRANCH 104 107
ATOM    107  S   UNL A   1      40.424  34.850  38.937  1.00  0.00     0.127 S 
ATOM    108  O   UNL A   1      40.193  35.987  38.048  1.00  0.00    -0.237 OA
ATOM    109  O   UNL A   1      40.079  35.092  40.339  1.00  0.00    -0.237 OA
ATOM    110  O   UNL A   1      41.689  34.152  38.749  1.00  0.00    -0.744 OA
ENDBRANCH 104 107
ENDBRANCH  77 100
ENDBRANCH  51  52
ENDBRANCH  44  46
ENDBRANCH  43  44
ENDBRANCH  42  43
ENDBRANCH  41  42
ENDBRANCH  40  41
ENDBRANCH  39  40
ENDBRANCH  38  39
ENDBRANCH  37  38
ENDBRANCH  36  37
ENDBRANCH   1  36
TORSDOF 29
ENDMDL
MODEL 2
REMARK VINA RESULT:      -7.2      6.138     13.459
REMARK SMILES O=C(CSc1nnnn1-c1ccc(C(=O)OCCOCCOCCOCCOC(=O)c2ccc(-c3c4nc(c(-c5cccc(S(=O)(=O)[O-])c5F)c5ccc([nH]5)c(-c5cccc(S(=O)(=O)[O-])c5F)c5nc(c(-c6cccc(S(=O)(=O)[O-])c6F)c6ccc3[nH]6)C=C5)C=C4)cc2)cc1)Nc1nc(-c2ccccc2)cs1
REMARK SMILES IDX 20 1 19 2 18 3 17 4 16 5 14 6 15 7 13 8 10 9 11 10 95 11
REMARK SMILES IDX 12 12 94 13 9 14 5 15 6 16 7 17 8 18 4 19 3 20 2 21 1 22
REMARK SMILES IDX 96 23 97 25 98 26 107 27 99 28 106 29 100 30 101 31 105 32
REMARK SMILES IDX 102 33 104 34 103 35 21 36 22 37 23 38 24 39 25 40 26 41
REMARK SMILES IDX 27 42 28 43 29 44 30 45 31 46 32 47 93 48 33 49 92 50 34 51
REMARK SMILES IDX 35 52 36 53 86 54 37 55 91 56 85 57 87 58 38 59 90 60 84 61
REMARK SMILES IDX 83 62 39 64 71 65 51 66 70 67 52 68 55 69 69 70 88 71 53 72
REMARK SMILES IDX 54 73 68 75 89 76 56 77 40 78 41 79 49 80 42 81 44 82 50 83
REMARK SMILES IDX 43 84 45 85 46 86 47 87 48 88 72 89 73 90 81 91 74 92 76 93
REMARK SMILES IDX 82 94 75 95 77 96 78 97 79 98 80 99 57 100 58 101 66 102
REMARK SMILES IDX 59 103 61 104 67 105 60 106 62 107 63 108 64 109 65 110
REMARK H PARENT 96 24 87 63 55 74
REMARK Flexibility Score: inf
ROOT
ATOM      1  C   UNL A   1      40.040  29.172  29.486  1.00  0.00     0.188 C 
ENDROOT
BRANCH   1   2
ATOM      2  O   UNL A   1      39.351  30.300  28.967  1.00  0.00    -0.376 OA
BRANCH   2   3
ATOM      3  C   UNL A   1      37.970  30.533  29.190  1.00  0.00     0.202 C 
BRANCH   3   4
ATOM      4  C   UNL A   1      36.850  29.570  28.762  1.00  0.00     0.261 C 
BRANCH   4   5
ATOM      5  O   UNL A   1      36.028  29.971  27.673  1.00  0.00    -0.460 OA
BRANCH   5   6
ATOM      6  C   UNL A   1      34.841  30.516  28.007  1.00  0.00     0.338 C 
ATOM      7  O   UNL A   1      34.622  31.358  28.862  1.00  0.00    -0.246 OA
BRANCH   6   8
ATOM      8  C   UNL A   1      33.833  30.046  27.035  1.00  0.00     0.060 A 
ATOM      9  C   UNL A   1      32.059  29.267  25.064  1.00  0.00     0.069 A 
ATOM     10  C   UNL A   1      33.332  28.695  25.084  1.00  0.00     0.029 A 
ATOM     11  C   UNL A   1      31.621  30.112  26.096  1.00  0.00     0.029 A 
ATOM     12  C   UNL A   1      34.233  29.123  26.055  1.00  0.00     0.018 A 
ATOM     13  C   UNL A   1      32.509  30.488  27.099  1.00  0.00     0.018 A 
BRANCH   9  14
ATOM     14  N   UNL A   1      31.296  29.171  23.884  1.00  0.00    -0.187 N 
ATOM     15  C   UNL A   1      31.263  28.112  22.990  1.00  0.00     0.214 A 
ATOM     16  N   UNL A   1      30.338  28.342  22.091  1.00  0.00    -0.101 NA
ATOM     17  N   UNL A   1      29.735  29.519  22.472  1.00  0.00    -0.022 NA
ATOM     18  N   UNL A   1      30.244  29.973  23.612  1.00  0.00    -0.039 NA
BRANCH  15  19
ATOM     19  S   UNL A   1      32.038  26.585  23.298  1.00  0.00    -0.074 SA
BRANCH  19  20
ATOM     20  C   UNL A   1      30.966  25.832  24.530  1.00  0.00     0.178 C 
BRANCH  20  21
ATOM     21  C   UNL A   1      31.377  24.440  24.978  1.00  0.00     0.236 C 
ATOM     22  O   UNL A   1      30.522  23.697  25.459  1.00  0.00    -0.274 OA
ATOM     23  N   UNL A   1      32.686  24.102  24.708  1.00  0.00    -0.301 N 
ATOM     24  H   UNL A   1      33.282  24.775  24.309  1.00  0.00     0.172 HD
BRANCH  23  25
ATOM     25  C   UNL A   1      33.174  22.856  24.980  1.00  0.00     0.189 A 
ATOM     26  N   UNL A   1      33.126  21.780  24.244  1.00  0.00    -0.220 NA
ATOM     27  S   UNL A   1      33.942  22.703  26.498  1.00  0.00    -0.105 S 
ATOM     28  C   UNL A   1      33.628  20.713  24.955  1.00  0.00     0.084 A 
ATOM     29  C   UNL A   1      34.110  21.014  26.214  1.00  0.00     0.097 A 
BRANCH  28  30
ATOM     30  C   UNL A   1      33.629  19.381  24.387  1.00  0.00     0.001 A 
ATOM     31  C   UNL A   1      34.672  18.499  24.690  1.00  0.00     0.010 A 
ATOM     32  C   UNL A   1      32.628  18.989  23.491  1.00  0.00     0.010 A 
ATOM     33  C   UNL A   1      34.703  17.226  24.117  1.00  0.00     0.001 A 
ATOM     34  C   UNL A   1      32.667  17.720  22.911  1.00  0.00     0.001 A 
ATOM     35  C   UNL A   1      33.702  16.838  23.228  1.00  0.00     0.000 A 
ENDBRANCH  28  30
ENDBRANCH  23  25
ENDBRANCH  20  21
ENDBRANCH  19  20
ENDBRANCH  15  19
ENDBRANCH   9  14
ENDBRANCH   6   8
ENDBRANCH   5   6
ENDBRANCH   4   5
ENDBRANCH   3   4
ENDBRANCH   2   3
ENDBRANCH   1   2
BRANCH   1  36
ATOM     36  C   UNL A   1      40.505  28.009  28.580  1.00  0.00     0.188 C 
BRANCH  36  37
ATOM     37  O   UNL A   1      41.845  27.612  28.810  1.00  0.00    -0.377 OA
BRANCH  37  38
ATOM     38  C   UNL A   1      42.265  26.428  28.133  1.00  0.00     0.188 C 
BRANCH  38  39
ATOM     39  C   UNL A   1      42.475  25.137  28.968  1.00  0.00     0.188 C 
BRANCH  39  40
ATOM     40  O   UNL A   1      41.712  24.016  28.537  1.00  0.00    -0.376 OA
BRANCH  40  41
ATOM     41  C   UNL A   1      42.170  22.685  28.702  1.00  0.00     0.202 C 
BRANCH  41  42
ATOM     42  C   UNL A   1      42.562  21.930  27.437  1.00  0.00     0.261 C 
BRANCH  42  43
ATOM     43  O   UNL A   1      43.755  22.409  26.854  1.00  0.00    -0.460 OA
BRANCH  43  44
ATOM     44  C   UNL A   1      43.609  23.479  26.061  1.00  0.00     0.338 C 
ATOM     45  O   UNL A   1      42.616  23.800  25.408  1.00  0.00    -0.246 OA
BRANCH  44  46
ATOM     46  C   UNL A   1      44.883  24.175  26.013  1.00  0.00     0.060 A 
ATOM     47  C   UNL A   1      45.635  24.197  27.187  1.00  0.00     0.016 A 
ATOM     48  C   UNL A   1      45.098  25.061  24.946  1.00  0.00     0.016 A 
ATOM     49  C   UNL A   1      46.432  25.290  27.404  1.00  0.00     0.010 A 
ATOM     50  C   UNL A   1      45.864  26.164  25.177  1.00  0.00     0.010 A 
ATOM     51  C   UNL A   1      46.433  26.301  26.439  1.00  0.00    -0.014 A 
BRANCH  51  52
ATOM     52  C   UNL A   1      47.085  27.541  26.761  1.00  0.00     0.031 A 
ATOM     53  C   UNL A   1      48.504  27.538  26.368  1.00  0.00     0.074 A 
ATOM     54  C   UNL A   1      46.384  28.579  27.250  1.00  0.00     0.049 A 
ATOM     55  N   UNL A   1      49.533  27.517  27.146  1.00  0.00    -0.248 NA
ATOM     56  C   UNL A   1      48.813  27.306  24.947  1.00  0.00     0.031 C 
ATOM     57  C   UNL A   1      44.926  28.708  27.360  1.00  0.00     0.029 A 
ATOM     58  N   UNL A   1      46.829  29.812  27.603  1.00  0.00    -0.354 N 
ATOM     59  C   UNL A   1      50.620  27.554  26.283  1.00  0.00     0.074 A 
ATOM     60  C   UNL A   1      50.135  27.152  24.991  1.00  0.00     0.031 C 
ATOM     61  C   UNL A   1      44.610  30.016  27.496  1.00  0.00     0.029 A 
ATOM     62  C   UNL A   1      45.838  30.786  27.601  1.00  0.00     0.049 A 
ATOM     63  H   UNL A   1      47.767  29.998  27.839  1.00  0.00     0.167 HD
ATOM     64  C   UNL A   1      51.742  28.244  26.611  1.00  0.00     0.034 A 
ATOM     65  C   UNL A   1      46.041  32.126  27.569  1.00  0.00     0.034 A 
ATOM     66  C   UNL A   1      51.807  28.508  28.025  1.00  0.00     0.049 A 
ATOM     67  C   UNL A   1      47.444  32.369  27.985  1.00  0.00     0.074 A 
ATOM     68  C   UNL A   1      51.785  27.725  29.162  1.00  0.00     0.029 A 
ATOM     69  N   UNL A   1      51.500  29.784  28.432  1.00  0.00    -0.354 N 
ATOM     70  N   UNL A   1      47.890  32.136  29.186  1.00  0.00    -0.248 NA
ATOM     71  C   UNL A   1      48.459  32.447  26.945  1.00  0.00     0.031 C 
ATOM     72  C   UNL A   1      51.031  28.473  30.111  1.00  0.00     0.029 A 
ATOM     73  C   UNL A   1      50.685  29.695  29.529  1.00  0.00     0.049 A 
ATOM     74  H   UNL A   1      51.812  30.617  28.009  1.00  0.00     0.167 HD
ATOM     75  C   UNL A   1      49.152  31.588  28.986  1.00  0.00     0.074 A 
ATOM     76  C   UNL A   1      49.493  31.914  27.603  1.00  0.00     0.031 C 
ATOM     77  C   UNL A   1      49.662  30.666  29.856  1.00  0.00     0.034 A 
BRANCH  64  78
ATOM     78  C   UNL A   1      52.558  29.025  25.611  1.00  0.00     0.023 A 
ATOM     79  C   UNL A   1      51.956  30.164  25.040  1.00  0.00     0.012 A 
ATOM     80  C   UNL A   1      53.757  28.565  25.012  1.00  0.00     0.148 A 
ATOM     81  C   UNL A   1      52.502  30.791  23.914  1.00  0.00     0.002 A 
ATOM     82  C   UNL A   1      54.347  29.248  23.959  1.00  0.00     0.091 A 
ATOM     83  F   UNL A   1      54.271  27.380  25.351  1.00  0.00    -0.205 F 
ATOM     84  C   UNL A   1      53.706  30.344  23.384  1.00  0.00     0.022 A 
BRANCH  82  85
ATOM     85  S   UNL A   1      55.936  28.740  23.292  1.00  0.00     0.127 S 
ATOM     86  O   UNL A   1      56.761  28.703  24.495  1.00  0.00    -0.237 OA
ATOM     87  O   UNL A   1      55.614  27.435  22.716  1.00  0.00    -0.237 OA
ATOM     88  O   UNL A   1      56.284  29.754  22.303  1.00  0.00    -0.744 OA
ENDBRANCH  82  85
ENDBRANCH  64  78
BRANCH  65  89
ATOM     89  C   UNL A   1      45.226  33.182  26.923  1.00  0.00     0.023 A 
ATOM     90  C   UNL A   1      44.793  33.006  25.594  1.00  0.00     0.012 A 
ATOM     91  C   UNL A   1      44.643  34.224  27.680  1.00  0.00     0.148 A 
ATOM     92  C   UNL A   1      43.791  33.818  25.048  1.00  0.00     0.002 A 
ATOM     93  C   UNL A   1      43.656  35.036  27.130  1.00  0.00     0.091 A 
ATOM     94  F   UNL A   1      44.985  34.356  28.968  1.00  0.00    -0.205 F 
ATOM     95  C   UNL A   1      43.217  34.827  25.817  1.00  0.00     0.022 A 
BRANCH  93  96
ATOM     96  S   UNL A   1      42.859  36.343  28.072  1.00  0.00     0.127 S 
ATOM     97  O   UNL A   1      41.785  36.755  27.167  1.00  0.00    -0.237 OA
ATOM     98  O   UNL A   1      42.414  35.627  29.264  1.00  0.00    -0.237 OA
ATOM     99  O   UNL A   1      43.882  37.359  28.288  1.00  0.00    -0.744 OA
ENDBRANCH  93  96
ENDBRANCH  65  89
BRANCH  77 100
ATOM    100  C   UNL A   1      48.948  30.461  31.170  1.00  0.00     0.023 A 
ATOM    101  C   UNL A   1      47.869  29.564  31.316  1.00  0.00     0.012 A 
ATOM    102  C   UNL A   1      49.491  31.060  32.319  1.00  0.00     0.148 A 
ATOM    103  C   UNL A   1      47.330  29.288  32.577  1.00  0.00     0.002 A 
ATOM    104  C   UNL A   1      48.986  30.747  33.575  1.00  0.00     0.091 A 
ATOM    105  F   UNL A   1      50.520  31.908  32.166  1.00  0.00    -0.205 F 
ATOM    106  C   UNL A   1      47.898  29.869  33.708  1.00  0.00     0.022 A 
BRANCH 104 107
ATOM    107  S   UNL A   1      49.759  31.360  35.073  1.00  0.00     0.127 S 
ATOM    108  O   UNL A   1      49.563  32.803  34.949  1.00  0.00    -0.237 OA
ATOM    109  O   UNL A   1      48.962  30.722  36.122  1.00  0.00    -0.237 OA
ATOM    110  O   UNL A   1      51.143  30.907  35.021  1.00  0.00    -0.744 OA
ENDBRANCH 104 107
ENDBRANCH  77 100
ENDBRANCH  51  52
ENDBRANCH  44  46
ENDBRANCH  43  44
ENDBRANCH  42  43
ENDBRANCH  41  42
ENDBRANCH  40  41
ENDBRANCH  39  40
ENDBRANCH  38  39
ENDBRANCH  37  38
ENDBRANCH  36  37
ENDBRANCH   1  36
TORSDOF 29
ENDMDL
MODEL 3
REMARK VINA RESULT:      -6.4      6.441     12.956
REMARK SMILES O=C(CSc1nnnn1-c1ccc(C(=O)OCCOCCOCCOCCOC(=O)c2ccc(-c3c4nc(c(-c5cccc(S(=O)(=O)[O-])c5F)c5ccc([nH]5)c(-c5cccc(S(=O)(=O)[O-])c5F)c5nc(c(-c6cccc(S(=O)(=O)[O-])c6F)c6ccc3[nH]6)C=C5)C=C4)cc2)cc1)Nc1nc(-c2ccccc2)cs1
REMARK SMILES IDX 20 1 19 2 18 3 17 4 16 5 14 6 15 7 13 8 10 9 11 10 95 11
REMARK SMILES IDX 12 12 94 13 9 14 5 15 6 16 7 17 8 18 4 19 3 20 2 21 1 22
REMARK SMILES IDX 96 23 97 25 98 26 107 27 99 28 106 29 100 30 101 31 105 32
REMARK SMILES IDX 102 33 104 34 103 35 21 36 22 37 23 38 24 39 25 40 26 41
REMARK SMILES IDX 27 42 28 43 29 44 30 45 31 46 32 47 93 48 33 49 92 50 34 51
REMARK SMILES IDX 35 52 36 53 86 54 37 55 91 56 85 57 87 58 38 59 90 60 84 61
REMARK SMILES IDX 83 62 39 64 71 65 51 66 70 67 52 68 55 69 69 70 88 71 53 72
REMARK SMILES IDX 54 73 68 75 89 76 56 77 40 78 41 79 49 80 42 81 44 82 50 83
REMARK SMILES IDX 43 84 45 85 46 86 47 87 48 88 72 89 73 90 81 91 74 92 76 93
REMARK SMILES IDX 82 94 75 95 77 96 78 97 79 98 80 99 57 100 58 101 66 102
REMARK SMILES IDX 59 103 61 104 67 105 60 106 62 107 63 108 64 109 65 110
REMARK H PARENT 96 24 87 63 55 74
REMARK Flexibility Score: inf
ROOT
ATOM      1  C   UNL A   1      39.041  30.068  30.958  1.00  0.00     0.188 C 
ENDROOT
BRANCH   1   2
ATOM      2  O   UNL A   1      38.748  30.572  29.664  1.00  0.00    -0.376 OA
BRANCH   2   3
ATOM      3  C   UNL A   1      37.465  31.048  29.291  1.00  0.00     0.202 C 
BRANCH   3   4
ATOM      4  C   UNL A   1      36.284  30.142  28.904  1.00  0.00     0.261 C 
BRANCH   4   5
ATOM      5  O   UNL A   1      35.606  30.440  27.690  1.00  0.00    -0.460 OA
BRANCH   5   6
ATOM      6  C   UNL A   1      34.400  31.026  27.824  1.00  0.00     0.338 C 
ATOM      7  O   UNL A   1      34.111  31.986  28.519  1.00  0.00    -0.246 OA
BRANCH   6   8
ATOM      8  C   UNL A   1      33.483  30.413  26.842  1.00  0.00     0.060 A 
ATOM      9  C   UNL A   1      31.872  29.373  24.850  1.00  0.00     0.069 A 
ATOM     10  C   UNL A   1      33.198  28.945  24.932  1.00  0.00     0.029 A 
ATOM     11  C   UNL A   1      31.310  30.202  25.834  1.00  0.00     0.029 A 
ATOM     12  C   UNL A   1      34.014  29.504  25.912  1.00  0.00     0.018 A 
ATOM     13  C   UNL A   1      32.117  30.709  26.847  1.00  0.00     0.018 A 
BRANCH   9  14
ATOM     14  N   UNL A   1      31.165  29.151  23.653  1.00  0.00    -0.187 N 
ATOM     15  C   UNL A   1      31.260  28.051  22.814  1.00  0.00     0.214 A 
ATOM     16  N   UNL A   1      30.352  28.153  21.875  1.00  0.00    -0.101 NA
ATOM     17  N   UNL A   1      29.634  29.288  22.175  1.00  0.00    -0.022 NA
ATOM     18  N   UNL A   1      30.057  29.841  23.305  1.00  0.00    -0.039 NA
BRANCH  15  19
ATOM     19  S   UNL A   1      32.155  26.617  23.227  1.00  0.00    -0.074 SA
BRANCH  19  20
ATOM     20  C   UNL A   1      31.056  25.775  24.376  1.00  0.00     0.178 C 
BRANCH  20  21
ATOM     21  C   UNL A   1      31.584  24.463  24.928  1.00  0.00     0.236 C 
ATOM     22  O   UNL A   1      30.948  23.894  25.813  1.00  0.00    -0.274 OA
ATOM     23  N   UNL A   1      32.710  23.975  24.298  1.00  0.00    -0.301 N 
ATOM     24  H   UNL A   1      33.134  24.511  23.591  1.00  0.00     0.172 HD
BRANCH  23  25
ATOM     25  C   UNL A   1      33.250  22.766  24.633  1.00  0.00     0.189 A 
ATOM     26  N   UNL A   1      33.150  21.624  24.009  1.00  0.00    -0.220 NA
ATOM     27  S   UNL A   1      34.172  22.766  26.071  1.00  0.00    -0.105 S 
ATOM     28  C   UNL A   1      33.745  20.636  24.761  1.00  0.00     0.084 A 
ATOM     29  C   UNL A   1      34.347  21.060  25.930  1.00  0.00     0.097 A 
BRANCH  28  30
ATOM     30  C   UNL A   1      33.716  19.256  24.322  1.00  0.00     0.001 A 
ATOM     31  C   UNL A   1      34.715  18.372  24.748  1.00  0.00     0.010 A 
ATOM     32  C   UNL A   1      32.735  18.814  23.428  1.00  0.00     0.010 A 
ATOM     33  C   UNL A   1      34.719  17.050  24.300  1.00  0.00     0.001 A 
ATOM     34  C   UNL A   1      32.748  17.494  22.973  1.00  0.00     0.001 A 
ATOM     35  C   UNL A   1      33.736  16.612  23.413  1.00  0.00     0.000 A 
ENDBRANCH  28  30
ENDBRANCH  23  25
ENDBRANCH  20  21
ENDBRANCH  19  20
ENDBRANCH  15  19
ENDBRANCH   9  14
ENDBRANCH   6   8
ENDBRANCH   5   6
ENDBRANCH   4   5
ENDBRANCH   3   4
ENDBRANCH   2   3
ENDBRANCH   1   2
BRANCH   1  36
ATOM     36  C   UNL A   1      39.121  28.552  31.248  1.00  0.00     0.188 C 
BRANCH  36  37
ATOM     37  O   UNL A   1      40.379  28.135  31.749  1.00  0.00    -0.377 OA
BRANCH  37  38
ATOM     38  C   UNL A   1      40.502  28.112  33.170  1.00  0.00     0.188 C 
BRANCH  38  39
ATOM     39  C   UNL A   1      41.500  29.092  33.840  1.00  0.00     0.188 C 
BRANCH  39  40
ATOM     40  O   UNL A   1      40.920  29.980  34.789  1.00  0.00    -0.376 OA
BRANCH  40  41
ATOM     41  C   UNL A   1      41.455  31.268  35.040  1.00  0.00     0.202 C 
BRANCH  41  42
ATOM     42  C   UNL A   1      42.244  31.446  36.332  1.00  0.00     0.261 C 
BRANCH  42  43
ATOM     43  O   UNL A   1      43.634  31.563  36.120  1.00  0.00    -0.460 OA
BRANCH  43  44
ATOM     44  C   UNL A   1      44.277  30.403  35.927  1.00  0.00     0.338 C 
ATOM     45  O   UNL A   1      44.155  29.360  36.569  1.00  0.00    -0.246 OA
BRANCH  44  46
ATOM     46  C   UNL A   1      45.250  30.605  34.866  1.00  0.00     0.060 A 
ATOM     47  C   UNL A   1      44.777  30.540  33.556  1.00  0.00     0.016 A 
ATOM     48  C   UNL A   1      46.608  30.484  35.200  1.00  0.00     0.016 A 
ATOM     49  C   UNL A   1      45.641  30.082  32.597  1.00  0.00     0.010 A 
ATOM     50  C   UNL A   1      47.457  29.997  34.252  1.00  0.00     0.010 A 
ATOM     51  C   UNL A   1      46.928  29.712  32.998  1.00  0.00    -0.014 A 
BRANCH  51  52
ATOM     52  C   UNL A   1      47.760  29.026  32.048  1.00  0.00     0.031 A 
ATOM     53  C   UNL A   1      48.267  29.930  31.001  1.00  0.00     0.074 A 
ATOM     54  C   UNL A   1      48.090  27.735  32.230  1.00  0.00     0.049 A 
ATOM     55  N   UNL A   1      47.937  29.949  29.755  1.00  0.00    -0.248 NA
ATOM     56  C   UNL A   1      49.066  31.087  31.436  1.00  0.00     0.031 C 
ATOM     57  C   UNL A   1      47.850  26.904  33.416  1.00  0.00     0.029 A 
ATOM     58  N   UNL A   1      48.858  26.937  31.446  1.00  0.00    -0.354 N 
ATOM     59  C   UNL A   1      48.717  30.959  29.206  1.00  0.00     0.074 A 
ATOM     60  C   UNL A   1      49.162  31.777  30.301  1.00  0.00     0.031 C 
ATOM     61  C   UNL A   1      48.678  25.835  33.377  1.00  0.00     0.029 A 
ATOM     62  C   UNL A   1      49.404  25.851  32.119  1.00  0.00     0.049 A 
ATOM     63  H   UNL A   1      49.014  27.112  30.489  1.00  0.00     0.167 HD
ATOM     64  C   UNL A   1      49.221  30.841  27.952  1.00  0.00     0.034 A 
ATOM     65  C   UNL A   1      50.457  25.105  31.703  1.00  0.00     0.034 A 
ATOM     66  C   UNL A   1      48.518  29.841  27.190  1.00  0.00     0.049 A 
ATOM     67  C   UNL A   1      50.624  25.352  30.250  1.00  0.00     0.074 A 
ATOM     68  C   UNL A   1      47.200  29.641  26.832  1.00  0.00     0.029 A 
ATOM     69  N   UNL A   1      49.149  28.631  27.024  1.00  0.00    -0.354 N 
ATOM     70  N   UNL A   1      49.757  24.978  29.351  1.00  0.00    -0.248 NA
ATOM     71  C   UNL A   1      51.536  26.408  29.838  1.00  0.00     0.031 C 
ATOM     72  C   UNL A   1      47.008  28.231  26.903  1.00  0.00     0.029 A 
ATOM     73  C   UNL A   1      48.228  27.640  27.240  1.00  0.00     0.049 A 
ATOM     74  H   UNL A   1      50.096  28.500  26.792  1.00  0.00     0.167 HD
ATOM     75  C   UNL A   1      49.707  26.040  28.456  1.00  0.00     0.074 A 
ATOM     76  C   UNL A   1      50.902  26.832  28.740  1.00  0.00     0.031 C 
ATOM     77  C   UNL A   1      48.554  26.340  27.788  1.00  0.00     0.034 A 
BRANCH  64  78
ATOM     78  C   UNL A   1      50.594  31.330  27.560  1.00  0.00     0.023 A 
ATOM     79  C   UNL A   1      50.681  32.160  26.424  1.00  0.00     0.012 A 
ATOM     80  C   UNL A   1      51.810  30.816  28.073  1.00  0.00     0.148 A 
ATOM     81  C   UNL A   1      51.909  32.437  25.816  1.00  0.00     0.002 A 
ATOM     82  C   UNL A   1      53.034  31.174  27.526  1.00  0.00     0.091 A 
ATOM     83  F   UNL A   1      51.801  29.859  29.004  1.00  0.00    -0.205 F 
ATOM     84  C   UNL A   1      53.088  31.958  26.375  1.00  0.00     0.022 A 
BRANCH  82  85
ATOM     85  S   UNL A   1      54.579  30.630  28.263  1.00  0.00     0.127 S 
ATOM     86  O   UNL A   1      54.550  29.199  27.980  1.00  0.00    -0.237 OA
ATOM     87  O   UNL A   1      55.561  31.397  27.497  1.00  0.00    -0.237 OA
ATOM     88  O   UNL A   1      54.495  31.011  29.668  1.00  0.00    -0.744 OA
ENDBRANCH  82  85
ENDBRANCH  64  78
BRANCH  65  89
ATOM     89  C   UNL A   1      51.511  24.441  32.506  1.00  0.00     0.023 A 
ATOM     90  C   UNL A   1      51.625  23.036  32.471  1.00  0.00     0.012 A 
ATOM     91  C   UNL A   1      52.568  25.180  33.082  1.00  0.00     0.148 A 
ATOM     92  C   UNL A   1      52.767  22.393  32.964  1.00  0.00     0.002 A 
ATOM     93  C   UNL A   1      53.696  24.536  33.581  1.00  0.00     0.091 A 
ATOM     94  F   UNL A   1      52.513  26.517  33.053  1.00  0.00    -0.205 F 
ATOM     95  C   UNL A   1      53.806  23.141  33.512  1.00  0.00     0.022 A 
BRANCH  93  96
ATOM     96  S   UNL A   1      55.082  25.441  34.283  1.00  0.00     0.127 S 
ATOM     97  O   UNL A   1      55.605  26.147  33.112  1.00  0.00    -0.237 OA
ATOM     98  O   UNL A   1      54.419  26.293  35.266  1.00  0.00    -0.237 OA
ATOM     99  O   UNL A   1      55.984  24.432  34.824  1.00  0.00    -0.744 OA
ENDBRANCH  93  96
ENDBRANCH  65  89
BRANCH  77 100
ATOM    100  C   UNL A   1      47.426  25.338  27.837  1.00  0.00     0.023 A 
ATOM    101  C   UNL A   1      46.594  25.186  28.966  1.00  0.00     0.012 A 
ATOM    102  C   UNL A   1      47.093  24.659  26.653  1.00  0.00     0.148 A 
ATOM    103  C   UNL A   1      45.468  24.358  28.922  1.00  0.00     0.002 A 
ATOM    104  C   UNL A   1      45.947  23.875  26.597  1.00  0.00     0.091 A 
ATOM    105  F   UNL A   1      47.891  24.816  25.586  1.00  0.00    -0.205 F 
ATOM    106  C   UNL A   1      45.137  23.712  27.733  1.00  0.00     0.022 A 
BRANCH 104 107
ATOM    107  S   UNL A   1      45.399  23.129  25.061  1.00  0.00     0.127 S 
ATOM    108  O   UNL A   1      44.978  21.800  25.500  1.00  0.00    -0.237 OA
ATOM    109  O   UNL A   1      44.306  24.013  24.653  1.00  0.00    -0.237 OA
ATOM    110  O   UNL A   1      46.551  23.161  24.169  1.00  0.00    -0.744 OA
ENDBRANCH 104 107
ENDBRANCH  77 100
ENDBRANCH  51  52
ENDBRANCH  44  46
ENDBRANCH  43  44
ENDBRANCH  42  43
ENDBRANCH  41  42
ENDBRANCH  40  41
ENDBRANCH  39  40
ENDBRANCH  38  39
ENDBRANCH  37  38
ENDBRANCH  36  37
ENDBRANCH   1  36
TORSDOF 29
ENDMDL
