MODEL 1
REMARK VINA RESULT:      -8.4      0.000      0.000
REMARK SMILES CC(C)c1cc2c(cc1Cl)C=C(C(=O)OCCOCCOCCOCCOC(=O)c1ccc(-c3c4nc(c(-c5cccc(S(=O)(=O)[O-])c5F)c5ccc([nH]5)c(-c5cccc(S(=O)(=O)[O-])c5F)c5nc(c(-c6cccc(S(=O)(=O)[O-])c6F)c6ccc3[nH]6)C=C5)C=C4)cc1)[C@@H](C(F)(F)F)O2
REMARK SMILES IDX 22 1 21 2 20 3 19 4 18 5 17 6 16 7 15 8 13 9 14 10 12 11
REMARK SMILES IDX 4 12 5 13 9 14 6 15 8 16 10 17 7 18 98 19 11 20 93 21 2 22
REMARK SMILES IDX 1 23 3 24 94 25 95 26 96 27 97 28 23 29 24 30 25 31 26 32
REMARK SMILES IDX 27 33 28 34 29 35 30 36 31 37 92 38 32 39 91 40 33 41 34 42
REMARK SMILES IDX 35 43 85 44 36 45 90 46 84 47 86 48 37 49 89 50 83 51 82 52
REMARK SMILES IDX 38 54 70 55 50 56 69 57 51 58 54 59 68 60 87 61 52 62 53 63
REMARK SMILES IDX 67 65 88 66 55 67 39 68 40 69 48 70 41 71 43 72 49 73 42 74
REMARK SMILES IDX 44 75 45 76 46 77 47 78 71 79 72 80 80 81 73 82 75 83 81 84
REMARK SMILES IDX 74 85 76 86 77 87 78 88 79 89 56 90 57 91 65 92 58 93 60 94
REMARK SMILES IDX 66 95 59 96 61 97 62 98 63 99 64 100
REMARK H PARENT 86 53 54 64
REMARK Flexibility Score: inf
ROOT
ATOM      1  C   UNL A   1      39.730  27.699  27.899  1.00  0.00     0.188 C 
ENDROOT
BRANCH   1   2
ATOM      2  O   UNL A   1      39.196  28.880  28.502  1.00  0.00    -0.377 OA
BRANCH   2   3
ATOM      3  C   UNL A   1      38.144  29.543  27.819  1.00  0.00     0.188 C 
BRANCH   3   4
ATOM      4  C   UNL A   1      36.769  29.294  28.464  1.00  0.00     0.188 C 
BRANCH   4   5
ATOM      5  O   UNL A   1      35.695  29.880  27.735  1.00  0.00    -0.376 OA
BRANCH   5   6
ATOM      6  C   UNL A   1      34.559  29.069  27.456  1.00  0.00     0.202 C 
BRANCH   6   7
ATOM      7  C   UNL A   1      34.322  28.612  26.007  1.00  0.00     0.261 C 
BRANCH   7   8
ATOM      8  O   UNL A   1      33.694  27.328  25.858  1.00  0.00    -0.460 OA
BRANCH   8   9
ATOM      9  C   UNL A   1      33.474  26.873  24.612  1.00  0.00     0.338 C 
ATOM     10  O   UNL A   1      33.609  27.490  23.570  1.00  0.00    -0.246 OA
BRANCH   9  11
ATOM     11  C   UNL A   1      33.213  25.418  24.702  1.00  0.00     0.087 C 
ATOM     12  C   UNL A   1      33.601  20.391  24.794  1.00  0.00    -0.023 A 
ATOM     13  C   UNL A   1      32.530  21.308  24.836  1.00  0.00     0.052 A 
ATOM     14  C   UNL A   1      34.904  20.919  24.912  1.00  0.00     0.045 A 
ATOM     15  C   UNL A   1      32.751  22.690  24.884  1.00  0.00     0.128 A 
ATOM     16  C   UNL A   1      35.120  22.300  25.001  1.00  0.00     0.032 A 
ATOM     17  Cl  UNL A   1      36.320  19.923  24.884  1.00  0.00    -0.084 Cl
ATOM     18  C   UNL A   1      34.047  23.191  24.937  1.00  0.00     0.019 A 
ATOM     19  O   UNL A   1      31.636  23.479  24.853  1.00  0.00    -0.475 OA
ATOM     20  C   UNL A   1      34.279  24.621  24.861  1.00  0.00     0.027 C 
ATOM     21  C   UNL A   1      31.789  24.919  24.680  1.00  0.00     0.316 C 
BRANCH  12  22
ATOM     22  C   UNL A   1      33.361  18.902  24.549  1.00  0.00     0.014 C 
ATOM     23  C   UNL A   1      32.813  18.181  25.785  1.00  0.00     0.012 C 
ATOM     24  C   UNL A   1      32.454  18.584  23.348  1.00  0.00     0.012 C 
ENDBRANCH  12  22
BRANCH  21  25
ATOM     25  C   UNL A   1      31.054  25.339  23.398  1.00  0.00     0.430 C 
ATOM     26  F   UNL A   1      29.989  24.538  23.157  1.00  0.00    -0.167 F 
ATOM     27  F   UNL A   1      30.588  26.606  23.473  1.00  0.00    -0.167 F 
ATOM     28  F   UNL A   1      31.864  25.270  22.316  1.00  0.00    -0.167 F 
ENDBRANCH  21  25
ENDBRANCH   9  11
ENDBRANCH   8   9
ENDBRANCH   7   8
ENDBRANCH   6   7
ENDBRANCH   5   6
ENDBRANCH   4   5
ENDBRANCH   3   4
ENDBRANCH   2   3
ENDBRANCH   1   2
BRANCH   1  29
ATOM     29  C   UNL A   1      39.618  26.319  28.589  1.00  0.00     0.188 C 
BRANCH  29  30
ATOM     30  O   UNL A   1      40.017  25.226  27.761  1.00  0.00    -0.376 OA
BRANCH  30  31
ATOM     31  C   UNL A   1      41.414  25.066  27.547  1.00  0.00     0.202 C 
BRANCH  31  32
ATOM     32  C   UNL A   1      41.931  23.655  27.854  1.00  0.00     0.261 C 
BRANCH  32  33
ATOM     33  O   UNL A   1      43.357  23.504  27.809  1.00  0.00    -0.460 OA
BRANCH  33  34
ATOM     34  C   UNL A   1      43.937  23.369  26.594  1.00  0.00     0.338 C 
ATOM     35  O   UNL A   1      43.617  22.593  25.711  1.00  0.00    -0.246 OA
BRANCH  34  36
ATOM     36  C   UNL A   1      44.904  24.478  26.448  1.00  0.00     0.060 A 
ATOM     37  C   UNL A   1      44.932  25.237  25.274  1.00  0.00     0.016 A 
ATOM     38  C   UNL A   1      45.822  24.726  27.476  1.00  0.00     0.016 A 
ATOM     39  C   UNL A   1      45.866  26.263  25.140  1.00  0.00     0.010 A 
ATOM     40  C   UNL A   1      46.762  25.750  27.335  1.00  0.00     0.010 A 
ATOM     41  C   UNL A   1      46.776  26.537  26.175  1.00  0.00    -0.014 A 
BRANCH  41  42
ATOM     42  C   UNL A   1      47.607  27.762  26.111  1.00  0.00     0.031 A 
ATOM     43  C   UNL A   1      49.007  27.755  25.577  1.00  0.00     0.074 A 
ATOM     44  C   UNL A   1      47.066  28.907  26.569  1.00  0.00     0.049 A 
ATOM     45  N   UNL A   1      49.811  28.769  25.390  1.00  0.00    -0.248 NA
ATOM     46  C   UNL A   1      49.582  26.452  25.211  1.00  0.00     0.031 C 
ATOM     47  C   UNL A   1      45.730  29.021  27.159  1.00  0.00     0.029 A 
ATOM     48  N   UNL A   1      47.566  30.181  26.618  1.00  0.00    -0.354 N 
ATOM     49  C   UNL A   1      50.990  28.236  24.887  1.00  0.00     0.074 A 
ATOM     50  C   UNL A   1      50.802  26.800  24.814  1.00  0.00     0.031 C 
ATOM     51  C   UNL A   1      45.514  30.299  27.505  1.00  0.00     0.029 A 
ATOM     52  C   UNL A   1      46.696  31.089  27.170  1.00  0.00     0.049 A 
ATOM     53  H   UNL A   1      48.462  30.424  26.288  1.00  0.00     0.167 HD
ATOM     54  C   UNL A   1      52.112  28.888  24.502  1.00  0.00     0.034 A 
ATOM     55  C   UNL A   1      46.825  32.413  27.380  1.00  0.00     0.034 A 
ATOM     56  C   UNL A   1      52.288  30.317  24.565  1.00  0.00     0.049 A 
ATOM     57  C   UNL A   1      48.077  33.111  26.939  1.00  0.00     0.074 A 
ATOM     58  C   UNL A   1      53.367  31.067  24.127  1.00  0.00     0.029 A 
ATOM     59  N   UNL A   1      51.378  31.208  25.110  1.00  0.00    -0.354 N 
ATOM     60  N   UNL A   1      49.121  32.611  26.327  1.00  0.00    -0.248 NA
ATOM     61  C   UNL A   1      48.158  34.557  27.190  1.00  0.00     0.031 C 
ATOM     62  C   UNL A   1      53.115  32.411  24.421  1.00  0.00     0.029 A 
ATOM     63  C   UNL A   1      51.875  32.499  25.033  1.00  0.00     0.049 A 
ATOM     64  H   UNL A   1      50.507  30.960  25.495  1.00  0.00     0.167 HD
ATOM     65  C   UNL A   1      49.980  33.680  26.106  1.00  0.00     0.074 A 
ATOM     66  C   UNL A   1      49.325  34.860  26.632  1.00  0.00     0.031 C 
ATOM     67  C   UNL A   1      51.206  33.674  25.530  1.00  0.00     0.034 A 
BRANCH  54  68
ATOM     68  C   UNL A   1      53.232  28.080  23.906  1.00  0.00     0.023 A 
ATOM     69  C   UNL A   1      53.300  27.941  22.505  1.00  0.00     0.012 A 
ATOM     70  C   UNL A   1      54.274  27.572  24.706  1.00  0.00     0.148 A 
ATOM     71  C   UNL A   1      54.383  27.298  21.909  1.00  0.00     0.002 A 
ATOM     72  C   UNL A   1      55.364  26.955  24.102  1.00  0.00     0.091 A 
ATOM     73  F   UNL A   1      54.182  27.711  26.037  1.00  0.00    -0.205 F 
ATOM     74  C   UNL A   1      55.419  26.816  22.705  1.00  0.00     0.022 A 
BRANCH  72  75
ATOM     75  S   UNL A   1      56.776  26.345  25.029  1.00  0.00     0.127 S 
ATOM     76  O   UNL A   1      57.606  25.782  23.964  1.00  0.00    -0.237 OA
ATOM     77  O   UNL A   1      57.304  27.570  25.630  1.00  0.00    -0.237 OA
ATOM     78  O   UNL A   1      56.247  25.375  25.979  1.00  0.00    -0.744 OA
ENDBRANCH  72  75
ENDBRANCH  54  68
BRANCH  55  79
ATOM     79  C   UNL A   1      45.685  33.159  27.970  1.00  0.00     0.023 A 
ATOM     80  C   UNL A   1      45.558  33.219  29.370  1.00  0.00     0.012 A 
ATOM     81  C   UNL A   1      44.793  33.887  27.158  1.00  0.00     0.148 A 
ATOM     82  C   UNL A   1      44.556  33.992  29.956  1.00  0.00     0.002 A 
ATOM     83  C   UNL A   1      43.822  34.684  27.749  1.00  0.00     0.091 A 
ATOM     84  F   UNL A   1      44.945  33.812  25.829  1.00  0.00    -0.205 F 
ATOM     85  C   UNL A   1      43.695  34.732  29.147  1.00  0.00     0.022 A 
BRANCH  83  86
ATOM     86  S   UNL A   1      42.736  35.755  26.800  1.00  0.00     0.127 S 
ATOM     87  O   UNL A   1      43.477  37.015  26.812  1.00  0.00    -0.237 OA
ATOM     88  O   UNL A   1      42.702  35.072  25.507  1.00  0.00    -0.237 OA
ATOM     89  O   UNL A   1      41.468  35.771  27.515  1.00  0.00    -0.744 OA
ENDBRANCH  83  86
ENDBRANCH  55  79
BRANCH  67  90
ATOM     90  C   UNL A   1      51.947  34.980  25.440  1.00  0.00     0.023 A 
ATOM     91  C   UNL A   1      51.766  35.794  24.306  1.00  0.00     0.012 A 
ATOM     92  C   UNL A   1      52.727  35.449  26.515  1.00  0.00     0.148 A 
ATOM     93  C   UNL A   1      52.356  37.056  24.238  1.00  0.00     0.002 A 
ATOM     94  C   UNL A   1      53.285  36.720  26.455  1.00  0.00     0.091 A 
ATOM     95  F   UNL A   1      52.893  34.649  27.579  1.00  0.00    -0.205 F 
ATOM     96  C   UNL A   1      53.104  37.523  25.316  1.00  0.00     0.022 A 
BRANCH  94  97
ATOM     97  S   UNL A   1      54.208  37.441  27.819  1.00  0.00     0.127 S 
ATOM     98  O   UNL A   1      53.177  37.552  28.850  1.00  0.00    -0.237 OA
ATOM     99  O   UNL A   1      55.222  36.418  28.078  1.00  0.00    -0.237 OA
ATOM    100  O   UNL A   1      54.731  38.708  27.329  1.00  0.00    -0.744 OA
ENDBRANCH  94  97
ENDBRANCH  67  90
ENDBRANCH  41  42
ENDBRANCH  34  36
ENDBRANCH  33  34
ENDBRANCH  32  33
ENDBRANCH  31  32
ENDBRANCH  30  31
ENDBRANCH  29  30
ENDBRANCH   1  29
TORSDOF 25
ENDMDL
MODEL 2
REMARK VINA RESULT:      -8.2      4.597      7.612
REMARK SMILES CC(C)c1cc2c(cc1Cl)C=C(C(=O)OCCOCCOCCOCCOC(=O)c1ccc(-c3c4nc(c(-c5cccc(S(=O)(=O)[O-])c5F)c5ccc([nH]5)c(-c5cccc(S(=O)(=O)[O-])c5F)c5nc(c(-c6cccc(S(=O)(=O)[O-])c6F)c6ccc3[nH]6)C=C5)C=C4)cc1)[C@@H](C(F)(F)F)O2
REMARK SMILES IDX 22 1 21 2 20 3 19 4 18 5 17 6 16 7 15 8 13 9 14 10 12 11
REMARK SMILES IDX 4 12 5 13 9 14 6 15 8 16 10 17 7 18 98 19 11 20 93 21 2 22
REMARK SMILES IDX 1 23 3 24 94 25 95 26 96 27 97 28 23 29 24 30 25 31 26 32
REMARK SMILES IDX 27 33 28 34 29 35 30 36 31 37 92 38 32 39 91 40 33 41 34 42
REMARK SMILES IDX 35 43 85 44 36 45 90 46 84 47 86 48 37 49 89 50 83 51 82 52
REMARK SMILES IDX 38 54 70 55 50 56 69 57 51 58 54 59 68 60 87 61 52 62 53 63
REMARK SMILES IDX 67 65 88 66 55 67 39 68 40 69 48 70 41 71 43 72 49 73 42 74
REMARK SMILES IDX 44 75 45 76 46 77 47 78 71 79 72 80 80 81 73 82 75 83 81 84
REMARK SMILES IDX 74 85 76 86 77 87 78 88 79 89 56 90 57 91 65 92 58 93 60 94
REMARK SMILES IDX 66 95 59 96 61 97 62 98 63 99 64 100
REMARK H PARENT 86 53 54 64
REMARK Flexibility Score: inf
ROOT
ATOM      1  C   UNL A   1      37.664  23.848  25.592  1.00  0.00     0.188 C 
ENDROOT
BRANCH   1   2
ATOM      2  O   UNL A   1      36.447  23.142  25.346  1.00  0.00    -0.377 OA
BRANCH   2   3
ATOM      3  C   UNL A   1      36.133  22.832  23.998  1.00  0.00     0.188 C 
BRANCH   3   4
ATOM      4  C   UNL A   1      35.091  23.792  23.397  1.00  0.00     0.188 C 
BRANCH   4   5
ATOM      5  O   UNL A   1      34.799  24.901  24.242  1.00  0.00    -0.376 OA
BRANCH   5   6
ATOM      6  C   UNL A   1      33.640  25.674  23.949  1.00  0.00     0.202 C 
BRANCH   6   7
ATOM      7  C   UNL A   1      32.983  25.518  22.567  1.00  0.00     0.261 C 
BRANCH   7   8
ATOM      8  O   UNL A   1      31.944  24.531  22.483  1.00  0.00    -0.460 OA
BRANCH   8   9
ATOM      9  C   UNL A   1      31.250  24.245  23.598  1.00  0.00     0.338 C 
ATOM     10  O   UNL A   1      30.246  24.806  24.003  1.00  0.00    -0.246 OA
BRANCH   9  11
ATOM     11  C   UNL A   1      31.805  22.997  24.170  1.00  0.00     0.087 C 
ATOM     12  C   UNL A   1      33.272  18.244  24.998  1.00  0.00    -0.023 A 
ATOM     13  C   UNL A   1      33.252  19.429  25.765  1.00  0.00     0.052 A 
ATOM     14  C   UNL A   1      32.980  18.364  23.624  1.00  0.00     0.045 A 
ATOM     15  C   UNL A   1      32.855  20.652  25.213  1.00  0.00     0.128 A 
ATOM     16  C   UNL A   1      32.622  19.598  23.065  1.00  0.00     0.032 A 
ATOM     17  Cl  UNL A   1      32.971  17.006  22.551  1.00  0.00    -0.084 Cl
ATOM     18  C   UNL A   1      32.511  20.734  23.867  1.00  0.00     0.019 A 
ATOM     19  O   UNL A   1      32.811  21.714  26.070  1.00  0.00    -0.475 OA
ATOM     20  C   UNL A   1      31.981  21.971  23.326  1.00  0.00     0.027 C 
ATOM     21  C   UNL A   1      32.203  22.962  25.626  1.00  0.00     0.316 C 
BRANCH  12  22
ATOM     22  C   UNL A   1      33.520  16.884  25.648  1.00  0.00     0.014 C 
ATOM     23  C   UNL A   1      32.322  15.938  25.511  1.00  0.00     0.012 C 
ATOM     24  C   UNL A   1      34.783  16.155  25.160  1.00  0.00     0.012 C 
ENDBRANCH  12  22
BRANCH  21  25
ATOM     25  C   UNL A   1      31.020  23.288  26.550  1.00  0.00     0.430 C 
ATOM     26  F   UNL A   1      29.863  22.781  26.064  1.00  0.00    -0.167 F 
ATOM     27  F   UNL A   1      31.188  22.774  27.789  1.00  0.00    -0.167 F 
ATOM     28  F   UNL A   1      30.850  24.624  26.687  1.00  0.00    -0.167 F 
ENDBRANCH  21  25
ENDBRANCH   9  11
ENDBRANCH   8   9
ENDBRANCH   7   8
ENDBRANCH   6   7
ENDBRANCH   5   6
ENDBRANCH   4   5
ENDBRANCH   3   4
ENDBRANCH   2   3
ENDBRANCH   1   2
BRANCH   1  29
ATOM     29  C   UNL A   1      38.612  23.447  26.747  1.00  0.00     0.188 C 
BRANCH  29  30
ATOM     30  O   UNL A   1      38.835  24.489  27.699  1.00  0.00    -0.376 OA
BRANCH  30  31
ATOM     31  C   UNL A   1      39.843  25.439  27.378  1.00  0.00     0.202 C 
BRANCH  31  32
ATOM     32  C   UNL A   1      40.980  24.872  26.519  1.00  0.00     0.261 C 
BRANCH  32  33
ATOM     33  O   UNL A   1      41.448  25.739  25.476  1.00  0.00    -0.460 OA
BRANCH  33  34
ATOM     34  C   UNL A   1      42.784  25.915  25.356  1.00  0.00     0.338 C 
ATOM     35  O   UNL A   1      43.557  25.237  24.704  1.00  0.00    -0.246 OA
BRANCH  34  36
ATOM     36  C   UNL A   1      43.111  27.208  25.996  1.00  0.00     0.060 A 
ATOM     37  C   UNL A   1      42.366  28.351  25.693  1.00  0.00     0.016 A 
ATOM     38  C   UNL A   1      44.204  27.283  26.868  1.00  0.00     0.016 A 
ATOM     39  C   UNL A   1      42.702  29.568  26.285  1.00  0.00     0.010 A 
ATOM     40  C   UNL A   1      44.543  28.506  27.453  1.00  0.00     0.010 A 
ATOM     41  C   UNL A   1      43.781  29.651  27.181  1.00  0.00    -0.014 A 
BRANCH  41  42
ATOM     42  C   UNL A   1      43.986  30.891  27.965  1.00  0.00     0.031 A 
ATOM     43  C   UNL A   1      45.091  31.857  27.665  1.00  0.00     0.074 A 
ATOM     44  C   UNL A   1      43.143  31.127  28.988  1.00  0.00     0.049 A 
ATOM     45  N   UNL A   1      45.331  33.016  28.220  1.00  0.00    -0.248 NA
ATOM     46  C   UNL A   1      46.051  31.478  26.618  1.00  0.00     0.031 C 
ATOM     47  C   UNL A   1      42.063  30.229  29.404  1.00  0.00     0.029 A 
ATOM     48  N   UNL A   1      43.063  32.178  29.863  1.00  0.00    -0.354 N 
ATOM     49  C   UNL A   1      46.468  33.511  27.598  1.00  0.00     0.074 A 
ATOM     50  C   UNL A   1      46.883  32.515  26.631  1.00  0.00     0.031 C 
ATOM     51  C   UNL A   1      41.423  30.772  30.451  1.00  0.00     0.029 A 
ATOM     52  C   UNL A   1      42.052  32.047  30.784  1.00  0.00     0.049 A 
ATOM     53  H   UNL A   1      43.670  32.953  29.834  1.00  0.00     0.167 HD
ATOM     54  C   UNL A   1      47.091  34.697  27.801  1.00  0.00     0.034 A 
ATOM     55  C   UNL A   1      41.664  32.863  31.782  1.00  0.00     0.034 A 
ATOM     56  C   UNL A   1      46.665  35.689  28.756  1.00  0.00     0.049 A 
ATOM     57  C   UNL A   1      42.368  34.171  31.982  1.00  0.00     0.074 A 
ATOM     58  C   UNL A   1      47.196  36.949  28.975  1.00  0.00     0.029 A 
ATOM     59  N   UNL A   1      45.624  35.533  29.656  1.00  0.00    -0.354 N 
ATOM     60  N   UNL A   1      43.348  34.689  31.284  1.00  0.00    -0.248 NA
ATOM     61  C   UNL A   1      41.897  35.022  33.085  1.00  0.00     0.031 C 
ATOM     62  C   UNL A   1      46.485  37.549  30.019  1.00  0.00     0.029 A 
ATOM     63  C   UNL A   1      45.505  36.667  30.444  1.00  0.00     0.049 A 
ATOM     64  H   UNL A   1      45.054  34.734  29.727  1.00  0.00     0.167 HD
ATOM     65  C   UNL A   1      43.605  35.931  31.851  1.00  0.00     0.074 A 
ATOM     66  C   UNL A   1      42.663  36.096  32.940  1.00  0.00     0.031 C 
ATOM     67  C   UNL A   1      44.547  36.840  31.505  1.00  0.00     0.034 A 
BRANCH  54  68
ATOM     68  C   UNL A   1      48.269  35.037  26.930  1.00  0.00     0.023 A 
ATOM     69  C   UNL A   1      48.061  35.827  25.782  1.00  0.00     0.012 A 
ATOM     70  C   UNL A   1      49.581  34.688  27.306  1.00  0.00     0.148 A 
ATOM     71  C   UNL A   1      49.141  36.258  25.014  1.00  0.00     0.002 A 
ATOM     72  C   UNL A   1      50.655  35.145  26.550  1.00  0.00     0.091 A 
ATOM     73  F   UNL A   1      49.752  33.929  28.398  1.00  0.00    -0.205 F 
ATOM     74  C   UNL A   1      50.436  35.927  25.403  1.00  0.00     0.022 A 
BRANCH  72  75
ATOM     75  S   UNL A   1      52.366  34.820  26.989  1.00  0.00     0.127 S 
ATOM     76  O   UNL A   1      52.445  35.418  28.323  1.00  0.00    -0.237 OA
ATOM     77  O   UNL A   1      52.416  33.358  26.973  1.00  0.00    -0.237 OA
ATOM     78  O   UNL A   1      53.176  35.472  25.970  1.00  0.00    -0.744 OA
ENDBRANCH  72  75
ENDBRANCH  54  68
BRANCH  55  79
ATOM     79  C   UNL A   1      40.493  32.475  32.608  1.00  0.00     0.023 A 
ATOM     80  C   UNL A   1      39.200  32.604  32.067  1.00  0.00     0.012 A 
ATOM     81  C   UNL A   1      40.659  31.889  33.878  1.00  0.00     0.148 A 
ATOM     82  C   UNL A   1      38.088  32.157  32.778  1.00  0.00     0.002 A 
ATOM     83  C   UNL A   1      39.551  31.412  34.566  1.00  0.00     0.091 A 
ATOM     84  F   UNL A   1      41.904  31.776  34.363  1.00  0.00    -0.205 F 
ATOM     85  C   UNL A   1      38.264  31.553  34.022  1.00  0.00     0.022 A 
BRANCH  83  86
ATOM     86  S   UNL A   1      39.682  30.525  36.121  1.00  0.00     0.127 S 
ATOM     87  O   UNL A   1      40.345  31.511  36.971  1.00  0.00    -0.237 OA
ATOM     88  O   UNL A   1      38.276  30.278  36.441  1.00  0.00    -0.237 OA
ATOM     89  O   UNL A   1      40.460  29.328  35.833  1.00  0.00    -0.744 OA
ENDBRANCH  83  86
ENDBRANCH  55  79
BRANCH  67  90
ATOM     90  C   UNL A   1      44.633  38.106  32.312  1.00  0.00     0.023 A 
ATOM     91  C   UNL A   1      45.433  38.130  33.470  1.00  0.00     0.012 A 
ATOM     92  C   UNL A   1      44.018  39.294  31.867  1.00  0.00     0.148 A 
ATOM     93  C   UNL A   1      45.616  39.315  34.181  1.00  0.00     0.002 A 
ATOM     94  C   UNL A   1      44.231  40.478  32.562  1.00  0.00     0.091 A 
ATOM     95  F   UNL A   1      43.252  39.242  30.768  1.00  0.00    -0.205 F 
ATOM     96  C   UNL A   1      45.025  40.490  33.721  1.00  0.00     0.022 A 
BRANCH  94  97
ATOM     97  S   UNL A   1      43.572  42.058  32.013  1.00  0.00     0.127 S 
ATOM     98  O   UNL A   1      42.278  42.094  32.695  1.00  0.00    -0.237 OA
ATOM     99  O   UNL A   1      44.562  43.002  32.531  1.00  0.00    -0.237 OA
ATOM    100  O   UNL A   1      43.502  41.984  30.560  1.00  0.00    -0.744 OA
ENDBRANCH  94  97
ENDBRANCH  67  90
ENDBRANCH  41  42
ENDBRANCH  34  36
ENDBRANCH  33  34
ENDBRANCH  32  33
ENDBRANCH  31  32
ENDBRANCH  30  31
ENDBRANCH  29  30
ENDBRANCH   1  29
TORSDOF 25
ENDMDL
MODEL 3
REMARK VINA RESULT:      -8.2      2.249      3.892
REMARK SMILES CC(C)c1cc2c(cc1Cl)C=C(C(=O)OCCOCCOCCOCCOC(=O)c1ccc(-c3c4nc(c(-c5cccc(S(=O)(=O)[O-])c5F)c5ccc([nH]5)c(-c5cccc(S(=O)(=O)[O-])c5F)c5nc(c(-c6cccc(S(=O)(=O)[O-])c6F)c6ccc3[nH]6)C=C5)C=C4)cc1)[C@@H](C(F)(F)F)O2
REMARK SMILES IDX 22 1 21 2 20 3 19 4 18 5 17 6 16 7 15 8 13 9 14 10 12 11
REMARK SMILES IDX 4 12 5 13 9 14 6 15 8 16 10 17 7 18 98 19 11 20 93 21 2 22
REMARK SMILES IDX 1 23 3 24 94 25 95 26 96 27 97 28 23 29 24 30 25 31 26 32
REMARK SMILES IDX 27 33 28 34 29 35 30 36 31 37 92 38 32 39 91 40 33 41 34 42
REMARK SMILES IDX 35 43 85 44 36 45 90 46 84 47 86 48 37 49 89 50 83 51 82 52
REMARK SMILES IDX 38 54 70 55 50 56 69 57 51 58 54 59 68 60 87 61 52 62 53 63
REMARK SMILES IDX 67 65 88 66 55 67 39 68 40 69 48 70 41 71 43 72 49 73 42 74
REMARK SMILES IDX 44 75 45 76 46 77 47 78 71 79 72 80 80 81 73 82 75 83 81 84
REMARK SMILES IDX 74 85 76 86 77 87 78 88 79 89 56 90 57 91 65 92 58 93 60 94
REMARK SMILES IDX 66 95 59 96 61 97 62 98 63 99 64 100
REMARK H PARENT 86 53 54 64
REMARK Flexibility Score: inf
ROOT
ATOM      1  C   UNL A   1      38.882  23.835  26.791  1.00  0.00     0.188 C 
ENDROOT
BRANCH   1   2
ATOM      2  O   UNL A   1      38.073  23.256  25.765  1.00  0.00    -0.377 OA
BRANCH   2   3
ATOM      3  C   UNL A   1      37.958  21.842  25.745  1.00  0.00     0.188 C 
BRANCH   3   4
ATOM      4  C   UNL A   1      36.773  21.356  24.891  1.00  0.00     0.188 C 
BRANCH   4   5
ATOM      5  O   UNL A   1      35.592  21.125  25.653  1.00  0.00    -0.376 OA
BRANCH   5   6
ATOM      6  C   UNL A   1      35.171  22.144  26.552  1.00  0.00     0.202 C 
BRANCH   6   7
ATOM      7  C   UNL A   1      33.990  23.041  26.145  1.00  0.00     0.261 C 
BRANCH   7   8
ATOM      8  O   UNL A   1      34.344  24.274  25.498  1.00  0.00    -0.460 OA
BRANCH   8   9
ATOM      9  C   UNL A   1      34.318  24.315  24.155  1.00  0.00     0.338 C 
ATOM     10  O   UNL A   1      34.963  23.623  23.387  1.00  0.00    -0.246 OA
BRANCH   9  11
ATOM     11  C   UNL A   1      33.222  25.225  23.750  1.00  0.00     0.087 C 
ATOM     12  C   UNL A   1      29.913  29.012  23.387  1.00  0.00    -0.023 A 
ATOM     13  C   UNL A   1      30.088  27.776  22.730  1.00  0.00     0.052 A 
ATOM     14  C   UNL A   1      30.949  29.435  24.246  1.00  0.00     0.045 A 
ATOM     15  C   UNL A   1      31.188  26.953  22.999  1.00  0.00     0.128 A 
ATOM     16  C   UNL A   1      32.068  28.627  24.482  1.00  0.00     0.032 A 
ATOM     17  Cl  UNL A   1      30.885  30.930  25.117  1.00  0.00    -0.084 Cl
ATOM     18  C   UNL A   1      32.166  27.364  23.898  1.00  0.00     0.019 A 
ATOM     19  O   UNL A   1      31.213  25.750  22.352  1.00  0.00    -0.475 OA
ATOM     20  C   UNL A   1      33.239  26.460  24.270  1.00  0.00     0.027 C 
ATOM     21  C   UNL A   1      32.203  24.754  22.741  1.00  0.00     0.316 C 
BRANCH  12  22
ATOM     22  C   UNL A   1      28.622  29.815  23.235  1.00  0.00     0.014 C 
ATOM     23  C   UNL A   1      28.655  30.764  22.032  1.00  0.00     0.012 C 
ATOM     24  C   UNL A   1      27.340  28.969  23.162  1.00  0.00     0.012 C 
ENDBRANCH  12  22
BRANCH  21  25
ATOM     25  C   UNL A   1      31.467  23.492  23.218  1.00  0.00     0.430 C 
ATOM     26  F   UNL A   1      32.032  22.372  22.708  1.00  0.00    -0.167 F 
ATOM     27  F   UNL A   1      31.489  23.370  24.564  1.00  0.00    -0.167 F 
ATOM     28  F   UNL A   1      30.169  23.500  22.834  1.00  0.00    -0.167 F 
ENDBRANCH  21  25
ENDBRANCH   9  11
ENDBRANCH   8   9
ENDBRANCH   7   8
ENDBRANCH   6   7
ENDBRANCH   5   6
ENDBRANCH   4   5
ENDBRANCH   3   4
ENDBRANCH   2   3
ENDBRANCH   1   2
BRANCH   1  29
ATOM     29  C   UNL A   1      39.998  24.854  26.460  1.00  0.00     0.188 C 
BRANCH  29  30
ATOM     30  O   UNL A   1      41.313  24.298  26.483  1.00  0.00    -0.376 OA
BRANCH  30  31
ATOM     31  C   UNL A   1      41.406  22.880  26.416  1.00  0.00     0.202 C 
BRANCH  31  32
ATOM     32  C   UNL A   1      42.631  22.375  25.644  1.00  0.00     0.261 C 
BRANCH  32  33
ATOM     33  O   UNL A   1      43.749  23.274  25.618  1.00  0.00    -0.460 OA
BRANCH  33  34
ATOM     34  C   UNL A   1      44.559  23.301  26.702  1.00  0.00     0.338 C 
ATOM     35  O   UNL A   1      44.775  22.389  27.479  1.00  0.00    -0.246 OA
BRANCH  34  36
ATOM     36  C   UNL A   1      45.301  24.580  26.658  1.00  0.00     0.060 A 
ATOM     37  C   UNL A   1      46.096  24.969  27.740  1.00  0.00     0.016 A 
ATOM     38  C   UNL A   1      45.156  25.417  25.545  1.00  0.00     0.016 A 
ATOM     39  C   UNL A   1      46.768  26.189  27.696  1.00  0.00     0.010 A 
ATOM     40  C   UNL A   1      45.825  26.643  25.508  1.00  0.00     0.010 A 
ATOM     41  C   UNL A   1      46.651  27.027  26.573  1.00  0.00    -0.014 A 
BRANCH  41  42
ATOM     42  C   UNL A   1      47.539  28.206  26.446  1.00  0.00     0.031 A 
ATOM     43  C   UNL A   1      48.930  28.108  25.899  1.00  0.00     0.074 A 
ATOM     44  C   UNL A   1      47.058  29.395  26.858  1.00  0.00     0.049 A 
ATOM     45  N   UNL A   1      49.779  29.073  25.659  1.00  0.00    -0.248 NA
ATOM     46  C   UNL A   1      49.437  26.764  25.586  1.00  0.00     0.031 C 
ATOM     47  C   UNL A   1      45.737  29.600  27.457  1.00  0.00     0.029 A 
ATOM     48  N   UNL A   1      47.619  30.645  26.846  1.00  0.00    -0.354 N 
ATOM     49  C   UNL A   1      50.925  28.462  25.169  1.00  0.00     0.074 A 
ATOM     50  C   UNL A   1      50.668  27.036  25.161  1.00  0.00     0.031 C 
ATOM     51  C   UNL A   1      45.586  30.901  27.748  1.00  0.00     0.029 A 
ATOM     52  C   UNL A   1      46.800  31.617  27.366  1.00  0.00     0.049 A 
ATOM     53  H   UNL A   1      48.521  30.829  26.497  1.00  0.00     0.167 HD
ATOM     54  C   UNL A   1      52.072  29.043  24.743  1.00  0.00     0.034 A 
ATOM     55  C   UNL A   1      46.995  32.941  27.515  1.00  0.00     0.034 A 
ATOM     56  C   UNL A   1      52.317  30.463  24.742  1.00  0.00     0.049 A 
ATOM     57  C   UNL A   1      48.273  33.558  27.032  1.00  0.00     0.074 A 
ATOM     58  C   UNL A   1      53.425  31.140  24.260  1.00  0.00     0.029 A 
ATOM     59  N   UNL A   1      51.457  31.420  25.255  1.00  0.00    -0.354 N 
ATOM     60  N   UNL A   1      49.285  32.981  26.432  1.00  0.00    -0.248 NA
ATOM     61  C   UNL A   1      48.426  35.008  27.216  1.00  0.00     0.031 C 
ATOM     62  C   UNL A   1      53.241  32.506  24.496  1.00  0.00     0.029 A 
ATOM     63  C   UNL A   1      52.014  32.680  25.116  1.00  0.00     0.049 A 
ATOM     64  H   UNL A   1      50.579  31.231  25.660  1.00  0.00     0.167 HD
ATOM     65  C   UNL A   1      50.191  33.997  26.154  1.00  0.00     0.074 A 
ATOM     66  C   UNL A   1      49.599  35.229  26.634  1.00  0.00     0.031 C 
ATOM     67  C   UNL A   1      51.408  33.907  25.567  1.00  0.00     0.034 A 
BRANCH  54  68
ATOM     68  C   UNL A   1      53.145  28.156  24.173  1.00  0.00     0.023 A 
ATOM     69  C   UNL A   1      53.198  27.964  22.778  1.00  0.00     0.012 A 
ATOM     70  C   UNL A   1      54.162  27.622  24.988  1.00  0.00     0.148 A 
ATOM     71  C   UNL A   1      54.243  27.244  22.202  1.00  0.00     0.002 A 
ATOM     72  C   UNL A   1      55.216  26.928  24.402  1.00  0.00     0.091 A 
ATOM     73  F   UNL A   1      54.085  27.812  26.313  1.00  0.00    -0.205 F 
ATOM     74  C   UNL A   1      55.256  26.737  23.011  1.00  0.00     0.022 A 
BRANCH  72  75
ATOM     75  S   UNL A   1      56.598  26.276  25.346  1.00  0.00     0.127 S 
ATOM     76  O   UNL A   1      57.218  25.375  24.374  1.00  0.00    -0.237 OA
ATOM     77  O   UNL A   1      57.371  27.484  25.635  1.00  0.00    -0.237 OA
ATOM     78  O   UNL A   1      56.020  25.626  26.513  1.00  0.00    -0.744 OA
ENDBRANCH  72  75
ENDBRANCH  54  68
BRANCH  55  79
ATOM     79  C   UNL A   1      45.898  33.766  28.083  1.00  0.00     0.023 A 
ATOM     80  C   UNL A   1      45.944  34.122  29.444  1.00  0.00     0.012 A 
ATOM     81  C   UNL A   1      44.874  34.279  27.264  1.00  0.00     0.148 A 
ATOM     82  C   UNL A   1      44.984  34.976  29.983  1.00  0.00     0.002 A 
ATOM     83  C   UNL A   1      43.943  35.159  27.798  1.00  0.00     0.091 A 
ATOM     84  F   UNL A   1      44.863  33.926  25.971  1.00  0.00    -0.205 F 
ATOM     85  C   UNL A   1      43.990  35.503  29.159  1.00  0.00     0.022 A 
BRANCH  83  86
ATOM     86  S   UNL A   1      42.692  35.973  26.800  1.00  0.00     0.127 S 
ATOM     87  O   UNL A   1      43.250  37.317  26.660  1.00  0.00    -0.237 OA
ATOM     88  O   UNL A   1      42.713  35.166  25.581  1.00  0.00    -0.237 OA
ATOM     89  O   UNL A   1      41.455  35.889  27.564  1.00  0.00    -0.744 OA
ENDBRANCH  83  86
ENDBRANCH  55  79
BRANCH  67  90
ATOM     90  C   UNL A   1      52.209  35.170  25.411  1.00  0.00     0.023 A 
ATOM     91  C   UNL A   1      52.054  35.941  24.243  1.00  0.00     0.012 A 
ATOM     92  C   UNL A   1      53.022  35.649  26.458  1.00  0.00     0.148 A 
ATOM     93  C   UNL A   1      52.703  37.168  24.113  1.00  0.00     0.002 A 
ATOM     94  C   UNL A   1      53.639  36.888  26.335  1.00  0.00     0.091 A 
ATOM     95  F   UNL A   1      53.161  34.890  27.554  1.00  0.00    -0.205 F 
ATOM     96  C   UNL A   1      53.485  37.647  25.162  1.00  0.00     0.022 A 
BRANCH  94  97
ATOM     97  S   UNL A   1      54.611  37.624  27.656  1.00  0.00     0.127 S 
ATOM     98  O   UNL A   1      55.776  38.123  26.927  1.00  0.00    -0.237 OA
ATOM     99  O   UNL A   1      53.712  38.664  28.157  1.00  0.00    -0.237 OA
ATOM    100  O   UNL A   1      54.887  36.551  28.601  1.00  0.00    -0.744 OA
ENDBRANCH  94  97
ENDBRANCH  67  90
ENDBRANCH  41  42
ENDBRANCH  34  36
ENDBRANCH  33  34
ENDBRANCH  32  33
ENDBRANCH  31  32
ENDBRANCH  30  31
ENDBRANCH  29  30
ENDBRANCH   1  29
TORSDOF 25
ENDMDL
