MODEL 1
REMARK VINA RESULT:     -10.4      0.000      0.000
REMARK SMILES Cc1cc(C(=O)OCCOCCOCCOCCOC(=O)c2ccc(-c3c4nc(c(-c5cccc(S(=O)(=O)[O-])c5F)c5ccc([nH]5)c(-c5cccc(S(=O)(=O)[O-])c5F)c5nc(c(-c6cccc(S(=O)(=O)[O-])c6F)c6ccc3[nH]6)C=C5)C=C4)cc2)ccc1NC(=O)N1C[C@@H](C)[C@H](C)C1
REMARK SMILES IDX 14 1 13 2 12 3 11 4 10 5 9 6 8 7 7 8 5 9 6 10 4 11 1 12 2 13
REMARK SMILES IDX 3 14 87 15 86 16 85 17 88 18 89 19 90 21 91 22 92 23 97 24
REMARK SMILES IDX 93 25 95 26 94 27 96 28 15 29 16 30 17 31 18 32 19 33 20 34
REMARK SMILES IDX 21 35 22 36 23 37 84 38 24 39 83 40 25 41 26 42 27 43 77 44
REMARK SMILES IDX 28 45 82 46 76 47 78 48 29 49 81 50 75 51 74 52 30 54 62 55
REMARK SMILES IDX 42 56 61 57 43 58 46 59 60 60 79 61 44 62 45 63 59 65 80 66
REMARK SMILES IDX 47 67 31 68 32 69 40 70 33 71 35 72 41 73 34 74 36 75 37 76
REMARK SMILES IDX 38 77 39 78 63 79 64 80 72 81 65 82 67 83 73 84 66 85 68 86
REMARK SMILES IDX 69 87 70 88 71 89 48 90 49 91 57 92 50 93 52 94 58 95 51 96
REMARK SMILES IDX 53 97 54 98 55 99 56 100
REMARK H PARENT 88 20 78 53 46 64
REMARK Flexibility Score: inf
ROOT
ATOM      1  C   UNL A   1      36.669  21.723  25.570  1.00  0.00     0.188 C 
ENDROOT
BRANCH   1   2
ATOM      2  O   UNL A   1      35.896  20.653  25.082  1.00  0.00    -0.377 OA
BRANCH   2   3
ATOM      3  C   UNL A   1      36.523  19.394  24.977  1.00  0.00     0.188 C 
BRANCH   3   4
ATOM      4  C   UNL A   1      35.613  18.223  24.575  1.00  0.00     0.188 C 
BRANCH   4   5
ATOM      5  O   UNL A   1      34.210  18.261  24.829  1.00  0.00    -0.376 OA
BRANCH   5   6
ATOM      6  C   UNL A   1      33.324  17.891  23.784  1.00  0.00     0.202 C 
BRANCH   6   7
ATOM      7  C   UNL A   1      32.150  18.807  23.600  1.00  0.00     0.261 C 
BRANCH   7   8
ATOM      8  O   UNL A   1      32.506  20.089  24.054  1.00  0.00    -0.460 OA
BRANCH   8   9
ATOM      9  C   UNL A   1      32.549  20.990  23.088  1.00  0.00     0.338 C 
ATOM     10  O   UNL A   1      32.100  20.942  21.958  1.00  0.00    -0.246 OA
BRANCH   9  11
ATOM     11  C   UNL A   1      32.947  22.207  23.780  1.00  0.00     0.060 A 
ATOM     12  C   UNL A   1      32.977  22.915  27.407  1.00  0.00     0.046 C 
ATOM     13  C   UNL A   1      33.100  23.207  25.946  1.00  0.00    -0.027 A 
ATOM     14  C   UNL A   1      32.745  22.143  25.140  1.00  0.00     0.021 A 
ATOM     15  C   UNL A   1      33.628  24.357  25.342  1.00  0.00     0.045 A 
ATOM     16  C   UNL A   1      34.139  24.266  24.055  1.00  0.00     0.027 A 
ATOM     17  C   UNL A   1      33.718  23.234  23.235  1.00  0.00     0.018 A 
BRANCH  15  18
ATOM     18  N   UNL A   1      33.519  25.588  25.993  1.00  0.00    -0.308 N 
ATOM     19  C   UNL A   1      32.846  26.736  25.712  1.00  0.00     0.321 C 
ATOM     20  H   UNL A   1      34.036  25.635  26.830  1.00  0.00     0.171 HD
ATOM     21  O   UNL A   1      33.092  27.711  26.430  1.00  0.00    -0.248 OA
ATOM     22  N   UNL A   1      31.972  26.826  24.660  1.00  0.00    -0.324 N 
ATOM     23  C   UNL A   1      31.861  28.088  23.961  1.00  0.00     0.125 C 
ATOM     24  C   UNL A   1      30.743  26.036  24.488  1.00  0.00     0.125 C 
ATOM     25  C   UNL A   1      30.372  28.296  23.719  1.00  0.00     0.010 C 
ATOM     26  C   UNL A   1      29.837  26.865  23.561  1.00  0.00     0.010 C 
ATOM     27  C   UNL A   1      30.127  29.170  22.499  1.00  0.00     0.010 C 
ATOM     28  C   UNL A   1      28.352  26.721  23.887  1.00  0.00     0.010 C 
ENDBRANCH  15  18
ENDBRANCH   9  11
ENDBRANCH   8   9
ENDBRANCH   7   8
ENDBRANCH   6   7
ENDBRANCH   5   6
ENDBRANCH   4   5
ENDBRANCH   3   4
ENDBRANCH   2   3
ENDBRANCH   1   2
BRANCH   1  29
ATOM     29  C   UNL A   1      38.213  21.591  25.487  1.00  0.00     0.188 C 
BRANCH  29  30
ATOM     30  O   UNL A   1      38.855  20.841  26.481  1.00  0.00    -0.376 OA
BRANCH  30  31
ATOM     31  C   UNL A   1      40.204  20.636  26.135  1.00  0.00     0.202 C 
BRANCH  31  32
ATOM     32  C   UNL A   1      41.211  21.851  26.123  1.00  0.00     0.261 C 
BRANCH  32  33
ATOM     33  O   UNL A   1      41.254  23.124  27.046  1.00  0.00    -0.460 OA
BRANCH  33  34
ATOM     34  C   UNL A   1      41.275  24.180  27.902  1.00  0.00     0.338 C 
ATOM     35  O   UNL A   1      42.163  24.176  28.759  1.00  0.00    -0.246 OA
BRANCH  34  36
ATOM     36  C   UNL A   1      40.239  25.313  28.027  1.00  0.00     0.060 A 
ATOM     37  C   UNL A   1      39.946  26.158  26.963  1.00  0.00     0.016 A 
ATOM     38  C   UNL A   1      39.554  25.692  29.152  1.00  0.00     0.016 A 
ATOM     39  C   UNL A   1      39.738  27.541  27.195  1.00  0.00     0.010 A 
ATOM     40  C   UNL A   1      39.523  27.058  29.441  1.00  0.00     0.010 A 
ATOM     41  C   UNL A   1      39.869  28.006  28.478  1.00  0.00    -0.014 A 
BRANCH  41  42
ATOM     42  C   UNL A   1      40.384  29.337  28.935  1.00  0.00     0.031 A 
ATOM     43  C   UNL A   1      39.324  30.453  28.984  1.00  0.00     0.074 A 
ATOM     44  C   UNL A   1      41.571  29.335  29.642  1.00  0.00     0.049 A 
ATOM     45  N   UNL A   1      39.437  31.651  29.460  1.00  0.00    -0.248 NA
ATOM     46  C   UNL A   1      37.954  30.251  28.471  1.00  0.00     0.031 C 
ATOM     47  C   UNL A   1      41.884  30.047  30.879  1.00  0.00     0.029 A 
ATOM     48  N   UNL A   1      42.761  28.608  29.512  1.00  0.00    -0.354 N 
ATOM     49  C   UNL A   1      38.147  32.198  29.656  1.00  0.00     0.074 A 
ATOM     50  C   UNL A   1      37.272  31.291  28.967  1.00  0.00     0.031 C 
ATOM     51  C   UNL A   1      43.098  29.787  31.373  1.00  0.00     0.029 A 
ATOM     52  C   UNL A   1      43.798  29.136  30.325  1.00  0.00     0.049 A 
ATOM     53  H   UNL A   1      42.867  27.824  28.926  1.00  0.00     0.167 HD
ATOM     54  C   UNL A   1      37.949  33.279  30.490  1.00  0.00     0.034 A 
ATOM     55  C   UNL A   1      44.880  29.821  29.839  1.00  0.00     0.034 A 
ATOM     56  C   UNL A   1      39.257  33.827  30.949  1.00  0.00     0.049 A 
ATOM     57  C   UNL A   1      44.703  31.367  29.740  1.00  0.00     0.074 A 
ATOM     58  C   UNL A   1      39.809  34.165  32.177  1.00  0.00     0.029 A 
ATOM     59  N   UNL A   1      40.313  33.918  30.045  1.00  0.00    -0.354 N 
ATOM     60  N   UNL A   1      43.612  32.027  30.093  1.00  0.00    -0.248 NA
ATOM     61  C   UNL A   1      45.753  32.303  29.326  1.00  0.00     0.031 C 
ATOM     62  C   UNL A   1      41.230  34.211  32.027  1.00  0.00     0.029 A 
ATOM     63  C   UNL A   1      41.532  34.040  30.685  1.00  0.00     0.049 A 
ATOM     64  H   UNL A   1      40.204  33.898  29.067  1.00  0.00     0.167 HD
ATOM     65  C   UNL A   1      43.731  33.370  29.821  1.00  0.00     0.074 A 
ATOM     66  C   UNL A   1      45.123  33.491  29.412  1.00  0.00     0.031 C 
ATOM     67  C   UNL A   1      42.723  34.306  29.890  1.00  0.00     0.034 A 
BRANCH  54  68
ATOM     68  C   UNL A   1      36.608  33.821  31.110  1.00  0.00     0.023 A 
ATOM     69  C   UNL A   1      36.444  33.622  32.510  1.00  0.00     0.012 A 
ATOM     70  C   UNL A   1      35.479  34.420  30.473  1.00  0.00     0.148 A 
ATOM     71  C   UNL A   1      35.271  33.922  33.221  1.00  0.00     0.002 A 
ATOM     72  C   UNL A   1      34.320  34.792  31.208  1.00  0.00     0.091 A 
ATOM     73  F   UNL A   1      35.484  34.606  29.149  1.00  0.00    -0.205 F 
ATOM     74  C   UNL A   1      34.209  34.517  32.573  1.00  0.00     0.022 A 
BRANCH  72  75
ATOM     75  S   UNL A   1      32.899  35.686  30.517  1.00  0.00     0.127 S 
ATOM     76  O   UNL A   1      32.521  34.851  29.374  1.00  0.00    -0.237 OA
ATOM     77  O   UNL A   1      31.941  35.651  31.624  1.00  0.00    -0.237 OA
ATOM     78  O   UNL A   1      33.383  37.014  30.171  1.00  0.00    -0.744 OA
ENDBRANCH  72  75
ENDBRANCH  54  68
BRANCH  55  79
ATOM     79  C   UNL A   1      45.808  28.816  29.213  1.00  0.00     0.023 A 
ATOM     80  C   UNL A   1      45.976  27.637  30.016  1.00  0.00     0.012 A 
ATOM     81  C   UNL A   1      45.638  28.658  27.834  1.00  0.00     0.148 A 
ATOM     82  C   UNL A   1      45.639  26.371  29.520  1.00  0.00     0.002 A 
ATOM     83  C   UNL A   1      45.223  27.412  27.373  1.00  0.00     0.091 A 
ATOM     84  F   UNL A   1      45.580  29.759  27.074  1.00  0.00    -0.205 F 
ATOM     85  C   UNL A   1      45.212  26.270  28.209  1.00  0.00     0.022 A 
BRANCH  83  86
ATOM     86  S   UNL A   1      44.006  27.341  26.060  1.00  0.00     0.127 S 
ATOM     87  O   UNL A   1      44.713  27.865  24.899  1.00  0.00    -0.237 OA
ATOM     88  O   UNL A   1      43.806  25.896  26.066  1.00  0.00    -0.237 OA
ATOM     89  O   UNL A   1      42.870  28.129  26.514  1.00  0.00    -0.744 OA
ENDBRANCH  83  86
ENDBRANCH  55  79
BRANCH  67  90
ATOM     90  C   UNL A   1      42.723  35.644  29.141  1.00  0.00     0.023 A 
ATOM     91  C   UNL A   1      41.851  35.865  28.062  1.00  0.00     0.012 A 
ATOM     92  C   UNL A   1      43.423  36.791  29.633  1.00  0.00     0.148 A 
ATOM     93  C   UNL A   1      41.744  37.113  27.440  1.00  0.00     0.002 A 
ATOM     94  C   UNL A   1      43.202  38.056  29.100  1.00  0.00     0.091 A 
ATOM     95  F   UNL A   1      44.321  36.669  30.619  1.00  0.00    -0.205 F 
ATOM     96  C   UNL A   1      42.400  38.212  27.971  1.00  0.00     0.022 A 
BRANCH  94  97
ATOM     97  S   UNL A   1      43.783  39.553  29.920  1.00  0.00     0.127 S 
ATOM     98  O   UNL A   1      43.385  39.310  31.305  1.00  0.00    -0.237 OA
ATOM     99  O   UNL A   1      45.227  39.491  29.681  1.00  0.00    -0.237 OA
ATOM    100  O   UNL A   1      43.114  40.659  29.248  1.00  0.00    -0.744 OA
ENDBRANCH  94  97
ENDBRANCH  67  90
ENDBRANCH  41  42
ENDBRANCH  34  36
ENDBRANCH  33  34
ENDBRANCH  32  33
ENDBRANCH  31  32
ENDBRANCH  30  31
ENDBRANCH  29  30
ENDBRANCH   1  29
TORSDOF 24
ENDMDL
MODEL 2
REMARK VINA RESULT:     -10.2      1.681      2.312
REMARK SMILES Cc1cc(C(=O)OCCOCCOCCOCCOC(=O)c2ccc(-c3c4nc(c(-c5cccc(S(=O)(=O)[O-])c5F)c5ccc([nH]5)c(-c5cccc(S(=O)(=O)[O-])c5F)c5nc(c(-c6cccc(S(=O)(=O)[O-])c6F)c6ccc3[nH]6)C=C5)C=C4)cc2)ccc1NC(=O)N1C[C@@H](C)[C@H](C)C1
REMARK SMILES IDX 14 1 13 2 12 3 11 4 10 5 9 6 8 7 7 8 5 9 6 10 4 11 1 12 2 13
REMARK SMILES IDX 3 14 87 15 86 16 85 17 88 18 89 19 90 21 91 22 92 23 97 24
REMARK SMILES IDX 93 25 95 26 94 27 96 28 15 29 16 30 17 31 18 32 19 33 20 34
REMARK SMILES IDX 21 35 22 36 23 37 84 38 24 39 83 40 25 41 26 42 27 43 77 44
REMARK SMILES IDX 28 45 82 46 76 47 78 48 29 49 81 50 75 51 74 52 30 54 62 55
REMARK SMILES IDX 42 56 61 57 43 58 46 59 60 60 79 61 44 62 45 63 59 65 80 66
REMARK SMILES IDX 47 67 31 68 32 69 40 70 33 71 35 72 41 73 34 74 36 75 37 76
REMARK SMILES IDX 38 77 39 78 63 79 64 80 72 81 65 82 67 83 73 84 66 85 68 86
REMARK SMILES IDX 69 87 70 88 71 89 48 90 49 91 57 92 50 93 52 94 58 95 51 96
REMARK SMILES IDX 53 97 54 98 55 99 56 100
REMARK H PARENT 88 20 78 53 46 64
REMARK Flexibility Score: inf
ROOT
ATOM      1  C   UNL A   1      36.962  21.889  25.313  1.00  0.00     0.188 C 
ENDROOT
BRANCH   1   2
ATOM      2  O   UNL A   1      36.224  20.926  24.601  1.00  0.00    -0.377 OA
BRANCH   2   3
ATOM      3  C   UNL A   1      36.122  19.637  25.165  1.00  0.00     0.188 C 
BRANCH   3   4
ATOM      4  C   UNL A   1      35.091  18.701  24.517  1.00  0.00     0.188 C 
BRANCH   4   5
ATOM      5  O   UNL A   1      33.800  18.515  25.094  1.00  0.00    -0.376 OA
BRANCH   5   6
ATOM      6  C   UNL A   1      32.666  18.975  24.377  1.00  0.00     0.202 C 
BRANCH   6   7
ATOM      7  C   UNL A   1      32.214  20.360  24.734  1.00  0.00     0.261 C 
BRANCH   7   8
ATOM      8  O   UNL A   1      32.975  21.283  23.997  1.00  0.00    -0.460 OA
BRANCH   8   9
ATOM      9  C   UNL A   1      32.425  21.605  22.839  1.00  0.00     0.338 C 
ATOM     10  O   UNL A   1      31.707  20.947  22.108  1.00  0.00    -0.246 OA
BRANCH   9  11
ATOM     11  C   UNL A   1      32.572  23.052  22.786  1.00  0.00     0.060 A 
ATOM     12  C   UNL A   1      30.116  25.673  23.654  1.00  0.00     0.046 C 
ATOM     13  C   UNL A   1      31.394  25.104  23.128  1.00  0.00    -0.027 A 
ATOM     14  C   UNL A   1      31.413  23.723  23.102  1.00  0.00     0.021 A 
ATOM     15  C   UNL A   1      32.565  25.796  22.786  1.00  0.00     0.045 A 
ATOM     16  C   UNL A   1      33.778  25.121  22.819  1.00  0.00     0.027 A 
ATOM     17  C   UNL A   1      33.783  23.742  22.720  1.00  0.00     0.018 A 
BRANCH  15  18
ATOM     18  N   UNL A   1      32.476  27.104  22.305  1.00  0.00    -0.308 N 
ATOM     19  C   UNL A   1      32.372  28.316  22.911  1.00  0.00     0.321 C 
ATOM     20  H   UNL A   1      32.492  27.160  21.321  1.00  0.00     0.171 HD
ATOM     21  O   UNL A   1      32.153  29.285  22.176  1.00  0.00    -0.248 OA
ATOM     22  N   UNL A   1      32.460  28.457  24.272  1.00  0.00    -0.324 N 
ATOM     23  C   UNL A   1      31.672  29.488  24.911  1.00  0.00     0.125 C 
ATOM     24  C   UNL A   1      33.626  28.116  25.101  1.00  0.00     0.125 C 
ATOM     25  C   UNL A   1      32.590  30.130  25.943  1.00  0.00     0.010 C 
ATOM     26  C   UNL A   1      33.500  28.971  26.374  1.00  0.00     0.010 C 
ATOM     27  C   UNL A   1      31.795  30.734  27.090  1.00  0.00     0.010 C 
ATOM     28  C   UNL A   1      34.849  29.419  26.933  1.00  0.00     0.010 C 
ENDBRANCH  15  18
ENDBRANCH   9  11
ENDBRANCH   8   9
ENDBRANCH   7   8
ENDBRANCH   6   7
ENDBRANCH   5   6
ENDBRANCH   4   5
ENDBRANCH   3   4
ENDBRANCH   2   3
ENDBRANCH   1   2
BRANCH   1  29
ATOM     29  C   UNL A   1      38.485  21.644  25.486  1.00  0.00     0.188 C 
BRANCH  29  30
ATOM     30  O   UNL A   1      38.883  20.599  26.330  1.00  0.00    -0.376 OA
BRANCH  30  31
ATOM     31  C   UNL A   1      40.260  20.352  26.174  1.00  0.00     0.202 C 
BRANCH  31  32
ATOM     32  C   UNL A   1      41.282  21.553  26.147  1.00  0.00     0.261 C 
BRANCH  32  33
ATOM     33  O   UNL A   1      41.317  22.857  27.027  1.00  0.00    -0.460 OA
BRANCH  33  34
ATOM     34  C   UNL A   1      41.326  23.942  27.845  1.00  0.00     0.338 C 
ATOM     35  O   UNL A   1      42.113  23.907  28.795  1.00  0.00    -0.246 OA
BRANCH  34  36
ATOM     36  C   UNL A   1      40.372  25.152  27.819  1.00  0.00     0.060 A 
ATOM     37  C   UNL A   1      40.454  26.127  26.832  1.00  0.00     0.016 A 
ATOM     38  C   UNL A   1      39.417  25.477  28.746  1.00  0.00     0.016 A 
ATOM     39  C   UNL A   1      40.276  27.491  27.170  1.00  0.00     0.010 A 
ATOM     40  C   UNL A   1      39.391  26.802  29.185  1.00  0.00     0.010 A 
ATOM     41  C   UNL A   1      40.060  27.806  28.486  1.00  0.00    -0.014 A 
BRANCH  41  42
ATOM     42  C   UNL A   1      40.504  29.027  29.234  1.00  0.00     0.031 A 
ATOM     43  C   UNL A   1      39.554  30.233  29.117  1.00  0.00     0.074 A 
ATOM     44  C   UNL A   1      41.426  28.834  30.246  1.00  0.00     0.049 A 
ATOM     45  N   UNL A   1      39.602  31.359  29.752  1.00  0.00    -0.248 NA
ATOM     46  C   UNL A   1      38.387  30.221  28.213  1.00  0.00     0.031 C 
ATOM     47  C   UNL A   1      41.406  29.383  31.600  1.00  0.00     0.029 A 
ATOM     48  N   UNL A   1      42.550  28.008  30.371  1.00  0.00    -0.354 N 
ATOM     49  C   UNL A   1      38.350  32.010  29.637  1.00  0.00     0.074 A 
ATOM     50  C   UNL A   1      37.660  31.270  28.619  1.00  0.00     0.031 C 
ATOM     51  C   UNL A   1      42.400  28.955  32.383  1.00  0.00     0.029 A 
ATOM     52  C   UNL A   1      43.333  28.345  31.507  1.00  0.00     0.049 A 
ATOM     53  H   UNL A   1      42.772  27.280  29.747  1.00  0.00     0.167 HD
ATOM     54  C   UNL A   1      37.987  33.017  30.509  1.00  0.00     0.034 A 
ATOM     55  C   UNL A   1      44.553  28.964  31.440  1.00  0.00     0.034 A 
ATOM     56  C   UNL A   1      39.135  33.382  31.387  1.00  0.00     0.049 A 
ATOM     57  C   UNL A   1      44.517  30.521  31.489  1.00  0.00     0.074 A 
ATOM     58  C   UNL A   1      39.320  33.539  32.754  1.00  0.00     0.029 A 
ATOM     59  N   UNL A   1      40.414  33.457  30.842  1.00  0.00    -0.354 N 
ATOM     60  N   UNL A   1      43.417  31.249  31.595  1.00  0.00    -0.248 NA
ATOM     61  C   UNL A   1      45.703  31.384  31.513  1.00  0.00     0.031 C 
ATOM     62  C   UNL A   1      40.721  33.456  33.024  1.00  0.00     0.029 A 
ATOM     63  C   UNL A   1      41.395  33.391  31.814  1.00  0.00     0.049 A 
ATOM     64  H   UNL A   1      40.598  33.546  29.879  1.00  0.00     0.167 HD
ATOM     65  C   UNL A   1      43.701  32.594  31.539  1.00  0.00     0.074 A 
ATOM     66  C   UNL A   1      45.156  32.614  31.563  1.00  0.00     0.031 C 
ATOM     67  C   UNL A   1      42.782  33.615  31.433  1.00  0.00     0.034 A 
BRANCH  54  68
ATOM     68  C   UNL A   1      36.562  33.626  30.781  1.00  0.00     0.023 A 
ATOM     69  C   UNL A   1      36.090  33.532  32.121  1.00  0.00     0.012 A 
ATOM     70  C   UNL A   1      35.619  34.198  29.874  1.00  0.00     0.148 A 
ATOM     71  C   UNL A   1      34.801  33.903  32.535  1.00  0.00     0.002 A 
ATOM     72  C   UNL A   1      34.341  34.643  30.309  1.00  0.00     0.091 A 
ATOM     73  F   UNL A   1      35.919  34.289  28.574  1.00  0.00    -0.205 F 
ATOM     74  C   UNL A   1      33.926  34.469  31.633  1.00  0.00     0.022 A 
BRANCH  72  75
ATOM     75  S   UNL A   1      33.136  35.510  29.266  1.00  0.00     0.127 S 
ATOM     76  O   UNL A   1      33.985  36.382  28.451  1.00  0.00    -0.237 OA
ATOM     77  O   UNL A   1      32.521  34.410  28.520  1.00  0.00    -0.237 OA
ATOM     78  O   UNL A   1      32.237  36.206  30.175  1.00  0.00    -0.744 OA
ENDBRANCH  72  75
ENDBRANCH  54  68
BRANCH  55  79
ATOM     79  C   UNL A   1      45.556  27.938  30.985  1.00  0.00     0.023 A 
ATOM     80  C   UNL A   1      45.376  26.662  31.620  1.00  0.00     0.012 A 
ATOM     81  C   UNL A   1      45.819  27.962  29.612  1.00  0.00     0.148 A 
ATOM     82  C   UNL A   1      45.121  25.509  30.866  1.00  0.00     0.002 A 
ATOM     83  C   UNL A   1      45.481  26.833  28.870  1.00  0.00     0.091 A 
ATOM     84  F   UNL A   1      46.084  29.143  29.039  1.00  0.00    -0.205 F 
ATOM     85  C   UNL A   1      45.124  25.611  29.488  1.00  0.00     0.022 A 
BRANCH  83  86
ATOM     86  S   UNL A   1      44.740  27.056  27.254  1.00  0.00     0.127 S 
ATOM     87  O   UNL A   1      45.840  27.528  26.426  1.00  0.00    -0.237 OA
ATOM     88  O   UNL A   1      44.347  25.667  27.034  1.00  0.00    -0.237 OA
ATOM     89  O   UNL A   1      43.640  27.992  27.435  1.00  0.00    -0.744 OA
ENDBRANCH  83  86
ENDBRANCH  55  79
BRANCH  67  90
ATOM     90  C   UNL A   1      43.094  35.014  30.888  1.00  0.00     0.023 A 
ATOM     91  C   UNL A   1      43.613  36.014  31.728  1.00  0.00     0.012 A 
ATOM     92  C   UNL A   1      43.098  35.300  29.487  1.00  0.00     0.148 A 
ATOM     93  C   UNL A   1      44.020  37.257  31.234  1.00  0.00     0.002 A 
ATOM     94  C   UNL A   1      43.638  36.483  28.992  1.00  0.00     0.091 A 
ATOM     95  F   UNL A   1      42.570  34.434  28.613  1.00  0.00    -0.205 F 
ATOM     96  C   UNL A   1      44.055  37.484  29.867  1.00  0.00     0.022 A 
BRANCH  94  97
ATOM     97  S   UNL A   1      43.985  36.715  27.238  1.00  0.00     0.127 S 
ATOM     98  O   UNL A   1      42.665  37.060  26.715  1.00  0.00    -0.237 OA
ATOM     99  O   UNL A   1      44.940  37.826  27.261  1.00  0.00    -0.237 OA
ATOM    100  O   UNL A   1      44.547  35.454  26.774  1.00  0.00    -0.744 OA
ENDBRANCH  94  97
ENDBRANCH  67  90
ENDBRANCH  41  42
ENDBRANCH  34  36
ENDBRANCH  33  34
ENDBRANCH  32  33
ENDBRANCH  31  32
ENDBRANCH  30  31
ENDBRANCH  29  30
ENDBRANCH   1  29
TORSDOF 24
ENDMDL
MODEL 3
REMARK VINA RESULT:     -10.0      3.937      5.140
REMARK SMILES Cc1cc(C(=O)OCCOCCOCCOCCOC(=O)c2ccc(-c3c4nc(c(-c5cccc(S(=O)(=O)[O-])c5F)c5ccc([nH]5)c(-c5cccc(S(=O)(=O)[O-])c5F)c5nc(c(-c6cccc(S(=O)(=O)[O-])c6F)c6ccc3[nH]6)C=C5)C=C4)cc2)ccc1NC(=O)N1C[C@@H](C)[C@H](C)C1
REMARK SMILES IDX 14 1 13 2 12 3 11 4 10 5 9 6 8 7 7 8 5 9 6 10 4 11 1 12 2 13
REMARK SMILES IDX 3 14 87 15 86 16 85 17 88 18 89 19 90 21 91 22 92 23 97 24
REMARK SMILES IDX 93 25 95 26 94 27 96 28 15 29 16 30 17 31 18 32 19 33 20 34
REMARK SMILES IDX 21 35 22 36 23 37 84 38 24 39 83 40 25 41 26 42 27 43 77 44
REMARK SMILES IDX 28 45 82 46 76 47 78 48 29 49 81 50 75 51 74 52 30 54 62 55
REMARK SMILES IDX 42 56 61 57 43 58 46 59 60 60 79 61 44 62 45 63 59 65 80 66
REMARK SMILES IDX 47 67 31 68 32 69 40 70 33 71 35 72 41 73 34 74 36 75 37 76
REMARK SMILES IDX 38 77 39 78 63 79 64 80 72 81 65 82 67 83 73 84 66 85 68 86
REMARK SMILES IDX 69 87 70 88 71 89 48 90 49 91 57 92 50 93 52 94 58 95 51 96
REMARK SMILES IDX 53 97 54 98 55 99 56 100
REMARK H PARENT 88 20 78 53 46 64
REMARK Flexibility Score: inf
ROOT
ATOM      1  C   UNL A   1      36.717  22.022  25.325  1.00  0.00     0.188 C 
ENDROOT
BRANCH   1   2
ATOM      2  O   UNL A   1      35.834  20.969  25.020  1.00  0.00    -0.377 OA
BRANCH   2   3
ATOM      3  C   UNL A   1      36.368  19.664  24.980  1.00  0.00     0.188 C 
BRANCH   3   4
ATOM      4  C   UNL A   1      35.464  18.589  24.357  1.00  0.00     0.188 C 
BRANCH   4   5
ATOM      5  O   UNL A   1      34.200  18.266  24.933  1.00  0.00    -0.376 OA
BRANCH   5   6
ATOM      6  C   UNL A   1      33.024  18.687  24.261  1.00  0.00     0.202 C 
BRANCH   6   7
ATOM      7  C   UNL A   1      32.432  19.969  24.768  1.00  0.00     0.261 C 
BRANCH   7   8
ATOM      8  O   UNL A   1      33.104  21.043  24.160  1.00  0.00    -0.460 OA
BRANCH   8   9
ATOM      9  C   UNL A   1      32.569  21.406  23.006  1.00  0.00     0.338 C 
ATOM     10  O   UNL A   1      31.812  20.796  22.274  1.00  0.00    -0.246 OA
BRANCH   9  11
ATOM     11  C   UNL A   1      32.800  22.842  22.964  1.00  0.00     0.060 A 
ATOM     12  C   UNL A   1      30.397  25.601  23.490  1.00  0.00     0.046 C 
ATOM     13  C   UNL A   1      31.700  24.957  23.138  1.00  0.00    -0.027 A 
ATOM     14  C   UNL A   1      31.647  23.577  23.123  1.00  0.00     0.021 A 
ATOM     15  C   UNL A   1      32.941  25.582  22.946  1.00  0.00     0.045 A 
ATOM     16  C   UNL A   1      34.101  24.845  23.140  1.00  0.00     0.027 A 
ATOM     17  C   UNL A   1      34.045  23.466  23.051  1.00  0.00     0.018 A 
BRANCH  15  18
ATOM     18  N   UNL A   1      32.986  26.886  22.449  1.00  0.00    -0.308 N 
ATOM     19  C   UNL A   1      32.876  28.110  23.030  1.00  0.00     0.321 C 
ATOM     20  H   UNL A   1      33.126  26.928  21.475  1.00  0.00     0.171 HD
ATOM     21  O   UNL A   1      32.804  29.080  22.268  1.00  0.00    -0.248 OA
ATOM     22  N   UNL A   1      32.803  28.264  24.390  1.00  0.00    -0.324 N 
ATOM     23  C   UNL A   1      32.001  29.345  24.921  1.00  0.00     0.125 C 
ATOM     24  C   UNL A   1      33.837  27.871  25.360  1.00  0.00     0.125 C 
ATOM     25  C   UNL A   1      32.819  29.950  26.054  1.00  0.00     0.010 C 
ATOM     26  C   UNL A   1      33.602  28.748  26.602  1.00  0.00     0.010 C 
ATOM     27  C   UNL A   1      31.924  30.612  27.089  1.00  0.00     0.010 C 
ATOM     28  C   UNL A   1      34.895  29.129  27.322  1.00  0.00     0.010 C 
ENDBRANCH  15  18
ENDBRANCH   9  11
ENDBRANCH   8   9
ENDBRANCH   7   8
ENDBRANCH   6   7
ENDBRANCH   5   6
ENDBRANCH   4   5
ENDBRANCH   3   4
ENDBRANCH   2   3
ENDBRANCH   1   2
BRANCH   1  29
ATOM     29  C   UNL A   1      38.232  21.691  25.394  1.00  0.00     0.188 C 
BRANCH  29  30
ATOM     30  O   UNL A   1      39.070  22.617  26.029  1.00  0.00    -0.376 OA
BRANCH  30  31
ATOM     31  C   UNL A   1      39.879  21.964  26.978  1.00  0.00     0.202 C 
BRANCH  31  32
ATOM     32  C   UNL A   1      41.031  22.752  27.714  1.00  0.00     0.261 C 
BRANCH  32  33
ATOM     33  O   UNL A   1      41.427  24.272  27.610  1.00  0.00    -0.460 OA
BRANCH  33  34
ATOM     34  C   UNL A   1      41.801  25.569  27.454  1.00  0.00     0.338 C 
ATOM     35  O   UNL A   1      43.014  25.790  27.400  1.00  0.00    -0.246 OA
BRANCH  34  36
ATOM     36  C   UNL A   1      40.901  26.819  27.482  1.00  0.00     0.060 A 
ATOM     37  C   UNL A   1      41.401  28.087  27.204  1.00  0.00     0.016 A 
ATOM     38  C   UNL A   1      39.581  26.885  27.842  1.00  0.00     0.016 A 
ATOM     39  C   UNL A   1      40.960  29.201  27.960  1.00  0.00     0.010 A 
ATOM     40  C   UNL A   1      39.220  27.899  28.732  1.00  0.00     0.010 A 
ATOM     41  C   UNL A   1      40.068  28.979  28.976  1.00  0.00    -0.014 A 
BRANCH  41  42
ATOM     42  C   UNL A   1      39.956  29.696  30.287  1.00  0.00     0.031 A 
ATOM     43  C   UNL A   1      39.177  31.022  30.230  1.00  0.00     0.074 A 
ATOM     44  C   UNL A   1      40.162  28.941  31.427  1.00  0.00     0.049 A 
ATOM     45  N   UNL A   1      38.805  31.781  31.210  1.00  0.00    -0.248 NA
ATOM     46  C   UNL A   1      38.718  31.603  28.952  1.00  0.00     0.031 C 
ATOM     47  C   UNL A   1      39.361  28.918  32.649  1.00  0.00     0.029 A 
ATOM     48  N   UNL A   1      41.063  27.917  31.747  1.00  0.00    -0.354 N 
ATOM     49  C   UNL A   1      37.802  32.670  30.756  1.00  0.00     0.074 A 
ATOM     50  C   UNL A   1      37.837  32.540  29.327  1.00  0.00     0.031 C 
ATOM     51  C   UNL A   1      39.765  28.024  33.556  1.00  0.00     0.029 A 
ATOM     52  C   UNL A   1      41.057  27.621  33.135  1.00  0.00     0.049 A 
ATOM     53  H   UNL A   1      41.631  27.458  31.088  1.00  0.00     0.167 HD
ATOM     54  C   UNL A   1      36.965  33.314  31.643  1.00  0.00     0.034 A 
ATOM     55  C   UNL A   1      42.074  27.949  33.993  1.00  0.00     0.034 A 
ATOM     56  C   UNL A   1      37.404  33.066  33.046  1.00  0.00     0.049 A 
ATOM     57  C   UNL A   1      41.940  29.338  34.687  1.00  0.00     0.074 A 
ATOM     58  C   UNL A   1      36.784  32.642  34.213  1.00  0.00     0.029 A 
ATOM     59  N   UNL A   1      38.764  33.078  33.346  1.00  0.00    -0.354 N 
ATOM     60  N   UNL A   1      40.935  30.180  34.507  1.00  0.00    -0.248 NA
ATOM     61  C   UNL A   1      42.864  29.859  35.700  1.00  0.00     0.031 C 
ATOM     62  C   UNL A   1      37.797  32.173  35.107  1.00  0.00     0.029 A 
ATOM     63  C   UNL A   1      39.034  32.441  34.543  1.00  0.00     0.049 A 
ATOM     64  H   UNL A   1      39.451  33.491  32.775  1.00  0.00     0.167 HD
ATOM     65  C   UNL A   1      41.135  31.352  35.199  1.00  0.00     0.074 A 
ATOM     66  C   UNL A   1      42.324  31.059  35.985  1.00  0.00     0.031 C 
ATOM     67  C   UNL A   1      40.384  32.501  35.085  1.00  0.00     0.034 A 
BRANCH  54  68
ATOM     68  C   UNL A   1      35.603  34.052  31.363  1.00  0.00     0.023 A 
ATOM     69  C   UNL A   1      34.928  33.681  30.167  1.00  0.00     0.012 A 
ATOM     70  C   UNL A   1      34.963  35.104  32.087  1.00  0.00     0.148 A 
ATOM     71  C   UNL A   1      33.770  34.309  29.682  1.00  0.00     0.002 A 
ATOM     72  C   UNL A   1      33.750  35.690  31.634  1.00  0.00     0.091 A 
ATOM     73  F   UNL A   1      35.529  35.585  33.199  1.00  0.00    -0.205 F 
ATOM     74  C   UNL A   1      33.172  35.309  30.419  1.00  0.00     0.022 A 
BRANCH  72  75
ATOM     75  S   UNL A   1      32.791  36.927  32.552  1.00  0.00     0.127 S 
ATOM     76  O   UNL A   1      32.908  38.116  31.706  1.00  0.00    -0.237 OA
ATOM     77  O   UNL A   1      31.451  36.335  32.567  1.00  0.00    -0.237 OA
ATOM     78  O   UNL A   1      33.421  37.041  33.860  1.00  0.00    -0.744 OA
ENDBRANCH  72  75
ENDBRANCH  54  68
BRANCH  55  79
ATOM     79  C   UNL A   1      43.209  26.995  33.736  1.00  0.00     0.023 A 
ATOM     80  C   UNL A   1      44.338  27.628  33.112  1.00  0.00     0.012 A 
ATOM     81  C   UNL A   1      43.448  26.092  34.776  1.00  0.00     0.148 A 
ATOM     82  C   UNL A   1      45.597  27.627  33.727  1.00  0.00     0.002 A 
ATOM     83  C   UNL A   1      44.677  26.166  35.426  1.00  0.00     0.091 A 
ATOM     84  F   UNL A   1      42.404  25.429  35.290  1.00  0.00    -0.205 F 
ATOM     85  C   UNL A   1      45.748  26.936  34.915  1.00  0.00     0.022 A 
BRANCH  83  86
ATOM     86  S   UNL A   1      44.720  25.983  37.208  1.00  0.00     0.127 S 
ATOM     87  O   UNL A   1      46.126  26.159  37.544  1.00  0.00    -0.237 OA
ATOM     88  O   UNL A   1      43.856  27.114  37.534  1.00  0.00    -0.237 OA
ATOM     89  O   UNL A   1      44.162  24.671  37.497  1.00  0.00    -0.744 OA
ENDBRANCH  83  86
ENDBRANCH  55  79
BRANCH  67  90
ATOM     90  C   UNL A   1      40.878  33.904  35.457  1.00  0.00     0.023 A 
ATOM     91  C   UNL A   1      41.230  34.831  34.462  1.00  0.00     0.012 A 
ATOM     92  C   UNL A   1      40.784  34.414  36.790  1.00  0.00     0.148 A 
ATOM     93  C   UNL A   1      41.565  36.154  34.767  1.00  0.00     0.002 A 
ATOM     94  C   UNL A   1      40.981  35.764  37.064  1.00  0.00     0.091 A 
ATOM     95  F   UNL A   1      40.514  33.596  37.816  1.00  0.00    -0.205 F 
ATOM     96  C   UNL A   1      41.419  36.627  36.061  1.00  0.00     0.022 A 
BRANCH  94  97
ATOM     97  S   UNL A   1      40.522  36.495  38.647  1.00  0.00     0.127 S 
ATOM     98  O   UNL A   1      41.488  37.586  38.764  1.00  0.00    -0.237 OA
ATOM     99  O   UNL A   1      39.145  36.925  38.397  1.00  0.00    -0.237 OA
ATOM    100  O   UNL A   1      40.644  35.426  39.628  1.00  0.00    -0.744 OA
ENDBRANCH  94  97
ENDBRANCH  67  90
ENDBRANCH  41  42
ENDBRANCH  34  36
ENDBRANCH  33  34
ENDBRANCH  32  33
ENDBRANCH  31  32
ENDBRANCH  30  31
ENDBRANCH  29  30
ENDBRANCH   1  29
TORSDOF 24
ENDMDL
