MODEL 1
REMARK VINA RESULT:      -9.3      0.000      0.000
REMARK SMILES CCC[C@H](NC(=O)Cn1cccc1C(=O)OCCOCCOCCOCCOC(=O)c1ccc(-c2c3nc(c(-c4cccc(S(=O)(=O)[O-])c4F)c4ccc([nH]4)c(-c4cccc(S(=O)(=O)[O-])c4F)c4nc(c(-c5cccc(S(=O)(=O)[O-])c5F)c5ccc2[nH]5)C=C4)C=C3)cc1)c1cccs1
REMARK SMILES IDX 21 1 20 2 19 3 18 4 17 5 16 6 14 7 15 8 13 9 9 10 10 11
REMARK SMILES IDX 11 12 12 13 8 14 6 15 5 16 7 18 4 19 3 20 2 21 1 22 94 23
REMARK SMILES IDX 95 24 98 25 96 26 97 27 22 28 23 29 24 30 25 31 26 32 27 33
REMARK SMILES IDX 28 34 29 35 30 36 31 37 32 38 93 39 33 40 92 41 34 42 35 43
REMARK SMILES IDX 36 44 86 45 37 46 91 47 85 48 87 49 38 50 90 51 84 52 83 53
REMARK SMILES IDX 39 55 71 56 51 57 70 58 52 59 55 60 69 61 88 62 53 63 54 64
REMARK SMILES IDX 68 66 89 67 56 68 40 69 41 70 49 71 42 72 44 73 50 74 43 75
REMARK SMILES IDX 45 76 46 77 47 78 48 79 72 80 73 81 81 82 74 83 76 84 82 85
REMARK SMILES IDX 75 86 77 87 78 88 79 89 80 90 57 91 58 92 66 93 59 94 61 95
REMARK SMILES IDX 67 96 60 97 62 98 63 99 64 100 65 101
REMARK H PARENT 5 17 87 54 55 65
REMARK Flexibility Score: inf
ROOT
ATOM      1  C   UNL A   1      40.830  20.157  26.860  1.00  0.00     0.188 C 
ENDROOT
BRANCH   1   2
ATOM      2  C   UNL A   1      39.914  21.378  26.696  1.00  0.00     0.188 C 
BRANCH   2   3
ATOM      3  O   UNL A   1      39.343  21.424  25.394  1.00  0.00    -0.376 OA
BRANCH   3   4
ATOM      4  C   UNL A   1      38.301  20.509  25.130  1.00  0.00     0.202 C 
BRANCH   4   5
ATOM      5  C   UNL A   1      36.988  21.156  24.699  1.00  0.00     0.261 C 
BRANCH   5   6
ATOM      6  O   UNL A   1      35.794  20.409  24.983  1.00  0.00    -0.459 OA
BRANCH   6   7
ATOM      7  C   UNL A   1      34.709  21.090  25.435  1.00  0.00     0.355 C 
ATOM      8  O   UNL A   1      34.562  21.448  26.594  1.00  0.00    -0.244 OA
BRANCH   7   9
ATOM      9  C   UNL A   1      33.860  21.489  24.321  1.00  0.00     0.128 A 
ATOM     10  N   UNL A   1      33.906  22.632  23.533  1.00  0.00    -0.333 N 
ATOM     11  C   UNL A   1      32.831  22.637  22.670  1.00  0.00     0.087 A 
ATOM     12  C   UNL A   1      32.111  21.484  22.856  1.00  0.00     0.020 A 
ATOM     13  C   UNL A   1      32.762  20.758  23.874  1.00  0.00     0.035 A 
BRANCH  10  14
ATOM     14  C   UNL A   1      34.830  23.752  23.630  1.00  0.00     0.222 C 
BRANCH  14  15
ATOM     15  C   UNL A   1      34.859  24.425  24.983  1.00  0.00     0.240 C 
ATOM     16  N   UNL A   1      33.872  25.260  25.411  1.00  0.00    -0.347 N 
ATOM     17  H   UNL A   1      34.183  25.963  26.027  1.00  0.00     0.164 HD
ATOM     18  O   UNL A   1      35.825  24.291  25.740  1.00  0.00    -0.273 OA
BRANCH  16  19
ATOM     19  C   UNL A   1      32.436  25.310  25.127  1.00  0.00     0.122 C 
BRANCH  19  20
ATOM     20  C   UNL A   1      31.669  25.614  26.447  1.00  0.00     0.030 C 
BRANCH  20  21
ATOM     21  C   UNL A   1      31.045  27.013  26.492  1.00  0.00    -0.001 C 
ATOM     22  C   UNL A   1      31.744  27.896  27.512  1.00  0.00     0.004 C 
ENDBRANCH  20  21
ENDBRANCH  19  20
BRANCH  19  23
ATOM     23  C   UNL A   1      32.063  26.392  24.148  1.00  0.00     0.027 A 
ATOM     24  C   UNL A   1      31.007  26.450  23.258  1.00  0.00     0.017 A 
ATOM     25  S   UNL A   1      33.155  27.699  23.900  1.00  0.00    -0.147 S 
ATOM     26  C   UNL A   1      31.108  27.554  22.365  1.00  0.00     0.012 A 
ATOM     27  C   UNL A   1      32.237  28.305  22.598  1.00  0.00     0.065 A 
ENDBRANCH  19  23
ENDBRANCH  16  19
ENDBRANCH  14  15
ENDBRANCH  10  14
ENDBRANCH   7   9
ENDBRANCH   6   7
ENDBRANCH   5   6
ENDBRANCH   4   5
ENDBRANCH   3   4
ENDBRANCH   2   3
ENDBRANCH   1   2
BRANCH   1  28
ATOM     28  O   UNL A   1      41.749  19.980  25.791  1.00  0.00    -0.377 OA
BRANCH  28  29
ATOM     29  C   UNL A   1      42.628  18.872  25.928  1.00  0.00     0.188 C 
BRANCH  29  30
ATOM     30  C   UNL A   1      44.044  19.052  25.334  1.00  0.00     0.188 C 
BRANCH  30  31
ATOM     31  O   UNL A   1      44.352  19.877  24.211  1.00  0.00    -0.376 OA
BRANCH  31  32
ATOM     32  C   UNL A   1      44.941  21.162  24.332  1.00  0.00     0.202 C 
BRANCH  32  33
ATOM     33  C   UNL A   1      44.581  22.060  25.514  1.00  0.00     0.261 C 
BRANCH  33  34
ATOM     34  O   UNL A   1      44.815  23.427  25.265  1.00  0.00    -0.460 OA
BRANCH  34  35
ATOM     35  C   UNL A   1      44.801  24.150  26.400  1.00  0.00     0.338 C 
ATOM     36  O   UNL A   1      45.570  24.096  27.345  1.00  0.00    -0.246 OA
BRANCH  35  37
ATOM     37  C   UNL A   1      43.608  24.983  26.393  1.00  0.00     0.060 A 
ATOM     38  C   UNL A   1      43.840  26.338  26.138  1.00  0.00     0.016 A 
ATOM     39  C   UNL A   1      42.565  24.512  27.189  1.00  0.00     0.016 A 
ATOM     40  C   UNL A   1      43.209  27.246  26.945  1.00  0.00     0.010 A 
ATOM     41  C   UNL A   1      42.008  25.409  28.054  1.00  0.00     0.010 A 
ATOM     42  C   UNL A   1      42.385  26.753  27.962  1.00  0.00    -0.014 A 
BRANCH  42  43
ATOM     43  C   UNL A   1      41.855  27.688  28.945  1.00  0.00     0.031 A 
ATOM     44  C   UNL A   1      42.692  27.650  30.208  1.00  0.00     0.074 A 
ATOM     45  C   UNL A   1      40.731  28.364  28.564  1.00  0.00     0.049 A 
ATOM     46  N   UNL A   1      42.325  27.846  31.434  1.00  0.00    -0.248 NA
ATOM     47  C   UNL A   1      44.105  27.178  30.131  1.00  0.00     0.031 C 
ATOM     48  C   UNL A   1      40.061  28.212  27.250  1.00  0.00     0.029 A 
ATOM     49  N   UNL A   1      39.924  29.300  29.173  1.00  0.00    -0.354 N 
ATOM     50  C   UNL A   1      43.498  27.773  32.206  1.00  0.00     0.074 A 
ATOM     51  C   UNL A   1      44.505  27.166  31.399  1.00  0.00     0.031 C 
ATOM     52  C   UNL A   1      38.936  28.956  27.195  1.00  0.00     0.029 A 
ATOM     53  C   UNL A   1      38.788  29.701  28.431  1.00  0.00     0.049 A 
ATOM     54  H   UNL A   1      40.125  29.665  30.066  1.00  0.00     0.167 HD
ATOM     55  C   UNL A   1      43.628  28.405  33.401  1.00  0.00     0.034 A 
ATOM     56  C   UNL A   1      37.780  30.554  28.793  1.00  0.00     0.034 A 
ATOM     57  C   UNL A   1      42.437  29.132  33.698  1.00  0.00     0.049 A 
ATOM     58  C   UNL A   1      38.188  31.149  30.076  1.00  0.00     0.074 A 
ATOM     59  C   UNL A   1      41.192  28.746  34.118  1.00  0.00     0.029 A 
ATOM     60  N   UNL A   1      42.374  30.404  33.178  1.00  0.00    -0.354 N 
ATOM     61  N   UNL A   1      39.143  32.023  30.216  1.00  0.00    -0.248 NA
ATOM     62  C   UNL A   1      37.588  30.647  31.319  1.00  0.00     0.031 C 
ATOM     63  C   UNL A   1      40.322  29.690  33.536  1.00  0.00     0.029 A 
ATOM     64  C   UNL A   1      41.062  30.681  32.880  1.00  0.00     0.049 A 
ATOM     65  H   UNL A   1      43.138  31.011  33.041  1.00  0.00     0.167 HD
ATOM     66  C   UNL A   1      39.483  31.874  31.540  1.00  0.00     0.074 A 
ATOM     67  C   UNL A   1      38.325  31.319  32.198  1.00  0.00     0.031 C 
ATOM     68  C   UNL A   1      40.787  31.692  31.883  1.00  0.00     0.034 A 
BRANCH  55  69
ATOM     69  C   UNL A   1      44.825  28.652  34.268  1.00  0.00     0.023 A 
ATOM     70  C   UNL A   1      44.729  28.131  35.584  1.00  0.00     0.012 A 
ATOM     71  C   UNL A   1      45.879  29.538  33.990  1.00  0.00     0.148 A 
ATOM     72  C   UNL A   1      45.579  28.544  36.607  1.00  0.00     0.002 A 
ATOM     73  C   UNL A   1      46.764  29.903  35.005  1.00  0.00     0.091 A 
ATOM     74  F   UNL A   1      45.974  30.106  32.783  1.00  0.00    -0.205 F 
ATOM     75  C   UNL A   1      46.595  29.437  36.317  1.00  0.00     0.022 A 
BRANCH  73  76
ATOM     76  S   UNL A   1      48.172  30.978  34.701  1.00  0.00     0.127 S 
ATOM     77  O   UNL A   1      48.801  31.041  36.016  1.00  0.00    -0.237 OA
ATOM     78  O   UNL A   1      48.931  30.218  33.702  1.00  0.00    -0.237 OA
ATOM     79  O   UNL A   1      47.601  32.214  34.183  1.00  0.00    -0.744 OA
ENDBRANCH  73  76
ENDBRANCH  55  69
BRANCH  56  80
ATOM     80  C   UNL A   1      36.412  30.899  28.249  1.00  0.00     0.023 A 
ATOM     81  C   UNL A   1      35.504  29.956  27.746  1.00  0.00     0.012 A 
ATOM     82  C   UNL A   1      35.939  32.245  28.295  1.00  0.00     0.148 A 
ATOM     83  C   UNL A   1      34.179  30.307  27.418  1.00  0.00     0.002 A 
ATOM     84  C   UNL A   1      34.606  32.574  28.076  1.00  0.00     0.091 A 
ATOM     85  F   UNL A   1      36.796  33.241  28.533  1.00  0.00    -0.205 F 
ATOM     86  C   UNL A   1      33.717  31.604  27.624  1.00  0.00     0.022 A 
BRANCH  84  87
ATOM     87  S   UNL A   1      33.949  34.203  28.487  1.00  0.00     0.127 S 
ATOM     88  O   UNL A   1      32.576  34.119  27.995  1.00  0.00    -0.237 OA
ATOM     89  O   UNL A   1      34.081  34.208  29.944  1.00  0.00    -0.237 OA
ATOM     90  O   UNL A   1      34.790  35.173  27.798  1.00  0.00    -0.744 OA
ENDBRANCH  84  87
ENDBRANCH  56  80
BRANCH  68  91
ATOM     91  C   UNL A   1      41.780  32.331  30.916  1.00  0.00     0.023 A 
ATOM     92  C   UNL A   1      42.557  31.459  30.126  1.00  0.00     0.012 A 
ATOM     93  C   UNL A   1      42.069  33.712  30.833  1.00  0.00     0.148 A 
ATOM     94  C   UNL A   1      43.589  31.930  29.308  1.00  0.00     0.002 A 
ATOM     95  C   UNL A   1      43.106  34.184  30.020  1.00  0.00     0.091 A 
ATOM     96  F   UNL A   1      41.341  34.559  31.559  1.00  0.00    -0.205 F 
ATOM     97  C   UNL A   1      43.866  33.289  29.256  1.00  0.00     0.022 A 
BRANCH  95  98
ATOM     98  S   UNL A   1      43.576  35.920  29.896  1.00  0.00     0.127 S 
ATOM     99  O   UNL A   1      43.575  36.348  31.295  1.00  0.00    -0.237 OA
ATOM    100  O   UNL A   1      44.908  35.839  29.297  1.00  0.00    -0.237 OA
ATOM    101  O   UNL A   1      42.565  36.558  29.065  1.00  0.00    -0.744 OA
ENDBRANCH  95  98
ENDBRANCH  68  91
ENDBRANCH  42  43
ENDBRANCH  35  37
ENDBRANCH  34  35
ENDBRANCH  33  34
ENDBRANCH  32  33
ENDBRANCH  31  32
ENDBRANCH  30  31
ENDBRANCH  29  30
ENDBRANCH  28  29
ENDBRANCH   1  28
TORSDOF 29
ENDMDL
MODEL 2
REMARK VINA RESULT:      -9.3      4.383      9.293
REMARK SMILES CCC[C@H](NC(=O)Cn1cccc1C(=O)OCCOCCOCCOCCOC(=O)c1ccc(-c2c3nc(c(-c4cccc(S(=O)(=O)[O-])c4F)c4ccc([nH]4)c(-c4cccc(S(=O)(=O)[O-])c4F)c4nc(c(-c5cccc(S(=O)(=O)[O-])c5F)c5ccc2[nH]5)C=C4)C=C3)cc1)c1cccs1
REMARK SMILES IDX 21 1 20 2 19 3 18 4 17 5 16 6 14 7 15 8 13 9 9 10 10 11
REMARK SMILES IDX 11 12 12 13 8 14 6 15 5 16 7 18 4 19 3 20 2 21 1 22 94 23
REMARK SMILES IDX 95 24 98 25 96 26 97 27 22 28 23 29 24 30 25 31 26 32 27 33
REMARK SMILES IDX 28 34 29 35 30 36 31 37 32 38 93 39 33 40 92 41 34 42 35 43
REMARK SMILES IDX 36 44 86 45 37 46 91 47 85 48 87 49 38 50 90 51 84 52 83 53
REMARK SMILES IDX 39 55 71 56 51 57 70 58 52 59 55 60 69 61 88 62 53 63 54 64
REMARK SMILES IDX 68 66 89 67 56 68 40 69 41 70 49 71 42 72 44 73 50 74 43 75
REMARK SMILES IDX 45 76 46 77 47 78 48 79 72 80 73 81 81 82 74 83 76 84 82 85
REMARK SMILES IDX 75 86 77 87 78 88 79 89 80 90 57 91 58 92 66 93 59 94 61 95
REMARK SMILES IDX 67 96 60 97 62 98 63 99 64 100 65 101
REMARK H PARENT 5 17 87 54 55 65
REMARK Flexibility Score: inf
ROOT
ATOM      1  C   UNL A   1      32.157  28.624  27.232  1.00  0.00     0.188 C 
ENDROOT
BRANCH   1   2
ATOM      2  C   UNL A   1      33.428  27.935  26.718  1.00  0.00     0.188 C 
BRANCH   2   3
ATOM      3  O   UNL A   1      33.309  27.593  25.343  1.00  0.00    -0.376 OA
BRANCH   3   4
ATOM      4  C   UNL A   1      33.628  28.604  24.411  1.00  0.00     0.202 C 
BRANCH   4   5
ATOM      5  C   UNL A   1      33.736  28.119  22.967  1.00  0.00     0.261 C 
BRANCH   5   6
ATOM      6  O   UNL A   1      33.921  26.706  22.789  1.00  0.00    -0.459 OA
BRANCH   6   7
ATOM      7  C   UNL A   1      33.125  26.067  21.894  1.00  0.00     0.355 C 
ATOM      8  O   UNL A   1      33.359  26.001  20.697  1.00  0.00    -0.244 OA
BRANCH   7   9
ATOM      9  C   UNL A   1      32.078  25.326  22.585  1.00  0.00     0.128 A 
ATOM     10  N   UNL A   1      31.971  23.964  22.839  1.00  0.00    -0.333 N 
ATOM     11  C   UNL A   1      30.751  23.701  23.424  1.00  0.00     0.087 A 
ATOM     12  C   UNL A   1      30.081  24.885  23.596  1.00  0.00     0.020 A 
ATOM     13  C   UNL A   1      30.915  25.902  23.090  1.00  0.00     0.035 A 
BRANCH  10  14
ATOM     14  C   UNL A   1      32.896  22.906  22.461  1.00  0.00     0.222 C 
BRANCH  14  15
ATOM     15  C   UNL A   1      33.051  21.811  23.492  1.00  0.00     0.240 C 
ATOM     16  N   UNL A   1      34.078  21.783  24.385  1.00  0.00    -0.347 N 
ATOM     17  H   UNL A   1      34.346  20.875  24.657  1.00  0.00     0.164 HD
ATOM     18  O   UNL A   1      32.276  20.851  23.522  1.00  0.00    -0.273 OA
BRANCH  16  19
ATOM     19  C   UNL A   1      34.858  22.848  25.019  1.00  0.00     0.122 C 
BRANCH  19  20
ATOM     20  C   UNL A   1      34.286  23.119  26.440  1.00  0.00     0.030 C 
BRANCH  20  21
ATOM     21  C   UNL A   1      32.960  23.889  26.438  1.00  0.00    -0.001 C 
ATOM     22  C   UNL A   1      31.870  23.112  27.157  1.00  0.00     0.004 C 
ENDBRANCH  20  21
ENDBRANCH  19  20
BRANCH  19  23
ATOM     23  C   UNL A   1      36.311  22.492  25.196  1.00  0.00     0.027 A 
ATOM     24  C   UNL A   1      36.950  21.278  25.017  1.00  0.00     0.017 A 
ATOM     25  S   UNL A   1      37.372  23.652  25.896  1.00  0.00    -0.147 S 
ATOM     26  C   UNL A   1      38.297  21.300  25.473  1.00  0.00     0.012 A 
ATOM     27  C   UNL A   1      38.649  22.527  25.987  1.00  0.00     0.065 A 
ENDBRANCH  19  23
ENDBRANCH  16  19
ENDBRANCH  14  15
ENDBRANCH  10  14
ENDBRANCH   7   9
ENDBRANCH   6   7
ENDBRANCH   5   6
ENDBRANCH   4   5
ENDBRANCH   3   4
ENDBRANCH   2   3
ENDBRANCH   1   2
BRANCH   1  28
ATOM     28  O   UNL A   1      32.250  30.041  27.277  1.00  0.00    -0.377 OA
BRANCH  28  29
ATOM     29  C   UNL A   1      33.534  30.553  27.611  1.00  0.00     0.188 C 
BRANCH  29  30
ATOM     30  C   UNL A   1      33.720  32.079  27.448  1.00  0.00     0.188 C 
BRANCH  30  31
ATOM     31  O   UNL A   1      34.975  32.754  27.525  1.00  0.00    -0.376 OA
BRANCH  31  32
ATOM     32  C   UNL A   1      35.177  33.929  28.294  1.00  0.00     0.202 C 
BRANCH  32  33
ATOM     33  C   UNL A   1      34.018  34.896  28.531  1.00  0.00     0.261 C 
BRANCH  33  34
ATOM     34  O   UNL A   1      33.142  34.475  29.551  1.00  0.00    -0.460 OA
BRANCH  34  35
ATOM     35  C   UNL A   1      33.012  35.407  30.513  1.00  0.00     0.338 C 
ATOM     36  O   UNL A   1      32.524  36.522  30.430  1.00  0.00    -0.246 OA
BRANCH  35  37
ATOM     37  C   UNL A   1      33.667  34.913  31.715  1.00  0.00     0.060 A 
ATOM     38  C   UNL A   1      34.242  35.903  32.518  1.00  0.00     0.016 A 
ATOM     39  C   UNL A   1      34.157  33.612  31.616  1.00  0.00     0.016 A 
ATOM     40  C   UNL A   1      35.510  35.673  32.984  1.00  0.00     0.010 A 
ATOM     41  C   UNL A   1      35.453  33.420  32.001  1.00  0.00     0.010 A 
ATOM     42  C   UNL A   1      36.131  34.474  32.622  1.00  0.00    -0.014 A 
BRANCH  42  43
ATOM     43  C   UNL A   1      37.539  34.292  32.949  1.00  0.00     0.031 A 
ATOM     44  C   UNL A   1      37.709  34.105  34.443  1.00  0.00     0.074 A 
ATOM     45  C   UNL A   1      38.400  34.356  31.890  1.00  0.00     0.049 A 
ATOM     46  N   UNL A   1      38.702  34.449  35.199  1.00  0.00    -0.248 NA
ATOM     47  C   UNL A   1      36.557  33.608  35.250  1.00  0.00     0.031 C 
ATOM     48  C   UNL A   1      37.990  34.577  30.483  1.00  0.00     0.029 A 
ATOM     49  N   UNL A   1      39.768  34.253  31.761  1.00  0.00    -0.354 N 
ATOM     50  C   UNL A   1      38.390  33.978  36.487  1.00  0.00     0.074 A 
ATOM     51  C   UNL A   1      37.000  33.664  36.503  1.00  0.00     0.031 C 
ATOM     52  C   UNL A   1      39.068  34.663  29.676  1.00  0.00     0.029 A 
ATOM     53  C   UNL A   1      40.273  34.456  30.456  1.00  0.00     0.049 A 
ATOM     54  H   UNL A   1      40.354  34.053  32.527  1.00  0.00     0.167 HD
ATOM     55  C   UNL A   1      39.343  33.683  37.409  1.00  0.00     0.034 A 
ATOM     56  C   UNL A   1      41.575  34.482  30.030  1.00  0.00     0.034 A 
ATOM     57  C   UNL A   1      40.639  33.901  36.853  1.00  0.00     0.049 A 
ATOM     58  C   UNL A   1      42.390  34.068  31.184  1.00  0.00     0.074 A 
ATOM     59  C   UNL A   1      41.356  35.035  36.581  1.00  0.00     0.029 A 
ATOM     60  N   UNL A   1      41.169  32.841  36.154  1.00  0.00    -0.354 N 
ATOM     61  N   UNL A   1      42.441  32.857  31.658  1.00  0.00    -0.248 NA
ATOM     62  C   UNL A   1      43.104  35.092  31.958  1.00  0.00     0.031 C 
ATOM     63  C   UNL A   1      42.124  34.697  35.449  1.00  0.00     0.029 A 
ATOM     64  C   UNL A   1      41.942  33.344  35.136  1.00  0.00     0.049 A 
ATOM     65  H   UNL A   1      41.020  31.887  36.349  1.00  0.00     0.167 HD
ATOM     66  C   UNL A   1      42.866  33.065  32.949  1.00  0.00     0.074 A 
ATOM     67  C   UNL A   1      43.558  34.333  32.950  1.00  0.00     0.031 C 
ATOM     68  C   UNL A   1      42.181  32.505  33.981  1.00  0.00     0.034 A 
BRANCH  55  69
ATOM     69  C   UNL A   1      39.263  32.973  38.726  1.00  0.00     0.023 A 
ATOM     70  C   UNL A   1      37.967  32.522  39.085  1.00  0.00     0.012 A 
ATOM     71  C   UNL A   1      40.263  32.945  39.713  1.00  0.00     0.148 A 
ATOM     72  C   UNL A   1      37.648  32.151  40.388  1.00  0.00     0.002 A 
ATOM     73  C   UNL A   1      39.951  32.517  41.003  1.00  0.00     0.091 A 
ATOM     74  F   UNL A   1      41.483  33.422  39.442  1.00  0.00    -0.205 F 
ATOM     75  C   UNL A   1      38.642  32.155  41.351  1.00  0.00     0.022 A 
BRANCH  73  76
ATOM     76  S   UNL A   1      41.197  32.393  42.293  1.00  0.00     0.127 S 
ATOM     77  O   UNL A   1      40.429  32.703  43.494  1.00  0.00    -0.237 OA
ATOM     78  O   UNL A   1      41.615  30.992  42.185  1.00  0.00    -0.237 OA
ATOM     79  O   UNL A   1      42.235  33.342  41.911  1.00  0.00    -0.744 OA
ENDBRANCH  73  76
ENDBRANCH  55  69
BRANCH  56  80
ATOM     80  C   UNL A   1      42.289  34.910  28.768  1.00  0.00     0.023 A 
ATOM     81  C   UNL A   1      42.090  36.143  28.131  1.00  0.00     0.012 A 
ATOM     82  C   UNL A   1      43.290  34.073  28.191  1.00  0.00     0.148 A 
ATOM     83  C   UNL A   1      42.908  36.564  27.064  1.00  0.00     0.002 A 
ATOM     84  C   UNL A   1      44.166  34.528  27.211  1.00  0.00     0.091 A 
ATOM     85  F   UNL A   1      43.391  32.798  28.573  1.00  0.00    -0.205 F 
ATOM     86  C   UNL A   1      43.972  35.778  26.632  1.00  0.00     0.022 A 
BRANCH  84  87
ATOM     87  S   UNL A   1      45.642  33.599  26.750  1.00  0.00     0.127 S 
ATOM     88  O   UNL A   1      45.853  34.014  25.365  1.00  0.00    -0.237 OA
ATOM     89  O   UNL A   1      46.621  34.119  27.705  1.00  0.00    -0.237 OA
ATOM     90  O   UNL A   1      45.313  32.189  26.926  1.00  0.00    -0.744 OA
ENDBRANCH  84  87
ENDBRANCH  56  80
BRANCH  68  91
ATOM     91  C   UNL A   1      41.471  31.203  33.623  1.00  0.00     0.023 A 
ATOM     92  C   UNL A   1      42.284  30.084  33.349  1.00  0.00     0.012 A 
ATOM     93  C   UNL A   1      40.079  31.056  33.427  1.00  0.00     0.148 A 
ATOM     94  C   UNL A   1      41.747  28.881  32.879  1.00  0.00     0.002 A 
ATOM     95  C   UNL A   1      39.541  29.854  32.951  1.00  0.00     0.091 A 
ATOM     96  F   UNL A   1      39.286  32.093  33.691  1.00  0.00    -0.205 F 
ATOM     97  C   UNL A   1      40.378  28.766  32.678  1.00  0.00     0.022 A 
BRANCH  95  98
ATOM     98  S   UNL A   1      37.786  29.598  32.624  1.00  0.00     0.127 S 
ATOM     99  O   UNL A   1      37.521  28.330  33.304  1.00  0.00    -0.237 OA
ATOM    100  O   UNL A   1      37.177  30.760  33.269  1.00  0.00    -0.237 OA
ATOM    101  O   UNL A   1      37.643  29.552  31.176  1.00  0.00    -0.744 OA
ENDBRANCH  95  98
ENDBRANCH  68  91
ENDBRANCH  42  43
ENDBRANCH  35  37
ENDBRANCH  34  35
ENDBRANCH  33  34
ENDBRANCH  32  33
ENDBRANCH  31  32
ENDBRANCH  30  31
ENDBRANCH  29  30
ENDBRANCH  28  29
ENDBRANCH   1  28
TORSDOF 29
ENDMDL
MODEL 3
REMARK VINA RESULT:      -8.7      4.784      9.447
REMARK SMILES CCC[C@H](NC(=O)Cn1cccc1C(=O)OCCOCCOCCOCCOC(=O)c1ccc(-c2c3nc(c(-c4cccc(S(=O)(=O)[O-])c4F)c4ccc([nH]4)c(-c4cccc(S(=O)(=O)[O-])c4F)c4nc(c(-c5cccc(S(=O)(=O)[O-])c5F)c5ccc2[nH]5)C=C4)C=C3)cc1)c1cccs1
REMARK SMILES IDX 21 1 20 2 19 3 18 4 17 5 16 6 14 7 15 8 13 9 9 10 10 11
REMARK SMILES IDX 11 12 12 13 8 14 6 15 5 16 7 18 4 19 3 20 2 21 1 22 94 23
REMARK SMILES IDX 95 24 98 25 96 26 97 27 22 28 23 29 24 30 25 31 26 32 27 33
REMARK SMILES IDX 28 34 29 35 30 36 31 37 32 38 93 39 33 40 92 41 34 42 35 43
REMARK SMILES IDX 36 44 86 45 37 46 91 47 85 48 87 49 38 50 90 51 84 52 83 53
REMARK SMILES IDX 39 55 71 56 51 57 70 58 52 59 55 60 69 61 88 62 53 63 54 64
REMARK SMILES IDX 68 66 89 67 56 68 40 69 41 70 49 71 42 72 44 73 50 74 43 75
REMARK SMILES IDX 45 76 46 77 47 78 48 79 72 80 73 81 81 82 74 83 76 84 82 85
REMARK SMILES IDX 75 86 77 87 78 88 79 89 80 90 57 91 58 92 66 93 59 94 61 95
REMARK SMILES IDX 67 96 60 97 62 98 63 99 64 100 65 101
REMARK H PARENT 5 17 87 54 55 65
REMARK Flexibility Score: inf
ROOT
ATOM      1  C   UNL A   1      32.307  28.066  26.395  1.00  0.00     0.188 C 
ENDROOT
BRANCH   1   2
ATOM      2  C   UNL A   1      33.619  27.396  25.967  1.00  0.00     0.188 C 
BRANCH   2   3
ATOM      3  O   UNL A   1      33.614  27.092  24.577  1.00  0.00    -0.376 OA
BRANCH   3   4
ATOM      4  C   UNL A   1      33.909  28.157  23.698  1.00  0.00     0.202 C 
BRANCH   4   5
ATOM      5  C   UNL A   1      33.731  27.820  22.219  1.00  0.00     0.261 C 
BRANCH   5   6
ATOM      6  O   UNL A   1      33.959  26.450  21.853  1.00  0.00    -0.459 OA
BRANCH   6   7
ATOM      7  C   UNL A   1      32.955  25.783  21.226  1.00  0.00     0.355 C 
ATOM      8  O   UNL A   1      32.917  25.583  20.022  1.00  0.00    -0.244 OA
BRANCH   7   9
ATOM      9  C   UNL A   1      32.053  25.189  22.204  1.00  0.00     0.128 A 
ATOM     10  N   UNL A   1      32.059  23.915  22.760  1.00  0.00    -0.333 N 
ATOM     11  C   UNL A   1      30.945  23.758  23.556  1.00  0.00     0.087 A 
ATOM     12  C   UNL A   1      30.238  24.933  23.561  1.00  0.00     0.020 A 
ATOM     13  C   UNL A   1      30.938  25.833  22.732  1.00  0.00     0.035 A 
BRANCH  10  14
ATOM     14  C   UNL A   1      32.984  22.824  22.493  1.00  0.00     0.222 C 
BRANCH  14  15
ATOM     15  C   UNL A   1      33.080  21.799  23.601  1.00  0.00     0.240 C 
ATOM     16  N   UNL A   1      34.087  21.798  24.516  1.00  0.00    -0.347 N 
ATOM     17  H   UNL A   1      34.318  20.902  24.856  1.00  0.00     0.164 HD
ATOM     18  O   UNL A   1      32.271  20.870  23.681  1.00  0.00    -0.273 OA
BRANCH  16  19
ATOM     19  C   UNL A   1      34.893  22.878  25.091  1.00  0.00     0.122 C 
BRANCH  19  20
ATOM     20  C   UNL A   1      34.345  23.219  26.507  1.00  0.00     0.030 C 
BRANCH  20  21
ATOM     21  C   UNL A   1      32.924  23.793  26.500  1.00  0.00    -0.001 C 
ATOM     22  C   UNL A   1      31.967  22.904  27.276  1.00  0.00     0.004 C 
ENDBRANCH  20  21
ENDBRANCH  19  20
BRANCH  19  23
ATOM     23  C   UNL A   1      36.343  22.507  25.263  1.00  0.00     0.027 A 
ATOM     24  C   UNL A   1      36.955  21.271  25.164  1.00  0.00     0.017 A 
ATOM     25  S   UNL A   1      37.440  23.696  25.849  1.00  0.00    -0.147 S 
ATOM     26  C   UNL A   1      38.313  21.301  25.588  1.00  0.00     0.012 A 
ATOM     27  C   UNL A   1      38.699  22.556  25.998  1.00  0.00     0.065 A 
ENDBRANCH  19  23
ENDBRANCH  16  19
ENDBRANCH  14  15
ENDBRANCH  10  14
ENDBRANCH   7   9
ENDBRANCH   6   7
ENDBRANCH   5   6
ENDBRANCH   4   5
ENDBRANCH   3   4
ENDBRANCH   2   3
ENDBRANCH   1   2
BRANCH   1  28
ATOM     28  O   UNL A   1      32.417  29.468  26.597  1.00  0.00    -0.377 OA
BRANCH  28  29
ATOM     29  C   UNL A   1      33.603  29.892  27.257  1.00  0.00     0.188 C 
BRANCH  29  30
ATOM     30  C   UNL A   1      33.881  31.413  27.241  1.00  0.00     0.188 C 
BRANCH  30  31
ATOM     31  O   UNL A   1      35.164  32.003  27.453  1.00  0.00    -0.376 OA
BRANCH  31  32
ATOM     32  C   UNL A   1      35.435  32.908  28.510  1.00  0.00     0.202 C 
BRANCH  32  33
ATOM     33  C   UNL A   1      34.328  33.815  29.045  1.00  0.00     0.261 C 
BRANCH  33  34
ATOM     34  O   UNL A   1      33.781  33.367  30.263  1.00  0.00    -0.460 OA
BRANCH  34  35
ATOM     35  C   UNL A   1      33.504  34.391  31.092  1.00  0.00     0.338 C 
ATOM     36  O   UNL A   1      32.813  35.373  30.881  1.00  0.00    -0.246 OA
BRANCH  35  37
ATOM     37  C   UNL A   1      34.275  34.208  32.313  1.00  0.00     0.060 A 
ATOM     38  C   UNL A   1      34.768  35.388  32.877  1.00  0.00     0.016 A 
ATOM     39  C   UNL A   1      34.913  32.973  32.417  1.00  0.00     0.016 A 
ATOM     40  C   UNL A   1      36.076  35.391  33.284  1.00  0.00     0.010 A 
ATOM     41  C   UNL A   1      36.240  32.999  32.734  1.00  0.00     0.010 A 
ATOM     42  C   UNL A   1      36.818  34.220  33.102  1.00  0.00    -0.014 A 
BRANCH  42  43
ATOM     43  C   UNL A   1      38.252  34.257  33.353  1.00  0.00     0.031 A 
ATOM     44  C   UNL A   1      38.519  34.419  34.836  1.00  0.00     0.074 A 
ATOM     45  C   UNL A   1      39.044  34.174  32.243  1.00  0.00     0.049 A 
ATOM     46  N   UNL A   1      39.505  35.019  35.425  1.00  0.00    -0.248 NA
ATOM     47  C   UNL A   1      37.476  33.996  35.814  1.00  0.00     0.031 C 
ATOM     48  C   UNL A   1      38.539  34.040  30.856  1.00  0.00     0.029 A 
ATOM     49  N   UNL A   1      40.406  34.185  32.036  1.00  0.00    -0.354 N 
ATOM     50  C   UNL A   1      39.316  34.812  36.802  1.00  0.00     0.074 A 
ATOM     51  C   UNL A   1      37.974  34.369  36.990  1.00  0.00     0.031 C 
ATOM     52  C   UNL A   1      39.557  34.056  29.970  1.00  0.00     0.029 A 
ATOM     53  C   UNL A   1      40.817  34.147  30.682  1.00  0.00     0.049 A 
ATOM     54  H   UNL A   1      41.050  34.218  32.780  1.00  0.00     0.167 HD
ATOM     55  C   UNL A   1      40.343  34.823  37.692  1.00  0.00     0.034 A 
ATOM     56  C   UNL A   1      42.083  34.212  30.164  1.00  0.00     0.034 A 
ATOM     57  C   UNL A   1      41.574  35.045  37.006  1.00  0.00     0.049 A 
ATOM     58  C   UNL A   1      42.999  34.145  31.315  1.00  0.00     0.074 A 
ATOM     59  C   UNL A   1      42.141  36.158  36.447  1.00  0.00     0.029 A 
ATOM     60  N   UNL A   1      42.187  33.917  36.510  1.00  0.00    -0.354 N 
ATOM     61  N   UNL A   1      43.214  33.078  32.029  1.00  0.00    -0.248 NA
ATOM     62  C   UNL A   1      43.630  35.380  31.798  1.00  0.00     0.031 C 
ATOM     63  C   UNL A   1      42.883  35.660  35.357  1.00  0.00     0.029 A 
ATOM     64  C   UNL A   1      42.842  34.261  35.352  1.00  0.00     0.049 A 
ATOM     65  H   UNL A   1      42.158  33.018  36.913  1.00  0.00     0.167 HD
ATOM     66  C   UNL A   1      43.678  33.606  33.211  1.00  0.00     0.074 A 
ATOM     67  C   UNL A   1      44.218  34.906  32.891  1.00  0.00     0.031 C 
ATOM     68  C   UNL A   1      43.116  33.218  34.387  1.00  0.00     0.034 A 
BRANCH  55  69
ATOM     69  C   UNL A   1      40.413  34.415  39.131  1.00  0.00     0.023 A 
ATOM     70  C   UNL A   1      41.094  33.194  39.375  1.00  0.00     0.012 A 
ATOM     71  C   UNL A   1      39.673  34.973  40.187  1.00  0.00     0.148 A 
ATOM     72  C   UNL A   1      40.970  32.505  40.578  1.00  0.00     0.002 A 
ATOM     73  C   UNL A   1      39.600  34.308  41.411  1.00  0.00     0.091 A 
ATOM     74  F   UNL A   1      38.961  36.088  39.988  1.00  0.00    -0.205 F 
ATOM     75  C   UNL A   1      40.215  33.061  41.596  1.00  0.00     0.022 A 
BRANCH  73  76
ATOM     76  S   UNL A   1      38.728  35.000  42.822  1.00  0.00     0.127 S 
ATOM     77  O   UNL A   1      39.063  34.056  43.883  1.00  0.00    -0.237 OA
ATOM     78  O   UNL A   1      39.359  36.316  42.960  1.00  0.00    -0.237 OA
ATOM     79  O   UNL A   1      37.332  35.063  42.411  1.00  0.00    -0.744 OA
ENDBRANCH  73  76
ENDBRANCH  55  69
BRANCH  56  80
ATOM     80  C   UNL A   1      42.676  34.423  28.790  1.00  0.00     0.023 A 
ATOM     81  C   UNL A   1      42.425  35.546  27.989  1.00  0.00     0.012 A 
ATOM     82  C   UNL A   1      43.614  33.487  28.261  1.00  0.00     0.148 A 
ATOM     83  C   UNL A   1      43.140  35.779  26.797  1.00  0.00     0.002 A 
ATOM     84  C   UNL A   1      44.395  33.765  27.144  1.00  0.00     0.091 A 
ATOM     85  F   UNL A   1      43.743  32.285  28.827  1.00  0.00    -0.205 F 
ATOM     86  C   UNL A   1      44.155  34.913  26.397  1.00  0.00     0.022 A 
BRANCH  84  87
ATOM     87  S   UNL A   1      45.816  32.746  26.701  1.00  0.00     0.127 S 
ATOM     88  O   UNL A   1      45.232  31.785  25.768  1.00  0.00    -0.237 OA
ATOM     89  O   UNL A   1      46.703  33.736  26.089  1.00  0.00    -0.237 OA
ATOM     90  O   UNL A   1      46.315  32.171  27.943  1.00  0.00    -0.744 OA
ENDBRANCH  84  87
ENDBRANCH  56  80
BRANCH  68  91
ATOM     91  C   UNL A   1      42.543  31.804  34.367  1.00  0.00     0.023 A 
ATOM     92  C   UNL A   1      41.354  31.605  33.634  1.00  0.00     0.012 A 
ATOM     93  C   UNL A   1      43.035  30.710  35.114  1.00  0.00     0.148 A 
ATOM     94  C   UNL A   1      40.671  30.385  33.659  1.00  0.00     0.002 A 
ATOM     95  C   UNL A   1      42.348  29.491  35.145  1.00  0.00     0.091 A 
ATOM     96  F   UNL A   1      44.163  30.868  35.805  1.00  0.00    -0.205 F 
ATOM     97  C   UNL A   1      41.164  29.330  34.414  1.00  0.00     0.022 A 
BRANCH  95  98
ATOM     98  S   UNL A   1      42.876  28.063  36.111  1.00  0.00     0.127 S 
ATOM     99  O   UNL A   1      41.602  27.432  36.461  1.00  0.00    -0.237 OA
ATOM    100  O   UNL A   1      43.670  27.309  35.142  1.00  0.00    -0.237 OA
ATOM    101  O   UNL A   1      43.624  28.590  37.243  1.00  0.00    -0.744 OA
ENDBRANCH  95  98
ENDBRANCH  68  91
ENDBRANCH  42  43
ENDBRANCH  35  37
ENDBRANCH  34  35
ENDBRANCH  33  34
ENDBRANCH  32  33
ENDBRANCH  31  32
ENDBRANCH  30  31
ENDBRANCH  29  30
ENDBRANCH  28  29
ENDBRANCH   1  28
TORSDOF 29
ENDMDL
