MODEL 1
REMARK VINA RESULT:      -8.8      0.000      0.000
REMARK SMILES C=C(C(=O)OCCOCCOCCOCCOC(=O)c1ccc(-c2c3nc(c(-c4cccc(S(=O)(=O)[O-])c4F)c4ccc([nH]4)c(-c4cccc(S(=O)(=O)[O-])c4F)c4nc(c(-c5cccc(S(=O)(=O)[O-])c5F)c5ccc2[nH]5)C=C4)C=C3)cc1)[C@@H]1CC[C@]2(C)C[C@@H](O)CC(=C)[C@H]2C1
REMARK SMILES IDX 12 1 11 2 10 3 9 4 8 5 7 6 6 7 5 8 3 9 4 10 2 11 1 12 83 13
REMARK SMILES IDX 84 14 95 15 85 16 94 17 86 18 92 19 87 20 88 21 91 22 93 23
REMARK SMILES IDX 89 24 90 25 13 27 14 28 15 29 16 30 17 31 18 32 19 33 20 34
REMARK SMILES IDX 21 35 82 36 22 37 81 38 23 39 24 40 25 41 75 42 26 43 80 44
REMARK SMILES IDX 74 45 76 46 27 47 79 48 73 49 72 50 28 52 60 53 40 54 59 55
REMARK SMILES IDX 41 56 44 57 58 58 77 59 42 60 43 61 57 63 78 64 45 65 29 66
REMARK SMILES IDX 30 67 38 68 31 69 33 70 39 71 32 72 34 73 35 74 36 75 37 76
REMARK SMILES IDX 61 77 62 78 70 79 63 80 65 81 71 82 64 83 66 84 67 85 68 86
REMARK SMILES IDX 69 87 46 88 47 89 55 90 48 91 50 92 56 93 49 94 51 95 52 96
REMARK SMILES IDX 53 97 54 98
REMARK H PARENT 90 26 76 51 44 62
REMARK Flexibility Score: inf
ROOT
ATOM      1  C   UNL A   1      41.429  21.071  27.255  1.00  0.00     0.188 C 
ENDROOT
BRANCH   1   2
ATOM      2  O   UNL A   1      41.237  21.875  26.099  1.00  0.00    -0.377 OA
BRANCH   2   3
ATOM      3  C   UNL A   1      40.938  23.235  26.380  1.00  0.00     0.188 C 
BRANCH   3   4
ATOM      4  C   UNL A   1      39.743  23.520  27.305  1.00  0.00     0.188 C 
BRANCH   4   5
ATOM      5  O   UNL A   1      38.703  24.280  26.689  1.00  0.00    -0.376 OA
BRANCH   5   6
ATOM      6  C   UNL A   1      38.116  23.709  25.522  1.00  0.00     0.202 C 
BRANCH   6   7
ATOM      7  C   UNL A   1      37.111  22.589  25.809  1.00  0.00     0.261 C 
BRANCH   7   8
ATOM      8  O   UNL A   1      35.890  23.066  26.400  1.00  0.00    -0.460 OA
BRANCH   8   9
ATOM      9  C   UNL A   1      34.711  22.785  25.787  1.00  0.00     0.333 C 
ATOM     10  O   UNL A   1      34.595  22.321  24.666  1.00  0.00    -0.247 OA
BRANCH   9  11
ATOM     11  C   UNL A   1      33.593  22.981  26.773  1.00  0.00     0.033 C 
ATOM     12  C   UNL A   1      33.609  22.134  27.826  1.00  0.00     0.020 C 
BRANCH  11  13
ATOM     13  C   UNL A   1      32.583  24.139  26.666  1.00  0.00     0.026 C 
ATOM     14  C   UNL A   1      31.185  23.727  26.117  1.00  0.00     0.009 C 
ATOM     15  C   UNL A   1      33.009  25.500  26.035  1.00  0.00     0.017 C 
ATOM     16  C   UNL A   1      30.973  23.913  24.611  1.00  0.00     0.008 C 
ATOM     17  C   UNL A   1      32.786  25.635  24.512  1.00  0.00     0.021 C 
ATOM     18  C   UNL A   1      31.328  25.322  24.084  1.00  0.00    -0.024 C 
ATOM     19  C   UNL A   1      33.256  26.922  23.849  1.00  0.00    -0.071 C 
ATOM     20  C   UNL A   1      30.315  26.341  24.655  1.00  0.00     0.012 C 
ATOM     21  C   UNL A   1      31.222  25.295  22.522  1.00  0.00     0.039 C 
ATOM     22  C   UNL A   1      33.278  26.824  22.335  1.00  0.00     0.062 C 
ATOM     23  C   UNL A   1      33.632  28.041  24.488  1.00  0.00     0.008 C 
ATOM     24  C   UNL A   1      31.897  26.458  21.777  1.00  0.00     0.119 C 
BRANCH  24  25
ATOM     25  O   UNL A   1      31.038  27.600  21.761  1.00  0.00    -0.393 OA
ATOM     26  H   UNL A   1      30.792  27.808  20.846  1.00  0.00     0.210 HD
ENDBRANCH  24  25
ENDBRANCH  11  13
ENDBRANCH   9  11
ENDBRANCH   8   9
ENDBRANCH   7   8
ENDBRANCH   6   7
ENDBRANCH   5   6
ENDBRANCH   4   5
ENDBRANCH   3   4
ENDBRANCH   2   3
ENDBRANCH   1   2
BRANCH   1  27
ATOM     27  C   UNL A   1      40.905  19.637  27.037  1.00  0.00     0.188 C 
BRANCH  27  28
ATOM     28  O   UNL A   1      41.483  19.002  25.901  1.00  0.00    -0.376 OA
BRANCH  28  29
ATOM     29  C   UNL A   1      42.623  18.175  26.078  1.00  0.00     0.202 C 
BRANCH  29  30
ATOM     30  C   UNL A   1      44.028  18.590  25.604  1.00  0.00     0.261 C 
BRANCH  30  31
ATOM     31  O   UNL A   1      44.416  19.957  25.769  1.00  0.00    -0.460 OA
BRANCH  31  32
ATOM     32  C   UNL A   1      44.599  20.734  24.683  1.00  0.00     0.338 C 
ATOM     33  O   UNL A   1      44.532  20.398  23.515  1.00  0.00    -0.246 OA
BRANCH  32  34
ATOM     34  C   UNL A   1      44.645  22.125  25.195  1.00  0.00     0.060 A 
ATOM     35  C   UNL A   1      44.900  22.336  26.559  1.00  0.00     0.016 A 
ATOM     36  C   UNL A   1      44.607  23.206  24.307  1.00  0.00     0.016 A 
ATOM     37  C   UNL A   1      45.154  23.627  27.028  1.00  0.00     0.010 A 
ATOM     38  C   UNL A   1      44.816  24.499  24.786  1.00  0.00     0.010 A 
ATOM     39  C   UNL A   1      45.086  24.715  26.147  1.00  0.00    -0.014 A 
BRANCH  39  40
ATOM     40  C   UNL A   1      45.101  26.098  26.672  1.00  0.00     0.031 A 
ATOM     41  C   UNL A   1      46.435  26.774  26.804  1.00  0.00     0.074 A 
ATOM     42  C   UNL A   1      43.974  26.710  27.080  1.00  0.00     0.049 A 
ATOM     43  N   UNL A   1      46.724  27.942  27.307  1.00  0.00    -0.248 NA
ATOM     44  C   UNL A   1      47.602  26.027  26.300  1.00  0.00     0.031 C 
ATOM     45  C   UNL A   1      42.628  26.146  27.006  1.00  0.00     0.029 A 
ATOM     46  N   UNL A   1      43.795  27.933  27.681  1.00  0.00    -0.354 N 
ATOM     47  C   UNL A   1      48.105  28.059  27.211  1.00  0.00     0.074 A 
ATOM     48  C   UNL A   1      48.597  26.849  26.592  1.00  0.00     0.031 C 
ATOM     49  C   UNL A   1      41.765  27.001  27.587  1.00  0.00     0.029 A 
ATOM     50  C   UNL A   1      42.503  28.156  28.097  1.00  0.00     0.049 A 
ATOM     51  H   UNL A   1      44.521  28.586  27.800  1.00  0.00     0.167 HD
ATOM     52  C   UNL A   1      48.891  29.085  27.603  1.00  0.00     0.034 A 
ATOM     53  C   UNL A   1      41.990  29.160  28.839  1.00  0.00     0.034 A 
ATOM     54  C   UNL A   1      48.397  30.285  28.215  1.00  0.00     0.049 A 
ATOM     55  C   UNL A   1      42.902  30.274  29.294  1.00  0.00     0.074 A 
ATOM     56  C   UNL A   1      49.107  31.413  28.585  1.00  0.00     0.029 A 
ATOM     57  N   UNL A   1      47.078  30.500  28.577  1.00  0.00    -0.354 N 
ATOM     58  N   UNL A   1      44.179  30.451  29.051  1.00  0.00    -0.248 NA
ATOM     59  C   UNL A   1      42.298  31.339  30.111  1.00  0.00     0.031 C 
ATOM     60  C   UNL A   1      48.220  32.297  29.206  1.00  0.00     0.029 A 
ATOM     61  C   UNL A   1      46.955  31.731  29.194  1.00  0.00     0.049 A 
ATOM     62  H   UNL A   1      46.338  29.871  28.418  1.00  0.00     0.167 HD
ATOM     63  C   UNL A   1      44.523  31.653  29.659  1.00  0.00     0.074 A 
ATOM     64  C   UNL A   1      43.313  32.180  30.256  1.00  0.00     0.031 C 
ATOM     65  C   UNL A   1      45.732  32.261  29.738  1.00  0.00     0.034 A 
BRANCH  52  66
ATOM     66  C   UNL A   1      50.370  28.963  27.374  1.00  0.00     0.023 A 
ATOM     67  C   UNL A   1      50.943  29.503  26.205  1.00  0.00     0.012 A 
ATOM     68  C   UNL A   1      51.199  28.385  28.355  1.00  0.00     0.148 A 
ATOM     69  C   UNL A   1      52.322  29.460  26.011  1.00  0.00     0.002 A 
ATOM     70  C   UNL A   1      52.575  28.383  28.172  1.00  0.00     0.091 A 
ATOM     71  F   UNL A   1      50.625  27.853  29.443  1.00  0.00    -0.205 F 
ATOM     72  C   UNL A   1      53.138  28.913  26.999  1.00  0.00     0.022 A 
BRANCH  70  73
ATOM     73  S   UNL A   1      53.717  27.771  29.415  1.00  0.00     0.127 S 
ATOM     74  O   UNL A   1      55.009  28.102  28.815  1.00  0.00    -0.237 OA
ATOM     75  O   UNL A   1      53.360  28.579  30.580  1.00  0.00    -0.237 OA
ATOM     76  O   UNL A   1      53.445  26.347  29.549  1.00  0.00    -0.744 OA
ENDBRANCH  70  73
ENDBRANCH  52  66
BRANCH  53  77
ATOM     77  C   UNL A   1      40.545  29.166  29.214  1.00  0.00     0.023 A 
ATOM     78  C   UNL A   1      39.571  29.440  28.234  1.00  0.00     0.012 A 
ATOM     79  C   UNL A   1      40.133  28.931  30.540  1.00  0.00     0.148 A 
ATOM     80  C   UNL A   1      38.219  29.522  28.575  1.00  0.00     0.002 A 
ATOM     81  C   UNL A   1      38.781  28.955  30.862  1.00  0.00     0.091 A 
ATOM     82  F   UNL A   1      41.073  28.698  31.467  1.00  0.00    -0.205 F 
ATOM     83  C   UNL A   1      37.823  29.269  29.886  1.00  0.00     0.022 A 
BRANCH  81  84
ATOM     84  S   UNL A   1      38.178  28.514  32.496  1.00  0.00     0.127 S 
ATOM     85  O   UNL A   1      39.123  29.212  33.364  1.00  0.00    -0.237 OA
ATOM     86  O   UNL A   1      36.825  29.072  32.483  1.00  0.00    -0.237 OA
ATOM     87  O   UNL A   1      38.220  27.058  32.546  1.00  0.00    -0.744 OA
ENDBRANCH  81  84
ENDBRANCH  53  77
BRANCH  65  88
ATOM     88  C   UNL A   1      45.817  33.572  30.476  1.00  0.00     0.023 A 
ATOM     89  C   UNL A   1      46.208  33.585  31.829  1.00  0.00     0.012 A 
ATOM     90  C   UNL A   1      45.601  34.792  29.804  1.00  0.00     0.148 A 
ATOM     91  C   UNL A   1      46.358  34.792  32.511  1.00  0.00     0.002 A 
ATOM     92  C   UNL A   1      45.802  35.991  30.477  1.00  0.00     0.091 A 
ATOM     93  F   UNL A   1      45.218  34.755  28.520  1.00  0.00    -0.205 F 
ATOM     94  C   UNL A   1      46.168  35.993  31.832  1.00  0.00     0.022 A 
BRANCH  92  95
ATOM     95  S   UNL A   1      45.677  37.588  29.661  1.00  0.00     0.127 S 
ATOM     96  O   UNL A   1      46.120  38.496  30.717  1.00  0.00    -0.237 OA
ATOM     97  O   UNL A   1      46.615  37.441  28.549  1.00  0.00    -0.237 OA
ATOM     98  O   UNL A   1      44.282  37.729  29.263  1.00  0.00    -0.744 OA
ENDBRANCH  92  95
ENDBRANCH  65  88
ENDBRANCH  39  40
ENDBRANCH  32  34
ENDBRANCH  31  32
ENDBRANCH  30  31
ENDBRANCH  29  30
ENDBRANCH  28  29
ENDBRANCH  27  28
ENDBRANCH   1  27
TORSDOF 25
ENDMDL
MODEL 2
REMARK VINA RESULT:      -8.6      4.077      5.145
REMARK SMILES C=C(C(=O)OCCOCCOCCOCCOC(=O)c1ccc(-c2c3nc(c(-c4cccc(S(=O)(=O)[O-])c4F)c4ccc([nH]4)c(-c4cccc(S(=O)(=O)[O-])c4F)c4nc(c(-c5cccc(S(=O)(=O)[O-])c5F)c5ccc2[nH]5)C=C4)C=C3)cc1)[C@@H]1CC[C@]2(C)C[C@@H](O)CC(=C)[C@H]2C1
REMARK SMILES IDX 12 1 11 2 10 3 9 4 8 5 7 6 6 7 5 8 3 9 4 10 2 11 1 12 83 13
REMARK SMILES IDX 84 14 95 15 85 16 94 17 86 18 92 19 87 20 88 21 91 22 93 23
REMARK SMILES IDX 89 24 90 25 13 27 14 28 15 29 16 30 17 31 18 32 19 33 20 34
REMARK SMILES IDX 21 35 82 36 22 37 81 38 23 39 24 40 25 41 75 42 26 43 80 44
REMARK SMILES IDX 74 45 76 46 27 47 79 48 73 49 72 50 28 52 60 53 40 54 59 55
REMARK SMILES IDX 41 56 44 57 58 58 77 59 42 60 43 61 57 63 78 64 45 65 29 66
REMARK SMILES IDX 30 67 38 68 31 69 33 70 39 71 32 72 34 73 35 74 36 75 37 76
REMARK SMILES IDX 61 77 62 78 70 79 63 80 65 81 71 82 64 83 66 84 67 85 68 86
REMARK SMILES IDX 69 87 46 88 47 89 55 90 48 91 50 92 56 93 49 94 51 95 52 96
REMARK SMILES IDX 53 97 54 98
REMARK H PARENT 90 26 76 51 44 62
REMARK Flexibility Score: inf
ROOT
ATOM      1  C   UNL A   1      42.909  19.619  25.801  1.00  0.00     0.188 C 
ENDROOT
BRANCH   1   2
ATOM      2  O   UNL A   1      41.589  19.251  25.421  1.00  0.00    -0.377 OA
BRANCH   2   3
ATOM      3  C   UNL A   1      40.567  19.932  26.136  1.00  0.00     0.188 C 
BRANCH   3   4
ATOM      4  C   UNL A   1      40.600  21.470  26.125  1.00  0.00     0.188 C 
BRANCH   4   5
ATOM      5  O   UNL A   1      39.542  22.076  26.868  1.00  0.00    -0.376 OA
BRANCH   5   6
ATOM      6  C   UNL A   1      38.573  22.794  26.109  1.00  0.00     0.202 C 
BRANCH   6   7
ATOM      7  C   UNL A   1      37.400  21.938  25.619  1.00  0.00     0.261 C 
BRANCH   7   8
ATOM      8  O   UNL A   1      36.119  22.539  25.877  1.00  0.00    -0.460 OA
BRANCH   8   9
ATOM      9  C   UNL A   1      35.000  21.918  25.424  1.00  0.00     0.333 C 
ATOM     10  O   UNL A   1      34.770  20.725  25.522  1.00  0.00    -0.247 OA
BRANCH   9  11
ATOM     11  C   UNL A   1      34.030  22.959  24.939  1.00  0.00     0.033 C 
ATOM     12  C   UNL A   1      33.363  22.633  23.810  1.00  0.00     0.020 C 
BRANCH  11  13
ATOM     13  C   UNL A   1      33.719  24.241  25.736  1.00  0.00     0.026 C 
ATOM     14  C   UNL A   1      32.337  24.233  26.455  1.00  0.00     0.009 C 
ATOM     15  C   UNL A   1      33.968  25.643  25.101  1.00  0.00     0.017 C 
ATOM     16  C   UNL A   1      31.181  24.888  25.693  1.00  0.00     0.008 C 
ATOM     17  C   UNL A   1      32.774  26.256  24.334  1.00  0.00     0.021 C 
ATOM     18  C   UNL A   1      31.477  26.316  25.181  1.00  0.00    -0.024 C 
ATOM     19  C   UNL A   1      33.003  27.591  23.639  1.00  0.00    -0.071 C 
ATOM     20  C   UNL A   1      31.609  27.266  26.393  1.00  0.00     0.012 C 
ATOM     21  C   UNL A   1      30.273  26.769  24.288  1.00  0.00     0.039 C 
ATOM     22  C   UNL A   1      31.888  27.943  22.671  1.00  0.00     0.062 C 
ATOM     23  C   UNL A   1      34.060  28.397  23.819  1.00  0.00     0.008 C 
ATOM     24  C   UNL A   1      30.525  27.979  23.374  1.00  0.00     0.119 C 
BRANCH  24  25
ATOM     25  O   UNL A   1      30.367  29.195  24.110  1.00  0.00    -0.393 OA
ATOM     26  H   UNL A   1      30.874  29.142  24.936  1.00  0.00     0.210 HD
ENDBRANCH  24  25
ENDBRANCH  11  13
ENDBRANCH   9  11
ENDBRANCH   8   9
ENDBRANCH   7   8
ENDBRANCH   6   7
ENDBRANCH   5   6
ENDBRANCH   4   5
ENDBRANCH   3   4
ENDBRANCH   2   3
ENDBRANCH   1   2
BRANCH   1  27
ATOM     27  C   UNL A   1      43.869  18.415  25.741  1.00  0.00     0.188 C 
BRANCH  27  28
ATOM     28  O   UNL A   1      45.009  18.653  24.922  1.00  0.00    -0.376 OA
BRANCH  28  29
ATOM     29  C   UNL A   1      45.092  19.866  24.189  1.00  0.00     0.202 C 
BRANCH  29  30
ATOM     30  C   UNL A   1      45.949  21.057  24.655  1.00  0.00     0.261 C 
BRANCH  30  31
ATOM     31  O   UNL A   1      45.666  22.345  24.100  1.00  0.00    -0.460 OA
BRANCH  31  32
ATOM     32  C   UNL A   1      44.439  22.882  24.253  1.00  0.00     0.338 C 
ATOM     33  O   UNL A   1      43.419  22.571  23.665  1.00  0.00    -0.246 OA
BRANCH  32  34
ATOM     34  C   UNL A   1      44.532  23.746  25.454  1.00  0.00     0.060 A 
ATOM     35  C   UNL A   1      44.313  23.175  26.717  1.00  0.00     0.016 A 
ATOM     36  C   UNL A   1      44.996  25.062  25.343  1.00  0.00     0.016 A 
ATOM     37  C   UNL A   1      44.594  23.910  27.871  1.00  0.00     0.010 A 
ATOM     38  C   UNL A   1      45.232  25.809  26.497  1.00  0.00     0.010 A 
ATOM     39  C   UNL A   1      45.030  25.238  27.764  1.00  0.00    -0.014 A 
BRANCH  39  40
ATOM     40  C   UNL A   1      45.086  26.099  28.965  1.00  0.00     0.031 A 
ATOM     41  C   UNL A   1      46.388  26.162  29.711  1.00  0.00     0.074 A 
ATOM     42  C   UNL A   1      44.001  26.755  29.416  1.00  0.00     0.049 A 
ATOM     43  N   UNL A   1      46.673  26.773  30.828  1.00  0.00    -0.248 NA
ATOM     44  C   UNL A   1      47.522  25.431  29.116  1.00  0.00     0.031 C 
ATOM     45  C   UNL A   1      42.687  26.760  28.776  1.00  0.00     0.029 A 
ATOM     46  N   UNL A   1      43.827  27.511  30.549  1.00  0.00    -0.354 N 
ATOM     47  C   UNL A   1      48.005  26.477  31.087  1.00  0.00     0.074 A 
ATOM     48  C   UNL A   1      48.478  25.640  30.007  1.00  0.00     0.031 C 
ATOM     49  C   UNL A   1      41.827  27.444  29.554  1.00  0.00     0.029 A 
ATOM     50  C   UNL A   1      42.523  27.899  30.756  1.00  0.00     0.049 A 
ATOM     51  H   UNL A   1      44.565  27.753  31.155  1.00  0.00     0.167 HD
ATOM     52  C   UNL A   1      48.766  26.869  32.131  1.00  0.00     0.034 A 
ATOM     53  C   UNL A   1      41.957  28.514  31.816  1.00  0.00     0.034 A 
ATOM     54  C   UNL A   1      48.293  27.702  33.200  1.00  0.00     0.049 A 
ATOM     55  C   UNL A   1      42.828  28.907  32.985  1.00  0.00     0.074 A 
ATOM     56  C   UNL A   1      49.006  28.212  34.269  1.00  0.00     0.029 A 
ATOM     57  N   UNL A   1      46.981  28.118  33.353  1.00  0.00    -0.354 N 
ATOM     58  N   UNL A   1      44.123  28.765  33.139  1.00  0.00    -0.248 NA
ATOM     59  C   UNL A   1      42.162  29.565  34.121  1.00  0.00     0.031 C 
ATOM     60  C   UNL A   1      48.115  28.908  35.090  1.00  0.00     0.029 A 
ATOM     61  C   UNL A   1      46.855  28.855  34.516  1.00  0.00     0.049 A 
ATOM     62  H   UNL A   1      46.248  27.919  32.728  1.00  0.00     0.167 HD
ATOM     63  C   UNL A   1      44.429  29.336  34.370  1.00  0.00     0.074 A 
ATOM     64  C   UNL A   1      43.189  29.855  34.909  1.00  0.00     0.031 C 
ATOM     65  C   UNL A   1      45.621  29.407  35.011  1.00  0.00     0.034 A 
BRANCH  52  66
ATOM     66  C   UNL A   1      50.196  26.413  32.168  1.00  0.00     0.023 A 
ATOM     67  C   UNL A   1      51.226  27.315  31.832  1.00  0.00     0.012 A 
ATOM     68  C   UNL A   1      50.521  25.118  32.613  1.00  0.00     0.148 A 
ATOM     69  C   UNL A   1      52.561  26.928  31.928  1.00  0.00     0.002 A 
ATOM     70  C   UNL A   1      51.854  24.755  32.746  1.00  0.00     0.091 A 
ATOM     71  F   UNL A   1      49.521  24.271  32.898  1.00  0.00    -0.205 F 
ATOM     72  C   UNL A   1      52.875  25.655  32.398  1.00  0.00     0.022 A 
BRANCH  70  73
ATOM     73  S   UNL A   1      52.365  23.166  33.410  1.00  0.00     0.127 S 
ATOM     74  O   UNL A   1      51.760  23.197  34.742  1.00  0.00    -0.237 OA
ATOM     75  O   UNL A   1      51.738  22.231  32.477  1.00  0.00    -0.237 OA
ATOM     76  O   UNL A   1      53.820  23.168  33.392  1.00  0.00    -0.744 OA
ENDBRANCH  70  73
ENDBRANCH  52  66
BRANCH  53  77
ATOM     77  C   UNL A   1      40.492  28.794  31.838  1.00  0.00     0.023 A 
ATOM     78  C   UNL A   1      39.615  27.880  32.456  1.00  0.00     0.012 A 
ATOM     79  C   UNL A   1      39.958  29.946  31.228  1.00  0.00     0.148 A 
ATOM     80  C   UNL A   1      38.234  28.086  32.427  1.00  0.00     0.002 A 
ATOM     81  C   UNL A   1      38.587  30.175  31.254  1.00  0.00     0.091 A 
ATOM     82  F   UNL A   1      40.801  30.793  30.620  1.00  0.00    -0.205 F 
ATOM     83  C   UNL A   1      37.721  29.237  31.836  1.00  0.00     0.022 A 
BRANCH  81  84
ATOM     84  S   UNL A   1      37.858  31.694  30.631  1.00  0.00     0.127 S 
ATOM     85  O   UNL A   1      38.216  31.641  29.216  1.00  0.00    -0.237 OA
ATOM     86  O   UNL A   1      36.437  31.490  30.916  1.00  0.00    -0.237 OA
ATOM     87  O   UNL A   1      38.471  32.766  31.405  1.00  0.00    -0.744 OA
ENDBRANCH  81  84
ENDBRANCH  53  77
BRANCH  65  88
ATOM     88  C   UNL A   1      45.660  30.084  36.356  1.00  0.00     0.023 A 
ATOM     89  C   UNL A   1      45.600  31.489  36.430  1.00  0.00     0.012 A 
ATOM     90  C   UNL A   1      45.658  29.327  37.545  1.00  0.00     0.148 A 
ATOM     91  C   UNL A   1      45.566  32.132  37.667  1.00  0.00     0.002 A 
ATOM     92  C   UNL A   1      45.573  29.973  38.772  1.00  0.00     0.091 A 
ATOM     93  F   UNL A   1      45.726  27.991  37.451  1.00  0.00    -0.205 F 
ATOM     94  C   UNL A   1      45.539  31.375  38.835  1.00  0.00     0.022 A 
BRANCH  92  95
ATOM     95  S   UNL A   1      45.433  29.080  40.325  1.00  0.00     0.127 S 
ATOM     96  O   UNL A   1      46.828  29.019  40.759  1.00  0.00    -0.237 OA
ATOM     97  O   UNL A   1      44.585  29.969  41.118  1.00  0.00    -0.237 OA
ATOM     98  O   UNL A   1      44.826  27.796  39.999  1.00  0.00    -0.744 OA
ENDBRANCH  92  95
ENDBRANCH  65  88
ENDBRANCH  39  40
ENDBRANCH  32  34
ENDBRANCH  31  32
ENDBRANCH  30  31
ENDBRANCH  29  30
ENDBRANCH  28  29
ENDBRANCH  27  28
ENDBRANCH   1  27
TORSDOF 25
ENDMDL
MODEL 3
REMARK VINA RESULT:      -8.4      5.234      8.817
REMARK SMILES C=C(C(=O)OCCOCCOCCOCCOC(=O)c1ccc(-c2c3nc(c(-c4cccc(S(=O)(=O)[O-])c4F)c4ccc([nH]4)c(-c4cccc(S(=O)(=O)[O-])c4F)c4nc(c(-c5cccc(S(=O)(=O)[O-])c5F)c5ccc2[nH]5)C=C4)C=C3)cc1)[C@@H]1CC[C@]2(C)C[C@@H](O)CC(=C)[C@H]2C1
REMARK SMILES IDX 12 1 11 2 10 3 9 4 8 5 7 6 6 7 5 8 3 9 4 10 2 11 1 12 83 13
REMARK SMILES IDX 84 14 95 15 85 16 94 17 86 18 92 19 87 20 88 21 91 22 93 23
REMARK SMILES IDX 89 24 90 25 13 27 14 28 15 29 16 30 17 31 18 32 19 33 20 34
REMARK SMILES IDX 21 35 82 36 22 37 81 38 23 39 24 40 25 41 75 42 26 43 80 44
REMARK SMILES IDX 74 45 76 46 27 47 79 48 73 49 72 50 28 52 60 53 40 54 59 55
REMARK SMILES IDX 41 56 44 57 58 58 77 59 42 60 43 61 57 63 78 64 45 65 29 66
REMARK SMILES IDX 30 67 38 68 31 69 33 70 39 71 32 72 34 73 35 74 36 75 37 76
REMARK SMILES IDX 61 77 62 78 70 79 63 80 65 81 71 82 64 83 66 84 67 85 68 86
REMARK SMILES IDX 69 87 46 88 47 89 55 90 48 91 50 92 56 93 49 94 51 95 52 96
REMARK SMILES IDX 53 97 54 98
REMARK H PARENT 90 26 76 51 44 62
REMARK Flexibility Score: inf
ROOT
ATOM      1  C   UNL A   1      42.286  20.696  26.527  1.00  0.00     0.188 C 
ENDROOT
BRANCH   1   2
ATOM      2  O   UNL A   1      40.919  20.555  26.162  1.00  0.00    -0.377 OA
BRANCH   2   3
ATOM      3  C   UNL A   1      40.209  21.783  26.080  1.00  0.00     0.188 C 
BRANCH   3   4
ATOM      4  C   UNL A   1      38.674  21.719  26.147  1.00  0.00     0.188 C 
BRANCH   4   5
ATOM      5  O   UNL A   1      38.071  21.094  25.013  1.00  0.00    -0.376 OA
BRANCH   5   6
ATOM      6  C   UNL A   1      36.678  20.814  25.118  1.00  0.00     0.202 C 
BRANCH   6   7
ATOM      7  C   UNL A   1      35.772  22.005  24.790  1.00  0.00     0.261 C 
BRANCH   7   8
ATOM      8  O   UNL A   1      35.246  22.652  25.962  1.00  0.00    -0.460 OA
BRANCH   8   9
ATOM      9  C   UNL A   1      33.910  22.593  26.200  1.00  0.00     0.333 C 
ATOM     10  O   UNL A   1      33.325  21.641  26.686  1.00  0.00    -0.247 OA
BRANCH   9  11
ATOM     11  C   UNL A   1      33.309  23.943  25.924  1.00  0.00     0.033 C 
ATOM     12  C   UNL A   1      32.204  24.231  26.647  1.00  0.00     0.020 C 
BRANCH  11  13
ATOM     13  C   UNL A   1      33.972  24.974  24.991  1.00  0.00     0.026 C 
ATOM     14  C   UNL A   1      34.342  26.321  25.679  1.00  0.00     0.009 C 
ATOM     15  C   UNL A   1      33.375  25.257  23.579  1.00  0.00     0.017 C 
ATOM     16  C   UNL A   1      33.309  27.445  25.553  1.00  0.00     0.008 C 
ATOM     17  C   UNL A   1      32.329  26.392  23.505  1.00  0.00     0.021 C 
ATOM     18  C   UNL A   1      32.841  27.727  24.106  1.00  0.00    -0.024 C 
ATOM     19  C   UNL A   1      31.671  26.649  22.157  1.00  0.00    -0.071 C 
ATOM     20  C   UNL A   1      34.023  28.318  23.304  1.00  0.00     0.012 C 
ATOM     21  C   UNL A   1      31.676  28.770  24.170  1.00  0.00     0.039 C 
ATOM     22  C   UNL A   1      30.456  27.552  22.264  1.00  0.00     0.062 C 
ATOM     23  C   UNL A   1      32.073  26.146  20.980  1.00  0.00     0.008 C 
ATOM     24  C   UNL A   1      30.814  28.900  22.903  1.00  0.00     0.119 C 
BRANCH  24  25
ATOM     25  O   UNL A   1      31.456  29.756  21.954  1.00  0.00    -0.393 OA
ATOM     26  H   UNL A   1      30.812  30.395  21.607  1.00  0.00     0.210 HD
ENDBRANCH  24  25
ENDBRANCH  11  13
ENDBRANCH   9  11
ENDBRANCH   8   9
ENDBRANCH   7   8
ENDBRANCH   6   7
ENDBRANCH   5   6
ENDBRANCH   4   5
ENDBRANCH   3   4
ENDBRANCH   2   3
ENDBRANCH   1   2
BRANCH   1  27
ATOM     27  C   UNL A   1      43.191  19.773  25.687  1.00  0.00     0.188 C 
BRANCH  27  28
ATOM     28  O   UNL A   1      44.473  20.336  25.429  1.00  0.00    -0.376 OA
BRANCH  28  29
ATOM     29  C   UNL A   1      44.579  21.732  25.192  1.00  0.00     0.202 C 
BRANCH  29  30
ATOM     30  C   UNL A   1      45.041  22.723  26.277  1.00  0.00     0.261 C 
BRANCH  30  31
ATOM     31  O   UNL A   1      44.792  24.115  26.064  1.00  0.00    -0.460 OA
BRANCH  31  32
ATOM     32  C   UNL A   1      43.522  24.563  26.001  1.00  0.00     0.338 C 
ATOM     33  O   UNL A   1      42.664  24.238  25.201  1.00  0.00    -0.246 OA
BRANCH  32  34
ATOM     34  C   UNL A   1      43.312  25.334  27.250  1.00  0.00     0.060 A 
ATOM     35  C   UNL A   1      44.134  26.441  27.509  1.00  0.00     0.016 A 
ATOM     36  C   UNL A   1      42.207  25.066  28.067  1.00  0.00     0.016 A 
ATOM     37  C   UNL A   1      43.829  27.304  28.564  1.00  0.00     0.010 A 
ATOM     38  C   UNL A   1      41.931  25.904  29.149  1.00  0.00     0.010 A 
ATOM     39  C   UNL A   1      42.742  27.022  29.403  1.00  0.00    -0.014 A 
BRANCH  39  40
ATOM     40  C   UNL A   1      42.561  27.776  30.663  1.00  0.00     0.031 A 
ATOM     41  C   UNL A   1      41.634  28.956  30.636  1.00  0.00     0.074 A 
ATOM     42  C   UNL A   1      43.246  27.463  31.777  1.00  0.00     0.049 A 
ATOM     43  N   UNL A   1      41.368  29.821  31.575  1.00  0.00    -0.248 NA
ATOM     44  C   UNL A   1      40.910  29.194  29.373  1.00  0.00     0.031 C 
ATOM     45  C   UNL A   1      44.177  26.344  31.915  1.00  0.00     0.029 A 
ATOM     46  N   UNL A   1      43.294  28.092  32.998  1.00  0.00    -0.354 N 
ATOM     47  C   UNL A   1      40.474  30.722  31.012  1.00  0.00     0.074 A 
ATOM     48  C   UNL A   1      40.232  30.296  29.652  1.00  0.00     0.031 C 
ATOM     49  C   UNL A   1      44.742  26.395  33.136  1.00  0.00     0.029 A 
ATOM     50  C   UNL A   1      44.234  27.564  33.853  1.00  0.00     0.049 A 
ATOM     51  H   UNL A   1      42.710  28.848  33.238  1.00  0.00     0.167 HD
ATOM     52  C   UNL A   1      39.905  31.808  31.579  1.00  0.00     0.034 A 
ATOM     53  C   UNL A   1      44.659  28.003  35.056  1.00  0.00     0.034 A 
ATOM     54  C   UNL A   1      40.145  32.226  32.930  1.00  0.00     0.049 A 
ATOM     55  C   UNL A   1      44.028  29.242  35.647  1.00  0.00     0.074 A 
ATOM     56  C   UNL A   1      39.562  33.273  33.620  1.00  0.00     0.029 A 
ATOM     57  N   UNL A   1      41.065  31.641  33.784  1.00  0.00    -0.354 N 
ATOM     58  N   UNL A   1      43.062  29.989  35.169  1.00  0.00    -0.248 NA
ATOM     59  C   UNL A   1      44.533  29.687  36.956  1.00  0.00     0.031 C 
ATOM     60  C   UNL A   1      40.158  33.343  34.883  1.00  0.00     0.029 A 
ATOM     61  C   UNL A   1      41.089  32.322  34.987  1.00  0.00     0.049 A 
ATOM     62  H   UNL A   1      41.619  30.856  33.567  1.00  0.00     0.167 HD
ATOM     63  C   UNL A   1      42.827  30.972  36.125  1.00  0.00     0.074 A 
ATOM     64  C   UNL A   1      43.730  30.708  37.225  1.00  0.00     0.031 C 
ATOM     65  C   UNL A   1      41.960  32.014  36.091  1.00  0.00     0.034 A 
BRANCH  52  66
ATOM     66  C   UNL A   1      38.954  32.618  30.746  1.00  0.00     0.023 A 
ATOM     67  C   UNL A   1      39.436  33.713  30.001  1.00  0.00     0.012 A 
ATOM     68  C   UNL A   1      37.601  32.244  30.639  1.00  0.00     0.148 A 
ATOM     69  C   UNL A   1      38.581  34.432  29.169  1.00  0.00     0.002 A 
ATOM     70  C   UNL A   1      36.765  32.940  29.776  1.00  0.00     0.091 A 
ATOM     71  F   UNL A   1      37.162  31.217  31.380  1.00  0.00    -0.205 F 
ATOM     72  C   UNL A   1      37.251  34.038  29.047  1.00  0.00     0.022 A 
BRANCH  70  73
ATOM     73  S   UNL A   1      35.056  32.467  29.491  1.00  0.00     0.127 S 
ATOM     74  O   UNL A   1      35.211  31.111  28.964  1.00  0.00    -0.237 OA
ATOM     75  O   UNL A   1      34.492  32.538  30.838  1.00  0.00    -0.237 OA
ATOM     76  O   UNL A   1      34.519  33.438  28.548  1.00  0.00    -0.744 OA
ENDBRANCH  70  73
ENDBRANCH  52  66
BRANCH  53  77
ATOM     77  C   UNL A   1      45.741  27.284  35.789  1.00  0.00     0.023 A 
ATOM     78  C   UNL A   1      47.086  27.476  35.414  1.00  0.00     0.012 A 
ATOM     79  C   UNL A   1      45.445  26.390  36.836  1.00  0.00     0.148 A 
ATOM     80  C   UNL A   1      48.109  26.760  36.038  1.00  0.00     0.002 A 
ATOM     81  C   UNL A   1      46.474  25.725  37.494  1.00  0.00     0.091 A 
ATOM     82  F   UNL A   1      44.160  26.197  37.165  1.00  0.00    -0.205 F 
ATOM     83  C   UNL A   1      47.805  25.893  37.084  1.00  0.00     0.022 A 
BRANCH  81  84
ATOM     84  S   UNL A   1      46.179  24.691  38.933  1.00  0.00     0.127 S 
ATOM     85  O   UNL A   1      47.538  24.438  39.405  1.00  0.00    -0.237 OA
ATOM     86  O   UNL A   1      45.385  25.575  39.787  1.00  0.00    -0.237 OA
ATOM     87  O   UNL A   1      45.449  23.532  38.436  1.00  0.00    -0.744 OA
ENDBRANCH  81  84
ENDBRANCH  53  77
BRANCH  65  88
ATOM     88  C   UNL A   1      41.922  32.940  37.278  1.00  0.00     0.023 A 
ATOM     89  C   UNL A   1      42.909  33.935  37.416  1.00  0.00     0.012 A 
ATOM     90  C   UNL A   1      40.860  32.884  38.202  1.00  0.00     0.148 A 
ATOM     91  C   UNL A   1      42.853  34.845  38.471  1.00  0.00     0.002 A 
ATOM     92  C   UNL A   1      40.784  33.825  39.222  1.00  0.00     0.091 A 
ATOM     93  F   UNL A   1      39.938  31.920  38.059  1.00  0.00    -0.205 F 
ATOM     94  C   UNL A   1      41.786  34.798  39.364  1.00  0.00     0.022 A 
BRANCH  92  95
ATOM     95  S   UNL A   1      39.397  33.906  40.360  1.00  0.00     0.127 S 
ATOM     96  O   UNL A   1      39.755  35.060  41.183  1.00  0.00    -0.237 OA
ATOM     97  O   UNL A   1      38.268  34.127  39.458  1.00  0.00    -0.237 OA
ATOM     98  O   UNL A   1      39.373  32.627  41.059  1.00  0.00    -0.744 OA
ENDBRANCH  92  95
ENDBRANCH  65  88
ENDBRANCH  39  40
ENDBRANCH  32  34
ENDBRANCH  31  32
ENDBRANCH  30  31
ENDBRANCH  29  30
ENDBRANCH  28  29
ENDBRANCH  27  28
ENDBRANCH   1  27
TORSDOF 25
ENDMDL
