MODEL 1
REMARK VINA RESULT:      -8.4      0.000      0.000
REMARK SMILES O=C1NC(=O)/C(=C/c2ccc(OCc3cn(-c4ccc(C(=O)OCCOCCOCCOCCOC(=O)c5ccc(-c6c7nc(c(-c8cccc(S(=O)(=O)[O-])c8F)c8ccc([nH]8)c(-c8cccc(S(=O)(=O)[O-])c8F)c8nc(c(-c9cccc(S(=O)(=O)[O-])c9F)c9ccc6[nH]9)C=C8)C=C7)cc5)cc4)nn3)cc2)S1
REMARK SMILES IDX 28 1 27 2 26 3 25 4 24 5 23 6 21 7 22 8 20 9 17 10 18 11
REMARK SMILES IDX 102 12 19 13 101 14 16 15 14 16 15 17 104 18 103 19 13 20
REMARK SMILES IDX 12 21 11 22 8 23 9 24 106 25 10 26 105 27 7 28 1 29 2 30
REMARK SMILES IDX 3 31 107 32 4 33 6 35 5 36 29 37 30 38 31 39 32 40 33 41
REMARK SMILES IDX 34 42 35 43 36 44 37 45 38 46 39 47 100 48 40 49 99 50 41 51
REMARK SMILES IDX 42 52 43 53 93 54 44 55 98 56 92 57 94 58 45 59 97 60 91 61
REMARK SMILES IDX 90 62 46 64 78 65 58 66 77 67 59 68 62 69 76 70 95 71 60 72
REMARK SMILES IDX 61 73 75 75 96 76 63 77 47 78 48 79 56 80 49 81 51 82 57 83
REMARK SMILES IDX 50 84 52 85 53 86 54 87 55 88 79 89 80 90 88 91 81 92 83 93
REMARK SMILES IDX 89 94 82 95 84 96 85 97 86 98 87 99 64 100 65 101 73 102
REMARK SMILES IDX 66 103 68 104 74 105 67 106 69 107 70 108 71 109 72 110
REMARK H PARENT 3 34 94 63 62 74
REMARK Flexibility Score: inf
ROOT
ATOM      1  C   UNL A   1      45.169  22.925  26.076  1.00  0.00     0.188 C 
ENDROOT
BRANCH   1   2
ATOM      2  C   UNL A   1      44.954  22.241  24.706  1.00  0.00     0.188 C 
BRANCH   2   3
ATOM      3  O   UNL A   1      44.325  20.971  24.545  1.00  0.00    -0.376 OA
BRANCH   3   4
ATOM      4  C   UNL A   1      44.287  20.029  25.600  1.00  0.00     0.202 C 
BRANCH   4   5
ATOM      5  C   UNL A   1      42.980  19.266  25.847  1.00  0.00     0.261 C 
BRANCH   5   6
ATOM      6  O   UNL A   1      41.822  19.828  25.224  1.00  0.00    -0.460 OA
BRANCH   6   7
ATOM      7  C   UNL A   1      41.046  20.575  26.042  1.00  0.00     0.338 C 
ATOM      8  O   UNL A   1      41.411  21.375  26.887  1.00  0.00    -0.246 OA
BRANCH   7   9
ATOM      9  C   UNL A   1      39.630  20.393  25.662  1.00  0.00     0.060 A 
ATOM     10  C   UNL A   1      36.912  20.169  25.086  1.00  0.00     0.066 A 
ATOM     11  C   UNL A   1      37.503  21.437  25.197  1.00  0.00     0.029 A 
ATOM     12  C   UNL A   1      37.703  19.014  25.168  1.00  0.00     0.029 A 
ATOM     13  C   UNL A   1      38.849  21.545  25.526  1.00  0.00     0.018 A 
ATOM     14  C   UNL A   1      39.073  19.130  25.435  1.00  0.00     0.018 A 
BRANCH  10  15
ATOM     15  N   UNL A   1      35.498  20.099  25.038  1.00  0.00    -0.220 N 
ATOM     16  C   UNL A   1      33.429  20.603  24.584  1.00  0.00     0.120 A 
ATOM     17  C   UNL A   1      34.588  21.129  25.118  1.00  0.00     0.144 A 
ATOM     18  N   UNL A   1      33.624  19.276  24.321  1.00  0.00    -0.131 NA
ATOM     19  N   UNL A   1      34.869  18.970  24.633  1.00  0.00    -0.062 NA
BRANCH  16  20
ATOM     20  C   UNL A   1      32.155  21.263  24.181  1.00  0.00     0.289 C 
BRANCH  20  21
ATOM     21  O   UNL A   1      31.504  22.014  25.212  1.00  0.00    -0.487 OA
BRANCH  21  22
ATOM     22  C   UNL A   1      31.636  23.374  25.197  1.00  0.00     0.119 A 
ATOM     23  C   UNL A   1      31.577  26.178  25.335  1.00  0.00    -0.024 A 
ATOM     24  C   UNL A   1      31.132  25.412  26.414  1.00  0.00     0.012 A 
ATOM     25  C   UNL A   1      32.123  25.535  24.221  1.00  0.00     0.012 A 
ATOM     26  C   UNL A   1      31.162  24.017  26.342  1.00  0.00     0.047 A 
ATOM     27  C   UNL A   1      32.165  24.140  24.159  1.00  0.00     0.047 A 
BRANCH  23  28
ATOM     28  C   UNL A   1      31.452  27.637  25.369  1.00  0.00     0.029 C 
ATOM     29  O   UNL A   1      29.540  29.816  21.256  1.00  0.00    -0.261 OA
ATOM     30  C   UNL A   1      29.939  29.506  22.364  1.00  0.00     0.290 C 
ATOM     31  N   UNL A   1      30.263  30.370  23.361  1.00  0.00    -0.282 N 
ATOM     32  S   UNL A   1      30.276  27.866  22.876  1.00  0.00    -0.022 SA
ATOM     33  C   UNL A   1      30.849  29.866  24.483  1.00  0.00     0.265 C 
ATOM     34  H   UNL A   1      30.079  31.333  23.276  1.00  0.00     0.174 HD
ATOM     35  C   UNL A   1      30.929  28.385  24.388  1.00  0.00     0.083 C 
ATOM     36  O   UNL A   1      31.292  30.539  25.402  1.00  0.00    -0.268 OA
ENDBRANCH  23  28
ENDBRANCH  21  22
ENDBRANCH  20  21
ENDBRANCH  16  20
ENDBRANCH  10  15
ENDBRANCH   7   9
ENDBRANCH   6   7
ENDBRANCH   5   6
ENDBRANCH   4   5
ENDBRANCH   3   4
ENDBRANCH   2   3
ENDBRANCH   1   2
BRANCH   1  37
ATOM     37  O   UNL A   1      46.523  23.089  26.468  1.00  0.00    -0.377 OA
BRANCH  37  38
ATOM     38  C   UNL A   1      46.820  24.350  27.064  1.00  0.00     0.188 C 
BRANCH  38  39
ATOM     39  C   UNL A   1      45.613  25.282  27.288  1.00  0.00     0.188 C 
BRANCH  39  40
ATOM     40  O   UNL A   1      45.602  26.414  26.419  1.00  0.00    -0.376 OA
BRANCH  40  41
ATOM     41  C   UNL A   1      46.808  26.758  25.749  1.00  0.00     0.202 C 
BRANCH  41  42
ATOM     42  C   UNL A   1      46.633  27.923  24.780  1.00  0.00     0.261 C 
BRANCH  42  43
ATOM     43  O   UNL A   1      45.886  28.999  25.329  1.00  0.00    -0.460 OA
BRANCH  43  44
ATOM     44  C   UNL A   1      46.540  29.787  26.203  1.00  0.00     0.338 C 
ATOM     45  O   UNL A   1      47.737  30.016  26.245  1.00  0.00    -0.246 OA
BRANCH  44  46
ATOM     46  C   UNL A   1      45.578  30.298  27.180  1.00  0.00     0.060 A 
ATOM     47  C   UNL A   1      45.993  31.409  27.915  1.00  0.00     0.016 A 
ATOM     48  C   UNL A   1      44.482  29.506  27.557  1.00  0.00     0.016 A 
ATOM     49  C   UNL A   1      45.499  31.550  29.186  1.00  0.00     0.010 A 
ATOM     50  C   UNL A   1      43.993  29.644  28.830  1.00  0.00     0.010 A 
ATOM     51  C   UNL A   1      44.602  30.588  29.653  1.00  0.00    -0.014 A 
BRANCH  51  52
ATOM     52  C   UNL A   1      44.387  30.535  31.078  1.00  0.00     0.031 A 
ATOM     53  C   UNL A   1      43.526  31.606  31.600  1.00  0.00     0.074 A 
ATOM     54  C   UNL A   1      44.895  29.529  31.813  1.00  0.00     0.049 A 
ATOM     55  N   UNL A   1      43.841  32.537  32.436  1.00  0.00    -0.248 NA
ATOM     56  C   UNL A   1      42.189  31.737  31.005  1.00  0.00     0.031 C 
ATOM     57  C   UNL A   1      45.492  28.282  31.317  1.00  0.00     0.029 A 
ATOM     58  N   UNL A   1      44.838  29.338  33.159  1.00  0.00    -0.354 N 
ATOM     59  C   UNL A   1      42.653  33.224  32.658  1.00  0.00     0.074 A 
ATOM     60  C   UNL A   1      41.743  32.831  31.616  1.00  0.00     0.031 C 
ATOM     61  C   UNL A   1      45.495  27.374  32.316  1.00  0.00     0.029 A 
ATOM     62  C   UNL A   1      45.020  28.014  33.531  1.00  0.00     0.049 A 
ATOM     63  H   UNL A   1      44.683  30.067  33.803  1.00  0.00     0.167 HD
ATOM     64  C   UNL A   1      42.409  33.830  33.848  1.00  0.00     0.034 A 
ATOM     65  C   UNL A   1      44.695  27.466  34.723  1.00  0.00     0.034 A 
ATOM     66  C   UNL A   1      43.620  34.070  34.589  1.00  0.00     0.049 A 
ATOM     67  C   UNL A   1      44.548  28.568  35.702  1.00  0.00     0.074 A 
ATOM     68  C   UNL A   1      44.791  34.763  34.359  1.00  0.00     0.029 A 
ATOM     69  N   UNL A   1      43.860  33.254  35.666  1.00  0.00    -0.354 N 
ATOM     70  N   UNL A   1      45.536  29.297  36.141  1.00  0.00    -0.248 NA
ATOM     71  C   UNL A   1      43.220  29.108  35.949  1.00  0.00     0.031 C 
ATOM     72  C   UNL A   1      45.801  34.049  35.065  1.00  0.00     0.029 A 
ATOM     73  C   UNL A   1      45.197  32.959  35.696  1.00  0.00     0.049 A 
ATOM     74  H   UNL A   1      43.186  32.935  36.309  1.00  0.00     0.167 HD
ATOM     75  C   UNL A   1      44.987  30.559  36.327  1.00  0.00     0.074 A 
ATOM     76  C   UNL A   1      43.545  30.340  36.346  1.00  0.00     0.031 C 
ATOM     77  C   UNL A   1      45.734  31.689  36.146  1.00  0.00     0.034 A 
BRANCH  64  78
ATOM     78  C   UNL A   1      41.052  33.842  34.512  1.00  0.00     0.023 A 
ATOM     79  C   UNL A   1      40.617  35.067  35.061  1.00  0.00     0.012 A 
ATOM     80  C   UNL A   1      40.318  32.686  34.870  1.00  0.00     0.148 A 
ATOM     81  C   UNL A   1      39.551  35.130  35.964  1.00  0.00     0.002 A 
ATOM     82  C   UNL A   1      39.203  32.766  35.695  1.00  0.00     0.091 A 
ATOM     83  F   UNL A   1      40.761  31.469  34.543  1.00  0.00    -0.205 F 
ATOM     84  C   UNL A   1      38.835  33.980  36.274  1.00  0.00     0.022 A 
BRANCH  82  85
ATOM     85  S   UNL A   1      38.224  31.303  36.055  1.00  0.00     0.127 S 
ATOM     86  O   UNL A   1      37.278  31.817  37.040  1.00  0.00    -0.237 OA
ATOM     87  O   UNL A   1      37.650  30.988  34.747  1.00  0.00    -0.237 OA
ATOM     88  O   UNL A   1      39.188  30.317  36.531  1.00  0.00    -0.744 OA
ENDBRANCH  82  85
ENDBRANCH  64  78
BRANCH  65  89
ATOM     89  C   UNL A   1      44.287  26.077  35.026  1.00  0.00     0.023 A 
ATOM     90  C   UNL A   1      42.953  25.686  34.810  1.00  0.00     0.012 A 
ATOM     91  C   UNL A   1      45.240  25.070  35.306  1.00  0.00     0.148 A 
ATOM     92  C   UNL A   1      42.582  24.336  34.855  1.00  0.00     0.002 A 
ATOM     93  C   UNL A   1      44.863  23.733  35.374  1.00  0.00     0.091 A 
ATOM     94  F   UNL A   1      46.532  25.411  35.415  1.00  0.00    -0.205 F 
ATOM     95  C   UNL A   1      43.535  23.361  35.136  1.00  0.00     0.022 A 
BRANCH  93  96
ATOM     96  S   UNL A   1      46.045  22.430  35.750  1.00  0.00     0.127 S 
ATOM     97  O   UNL A   1      47.006  22.560  34.654  1.00  0.00    -0.237 OA
ATOM     98  O   UNL A   1      46.547  22.843  37.057  1.00  0.00    -0.237 OA
ATOM     99  O   UNL A   1      45.280  21.189  35.722  1.00  0.00    -0.744 OA
ENDBRANCH  93  96
ENDBRANCH  65  89
BRANCH  77 100
ATOM    100  C   UNL A   1      47.237  31.548  36.091  1.00  0.00     0.023 A 
ATOM    101  C   UNL A   1      48.024  31.549  37.260  1.00  0.00     0.012 A 
ATOM    102  C   UNL A   1      47.848  31.233  34.863  1.00  0.00     0.148 A 
ATOM    103  C   UNL A   1      49.392  31.274  37.205  1.00  0.00     0.002 A 
ATOM    104  C   UNL A   1      49.200  30.911  34.819  1.00  0.00     0.091 A 
ATOM    105  F   UNL A   1      47.090  31.225  33.756  1.00  0.00    -0.205 F 
ATOM    106  C   UNL A   1      49.978  30.942  35.986  1.00  0.00     0.022 A 
BRANCH 104 107
ATOM    107  S   UNL A   1      49.977  30.335  33.305  1.00  0.00     0.127 S 
ATOM    108  O   UNL A   1      51.334  30.035  33.750  1.00  0.00    -0.237 OA
ATOM    109  O   UNL A   1      49.173  29.162  32.957  1.00  0.00    -0.237 OA
ATOM    110  O   UNL A   1      49.850  31.438  32.357  1.00  0.00    -0.744 OA
ENDBRANCH 104 107
ENDBRANCH  77 100
ENDBRANCH  51  52
ENDBRANCH  44  46
ENDBRANCH  43  44
ENDBRANCH  42  43
ENDBRANCH  41  42
ENDBRANCH  40  41
ENDBRANCH  39  40
ENDBRANCH  38  39
ENDBRANCH  37  38
ENDBRANCH   1  37
TORSDOF 28
ENDMDL
MODEL 2
REMARK VINA RESULT:      -8.4      4.644      9.290
REMARK SMILES O=C1NC(=O)/C(=C/c2ccc(OCc3cn(-c4ccc(C(=O)OCCOCCOCCOCCOC(=O)c5ccc(-c6c7nc(c(-c8cccc(S(=O)(=O)[O-])c8F)c8ccc([nH]8)c(-c8cccc(S(=O)(=O)[O-])c8F)c8nc(c(-c9cccc(S(=O)(=O)[O-])c9F)c9ccc6[nH]9)C=C8)C=C7)cc5)cc4)nn3)cc2)S1
REMARK SMILES IDX 28 1 27 2 26 3 25 4 24 5 23 6 21 7 22 8 20 9 17 10 18 11
REMARK SMILES IDX 102 12 19 13 101 14 16 15 14 16 15 17 104 18 103 19 13 20
REMARK SMILES IDX 12 21 11 22 8 23 9 24 106 25 10 26 105 27 7 28 1 29 2 30
REMARK SMILES IDX 3 31 107 32 4 33 6 35 5 36 29 37 30 38 31 39 32 40 33 41
REMARK SMILES IDX 34 42 35 43 36 44 37 45 38 46 39 47 100 48 40 49 99 50 41 51
REMARK SMILES IDX 42 52 43 53 93 54 44 55 98 56 92 57 94 58 45 59 97 60 91 61
REMARK SMILES IDX 90 62 46 64 78 65 58 66 77 67 59 68 62 69 76 70 95 71 60 72
REMARK SMILES IDX 61 73 75 75 96 76 63 77 47 78 48 79 56 80 49 81 51 82 57 83
REMARK SMILES IDX 50 84 52 85 53 86 54 87 55 88 79 89 80 90 88 91 81 92 83 93
REMARK SMILES IDX 89 94 82 95 84 96 85 97 86 98 87 99 64 100 65 101 73 102
REMARK SMILES IDX 66 103 68 104 74 105 67 106 69 107 70 108 71 109 72 110
REMARK H PARENT 3 34 94 63 62 74
REMARK Flexibility Score: inf
ROOT
ATOM      1  C   UNL A   1      42.410  27.407  29.903  1.00  0.00     0.188 C 
ENDROOT
BRANCH   1   2
ATOM      2  C   UNL A   1      42.955  28.257  28.732  1.00  0.00     0.188 C 
BRANCH   2   3
ATOM      3  O   UNL A   1      43.505  27.702  27.540  1.00  0.00    -0.376 OA
BRANCH   3   4
ATOM      4  C   UNL A   1      44.699  28.210  26.974  1.00  0.00     0.202 C 
BRANCH   4   5
ATOM      5  C   UNL A   1      45.788  27.212  26.556  1.00  0.00     0.261 C 
BRANCH   5   6
ATOM      6  O   UNL A   1      45.627  26.652  25.250  1.00  0.00    -0.460 OA
BRANCH   6   7
ATOM      7  C   UNL A   1      46.406  25.576  24.997  1.00  0.00     0.338 C 
ATOM      8  O   UNL A   1      47.616  25.551  24.850  1.00  0.00    -0.246 OA
BRANCH   7   9
ATOM      9  C   UNL A   1      45.577  24.354  25.065  1.00  0.00     0.060 A 
ATOM     10  C   UNL A   1      43.912  22.135  25.327  1.00  0.00     0.066 A 
ATOM     11  C   UNL A   1      43.357  23.407  25.115  1.00  0.00     0.029 A 
ATOM     12  C   UNL A   1      45.303  21.962  25.310  1.00  0.00     0.029 A 
ATOM     13  C   UNL A   1      44.190  24.516  25.028  1.00  0.00     0.018 A 
ATOM     14  C   UNL A   1      46.138  23.076  25.156  1.00  0.00     0.018 A 
BRANCH  10  15
ATOM     15  N   UNL A   1      43.037  21.084  25.696  1.00  0.00    -0.220 N 
ATOM     16  C   UNL A   1      41.213  19.924  25.960  1.00  0.00     0.120 A 
ATOM     17  C   UNL A   1      41.754  21.174  26.189  1.00  0.00     0.144 A 
ATOM     18  N   UNL A   1      42.188  19.101  25.470  1.00  0.00    -0.131 NA
ATOM     19  N   UNL A   1      43.300  19.802  25.348  1.00  0.00    -0.062 NA
BRANCH  16  20
ATOM     20  C   UNL A   1      39.807  19.438  26.054  1.00  0.00     0.289 C 
BRANCH  20  21
ATOM     21  O   UNL A   1      39.021  19.612  24.870  1.00  0.00    -0.487 OA
BRANCH  21  22
ATOM     22  C   UNL A   1      37.801  20.216  24.990  1.00  0.00     0.119 A 
ATOM     23  C   UNL A   1      35.181  21.225  24.972  1.00  0.00    -0.024 A 
ATOM     24  C   UNL A   1      35.405  19.852  24.861  1.00  0.00     0.012 A 
ATOM     25  C   UNL A   1      36.268  22.081  25.170  1.00  0.00     0.012 A 
ATOM     26  C   UNL A   1      36.711  19.353  24.870  1.00  0.00     0.047 A 
ATOM     27  C   UNL A   1      37.571  21.576  25.194  1.00  0.00     0.047 A 
BRANCH  23  28
ATOM     28  C   UNL A   1      33.821  21.758  24.860  1.00  0.00     0.029 C 
ATOM     29  O   UNL A   1      33.023  25.106  21.190  1.00  0.00    -0.261 OA
ATOM     30  C   UNL A   1      32.964  24.270  22.073  1.00  0.00     0.290 C 
ATOM     31  N   UNL A   1      31.869  23.984  22.823  1.00  0.00    -0.282 N 
ATOM     32  S   UNL A   1      34.324  23.320  22.633  1.00  0.00    -0.022 SA
ATOM     33  C   UNL A   1      32.017  23.138  23.880  1.00  0.00     0.265 C 
ATOM     34  H   UNL A   1      30.992  24.377  22.609  1.00  0.00     0.174 HD
ATOM     35  C   UNL A   1      33.411  22.624  23.923  1.00  0.00     0.083 C 
ATOM     36  O   UNL A   1      31.147  22.886  24.701  1.00  0.00    -0.268 OA
ENDBRANCH  23  28
ENDBRANCH  21  22
ENDBRANCH  20  21
ENDBRANCH  16  20
ENDBRANCH  10  15
ENDBRANCH   7   9
ENDBRANCH   6   7
ENDBRANCH   5   6
ENDBRANCH   4   5
ENDBRANCH   3   4
ENDBRANCH   2   3
ENDBRANCH   1   2
BRANCH   1  37
ATOM     37  O   UNL A   1      41.465  28.057  30.739  1.00  0.00    -0.377 OA
BRANCH  37  38
ATOM     38  C   UNL A   1      40.684  29.057  30.087  1.00  0.00     0.188 C 
BRANCH  38  39
ATOM     39  C   UNL A   1      39.275  28.616  29.643  1.00  0.00     0.188 C 
BRANCH  39  40
ATOM     40  O   UNL A   1      38.769  29.367  28.539  1.00  0.00    -0.376 OA
BRANCH  40  41
ATOM     41  C   UNL A   1      37.363  29.559  28.446  1.00  0.00     0.202 C 
BRANCH  41  42
ATOM     42  C   UNL A   1      36.748  30.052  29.751  1.00  0.00     0.261 C 
BRANCH  42  43
ATOM     43  O   UNL A   1      37.062  31.406  30.041  1.00  0.00    -0.460 OA
BRANCH  43  44
ATOM     44  C   UNL A   1      36.436  31.944  31.104  1.00  0.00     0.338 C 
ATOM     45  O   UNL A   1      35.236  31.991  31.313  1.00  0.00    -0.246 OA
BRANCH  44  46
ATOM     46  C   UNL A   1      37.439  32.552  31.979  1.00  0.00     0.060 A 
ATOM     47  C   UNL A   1      37.577  33.937  31.873  1.00  0.00     0.016 A 
ATOM     48  C   UNL A   1      38.396  31.741  32.608  1.00  0.00     0.016 A 
ATOM     49  C   UNL A   1      38.812  34.473  32.129  1.00  0.00     0.010 A 
ATOM     50  C   UNL A   1      39.633  32.277  32.857  1.00  0.00     0.010 A 
ATOM     51  C   UNL A   1      39.843  33.605  32.496  1.00  0.00    -0.014 A 
BRANCH  51  52
ATOM     52  C   UNL A   1      41.189  34.113  32.397  1.00  0.00     0.031 A 
ATOM     53  C   UNL A   1      41.809  33.927  31.077  1.00  0.00     0.074 A 
ATOM     54  C   UNL A   1      41.758  34.758  33.431  1.00  0.00     0.049 A 
ATOM     55  N   UNL A   1      42.851  33.225  30.784  1.00  0.00    -0.248 NA
ATOM     56  C   UNL A   1      41.093  34.481  29.920  1.00  0.00     0.031 C 
ATOM     57  C   UNL A   1      41.094  35.242  34.649  1.00  0.00     0.029 A 
ATOM     58  N   UNL A   1      43.019  35.259  33.538  1.00  0.00    -0.354 N 
ATOM     59  C   UNL A   1      43.061  33.457  29.430  1.00  0.00     0.074 A 
ATOM     60  C   UNL A   1      41.855  34.052  28.918  1.00  0.00     0.031 C 
ATOM     61  C   UNL A   1      41.878  36.175  35.229  1.00  0.00     0.029 A 
ATOM     62  C   UNL A   1      43.130  36.256  34.497  1.00  0.00     0.049 A 
ATOM     63  H   UNL A   1      43.774  34.946  32.991  1.00  0.00     0.167 HD
ATOM     64  C   UNL A   1      44.310  33.421  28.901  1.00  0.00     0.034 A 
ATOM     65  C   UNL A   1      44.135  37.154  34.604  1.00  0.00     0.034 A 
ATOM     66  C   UNL A   1      45.229  32.693  29.738  1.00  0.00     0.049 A 
ATOM     67  C   UNL A   1      45.293  36.629  33.845  1.00  0.00     0.074 A 
ATOM     68  C   UNL A   1      45.292  31.409  30.240  1.00  0.00     0.029 A 
ATOM     69  N   UNL A   1      46.136  33.433  30.453  1.00  0.00    -0.354 N 
ATOM     70  N   UNL A   1      45.991  35.586  34.199  1.00  0.00    -0.248 NA
ATOM     71  C   UNL A   1      45.479  37.064  32.469  1.00  0.00     0.031 C 
ATOM     72  C   UNL A   1      45.956  31.525  31.495  1.00  0.00     0.029 A 
ATOM     73  C   UNL A   1      46.270  32.871  31.694  1.00  0.00     0.049 A 
ATOM     74  H   UNL A   1      46.611  34.232  30.128  1.00  0.00     0.167 HD
ATOM     75  C   UNL A   1      46.363  34.989  33.002  1.00  0.00     0.074 A 
ATOM     76  C   UNL A   1      46.158  36.019  31.990  1.00  0.00     0.031 C 
ATOM     77  C   UNL A   1      46.512  33.634  32.904  1.00  0.00     0.034 A 
BRANCH  64  78
ATOM     78  C   UNL A   1      44.789  34.377  27.834  1.00  0.00     0.023 A 
ATOM     79  C   UNL A   1      45.518  33.826  26.759  1.00  0.00     0.012 A 
ATOM     80  C   UNL A   1      44.811  35.787  27.963  1.00  0.00     0.148 A 
ATOM     81  C   UNL A   1      46.275  34.627  25.898  1.00  0.00     0.002 A 
ATOM     82  C   UNL A   1      45.490  36.585  27.052  1.00  0.00     0.091 A 
ATOM     83  F   UNL A   1      44.299  36.380  29.046  1.00  0.00    -0.205 F 
ATOM     84  C   UNL A   1      46.254  36.010  26.037  1.00  0.00     0.022 A 
BRANCH  82  85
ATOM     85  S   UNL A   1      45.420  38.376  27.174  1.00  0.00     0.127 S 
ATOM     86  O   UNL A   1      43.989  38.625  27.038  1.00  0.00    -0.237 OA
ATOM     87  O   UNL A   1      45.968  38.615  28.509  1.00  0.00    -0.237 OA
ATOM     88  O   UNL A   1      46.271  38.858  26.091  1.00  0.00    -0.744 OA
ENDBRANCH  82  85
ENDBRANCH  64  78
BRANCH  65  89
ATOM     89  C   UNL A   1      44.092  38.535  35.132  1.00  0.00     0.023 A 
ATOM     90  C   UNL A   1      44.730  38.830  36.350  1.00  0.00     0.012 A 
ATOM     91  C   UNL A   1      43.630  39.615  34.343  1.00  0.00     0.148 A 
ATOM     92  C   UNL A   1      44.919  40.154  36.763  1.00  0.00     0.002 A 
ATOM     93  C   UNL A   1      43.797  40.928  34.769  1.00  0.00     0.091 A 
ATOM     94  F   UNL A   1      43.111  39.360  33.134  1.00  0.00    -0.205 F 
ATOM     95  C   UNL A   1      44.452  41.203  35.975  1.00  0.00     0.022 A 
BRANCH  93  96
ATOM     96  S   UNL A   1      43.202  42.323  33.801  1.00  0.00     0.127 S 
ATOM     97  O   UNL A   1      41.778  42.016  33.661  1.00  0.00    -0.237 OA
ATOM     98  O   UNL A   1      43.500  43.452  34.678  1.00  0.00    -0.237 OA
ATOM     99  O   UNL A   1      43.944  42.274  32.547  1.00  0.00    -0.744 OA
ENDBRANCH  93  96
ENDBRANCH  65  89
BRANCH  77 100
ATOM    100  C   UNL A   1      46.615  32.834  34.182  1.00  0.00     0.023 A 
ATOM    101  C   UNL A   1      47.849  32.643  34.837  1.00  0.00     0.012 A 
ATOM    102  C   UNL A   1      45.435  32.421  34.826  1.00  0.00     0.148 A 
ATOM    103  C   UNL A   1      47.908  32.026  36.089  1.00  0.00     0.002 A 
ATOM    104  C   UNL A   1      45.493  31.853  36.094  1.00  0.00     0.091 A 
ATOM    105  F   UNL A   1      44.264  32.616  34.199  1.00  0.00    -0.205 F 
ATOM    106  C   UNL A   1      46.729  31.644  36.724  1.00  0.00     0.022 A 
BRANCH 104 107
ATOM    107  S   UNL A   1      44.001  31.474  37.019  1.00  0.00     0.127 S 
ATOM    108  O   UNL A   1      44.540  30.949  38.271  1.00  0.00    -0.237 OA
ATOM    109  O   UNL A   1      43.352  32.781  37.133  1.00  0.00    -0.237 OA
ATOM    110  O   UNL A   1      43.264  30.520  36.197  1.00  0.00    -0.744 OA
ENDBRANCH 104 107
ENDBRANCH  77 100
ENDBRANCH  51  52
ENDBRANCH  44  46
ENDBRANCH  43  44
ENDBRANCH  42  43
ENDBRANCH  41  42
ENDBRANCH  40  41
ENDBRANCH  39  40
ENDBRANCH  38  39
ENDBRANCH  37  38
ENDBRANCH   1  37
TORSDOF 28
ENDMDL
MODEL 3
REMARK VINA RESULT:      -8.1      4.252      9.112
REMARK SMILES O=C1NC(=O)/C(=C/c2ccc(OCc3cn(-c4ccc(C(=O)OCCOCCOCCOCCOC(=O)c5ccc(-c6c7nc(c(-c8cccc(S(=O)(=O)[O-])c8F)c8ccc([nH]8)c(-c8cccc(S(=O)(=O)[O-])c8F)c8nc(c(-c9cccc(S(=O)(=O)[O-])c9F)c9ccc6[nH]9)C=C8)C=C7)cc5)cc4)nn3)cc2)S1
REMARK SMILES IDX 28 1 27 2 26 3 25 4 24 5 23 6 21 7 22 8 20 9 17 10 18 11
REMARK SMILES IDX 102 12 19 13 101 14 16 15 14 16 15 17 104 18 103 19 13 20
REMARK SMILES IDX 12 21 11 22 8 23 9 24 106 25 10 26 105 27 7 28 1 29 2 30
REMARK SMILES IDX 3 31 107 32 4 33 6 35 5 36 29 37 30 38 31 39 32 40 33 41
REMARK SMILES IDX 34 42 35 43 36 44 37 45 38 46 39 47 100 48 40 49 99 50 41 51
REMARK SMILES IDX 42 52 43 53 93 54 44 55 98 56 92 57 94 58 45 59 97 60 91 61
REMARK SMILES IDX 90 62 46 64 78 65 58 66 77 67 59 68 62 69 76 70 95 71 60 72
REMARK SMILES IDX 61 73 75 75 96 76 63 77 47 78 48 79 56 80 49 81 51 82 57 83
REMARK SMILES IDX 50 84 52 85 53 86 54 87 55 88 79 89 80 90 88 91 81 92 83 93
REMARK SMILES IDX 89 94 82 95 84 96 85 97 86 98 87 99 64 100 65 101 73 102
REMARK SMILES IDX 66 103 68 104 74 105 67 106 69 107 70 108 71 109 72 110
REMARK H PARENT 3 34 94 63 62 74
REMARK Flexibility Score: inf
ROOT
ATOM      1  C   UNL A   1      42.632  27.326  29.930  1.00  0.00     0.188 C 
ENDROOT
BRANCH   1   2
ATOM      2  C   UNL A   1      43.259  28.225  28.840  1.00  0.00     0.188 C 
BRANCH   2   3
ATOM      3  O   UNL A   1      43.836  27.724  27.636  1.00  0.00    -0.376 OA
BRANCH   3   4
ATOM      4  C   UNL A   1      45.111  28.152  27.196  1.00  0.00     0.202 C 
BRANCH   4   5
ATOM      5  C   UNL A   1      46.131  27.087  26.774  1.00  0.00     0.261 C 
BRANCH   5   6
ATOM      6  O   UNL A   1      46.055  26.683  25.404  1.00  0.00    -0.460 OA
BRANCH   6   7
ATOM      7  C   UNL A   1      46.543  25.449  25.149  1.00  0.00     0.338 C 
ATOM      8  O   UNL A   1      47.706  25.134  24.960  1.00  0.00    -0.246 OA
BRANCH   7   9
ATOM      9  C   UNL A   1      45.452  24.462  25.277  1.00  0.00     0.060 A 
ATOM     10  C   UNL A   1      43.297  22.727  25.618  1.00  0.00     0.066 A 
ATOM     11  C   UNL A   1      43.081  24.028  25.137  1.00  0.00     0.029 A 
ATOM     12  C   UNL A   1      44.603  22.265  25.835  1.00  0.00     0.029 A 
ATOM     13  C   UNL A   1      44.153  24.903  25.008  1.00  0.00     0.018 A 
ATOM     14  C   UNL A   1      45.686  23.132  25.641  1.00  0.00     0.018 A 
BRANCH  10  15
ATOM     15  N   UNL A   1      42.166  21.969  26.007  1.00  0.00    -0.220 N 
ATOM     16  C   UNL A   1      40.111  21.259  26.136  1.00  0.00     0.120 A 
ATOM     17  C   UNL A   1      40.878  22.404  26.224  1.00  0.00     0.144 A 
ATOM     18  N   UNL A   1      40.939  20.179  26.001  1.00  0.00    -0.131 NA
ATOM     19  N   UNL A   1      42.185  20.615  25.961  1.00  0.00    -0.062 NA
BRANCH  16  20
ATOM     20  C   UNL A   1      38.634  21.079  26.053  1.00  0.00     0.289 C 
BRANCH  20  21
ATOM     21  O   UNL A   1      38.101  21.010  24.726  1.00  0.00    -0.487 OA
BRANCH  21  22
ATOM     22  C   UNL A   1      36.903  21.621  24.482  1.00  0.00     0.119 A 
ATOM     23  C   UNL A   1      34.301  22.534  23.955  1.00  0.00    -0.024 A 
ATOM     24  C   UNL A   1      34.505  21.450  24.810  1.00  0.00     0.012 A 
ATOM     25  C   UNL A   1      35.407  23.206  23.428  1.00  0.00     0.012 A 
ATOM     26  C   UNL A   1      35.802  20.997  25.070  1.00  0.00     0.047 A 
ATOM     27  C   UNL A   1      36.703  22.760  23.703  1.00  0.00     0.047 A 
BRANCH  23  28
ATOM     28  C   UNL A   1      32.940  22.944  23.603  1.00  0.00     0.029 C 
ATOM     29  O   UNL A   1      30.597  25.974  26.865  1.00  0.00    -0.261 OA
ATOM     30  C   UNL A   1      30.990  25.326  25.913  1.00  0.00     0.290 C 
ATOM     31  N   UNL A   1      30.258  25.008  24.814  1.00  0.00    -0.282 N 
ATOM     32  S   UNL A   1      32.568  24.577  25.805  1.00  0.00    -0.022 SA
ATOM     33  C   UNL A   1      30.795  24.137  23.915  1.00  0.00     0.265 C 
ATOM     34  H   UNL A   1      29.365  25.395  24.671  1.00  0.00     0.174 HD
ATOM     35  C   UNL A   1      32.178  23.777  24.325  1.00  0.00     0.083 C 
ATOM     36  O   UNL A   1      30.205  23.679  22.947  1.00  0.00    -0.268 OA
ENDBRANCH  23  28
ENDBRANCH  21  22
ENDBRANCH  20  21
ENDBRANCH  16  20
ENDBRANCH  10  15
ENDBRANCH   7   9
ENDBRANCH   6   7
ENDBRANCH   5   6
ENDBRANCH   4   5
ENDBRANCH   3   4
ENDBRANCH   2   3
ENDBRANCH   1   2
BRANCH   1  37
ATOM     37  O   UNL A   1      41.675  27.959  30.765  1.00  0.00    -0.377 OA
BRANCH  37  38
ATOM     38  C   UNL A   1      40.785  28.842  30.085  1.00  0.00     0.188 C 
BRANCH  38  39
ATOM     39  C   UNL A   1      39.409  28.251  29.720  1.00  0.00     0.188 C 
BRANCH  39  40
ATOM     40  O   UNL A   1      38.752  28.955  28.666  1.00  0.00    -0.376 OA
BRANCH  40  41
ATOM     41  C   UNL A   1      37.352  29.181  28.781  1.00  0.00     0.202 C 
BRANCH  41  42
ATOM     42  C   UNL A   1      36.945  29.667  30.169  1.00  0.00     0.261 C 
BRANCH  42  43
ATOM     43  O   UNL A   1      37.289  31.023  30.409  1.00  0.00    -0.460 OA
BRANCH  43  44
ATOM     44  C   UNL A   1      36.542  31.669  31.324  1.00  0.00     0.338 C 
ATOM     45  O   UNL A   1      35.325  31.716  31.389  1.00  0.00    -0.246 OA
BRANCH  44  46
ATOM     46  C   UNL A   1      37.435  32.394  32.228  1.00  0.00     0.060 A 
ATOM     47  C   UNL A   1      37.719  33.713  31.872  1.00  0.00     0.016 A 
ATOM     48  C   UNL A   1      38.191  31.685  33.174  1.00  0.00     0.016 A 
ATOM     49  C   UNL A   1      38.938  34.222  32.238  1.00  0.00     0.010 A 
ATOM     50  C   UNL A   1      39.413  32.192  33.535  1.00  0.00     0.010 A 
ATOM     51  C   UNL A   1      39.805  33.397  32.958  1.00  0.00    -0.014 A 
BRANCH  51  52
ATOM     52  C   UNL A   1      41.190  33.794  33.010  1.00  0.00     0.031 A 
ATOM     53  C   UNL A   1      42.031  33.190  31.967  1.00  0.00     0.074 A 
ATOM     54  C   UNL A   1      41.612  34.700  33.911  1.00  0.00     0.049 A 
ATOM     55  N   UNL A   1      43.031  32.390  32.122  1.00  0.00    -0.248 NA
ATOM     56  C   UNL A   1      41.615  33.393  30.573  1.00  0.00     0.031 C 
ATOM     57  C   UNL A   1      40.779  35.559  34.762  1.00  0.00     0.029 A 
ATOM     58  N   UNL A   1      42.873  35.157  34.138  1.00  0.00    -0.354 N 
ATOM     59  C   UNL A   1      43.523  32.189  30.838  1.00  0.00     0.074 A 
ATOM     60  C   UNL A   1      42.508  32.648  29.927  1.00  0.00     0.031 C 
ATOM     61  C   UNL A   1      41.528  36.592  35.203  1.00  0.00     0.029 A 
ATOM     62  C   UNL A   1      42.899  36.394  34.767  1.00  0.00     0.049 A 
ATOM     63  H   UNL A   1      43.684  34.661  33.881  1.00  0.00     0.167 HD
ATOM     64  C   UNL A   1      44.840  31.942  30.625  1.00  0.00     0.034 A 
ATOM     65  C   UNL A   1      43.953  37.240  34.825  1.00  0.00     0.034 A 
ATOM     66  C   UNL A   1      45.499  31.467  31.814  1.00  0.00     0.049 A 
ATOM     67  C   UNL A   1      45.175  36.461  34.519  1.00  0.00     0.074 A 
ATOM     68  C   UNL A   1      45.329  30.396  32.668  1.00  0.00     0.029 A 
ATOM     69  N   UNL A   1      46.322  32.352  32.463  1.00  0.00    -0.354 N 
ATOM     70  N   UNL A   1      45.679  35.548  35.302  1.00  0.00    -0.248 NA
ATOM     71  C   UNL A   1      45.669  36.448  33.150  1.00  0.00     0.031 C 
ATOM     72  C   UNL A   1      45.746  30.861  33.949  1.00  0.00     0.029 A 
ATOM     73  C   UNL A   1      46.154  32.190  33.812  1.00  0.00     0.049 A 
ATOM     74  H   UNL A   1      46.932  32.994  32.032  1.00  0.00     0.167 HD
ATOM     75  C   UNL A   1      46.212  34.600  34.439  1.00  0.00     0.074 A 
ATOM     76  C   UNL A   1      46.315  35.280  33.153  1.00  0.00     0.031 C 
ATOM     77  C   UNL A   1      46.235  33.274  34.772  1.00  0.00     0.034 A 
BRANCH  64  78
ATOM     78  C   UNL A   1      45.614  32.507  29.456  1.00  0.00     0.023 A 
ATOM     79  C   UNL A   1      46.369  31.597  28.686  1.00  0.00     0.012 A 
ATOM     80  C   UNL A   1      45.865  33.884  29.244  1.00  0.00     0.148 A 
ATOM     81  C   UNL A   1      47.360  32.031  27.800  1.00  0.00     0.002 A 
ATOM     82  C   UNL A   1      46.786  34.312  28.297  1.00  0.00     0.091 A 
ATOM     83  F   UNL A   1      45.329  34.806  30.049  1.00  0.00    -0.205 F 
ATOM     84  C   UNL A   1      47.563  33.391  27.596  1.00  0.00     0.022 A 
BRANCH  82  85
ATOM     85  S   UNL A   1      47.016  36.064  27.970  1.00  0.00     0.127 S 
ATOM     86  O   UNL A   1      47.965  36.034  26.862  1.00  0.00    -0.237 OA
ATOM     87  O   UNL A   1      45.662  36.491  27.617  1.00  0.00    -0.237 OA
ATOM     88  O   UNL A   1      47.501  36.618  29.229  1.00  0.00    -0.744 OA
ENDBRANCH  82  85
ENDBRANCH  64  78
BRANCH  65  89
ATOM     89  C   UNL A   1      43.953  38.717  34.908  1.00  0.00     0.023 A 
ATOM     90  C   UNL A   1      44.569  39.347  36.004  1.00  0.00     0.012 A 
ATOM     91  C   UNL A   1      43.558  39.519  33.813  1.00  0.00     0.148 A 
ATOM     92  C   UNL A   1      44.800  40.728  36.003  1.00  0.00     0.002 A 
ATOM     93  C   UNL A   1      43.767  40.895  33.827  1.00  0.00     0.091 A 
ATOM     94  F   UNL A   1      43.061  38.926  32.718  1.00  0.00    -0.205 F 
ATOM     95  C   UNL A   1      44.400  41.501  34.918  1.00  0.00     0.022 A 
BRANCH  93  96
ATOM     96  S   UNL A   1      43.256  41.947  32.461  1.00  0.00     0.127 S 
ATOM     97  O   UNL A   1      41.826  41.650  32.360  1.00  0.00    -0.237 OA
ATOM     98  O   UNL A   1      43.570  43.280  32.969  1.00  0.00    -0.237 OA
ATOM     99  O   UNL A   1      44.035  41.502  31.312  1.00  0.00    -0.744 OA
ENDBRANCH  93  96
ENDBRANCH  65  89
BRANCH  77 100
ATOM    100  C   UNL A   1      46.005  32.899  36.217  1.00  0.00     0.023 A 
ATOM    101  C   UNL A   1      47.073  32.772  37.128  1.00  0.00     0.012 A 
ATOM    102  C   UNL A   1      44.687  32.847  36.707  1.00  0.00     0.148 A 
ATOM    103  C   UNL A   1      46.836  32.567  38.489  1.00  0.00     0.002 A 
ATOM    104  C   UNL A   1      44.454  32.692  38.070  1.00  0.00     0.091 A 
ATOM    105  F   UNL A   1      43.676  32.977  35.834  1.00  0.00    -0.205 F 
ATOM    106  C   UNL A   1      45.526  32.541  38.962  1.00  0.00     0.022 A 
BRANCH 104 107
ATOM    107  S   UNL A   1      42.797  32.795  38.754  1.00  0.00     0.127 S 
ATOM    108  O   UNL A   1      43.048  33.327  40.091  1.00  0.00    -0.237 OA
ATOM    109  O   UNL A   1      42.129  33.725  37.841  1.00  0.00    -0.237 OA
ATOM    110  O   UNL A   1      42.267  31.437  38.701  1.00  0.00    -0.744 OA
ENDBRANCH 104 107
ENDBRANCH  77 100
ENDBRANCH  51  52
ENDBRANCH  44  46
ENDBRANCH  43  44
ENDBRANCH  42  43
ENDBRANCH  41  42
ENDBRANCH  40  41
ENDBRANCH  39  40
ENDBRANCH  38  39
ENDBRANCH  37  38
ENDBRANCH   1  37
TORSDOF 28
ENDMDL
