MODEL 1
REMARK VINA RESULT:      -9.5      0.000      0.000
REMARK SMILES Cc1cc(Cl)cc2c1O[C@H](C(F)(F)F)C(C(=O)OCCOCCOCCOCCOC(=O)c1ccc(-c3c4nc(c(-c5cccc(S(=O)(=O)[O-])c5F)c5ccc([nH]5)c(-c5cccc(S(=O)(=O)[O-])c5F)c5nc(c(-c6cccc(S(=O)(=O)[O-])c6F)c6ccc3[nH]6)C=C5)C=C4)cc1)=C2
REMARK SMILES IDX 25 1 24 2 23 3 22 4 21 5 20 6 19 7 18 8 16 9 17 10 15 11
REMARK SMILES IDX 1 12 2 13 3 14 8 15 4 16 7 17 9 18 5 19 6 20 96 21 10 22
REMARK SMILES IDX 11 23 12 24 13 25 14 26 26 27 27 28 28 29 29 30 30 31 31 32
REMARK SMILES IDX 32 33 33 34 34 35 95 36 35 37 94 38 36 39 37 40 38 41 88 42
REMARK SMILES IDX 39 43 93 44 87 45 89 46 40 47 92 48 86 49 85 50 41 52 73 53
REMARK SMILES IDX 53 54 72 55 54 56 57 57 71 58 90 59 55 60 56 61 70 63 91 64
REMARK SMILES IDX 58 65 42 66 43 67 51 68 44 69 46 70 52 71 45 72 47 73 48 74
REMARK SMILES IDX 49 75 50 76 74 77 75 78 83 79 76 80 78 81 84 82 77 83 79 84
REMARK SMILES IDX 80 85 81 86 82 87 59 88 60 89 68 90 61 91 63 92 69 93 62 94
REMARK SMILES IDX 64 95 65 96 66 97 67 98
REMARK H PARENT 89 51 57 62
REMARK Flexibility Score: inf
ROOT
ATOM      1  C   UNL A   1      43.882  18.592  25.896  1.00  0.00     0.188 C 
ENDROOT
BRANCH   1   2
ATOM      2  O   UNL A   1      44.867  18.393  24.882  1.00  0.00    -0.377 OA
BRANCH   2   3
ATOM      3  C   UNL A   1      46.064  19.147  24.945  1.00  0.00     0.188 C 
BRANCH   3   4
ATOM      4  C   UNL A   1      45.870  20.645  24.646  1.00  0.00     0.188 C 
BRANCH   4   5
ATOM      5  O   UNL A   1      46.254  21.487  25.727  1.00  0.00    -0.376 OA
BRANCH   5   6
ATOM      6  C   UNL A   1      45.371  22.535  26.102  1.00  0.00     0.202 C 
BRANCH   6   7
ATOM      7  C   UNL A   1      45.860  23.581  27.117  1.00  0.00     0.261 C 
BRANCH   7   8
ATOM      8  O   UNL A   1      47.243  23.948  27.015  1.00  0.00    -0.460 OA
BRANCH   8   9
ATOM      9  C   UNL A   1      47.577  25.232  27.232  1.00  0.00     0.338 C 
ATOM     10  O   UNL A   1      47.536  25.831  28.293  1.00  0.00    -0.246 OA
BRANCH   9  11
ATOM     11  C   UNL A   1      48.194  25.752  25.990  1.00  0.00     0.087 C 
ATOM     12  C   UNL A   1      49.107  27.724  21.350  1.00  0.00     0.048 C 
ATOM     13  C   UNL A   1      49.948  27.312  22.526  1.00  0.00    -0.007 A 
ATOM     14  C   UNL A   1      51.322  27.594  22.529  1.00  0.00     0.027 A 
ATOM     15  C   UNL A   1      49.367  26.732  23.668  1.00  0.00     0.131 A 
ATOM     16  C   UNL A   1      52.102  27.273  23.638  1.00  0.00     0.042 A 
ATOM     17  C   UNL A   1      50.146  26.455  24.796  1.00  0.00     0.019 A 
ATOM     18  O   UNL A   1      48.026  26.478  23.609  1.00  0.00    -0.475 OA
ATOM     19  Cl  UNL A   1      53.788  27.616  23.624  1.00  0.00    -0.084 Cl
ATOM     20  C   UNL A   1      51.523  26.703  24.769  1.00  0.00     0.032 A 
ATOM     21  C   UNL A   1      49.515  25.968  26.013  1.00  0.00     0.027 C 
ATOM     22  C   UNL A   1      47.334  25.933  24.765  1.00  0.00     0.316 C 
BRANCH  22  23
ATOM     23  C   UNL A   1      46.116  26.826  25.040  1.00  0.00     0.430 C 
ATOM     24  F   UNL A   1      46.340  27.654  26.085  1.00  0.00    -0.167 F 
ATOM     25  F   UNL A   1      45.796  27.593  23.975  1.00  0.00    -0.167 F 
ATOM     26  F   UNL A   1      45.024  26.079  25.341  1.00  0.00    -0.167 F 
ENDBRANCH  22  23
ENDBRANCH   9  11
ENDBRANCH   8   9
ENDBRANCH   7   8
ENDBRANCH   6   7
ENDBRANCH   5   6
ENDBRANCH   4   5
ENDBRANCH   3   4
ENDBRANCH   2   3
ENDBRANCH   1   2
BRANCH   1  27
ATOM     27  C   UNL A   1      42.723  19.607  25.743  1.00  0.00     0.188 C 
BRANCH  27  28
ATOM     28  O   UNL A   1      41.426  19.020  25.654  1.00  0.00    -0.376 OA
BRANCH  28  29
ATOM     29  C   UNL A   1      40.353  19.753  26.227  1.00  0.00     0.202 C 
BRANCH  29  30
ATOM     30  C   UNL A   1      40.488  21.274  26.094  1.00  0.00     0.261 C 
BRANCH  30  31
ATOM     31  O   UNL A   1      39.577  22.040  26.898  1.00  0.00    -0.460 OA
BRANCH  31  32
ATOM     32  C   UNL A   1      38.929  23.064  26.303  1.00  0.00     0.338 C 
ATOM     33  O   UNL A   1      37.957  22.997  25.573  1.00  0.00    -0.246 OA
BRANCH  32  34
ATOM     34  C   UNL A   1      39.487  24.315  26.855  1.00  0.00     0.060 A 
ATOM     35  C   UNL A   1      39.427  24.533  28.238  1.00  0.00     0.016 A 
ATOM     36  C   UNL A   1      40.097  25.246  26.013  1.00  0.00     0.016 A 
ATOM     37  C   UNL A   1      39.963  25.702  28.777  1.00  0.00     0.010 A 
ATOM     38  C   UNL A   1      40.618  26.423  26.553  1.00  0.00     0.010 A 
ATOM     39  C   UNL A   1      40.529  26.668  27.933  1.00  0.00    -0.014 A 
BRANCH  39  40
ATOM     40  C   UNL A   1      40.869  28.004  28.476  1.00  0.00     0.031 A 
ATOM     41  C   UNL A   1      42.317  28.405  28.527  1.00  0.00     0.074 A 
ATOM     42  C   UNL A   1      39.913  28.850  28.899  1.00  0.00     0.049 A 
ATOM     43  N   UNL A   1      42.845  29.540  28.901  1.00  0.00    -0.248 NA
ATOM     44  C   UNL A   1      43.299  27.396  28.095  1.00  0.00     0.031 C 
ATOM     45  C   UNL A   1      38.479  28.569  28.906  1.00  0.00     0.029 A 
ATOM     46  N   UNL A   1      40.011  30.118  29.415  1.00  0.00    -0.354 N 
ATOM     47  C   UNL A   1      44.217  29.383  28.751  1.00  0.00     0.074 A 
ATOM     48  C   UNL A   1      44.445  28.034  28.283  1.00  0.00     0.031 C 
ATOM     49  C   UNL A   1      37.830  29.633  29.409  1.00  0.00     0.029 A 
ATOM     50  C   UNL A   1      38.801  30.666  29.771  1.00  0.00     0.049 A 
ATOM     51  H   UNL A   1      40.868  30.592  29.521  1.00  0.00     0.167 HD
ATOM     52  C   UNL A   1      45.198  30.291  28.955  1.00  0.00     0.034 A 
ATOM     53  C   UNL A   1      38.513  31.863  30.323  1.00  0.00     0.034 A 
ATOM     54  C   UNL A   1      44.969  31.632  29.413  1.00  0.00     0.049 A 
ATOM     55  C   UNL A   1      39.630  32.843  30.585  1.00  0.00     0.074 A 
ATOM     56  C   UNL A   1      45.897  32.636  29.618  1.00  0.00     0.029 A 
ATOM     57  N   UNL A   1      43.730  32.152  29.750  1.00  0.00    -0.354 N 
ATOM     58  N   UNL A   1      40.907  32.728  30.311  1.00  0.00    -0.248 NA
ATOM     59  C   UNL A   1      39.265  34.130  31.199  1.00  0.00     0.031 C 
ATOM     60  C   UNL A   1      45.223  33.757  30.106  1.00  0.00     0.029 A 
ATOM     61  C   UNL A   1      43.869  33.461  30.175  1.00  0.00     0.049 A 
ATOM     62  H   UNL A   1      42.876  31.665  29.694  1.00  0.00     0.167 HD
ATOM     63  C   UNL A   1      41.491  33.935  30.684  1.00  0.00     0.074 A 
ATOM     64  C   UNL A   1      40.427  34.775  31.192  1.00  0.00     0.031 C 
ATOM     65  C   UNL A   1      42.793  34.309  30.620  1.00  0.00     0.034 A 
BRANCH  52  66
ATOM     66  C   UNL A   1      46.610  29.885  28.634  1.00  0.00     0.023 A 
ATOM     67  C   UNL A   1      47.152  30.215  27.374  1.00  0.00     0.012 A 
ATOM     68  C   UNL A   1      47.426  29.262  29.598  1.00  0.00     0.148 A 
ATOM     69  C   UNL A   1      48.479  29.913  27.072  1.00  0.00     0.002 A 
ATOM     70  C   UNL A   1      48.760  29.005  29.304  1.00  0.00     0.091 A 
ATOM     71  F   UNL A   1      46.883  28.938  30.780  1.00  0.00    -0.205 F 
ATOM     72  C   UNL A   1      49.284  29.321  28.040  1.00  0.00     0.022 A 
BRANCH  70  73
ATOM     73  S   UNL A   1      49.903  28.321  30.509  1.00  0.00     0.127 S 
ATOM     74  O   UNL A   1      49.364  26.973  30.693  1.00  0.00    -0.237 OA
ATOM     75  O   UNL A   1      51.175  28.375  29.788  1.00  0.00    -0.237 OA
ATOM     76  O   UNL A   1      49.826  29.187  31.676  1.00  0.00    -0.744 OA
ENDBRANCH  70  73
ENDBRANCH  52  66
BRANCH  53  77
ATOM     77  C   UNL A   1      37.093  32.231  30.596  1.00  0.00     0.023 A 
ATOM     78  C   UNL A   1      36.544  31.975  31.868  1.00  0.00     0.012 A 
ATOM     79  C   UNL A   1      36.297  32.866  29.622  1.00  0.00     0.148 A 
ATOM     80  C   UNL A   1      35.226  32.326  32.160  1.00  0.00     0.002 A 
ATOM     81  C   UNL A   1      35.002  33.263  29.937  1.00  0.00     0.091 A 
ATOM     82  F   UNL A   1      36.829  33.085  28.412  1.00  0.00    -0.205 F 
ATOM     83  C   UNL A   1      34.460  32.980  31.199  1.00  0.00     0.022 A 
BRANCH  81  84
ATOM     84  S   UNL A   1      33.983  34.223  28.811  1.00  0.00     0.127 S 
ATOM     85  O   UNL A   1      34.934  35.218  28.321  1.00  0.00    -0.237 OA
ATOM     86  O   UNL A   1      33.588  33.212  27.831  1.00  0.00    -0.237 OA
ATOM     87  O   UNL A   1      32.888  34.743  29.617  1.00  0.00    -0.744 OA
ENDBRANCH  81  84
ENDBRANCH  53  77
BRANCH  65  88
ATOM     88  C   UNL A   1      43.174  35.693  31.080  1.00  0.00     0.023 A 
ATOM     89  C   UNL A   1      43.532  35.903  32.426  1.00  0.00     0.012 A 
ATOM     90  C   UNL A   1      43.347  36.736  30.147  1.00  0.00     0.148 A 
ATOM     91  C   UNL A   1      44.053  37.130  32.836  1.00  0.00     0.002 A 
ATOM     92  C   UNL A   1      43.912  37.937  30.552  1.00  0.00     0.091 A 
ATOM     93  F   UNL A   1      42.990  36.515  28.872  1.00  0.00    -0.205 F 
ATOM     94  C   UNL A   1      44.259  38.140  31.898  1.00  0.00     0.022 A 
BRANCH  92  95
ATOM     95  S   UNL A   1      44.324  39.255  29.400  1.00  0.00     0.127 S 
ATOM     96  O   UNL A   1      44.649  40.353  30.309  1.00  0.00    -0.237 OA
ATOM     97  O   UNL A   1      45.470  38.693  28.687  1.00  0.00    -0.237 OA
ATOM     98  O   UNL A   1      43.137  39.461  28.581  1.00  0.00    -0.744 OA
ENDBRANCH  92  95
ENDBRANCH  65  88
ENDBRANCH  39  40
ENDBRANCH  32  34
ENDBRANCH  31  32
ENDBRANCH  30  31
ENDBRANCH  29  30
ENDBRANCH  28  29
ENDBRANCH  27  28
ENDBRANCH   1  27
TORSDOF 24
ENDMDL
MODEL 2
REMARK VINA RESULT:      -8.8      1.658      1.953
REMARK SMILES Cc1cc(Cl)cc2c1O[C@H](C(F)(F)F)C(C(=O)OCCOCCOCCOCCOC(=O)c1ccc(-c3c4nc(c(-c5cccc(S(=O)(=O)[O-])c5F)c5ccc([nH]5)c(-c5cccc(S(=O)(=O)[O-])c5F)c5nc(c(-c6cccc(S(=O)(=O)[O-])c6F)c6ccc3[nH]6)C=C5)C=C4)cc1)=C2
REMARK SMILES IDX 25 1 24 2 23 3 22 4 21 5 20 6 19 7 18 8 16 9 17 10 15 11
REMARK SMILES IDX 1 12 2 13 3 14 8 15 4 16 7 17 9 18 5 19 6 20 96 21 10 22
REMARK SMILES IDX 11 23 12 24 13 25 14 26 26 27 27 28 28 29 29 30 30 31 31 32
REMARK SMILES IDX 32 33 33 34 34 35 95 36 35 37 94 38 36 39 37 40 38 41 88 42
REMARK SMILES IDX 39 43 93 44 87 45 89 46 40 47 92 48 86 49 85 50 41 52 73 53
REMARK SMILES IDX 53 54 72 55 54 56 57 57 71 58 90 59 55 60 56 61 70 63 91 64
REMARK SMILES IDX 58 65 42 66 43 67 51 68 44 69 46 70 52 71 45 72 47 73 48 74
REMARK SMILES IDX 49 75 50 76 74 77 75 78 83 79 76 80 78 81 84 82 77 83 79 84
REMARK SMILES IDX 80 85 81 86 82 87 59 88 60 89 68 90 61 91 63 92 69 93 62 94
REMARK SMILES IDX 64 95 65 96 66 97 67 98
REMARK H PARENT 89 51 57 62
REMARK Flexibility Score: inf
ROOT
ATOM      1  C   UNL A   1      43.345  18.144  26.169  1.00  0.00     0.188 C 
ENDROOT
BRANCH   1   2
ATOM      2  O   UNL A   1      44.459  18.066  25.279  1.00  0.00    -0.377 OA
BRANCH   2   3
ATOM      3  C   UNL A   1      45.442  19.083  25.334  1.00  0.00     0.188 C 
BRANCH   3   4
ATOM      4  C   UNL A   1      45.255  20.184  24.273  1.00  0.00     0.188 C 
BRANCH   4   5
ATOM      5  O   UNL A   1      45.518  21.491  24.770  1.00  0.00    -0.376 OA
BRANCH   5   6
ATOM      6  C   UNL A   1      44.653  22.012  25.770  1.00  0.00     0.202 C 
BRANCH   6   7
ATOM      7  C   UNL A   1      45.217  23.029  26.775  1.00  0.00     0.261 C 
BRANCH   7   8
ATOM      8  O   UNL A   1      46.554  23.481  26.518  1.00  0.00    -0.460 OA
BRANCH   8   9
ATOM      9  C   UNL A   1      47.008  24.543  27.206  1.00  0.00     0.338 C 
ATOM     10  O   UNL A   1      46.742  24.839  28.359  1.00  0.00    -0.246 OA
BRANCH   9  11
ATOM     11  C   UNL A   1      48.050  25.199  26.383  1.00  0.00     0.087 C 
ATOM     12  C   UNL A   1      50.647  27.824  22.831  1.00  0.00     0.048 C 
ATOM     13  C   UNL A   1      50.991  27.134  24.122  1.00  0.00    -0.007 A 
ATOM     14  C   UNL A   1      52.281  27.268  24.656  1.00  0.00     0.027 A 
ATOM     15  C   UNL A   1      50.016  26.432  24.853  1.00  0.00     0.131 A 
ATOM     16  C   UNL A   1      52.595  26.684  25.881  1.00  0.00     0.042 A 
ATOM     17  C   UNL A   1      50.325  25.889  26.105  1.00  0.00     0.019 A 
ATOM     18  O   UNL A   1      48.779  26.332  24.283  1.00  0.00    -0.475 OA
ATOM     19  Cl  UNL A   1      54.184  26.847  26.522  1.00  0.00    -0.084 Cl
ATOM     20  C   UNL A   1      51.627  25.993  26.607  1.00  0.00     0.032 A 
ATOM     21  C   UNL A   1      49.281  25.270  26.905  1.00  0.00     0.027 C 
ATOM     22  C   UNL A   1      47.697  25.674  24.996  1.00  0.00     0.316 C 
BRANCH  22  23
ATOM     23  C   UNL A   1      46.495  26.628  25.000  1.00  0.00     0.430 C 
ATOM     24  F   UNL A   1      46.485  27.401  26.109  1.00  0.00    -0.167 F 
ATOM     25  F   UNL A   1      46.496  27.453  23.930  1.00  0.00    -0.167 F 
ATOM     26  F   UNL A   1      45.327  25.939  24.975  1.00  0.00    -0.167 F 
ENDBRANCH  22  23
ENDBRANCH   9  11
ENDBRANCH   8   9
ENDBRANCH   7   8
ENDBRANCH   6   7
ENDBRANCH   5   6
ENDBRANCH   4   5
ENDBRANCH   3   4
ENDBRANCH   2   3
ENDBRANCH   1   2
BRANCH   1  27
ATOM     27  C   UNL A   1      42.331  19.313  26.133  1.00  0.00     0.188 C 
BRANCH  27  28
ATOM     28  O   UNL A   1      41.018  18.949  25.712  1.00  0.00    -0.376 OA
BRANCH  28  29
ATOM     29  C   UNL A   1      39.956  19.790  26.137  1.00  0.00     0.202 C 
BRANCH  29  30
ATOM     30  C   UNL A   1      40.273  21.288  26.071  1.00  0.00     0.261 C 
BRANCH  30  31
ATOM     31  O   UNL A   1      39.547  22.107  27.001  1.00  0.00    -0.460 OA
BRANCH  31  32
ATOM     32  C   UNL A   1      38.823  23.130  26.499  1.00  0.00     0.338 C 
ATOM     33  O   UNL A   1      37.761  23.061  25.907  1.00  0.00    -0.246 OA
BRANCH  32  34
ATOM     34  C   UNL A   1      39.449  24.381  26.971  1.00  0.00     0.060 A 
ATOM     35  C   UNL A   1      39.449  24.666  28.342  1.00  0.00     0.016 A 
ATOM     36  C   UNL A   1      40.063  25.248  26.063  1.00  0.00     0.016 A 
ATOM     37  C   UNL A   1      40.050  25.836  28.806  1.00  0.00     0.010 A 
ATOM     38  C   UNL A   1      40.649  26.426  26.528  1.00  0.00     0.010 A 
ATOM     39  C   UNL A   1      40.620  26.738  27.897  1.00  0.00    -0.014 A 
BRANCH  39  40
ATOM     40  C   UNL A   1      41.032  28.083  28.363  1.00  0.00     0.031 A 
ATOM     41  C   UNL A   1      42.501  28.391  28.445  1.00  0.00     0.074 A 
ATOM     42  C   UNL A   1      40.121  29.017  28.691  1.00  0.00     0.049 A 
ATOM     43  N   UNL A   1      43.092  29.511  28.764  1.00  0.00    -0.248 NA
ATOM     44  C   UNL A   1      43.427  27.292  28.120  1.00  0.00     0.031 C 
ATOM     45  C   UNL A   1      38.673  28.832  28.659  1.00  0.00     0.029 A 
ATOM     46  N   UNL A   1      40.288  30.309  29.125  1.00  0.00    -0.354 N 
ATOM     47  C   UNL A   1      44.455  29.254  28.679  1.00  0.00     0.074 A 
ATOM     48  C   UNL A   1      44.607  27.864  28.311  1.00  0.00     0.031 C 
ATOM     49  C   UNL A   1      38.080  29.969  29.065  1.00  0.00     0.029 A 
ATOM     50  C   UNL A   1      39.106  30.959  29.395  1.00  0.00     0.049 A 
ATOM     51  H   UNL A   1      41.171  30.731  29.233  1.00  0.00     0.167 HD
ATOM     52  C   UNL A   1      45.488  30.108  28.861  1.00  0.00     0.034 A 
ATOM     53  C   UNL A   1      38.882  32.207  29.854  1.00  0.00     0.034 A 
ATOM     54  C   UNL A   1      45.335  31.489  29.219  1.00  0.00     0.049 A 
ATOM     55  C   UNL A   1      40.054  33.127  30.095  1.00  0.00     0.074 A 
ATOM     56  C   UNL A   1      46.322  32.441  29.394  1.00  0.00     0.029 A 
ATOM     57  N   UNL A   1      44.124  32.112  29.471  1.00  0.00    -0.354 N 
ATOM     58  N   UNL A   1      41.329  32.910  29.881  1.00  0.00    -0.248 NA
ATOM     59  C   UNL A   1      39.756  34.475  30.608  1.00  0.00     0.031 C 
ATOM     60  C   UNL A   1      45.709  33.635  29.779  1.00  0.00     0.029 A 
ATOM     61  C   UNL A   1      44.337  33.435  29.814  1.00  0.00     0.049 A 
ATOM     62  H   UNL A   1      43.241  31.679  29.414  1.00  0.00     0.167 HD
ATOM     63  C   UNL A   1      41.980  34.099  30.195  1.00  0.00     0.074 A 
ATOM     64  C   UNL A   1      40.959  35.040  30.604  1.00  0.00     0.031 C 
ATOM     65  C   UNL A   1      43.306  34.380  30.158  1.00  0.00     0.034 A 
BRANCH  52  66
ATOM     66  C   UNL A   1      46.879  29.588  28.624  1.00  0.00     0.023 A 
ATOM     67  C   UNL A   1      47.528  29.887  27.408  1.00  0.00     0.012 A 
ATOM     68  C   UNL A   1      47.575  28.886  29.627  1.00  0.00     0.148 A 
ATOM     69  C   UNL A   1      48.842  29.478  27.186  1.00  0.00     0.002 A 
ATOM     70  C   UNL A   1      48.899  28.522  29.415  1.00  0.00     0.091 A 
ATOM     71  F   UNL A   1      46.931  28.594  30.765  1.00  0.00    -0.205 F 
ATOM     72  C   UNL A   1      49.530  28.808  28.193  1.00  0.00     0.022 A 
BRANCH  70  73
ATOM     73  S   UNL A   1      49.900  27.728  30.678  1.00  0.00     0.127 S 
ATOM     74  O   UNL A   1      48.983  26.705  31.180  1.00  0.00    -0.237 OA
ATOM     75  O   UNL A   1      51.023  27.209  29.897  1.00  0.00    -0.237 OA
ATOM     76  O   UNL A   1      50.250  28.771  31.630  1.00  0.00    -0.744 OA
ENDBRANCH  70  73
ENDBRANCH  52  66
BRANCH  53  77
ATOM     77  C   UNL A   1      37.482  32.686  30.046  1.00  0.00     0.023 A 
ATOM     78  C   UNL A   1      36.661  32.893  28.921  1.00  0.00     0.012 A 
ATOM     79  C   UNL A   1      36.947  32.899  31.332  1.00  0.00     0.148 A 
ATOM     80  C   UNL A   1      35.341  33.321  29.070  1.00  0.00     0.002 A 
ATOM     81  C   UNL A   1      35.616  33.272  31.476  1.00  0.00     0.091 A 
ATOM     82  F   UNL A   1      37.748  32.715  32.391  1.00  0.00    -0.205 F 
ATOM     83  C   UNL A   1      34.816  33.499  30.346  1.00  0.00     0.022 A 
BRANCH  81  84
ATOM     84  S   UNL A   1      34.814  33.402  33.079  1.00  0.00     0.127 S 
ATOM     85  O   UNL A   1      34.698  34.849  33.240  1.00  0.00    -0.237 OA
ATOM     86  O   UNL A   1      33.551  32.705  32.837  1.00  0.00    -0.237 OA
ATOM     87  O   UNL A   1      35.703  32.732  34.018  1.00  0.00    -0.744 OA
ENDBRANCH  81  84
ENDBRANCH  53  77
BRANCH  65  88
ATOM     88  C   UNL A   1      43.765  35.764  30.540  1.00  0.00     0.023 A 
ATOM     89  C   UNL A   1      43.911  36.748  29.543  1.00  0.00     0.012 A 
ATOM     90  C   UNL A   1      43.878  36.131  31.897  1.00  0.00     0.148 A 
ATOM     91  C   UNL A   1      44.165  38.075  29.890  1.00  0.00     0.002 A 
ATOM     92  C   UNL A   1      44.081  37.463  32.237  1.00  0.00     0.091 A 
ATOM     93  F   UNL A   1      43.745  35.176  32.829  1.00  0.00    -0.205 F 
ATOM     94  C   UNL A   1      44.233  38.435  31.235  1.00  0.00     0.022 A 
BRANCH  92  95
ATOM     95  S   UNL A   1      44.069  38.044  33.938  1.00  0.00     0.127 S 
ATOM     96  O   UNL A   1      44.875  37.023  34.607  1.00  0.00    -0.237 OA
ATOM     97  O   UNL A   1      44.714  39.351  33.821  1.00  0.00    -0.237 OA
ATOM     98  O   UNL A   1      42.669  38.089  34.340  1.00  0.00    -0.744 OA
ENDBRANCH  92  95
ENDBRANCH  65  88
ENDBRANCH  39  40
ENDBRANCH  32  34
ENDBRANCH  31  32
ENDBRANCH  30  31
ENDBRANCH  29  30
ENDBRANCH  28  29
ENDBRANCH  27  28
ENDBRANCH   1  27
TORSDOF 24
ENDMDL
MODEL 3
REMARK VINA RESULT:      -8.5      5.869     12.443
REMARK SMILES Cc1cc(Cl)cc2c1O[C@H](C(F)(F)F)C(C(=O)OCCOCCOCCOCCOC(=O)c1ccc(-c3c4nc(c(-c5cccc(S(=O)(=O)[O-])c5F)c5ccc([nH]5)c(-c5cccc(S(=O)(=O)[O-])c5F)c5nc(c(-c6cccc(S(=O)(=O)[O-])c6F)c6ccc3[nH]6)C=C5)C=C4)cc1)=C2
REMARK SMILES IDX 25 1 24 2 23 3 22 4 21 5 20 6 19 7 18 8 16 9 17 10 15 11
REMARK SMILES IDX 1 12 2 13 3 14 8 15 4 16 7 17 9 18 5 19 6 20 96 21 10 22
REMARK SMILES IDX 11 23 12 24 13 25 14 26 26 27 27 28 28 29 29 30 30 31 31 32
REMARK SMILES IDX 32 33 33 34 34 35 95 36 35 37 94 38 36 39 37 40 38 41 88 42
REMARK SMILES IDX 39 43 93 44 87 45 89 46 40 47 92 48 86 49 85 50 41 52 73 53
REMARK SMILES IDX 53 54 72 55 54 56 57 57 71 58 90 59 55 60 56 61 70 63 91 64
REMARK SMILES IDX 58 65 42 66 43 67 51 68 44 69 46 70 52 71 45 72 47 73 48 74
REMARK SMILES IDX 49 75 50 76 74 77 75 78 83 79 76 80 78 81 84 82 77 83 79 84
REMARK SMILES IDX 80 85 81 86 82 87 59 88 60 89 68 90 61 91 63 92 69 93 62 94
REMARK SMILES IDX 64 95 65 96 66 97 67 98
REMARK H PARENT 89 51 57 62
REMARK Flexibility Score: inf
ROOT
ATOM      1  C   UNL A   1      32.268  29.871  26.152  1.00  0.00     0.188 C 
ENDROOT
BRANCH   1   2
ATOM      2  O   UNL A   1      31.983  28.550  25.690  1.00  0.00    -0.377 OA
BRANCH   2   3
ATOM      3  C   UNL A   1      31.023  28.385  24.662  1.00  0.00     0.188 C 
BRANCH   3   4
ATOM      4  C   UNL A   1      31.618  28.441  23.243  1.00  0.00     0.188 C 
BRANCH   4   5
ATOM      5  O   UNL A   1      31.163  27.387  22.402  1.00  0.00    -0.376 OA
BRANCH   5   6
ATOM      6  C   UNL A   1      31.657  26.078  22.646  1.00  0.00     0.202 C 
BRANCH   6   7
ATOM      7  C   UNL A   1      30.746  25.069  23.364  1.00  0.00     0.261 C 
BRANCH   7   8
ATOM      8  O   UNL A   1      31.262  23.735  23.476  1.00  0.00    -0.460 OA
BRANCH   8   9
ATOM      9  C   UNL A   1      31.358  23.193  24.703  1.00  0.00     0.338 C 
ATOM     10  O   UNL A   1      30.568  23.315  25.623  1.00  0.00    -0.246 OA
BRANCH   9  11
ATOM     11  C   UNL A   1      32.503  22.253  24.689  1.00  0.00     0.087 C 
ATOM     12  C   UNL A   1      37.111  20.037  25.026  1.00  0.00     0.048 C 
ATOM     13  C   UNL A   1      35.711  19.566  24.746  1.00  0.00    -0.007 A 
ATOM     14  C   UNL A   1      35.447  18.192  24.653  1.00  0.00     0.027 A 
ATOM     15  C   UNL A   1      34.640  20.475  24.667  1.00  0.00     0.131 A 
ATOM     16  C   UNL A   1      34.144  17.740  24.454  1.00  0.00     0.042 A 
ATOM     17  C   UNL A   1      33.329  20.013  24.514  1.00  0.00     0.019 A 
ATOM     18  O   UNL A   1      34.956  21.800  24.761  1.00  0.00    -0.475 OA
ATOM     19  Cl  UNL A   1      33.836  16.051  24.332  1.00  0.00    -0.084 Cl
ATOM     20  C   UNL A   1      33.085  18.642  24.381  1.00  0.00     0.032 A 
ATOM     21  C   UNL A   1      32.219  20.952  24.554  1.00  0.00     0.027 C 
ATOM     22  C   UNL A   1      33.905  22.805  24.747  1.00  0.00     0.316 C 
BRANCH  22  23
ATOM     23  C   UNL A   1      34.118  23.716  25.965  1.00  0.00     0.430 C 
ATOM     24  F   UNL A   1      33.676  24.970  25.721  1.00  0.00    -0.167 F 
ATOM     25  F   UNL A   1      33.470  23.263  27.060  1.00  0.00    -0.167 F 
ATOM     26  F   UNL A   1      35.434  23.803  26.283  1.00  0.00    -0.167 F 
ENDBRANCH  22  23
ENDBRANCH   9  11
ENDBRANCH   8   9
ENDBRANCH   7   8
ENDBRANCH   6   7
ENDBRANCH   5   6
ENDBRANCH   4   5
ENDBRANCH   3   4
ENDBRANCH   2   3
ENDBRANCH   1   2
BRANCH   1  27
ATOM     27  C   UNL A   1      33.468  30.188  27.076  1.00  0.00     0.188 C 
BRANCH  27  28
ATOM     28  O   UNL A   1      33.432  31.481  27.676  1.00  0.00    -0.376 OA
BRANCH  28  29
ATOM     29  C   UNL A   1      32.692  32.482  26.991  1.00  0.00     0.202 C 
BRANCH  29  30
ATOM     30  C   UNL A   1      32.525  33.789  27.774  1.00  0.00     0.261 C 
BRANCH  30  31
ATOM     31  O   UNL A   1      33.746  34.374  28.251  1.00  0.00    -0.460 OA
BRANCH  31  32
ATOM     32  C   UNL A   1      33.967  34.360  29.583  1.00  0.00     0.338 C 
ATOM     33  O   UNL A   1      33.230  34.779  30.457  1.00  0.00    -0.246 OA
BRANCH  32  34
ATOM     34  C   UNL A   1      35.185  33.558  29.816  1.00  0.00     0.060 A 
ATOM     35  C   UNL A   1      35.105  32.422  30.632  1.00  0.00     0.016 A 
ATOM     36  C   UNL A   1      36.388  33.909  29.200  1.00  0.00     0.016 A 
ATOM     37  C   UNL A   1      36.242  31.645  30.850  1.00  0.00     0.010 A 
ATOM     38  C   UNL A   1      37.528  33.139  29.433  1.00  0.00     0.010 A 
ATOM     39  C   UNL A   1      37.466  32.021  30.280  1.00  0.00    -0.014 A 
BRANCH  39  40
ATOM     40  C   UNL A   1      38.711  31.342  30.709  1.00  0.00     0.031 A 
ATOM     41  C   UNL A   1      39.343  31.764  32.007  1.00  0.00     0.074 A 
ATOM     42  C   UNL A   1      39.261  30.360  29.972  1.00  0.00     0.049 A 
ATOM     43  N   UNL A   1      40.392  31.274  32.611  1.00  0.00    -0.248 NA
ATOM     44  C   UNL A   1      38.705  32.884  32.719  1.00  0.00     0.031 C 
ATOM     45  C   UNL A   1      38.744  29.871  28.696  1.00  0.00     0.029 A 
ATOM     46  N   UNL A   1      40.385  29.603  30.194  1.00  0.00    -0.354 N 
ATOM     47  C   UNL A   1      40.541  32.022  33.771  1.00  0.00     0.074 A 
ATOM     48  C   UNL A   1      39.496  33.021  33.774  1.00  0.00     0.031 C 
ATOM     49  C   UNL A   1      39.555  28.900  28.242  1.00  0.00     0.029 A 
ATOM     50  C   UNL A   1      40.653  28.704  29.189  1.00  0.00     0.049 A 
ATOM     51  H   UNL A   1      40.947  29.696  30.998  1.00  0.00     0.167 HD
ATOM     52  C   UNL A   1      41.448  31.871  34.763  1.00  0.00     0.034 A 
ATOM     53  C   UNL A   1      41.668  27.825  29.052  1.00  0.00     0.034 A 
ATOM     54  C   UNL A   1      42.480  30.874  34.762  1.00  0.00     0.049 A 
ATOM     55  C   UNL A   1      42.696  27.707  30.151  1.00  0.00     0.074 A 
ATOM     56  C   UNL A   1      43.427  30.622  35.738  1.00  0.00     0.029 A 
ATOM     57  N   UNL A   1      42.712  29.975  33.734  1.00  0.00    -0.354 N 
ATOM     58  N   UNL A   1      42.744  28.329  31.303  1.00  0.00    -0.248 NA
ATOM     59  C   UNL A   1      43.789  26.742  29.947  1.00  0.00     0.031 C 
ATOM     60  C   UNL A   1      44.249  29.587  35.288  1.00  0.00     0.029 A 
ATOM     61  C   UNL A   1      43.795  29.174  34.044  1.00  0.00     0.049 A 
ATOM     62  H   UNL A   1      42.183  29.914  32.905  1.00  0.00     0.167 HD
ATOM     63  C   UNL A   1      43.846  27.809  31.976  1.00  0.00     0.074 A 
ATOM     64  C   UNL A   1      44.431  26.809  31.108  1.00  0.00     0.031 C 
ATOM     65  C   UNL A   1      44.331  28.138  33.198  1.00  0.00     0.034 A 
BRANCH  52  66
ATOM     66  C   UNL A   1      41.336  32.772  35.962  1.00  0.00     0.023 A 
ATOM     67  C   UNL A   1      40.497  32.394  37.030  1.00  0.00     0.012 A 
ATOM     68  C   UNL A   1      42.119  33.937  36.073  1.00  0.00     0.148 A 
ATOM     69  C   UNL A   1      40.423  33.173  38.184  1.00  0.00     0.002 A 
ATOM     70  C   UNL A   1      42.074  34.684  37.244  1.00  0.00     0.091 A 
ATOM     71  F   UNL A   1      42.892  34.288  35.036  1.00  0.00    -0.205 F 
ATOM     72  C   UNL A   1      41.221  34.309  38.296  1.00  0.00     0.022 A 
BRANCH  70  73
ATOM     73  S   UNL A   1      43.121  36.117  37.521  1.00  0.00     0.127 S 
ATOM     74  O   UNL A   1      42.743  36.498  38.882  1.00  0.00    -0.237 OA
ATOM     75  O   UNL A   1      44.461  35.544  37.399  1.00  0.00    -0.237 OA
ATOM     76  O   UNL A   1      42.771  37.078  36.486  1.00  0.00    -0.744 OA
ENDBRANCH  70  73
ENDBRANCH  52  66
BRANCH  53  77
ATOM     77  C   UNL A   1      41.719  26.932  27.857  1.00  0.00     0.023 A 
ATOM     78  C   UNL A   1      42.101  27.466  26.611  1.00  0.00     0.012 A 
ATOM     79  C   UNL A   1      41.432  25.557  27.954  1.00  0.00     0.148 A 
ATOM     80  C   UNL A   1      42.178  26.652  25.480  1.00  0.00     0.002 A 
ATOM     81  C   UNL A   1      41.564  24.741  26.836  1.00  0.00     0.091 A 
ATOM     82  F   UNL A   1      41.052  25.070  29.144  1.00  0.00    -0.205 F 
ATOM     83  C   UNL A   1      41.921  25.289  25.595  1.00  0.00     0.022 A 
BRANCH  81  84
ATOM     84  S   UNL A   1      41.379  22.955  26.913  1.00  0.00     0.127 S 
ATOM     85  O   UNL A   1      42.473  22.579  27.805  1.00  0.00    -0.237 OA
ATOM     86  O   UNL A   1      40.041  22.819  27.487  1.00  0.00    -0.237 OA
ATOM     87  O   UNL A   1      41.498  22.487  25.539  1.00  0.00    -0.744 OA
ENDBRANCH  81  84
ENDBRANCH  53  77
BRANCH  65  88
ATOM     88  C   UNL A   1      45.547  27.411  33.716  1.00  0.00     0.023 A 
ATOM     89  C   UNL A   1      46.818  28.004  33.587  1.00  0.00     0.012 A 
ATOM     90  C   UNL A   1      45.405  26.234  34.480  1.00  0.00     0.148 A 
ATOM     91  C   UNL A   1      47.930  27.434  34.208  1.00  0.00     0.002 A 
ATOM     92  C   UNL A   1      46.507  25.702  35.136  1.00  0.00     0.091 A 
ATOM     93  F   UNL A   1      44.186  25.683  34.581  1.00  0.00    -0.205 F 
ATOM     94  C   UNL A   1      47.772  26.296  34.995  1.00  0.00     0.022 A 
BRANCH  92  95
ATOM     95  S   UNL A   1      46.386  24.308  36.264  1.00  0.00     0.127 S 
ATOM     96  O   UNL A   1      47.754  24.216  36.773  1.00  0.00    -0.237 OA
ATOM     97  O   UNL A   1      45.404  24.785  37.238  1.00  0.00    -0.237 OA
ATOM     98  O   UNL A   1      45.947  23.174  35.462  1.00  0.00    -0.744 OA
ENDBRANCH  92  95
ENDBRANCH  65  88
ENDBRANCH  39  40
ENDBRANCH  32  34
ENDBRANCH  31  32
ENDBRANCH  30  31
ENDBRANCH  29  30
ENDBRANCH  28  29
ENDBRANCH  27  28
ENDBRANCH   1  27
TORSDOF 24
ENDMDL
