MODEL 1
REMARK VINA RESULT:      -7.5      0.000      0.000
REMARK SMILES Cc1ccc2oc(C(=O)N[C@@H]3C=C[C@H](C(=O)OCCOCCOCCOCCOC(=O)c4ccc(-c5c6nc(c(-c7cccc(S(=O)(=O)[O-])c7F)c7ccc([nH]7)c(-c7cccc(S(=O)(=O)[O-])c7F)c7nc(c(-c8cccc(S(=O)(=O)[O-])c8F)c8ccc5[nH]8)C=C7)C=C6)cc4)C3)cc2c1
REMARK SMILES IDX 24 1 23 2 22 3 21 4 20 5 19 6 18 7 17 8 15 9 16 10 14 11
REMARK SMILES IDX 11 12 12 13 95 14 13 15 10 16 8 17 9 18 7 20 1 21 2 22 3 23
REMARK SMILES IDX 98 24 4 25 97 26 5 27 96 28 6 29 25 30 26 31 27 32 28 33
REMARK SMILES IDX 29 34 30 35 31 36 32 37 33 38 94 39 34 40 93 41 35 42 36 43
REMARK SMILES IDX 37 44 87 45 38 46 92 47 86 48 88 49 39 50 91 51 85 52 84 53
REMARK SMILES IDX 40 55 72 56 52 57 71 58 53 59 56 60 70 61 89 62 54 63 55 64
REMARK SMILES IDX 69 66 90 67 57 68 41 69 42 70 50 71 43 72 45 73 51 74 44 75
REMARK SMILES IDX 46 76 47 77 48 78 49 79 73 80 74 81 82 82 75 83 77 84 83 85
REMARK SMILES IDX 76 86 78 87 79 88 80 89 81 90 58 91 59 92 67 93 60 94 62 95
REMARK SMILES IDX 68 96 61 97 63 98 64 99 65 100 66 101
REMARK H PARENT 10 19 88 54 56 65
REMARK Flexibility Score: inf
ROOT
ATOM      1  C   UNL A   1      51.349  22.576  33.457  1.00  0.00     0.188 C 
ENDROOT
BRANCH   1   2
ATOM      2  O   UNL A   1      51.209  23.975  33.247  1.00  0.00    -0.377 OA
BRANCH   2   3
ATOM      3  C   UNL A   1      50.113  24.407  32.470  1.00  0.00     0.188 C 
BRANCH   3   4
ATOM      4  C   UNL A   1      50.521  24.922  31.081  1.00  0.00     0.188 C 
BRANCH   4   5
ATOM      5  O   UNL A   1      49.434  25.282  30.250  1.00  0.00    -0.376 OA
BRANCH   5   6
ATOM      6  C   UNL A   1      49.584  25.520  28.856  1.00  0.00     0.202 C 
BRANCH   6   7
ATOM      7  C   UNL A   1      48.872  24.758  27.708  1.00  0.00     0.261 C 
BRANCH   7   8
ATOM      8  O   UNL A   1      47.652  25.296  27.185  1.00  0.00    -0.463 OA
BRANCH   8   9
ATOM      9  C   UNL A   1      46.672  24.387  26.999  1.00  0.00     0.312 C 
ATOM     10  O   UNL A   1      46.105  23.813  27.922  1.00  0.00    -0.252 OA
BRANCH   9  11
ATOM     11  C   UNL A   1      46.182  24.380  25.540  1.00  0.00     0.124 C 
ATOM     12  C   UNL A   1      43.781  24.156  25.580  1.00  0.00     0.106 C 
ATOM     13  C   UNL A   1      44.398  23.037  24.833  1.00  0.00    -0.006 C 
ATOM     14  C   UNL A   1      44.893  25.207  25.491  1.00  0.00     0.048 C 
ATOM     15  C   UNL A   1      45.736  23.136  24.845  1.00  0.00    -0.014 C 
BRANCH  12  16
ATOM     16  N   UNL A   1      43.315  23.801  26.926  1.00  0.00    -0.343 N 
ATOM     17  C   UNL A   1      42.389  24.207  27.882  1.00  0.00     0.287 C 
ATOM     18  O   UNL A   1      42.216  23.377  28.785  1.00  0.00    -0.266 OA
ATOM     19  H   UNL A   1      43.821  23.026  27.261  1.00  0.00     0.164 HD
BRANCH  17  20
ATOM     20  C   UNL A   1      41.675  25.477  27.853  1.00  0.00     0.192 A 
ATOM     21  C   UNL A   1      37.914  29.906  29.335  1.00  0.00     0.044 C 
ATOM     22  C   UNL A   1      39.138  29.144  28.900  1.00  0.00    -0.050 A 
ATOM     23  C   UNL A   1      40.422  29.704  29.009  1.00  0.00     0.007 A 
ATOM     24  C   UNL A   1      38.994  27.833  28.428  1.00  0.00     0.015 A 
ATOM     25  C   UNL A   1      41.585  28.947  28.767  1.00  0.00     0.048 A 
ATOM     26  C   UNL A   1      40.143  27.096  28.109  1.00  0.00     0.021 A 
ATOM     27  C   UNL A   1      41.394  27.622  28.381  1.00  0.00     0.135 A 
ATOM     28  C   UNL A   1      40.397  25.852  27.500  1.00  0.00     0.065 A 
ATOM     29  O   UNL A   1      42.340  26.639  28.237  1.00  0.00    -0.451 OA
ENDBRANCH  17  20
ENDBRANCH  12  16
ENDBRANCH   9  11
ENDBRANCH   8   9
ENDBRANCH   7   8
ENDBRANCH   6   7
ENDBRANCH   5   6
ENDBRANCH   4   5
ENDBRANCH   3   4
ENDBRANCH   2   3
ENDBRANCH   1   2
BRANCH   1  30
ATOM     30  C   UNL A   1      51.056  21.935  34.839  1.00  0.00     0.188 C 
BRANCH  30  31
ATOM     31  O   UNL A   1      50.119  20.866  34.844  1.00  0.00    -0.376 OA
BRANCH  31  32
ATOM     32  C   UNL A   1      48.920  20.971  34.095  1.00  0.00     0.202 C 
BRANCH  32  33
ATOM     33  C   UNL A   1      47.649  21.460  34.809  1.00  0.00     0.261 C 
BRANCH  33  34
ATOM     34  O   UNL A   1      46.935  22.524  34.173  1.00  0.00    -0.460 OA
BRANCH  34  35
ATOM     35  C   UNL A   1      45.587  22.481  34.221  1.00  0.00     0.338 C 
ATOM     36  O   UNL A   1      44.901  21.613  34.740  1.00  0.00    -0.246 OA
BRANCH  35  37
ATOM     37  C   UNL A   1      45.076  23.774  33.726  1.00  0.00     0.060 A 
ATOM     38  C   UNL A   1      44.471  23.824  32.463  1.00  0.00     0.016 A 
ATOM     39  C   UNL A   1      45.163  24.923  34.517  1.00  0.00     0.016 A 
ATOM     40  C   UNL A   1      43.994  25.034  31.964  1.00  0.00     0.010 A 
ATOM     41  C   UNL A   1      44.711  26.140  34.004  1.00  0.00     0.010 A 
ATOM     42  C   UNL A   1      44.165  26.205  32.709  1.00  0.00    -0.014 A 
BRANCH  42  43
ATOM     43  C   UNL A   1      43.994  27.518  32.048  1.00  0.00     0.031 A 
ATOM     44  C   UNL A   1      44.924  27.865  30.918  1.00  0.00     0.074 A 
ATOM     45  C   UNL A   1      43.039  28.382  32.433  1.00  0.00     0.049 A 
ATOM     46  N   UNL A   1      44.993  28.956  30.204  1.00  0.00    -0.248 NA
ATOM     47  C   UNL A   1      45.913  26.838  30.547  1.00  0.00     0.031 C 
ATOM     48  C   UNL A   1      42.062  28.146  33.493  1.00  0.00     0.029 A 
ATOM     49  N   UNL A   1      42.752  29.645  31.980  1.00  0.00    -0.354 N 
ATOM     50  C   UNL A   1      46.059  28.766  29.331  1.00  0.00     0.074 A 
ATOM     51  C   UNL A   1      46.609  27.458  29.609  1.00  0.00     0.031 C 
ATOM     52  C   UNL A   1      41.291  29.241  33.622  1.00  0.00     0.029 A 
ATOM     53  C   UNL A   1      41.742  30.262  32.678  1.00  0.00     0.049 A 
ATOM     54  H   UNL A   1      43.225  30.068  31.227  1.00  0.00     0.167 HD
ATOM     55  C   UNL A   1      46.533  29.603  28.380  1.00  0.00     0.034 A 
ATOM     56  C   UNL A   1      41.256  31.515  32.574  1.00  0.00     0.034 A 
ATOM     57  C   UNL A   1      45.976  30.898  28.101  1.00  0.00     0.049 A 
ATOM     58  C   UNL A   1      41.832  32.447  31.538  1.00  0.00     0.074 A 
ATOM     59  C   UNL A   1      46.346  31.800  27.121  1.00  0.00     0.029 A 
ATOM     60  N   UNL A   1      44.949  31.488  28.823  1.00  0.00    -0.354 N 
ATOM     61  N   UNL A   1      42.763  32.215  30.643  1.00  0.00    -0.248 NA
ATOM     62  C   UNL A   1      41.271  33.804  31.480  1.00  0.00     0.031 C 
ATOM     63  C   UNL A   1      45.578  32.958  27.283  1.00  0.00     0.029 A 
ATOM     64  C   UNL A   1      44.691  32.755  28.329  1.00  0.00     0.049 A 
ATOM     65  H   UNL A   1      44.474  31.068  29.575  1.00  0.00     0.167 HD
ATOM     66  C   UNL A   1      42.866  33.380  29.887  1.00  0.00     0.074 A 
ATOM     67  C   UNL A   1      41.894  34.311  30.425  1.00  0.00     0.031 C 
ATOM     68  C   UNL A   1      43.692  33.656  28.846  1.00  0.00     0.034 A 
BRANCH  55  69
ATOM     69  C   UNL A   1      47.729  29.145  27.586  1.00  0.00     0.023 A 
ATOM     70  C   UNL A   1      49.030  29.289  28.113  1.00  0.00     0.012 A 
ATOM     71  C   UNL A   1      47.559  28.554  26.319  1.00  0.00     0.148 A 
ATOM     72  C   UNL A   1      50.143  28.896  27.370  1.00  0.00     0.002 A 
ATOM     73  C   UNL A   1      48.670  28.117  25.608  1.00  0.00     0.091 A 
ATOM     74  F   UNL A   1      46.318  28.449  25.823  1.00  0.00    -0.205 F 
ATOM     75  C   UNL A   1      49.962  28.302  26.124  1.00  0.00     0.022 A 
BRANCH  73  76
ATOM     76  S   UNL A   1      48.531  27.266  24.034  1.00  0.00     0.127 S 
ATOM     77  O   UNL A   1      49.350  28.113  23.168  1.00  0.00    -0.237 OA
ATOM     78  O   UNL A   1      49.118  25.960  24.339  1.00  0.00    -0.237 OA
ATOM     79  O   UNL A   1      47.110  27.234  23.717  1.00  0.00    -0.744 OA
ENDBRANCH  73  76
ENDBRANCH  55  69
BRANCH  56  80
ATOM     80  C   UNL A   1      40.131  31.952  33.449  1.00  0.00     0.023 A 
ATOM     81  C   UNL A   1      40.388  32.266  34.798  1.00  0.00     0.012 A 
ATOM     82  C   UNL A   1      38.819  32.079  32.952  1.00  0.00     0.148 A 
ATOM     83  C   UNL A   1      39.354  32.667  35.644  1.00  0.00     0.002 A 
ATOM     84  C   UNL A   1      37.805  32.536  33.785  1.00  0.00     0.091 A 
ATOM     85  F   UNL A   1      38.594  31.764  31.668  1.00  0.00    -0.205 F 
ATOM     86  C   UNL A   1      38.066  32.812  35.136  1.00  0.00     0.022 A 
BRANCH  84  87
ATOM     87  S   UNL A   1      36.144  32.879  33.191  1.00  0.00     0.127 S 
ATOM     88  O   UNL A   1      35.764  31.595  32.607  1.00  0.00    -0.237 OA
ATOM     89  O   UNL A   1      35.451  33.225  34.432  1.00  0.00    -0.237 OA
ATOM     90  O   UNL A   1      36.277  33.981  32.248  1.00  0.00    -0.744 OA
ENDBRANCH  84  87
ENDBRANCH  56  80
BRANCH  68  91
ATOM     91  C   UNL A   1      43.555  35.000  28.174  1.00  0.00     0.023 A 
ATOM     92  C   UNL A   1      42.690  35.158  27.072  1.00  0.00     0.012 A 
ATOM     93  C   UNL A   1      44.229  36.125  28.689  1.00  0.00     0.148 A 
ATOM     94  C   UNL A   1      42.530  36.407  26.471  1.00  0.00     0.002 A 
ATOM     95  C   UNL A   1      44.021  37.376  28.121  1.00  0.00     0.091 A 
ATOM     96  F   UNL A   1      45.058  35.953  29.729  1.00  0.00    -0.205 F 
ATOM     97  C   UNL A   1      43.185  37.517  27.002  1.00  0.00     0.022 A 
BRANCH  95  98
ATOM     98  S   UNL A   1      44.740  38.876  28.800  1.00  0.00     0.127 S 
ATOM     99  O   UNL A   1      44.289  39.883  27.841  1.00  0.00    -0.237 OA
ATOM    100  O   UNL A   1      44.100  38.957  30.114  1.00  0.00    -0.237 OA
ATOM    101  O   UNL A   1      46.178  38.652  28.840  1.00  0.00    -0.744 OA
ENDBRANCH  95  98
ENDBRANCH  68  91
ENDBRANCH  42  43
ENDBRANCH  35  37
ENDBRANCH  34  35
ENDBRANCH  33  34
ENDBRANCH  32  33
ENDBRANCH  31  32
ENDBRANCH  30  31
ENDBRANCH   1  30
TORSDOF 25
ENDMDL
MODEL 2
REMARK VINA RESULT:      -7.4      6.100      9.325
REMARK SMILES Cc1ccc2oc(C(=O)N[C@@H]3C=C[C@H](C(=O)OCCOCCOCCOCCOC(=O)c4ccc(-c5c6nc(c(-c7cccc(S(=O)(=O)[O-])c7F)c7ccc([nH]7)c(-c7cccc(S(=O)(=O)[O-])c7F)c7nc(c(-c8cccc(S(=O)(=O)[O-])c8F)c8ccc5[nH]8)C=C7)C=C6)cc4)C3)cc2c1
REMARK SMILES IDX 24 1 23 2 22 3 21 4 20 5 19 6 18 7 17 8 15 9 16 10 14 11
REMARK SMILES IDX 11 12 12 13 95 14 13 15 10 16 8 17 9 18 7 20 1 21 2 22 3 23
REMARK SMILES IDX 98 24 4 25 97 26 5 27 96 28 6 29 25 30 26 31 27 32 28 33
REMARK SMILES IDX 29 34 30 35 31 36 32 37 33 38 94 39 34 40 93 41 35 42 36 43
REMARK SMILES IDX 37 44 87 45 38 46 92 47 86 48 88 49 39 50 91 51 85 52 84 53
REMARK SMILES IDX 40 55 72 56 52 57 71 58 53 59 56 60 70 61 89 62 54 63 55 64
REMARK SMILES IDX 69 66 90 67 57 68 41 69 42 70 50 71 43 72 45 73 51 74 44 75
REMARK SMILES IDX 46 76 47 77 48 78 49 79 73 80 74 81 82 82 75 83 77 84 83 85
REMARK SMILES IDX 76 86 78 87 79 88 80 89 81 90 58 91 59 92 67 93 60 94 62 95
REMARK SMILES IDX 68 96 61 97 63 98 64 99 65 100 66 101
REMARK H PARENT 10 19 88 54 56 65
REMARK Flexibility Score: inf
ROOT
ATOM      1  C   UNL A   1      40.501  24.238  26.528  1.00  0.00     0.188 C 
ENDROOT
BRANCH   1   2
ATOM      2  O   UNL A   1      40.593  22.838  26.294  1.00  0.00    -0.377 OA
BRANCH   2   3
ATOM      3  C   UNL A   1      39.477  22.049  26.643  1.00  0.00     0.188 C 
BRANCH   3   4
ATOM      4  C   UNL A   1      38.415  21.978  25.534  1.00  0.00     0.188 C 
BRANCH   4   5
ATOM      5  O   UNL A   1      37.164  21.471  25.956  1.00  0.00    -0.376 OA
BRANCH   5   6
ATOM      6  C   UNL A   1      35.978  21.623  25.186  1.00  0.00     0.202 C 
BRANCH   6   7
ATOM      7  C   UNL A   1      34.527  21.354  25.664  1.00  0.00     0.261 C 
BRANCH   7   8
ATOM      8  O   UNL A   1      33.498  22.269  25.269  1.00  0.00    -0.463 OA
BRANCH   8   9
ATOM      9  C   UNL A   1      33.051  23.072  26.257  1.00  0.00     0.312 C 
ATOM     10  O   UNL A   1      33.796  23.688  27.011  1.00  0.00    -0.252 OA
BRANCH   9  11
ATOM     11  C   UNL A   1      31.539  23.326  26.132  1.00  0.00     0.124 C 
ATOM     12  C   UNL A   1      31.075  23.830  23.820  1.00  0.00     0.106 C 
ATOM     13  C   UNL A   1      30.665  24.955  24.691  1.00  0.00    -0.006 C 
ATOM     14  C   UNL A   1      31.076  22.674  24.824  1.00  0.00     0.048 C 
ATOM     15  C   UNL A   1      30.961  24.694  25.974  1.00  0.00    -0.014 C 
BRANCH  12  16
ATOM     16  N   UNL A   1      32.321  24.061  23.079  1.00  0.00    -0.343 N 
ATOM     17  C   UNL A   1      33.394  24.947  23.034  1.00  0.00     0.287 C 
ATOM     18  O   UNL A   1      34.349  24.531  22.365  1.00  0.00    -0.266 OA
ATOM     19  H   UNL A   1      32.435  23.366  22.393  1.00  0.00     0.164 HD
BRANCH  17  20
ATOM     20  C   UNL A   1      33.422  26.244  23.699  1.00  0.00     0.192 A 
ATOM     21  C   UNL A   1      31.609  31.199  26.547  1.00  0.00     0.044 C 
ATOM     22  C   UNL A   1      32.393  29.980  26.141  1.00  0.00    -0.050 A 
ATOM     23  C   UNL A   1      33.261  29.338  27.041  1.00  0.00     0.007 A 
ATOM     24  C   UNL A   1      32.212  29.447  24.858  1.00  0.00     0.015 A 
ATOM     25  C   UNL A   1      33.869  28.105  26.735  1.00  0.00     0.048 A 
ATOM     26  C   UNL A   1      32.877  28.261  24.515  1.00  0.00     0.021 A 
ATOM     27  C   UNL A   1      33.592  27.572  25.478  1.00  0.00     0.135 A 
ATOM     28  C   UNL A   1      33.053  27.519  23.331  1.00  0.00     0.065 A 
ATOM     29  O   UNL A   1      33.925  26.331  24.995  1.00  0.00    -0.451 OA
ENDBRANCH  17  20
ENDBRANCH  12  16
ENDBRANCH   9  11
ENDBRANCH   8   9
ENDBRANCH   7   8
ENDBRANCH   6   7
ENDBRANCH   5   6
ENDBRANCH   4   5
ENDBRANCH   3   4
ENDBRANCH   2   3
ENDBRANCH   1   2
BRANCH   1  30
ATOM     30  C   UNL A   1      40.152  24.800  27.930  1.00  0.00     0.188 C 
BRANCH  30  31
ATOM     31  O   UNL A   1      39.936  26.204  28.003  1.00  0.00    -0.376 OA
BRANCH  31  32
ATOM     32  C   UNL A   1      38.937  26.723  28.864  1.00  0.00     0.202 C 
BRANCH  32  33
ATOM     33  C   UNL A   1      39.346  27.165  30.279  1.00  0.00     0.261 C 
BRANCH  33  34
ATOM     34  O   UNL A   1      38.428  28.023  30.964  1.00  0.00    -0.460 OA
BRANCH  34  35
ATOM     35  C   UNL A   1      38.446  27.998  32.313  1.00  0.00     0.338 C 
ATOM     36  O   UNL A   1      38.148  27.056  33.032  1.00  0.00    -0.246 OA
BRANCH  35  37
ATOM     37  C   UNL A   1      39.095  29.240  32.778  1.00  0.00     0.060 A 
ATOM     38  C   UNL A   1      38.343  30.422  32.820  1.00  0.00     0.016 A 
ATOM     39  C   UNL A   1      40.427  29.230  33.202  1.00  0.00     0.016 A 
ATOM     40  C   UNL A   1      38.935  31.611  33.240  1.00  0.00     0.010 A 
ATOM     41  C   UNL A   1      41.026  30.428  33.595  1.00  0.00     0.010 A 
ATOM     42  C   UNL A   1      40.294  31.628  33.573  1.00  0.00    -0.014 A 
BRANCH  42  43
ATOM     43  C   UNL A   1      41.003  32.924  33.668  1.00  0.00     0.031 A 
ATOM     44  C   UNL A   1      41.510  33.545  32.396  1.00  0.00     0.074 A 
ATOM     45  C   UNL A   1      41.190  33.540  34.848  1.00  0.00     0.049 A 
ATOM     46  N   UNL A   1      42.180  34.652  32.221  1.00  0.00    -0.248 NA
ATOM     47  C   UNL A   1      41.223  32.811  31.151  1.00  0.00     0.031 C 
ATOM     48  C   UNL A   1      40.718  33.053  36.142  1.00  0.00     0.029 A 
ATOM     49  N   UNL A   1      41.848  34.707  35.143  1.00  0.00    -0.354 N 
ATOM     50  C   UNL A   1      42.434  34.726  30.857  1.00  0.00     0.074 A 
ATOM     51  C   UNL A   1      41.851  33.550  30.251  1.00  0.00     0.031 C 
ATOM     52  C   UNL A   1      41.119  33.909  37.099  1.00  0.00     0.029 A 
ATOM     53  C   UNL A   1      41.902  34.982  36.488  1.00  0.00     0.049 A 
ATOM     54  H   UNL A   1      42.243  35.292  34.457  1.00  0.00     0.167 HD
ATOM     55  C   UNL A   1      43.089  35.689  30.168  1.00  0.00     0.034 A 
ATOM     56  C   UNL A   1      42.529  35.977  37.146  1.00  0.00     0.034 A 
ATOM     57  C   UNL A   1      43.658  36.861  30.773  1.00  0.00     0.049 A 
ATOM     58  C   UNL A   1      43.293  37.014  36.361  1.00  0.00     0.074 A 
ATOM     59  C   UNL A   1      44.292  37.925  30.158  1.00  0.00     0.029 A 
ATOM     60  N   UNL A   1      43.687  37.110  32.137  1.00  0.00    -0.354 N 
ATOM     61  N   UNL A   1      43.429  37.134  35.062  1.00  0.00    -0.248 NA
ATOM     62  C   UNL A   1      43.967  38.068  37.134  1.00  0.00     0.031 C 
ATOM     63  C   UNL A   1      44.751  38.792  31.155  1.00  0.00     0.029 A 
ATOM     64  C   UNL A   1      44.355  38.296  32.387  1.00  0.00     0.049 A 
ATOM     65  H   UNL A   1      43.293  36.529  32.826  1.00  0.00     0.167 HD
ATOM     66  C   UNL A   1      44.164  38.299  34.859  1.00  0.00     0.074 A 
ATOM     67  C   UNL A   1      44.433  38.853  36.172  1.00  0.00     0.031 C 
ATOM     68  C   UNL A   1      44.580  38.858  33.696  1.00  0.00     0.034 A 
BRANCH  55  69
ATOM     69  C   UNL A   1      43.240  35.498  28.681  1.00  0.00     0.023 A 
ATOM     70  C   UNL A   1      42.406  36.198  27.784  1.00  0.00     0.012 A 
ATOM     71  C   UNL A   1      44.225  34.629  28.171  1.00  0.00     0.148 A 
ATOM     72  C   UNL A   1      42.519  36.000  26.409  1.00  0.00     0.002 A 
ATOM     73  C   UNL A   1      44.366  34.478  26.798  1.00  0.00     0.091 A 
ATOM     74  F   UNL A   1      44.992  33.952  29.038  1.00  0.00    -0.205 F 
ATOM     75  C   UNL A   1      43.504  35.149  25.916  1.00  0.00     0.022 A 
BRANCH  73  76
ATOM     76  S   UNL A   1      45.660  33.469  26.068  1.00  0.00     0.127 S 
ATOM     77  O   UNL A   1      46.606  34.487  25.614  1.00  0.00    -0.237 OA
ATOM     78  O   UNL A   1      46.116  32.680  27.213  1.00  0.00    -0.237 OA
ATOM     79  O   UNL A   1      45.019  32.695  25.014  1.00  0.00    -0.744 OA
ENDBRANCH  73  76
ENDBRANCH  55  69
BRANCH  56  80
ATOM     80  C   UNL A   1      42.426  36.070  38.631  1.00  0.00     0.023 A 
ATOM     81  C   UNL A   1      43.410  35.454  39.430  1.00  0.00     0.012 A 
ATOM     82  C   UNL A   1      41.379  36.777  39.253  1.00  0.00     0.148 A 
ATOM     83  C   UNL A   1      43.335  35.513  40.821  1.00  0.00     0.002 A 
ATOM     84  C   UNL A   1      41.344  36.882  40.638  1.00  0.00     0.091 A 
ATOM     85  F   UNL A   1      40.447  37.345  38.475  1.00  0.00    -0.205 F 
ATOM     86  C   UNL A   1      42.309  36.235  41.425  1.00  0.00     0.022 A 
BRANCH  84  87
ATOM     87  S   UNL A   1      40.138  37.897  41.502  1.00  0.00     0.127 S 
ATOM     88  O   UNL A   1      38.877  37.345  41.012  1.00  0.00    -0.237 OA
ATOM     89  O   UNL A   1      40.445  37.596  42.901  1.00  0.00    -0.237 OA
ATOM     90  O   UNL A   1      40.417  39.271  41.107  1.00  0.00    -0.744 OA
ENDBRANCH  84  87
ENDBRANCH  56  80
BRANCH  68  91
ATOM     91  C   UNL A   1      45.329  40.166  33.770  1.00  0.00     0.023 A 
ATOM     92  C   UNL A   1      46.739  40.176  33.786  1.00  0.00     0.012 A 
ATOM     93  C   UNL A   1      44.631  41.390  33.746  1.00  0.00     0.148 A 
ATOM     94  C   UNL A   1      47.438  41.383  33.816  1.00  0.00     0.002 A 
ATOM     95  C   UNL A   1      45.335  42.588  33.718  1.00  0.00     0.091 A 
ATOM     96  F   UNL A   1      43.290  41.360  33.745  1.00  0.00    -0.205 F 
ATOM     97  C   UNL A   1      46.738  42.587  33.769  1.00  0.00     0.022 A 
BRANCH  95  98
ATOM     98  S   UNL A   1      44.522  44.181  33.553  1.00  0.00     0.127 S 
ATOM     99  O   UNL A   1      44.150  44.183  32.140  1.00  0.00    -0.237 OA
ATOM    100  O   UNL A   1      43.396  44.049  34.480  1.00  0.00    -0.237 OA
ATOM    101  O   UNL A   1      45.509  45.179  33.939  1.00  0.00    -0.744 OA
ENDBRANCH  95  98
ENDBRANCH  68  91
ENDBRANCH  42  43
ENDBRANCH  35  37
ENDBRANCH  34  35
ENDBRANCH  33  34
ENDBRANCH  32  33
ENDBRANCH  31  32
ENDBRANCH  30  31
ENDBRANCH   1  30
TORSDOF 25
ENDMDL
MODEL 3
REMARK VINA RESULT:      -7.3      5.613     10.721
REMARK SMILES Cc1ccc2oc(C(=O)N[C@@H]3C=C[C@H](C(=O)OCCOCCOCCOCCOC(=O)c4ccc(-c5c6nc(c(-c7cccc(S(=O)(=O)[O-])c7F)c7ccc([nH]7)c(-c7cccc(S(=O)(=O)[O-])c7F)c7nc(c(-c8cccc(S(=O)(=O)[O-])c8F)c8ccc5[nH]8)C=C7)C=C6)cc4)C3)cc2c1
REMARK SMILES IDX 24 1 23 2 22 3 21 4 20 5 19 6 18 7 17 8 15 9 16 10 14 11
REMARK SMILES IDX 11 12 12 13 95 14 13 15 10 16 8 17 9 18 7 20 1 21 2 22 3 23
REMARK SMILES IDX 98 24 4 25 97 26 5 27 96 28 6 29 25 30 26 31 27 32 28 33
REMARK SMILES IDX 29 34 30 35 31 36 32 37 33 38 94 39 34 40 93 41 35 42 36 43
REMARK SMILES IDX 37 44 87 45 38 46 92 47 86 48 88 49 39 50 91 51 85 52 84 53
REMARK SMILES IDX 40 55 72 56 52 57 71 58 53 59 56 60 70 61 89 62 54 63 55 64
REMARK SMILES IDX 69 66 90 67 57 68 41 69 42 70 50 71 43 72 45 73 51 74 44 75
REMARK SMILES IDX 46 76 47 77 48 78 49 79 73 80 74 81 82 82 75 83 77 84 83 85
REMARK SMILES IDX 76 86 78 87 79 88 80 89 81 90 58 91 59 92 67 93 60 94 62 95
REMARK SMILES IDX 68 96 61 97 63 98 64 99 65 100 66 101
REMARK H PARENT 10 19 88 54 56 65
REMARK Flexibility Score: inf
ROOT
ATOM      1  C   UNL A   1      40.418  23.896  26.962  1.00  0.00     0.188 C 
ENDROOT
BRANCH   1   2
ATOM      2  O   UNL A   1      39.859  22.637  27.315  1.00  0.00    -0.377 OA
BRANCH   2   3
ATOM      3  C   UNL A   1      40.135  21.545  26.467  1.00  0.00     0.188 C 
BRANCH   3   4
ATOM      4  C   UNL A   1      38.899  21.044  25.702  1.00  0.00     0.188 C 
BRANCH   4   5
ATOM      5  O   UNL A   1      38.005  22.067  25.306  1.00  0.00    -0.376 OA
BRANCH   5   6
ATOM      6  C   UNL A   1      36.973  21.852  24.352  1.00  0.00     0.202 C 
BRANCH   6   7
ATOM      7  C   UNL A   1      35.657  22.663  24.218  1.00  0.00     0.261 C 
BRANCH   7   8
ATOM      8  O   UNL A   1      34.707  22.602  25.288  1.00  0.00    -0.463 OA
BRANCH   8   9
ATOM      9  C   UNL A   1      33.623  21.839  25.034  1.00  0.00     0.312 C 
ATOM     10  O   UNL A   1      33.629  20.907  24.238  1.00  0.00    -0.252 OA
BRANCH   9  11
ATOM     11  C   UNL A   1      32.499  22.104  26.051  1.00  0.00     0.124 C 
ATOM     12  C   UNL A   1      31.228  23.992  25.254  1.00  0.00     0.106 C 
ATOM     13  C   UNL A   1      31.796  24.273  26.591  1.00  0.00    -0.006 C 
ATOM     14  C   UNL A   1      31.240  22.461  25.252  1.00  0.00     0.048 C 
ATOM     15  C   UNL A   1      32.539  23.240  27.019  1.00  0.00    -0.014 C 
BRANCH  12  16
ATOM     16  N   UNL A   1      31.927  24.658  24.147  1.00  0.00    -0.343 N 
ATOM     17  C   UNL A   1      32.003  25.897  23.518  1.00  0.00     0.287 C 
ATOM     18  O   UNL A   1      32.978  26.007  22.762  1.00  0.00    -0.266 OA
ATOM     19  H   UNL A   1      32.539  24.024  23.709  1.00  0.00     0.164 HD
BRANCH  17  20
ATOM     20  C   UNL A   1      31.047  26.980  23.708  1.00  0.00     0.192 A 
ATOM     21  C   UNL A   1      28.013  32.083  22.862  1.00  0.00     0.044 C 
ATOM     22  C   UNL A   1      28.358  30.648  23.156  1.00  0.00    -0.050 A 
ATOM     23  C   UNL A   1      27.399  29.628  23.036  1.00  0.00     0.007 A 
ATOM     24  C   UNL A   1      29.674  30.319  23.505  1.00  0.00     0.015 A 
ATOM     25  C   UNL A   1      27.744  28.267  23.142  1.00  0.00     0.048 A 
ATOM     26  C   UNL A   1      30.011  28.970  23.691  1.00  0.00     0.021 A 
ATOM     27  C   UNL A   1      29.083  27.985  23.406  1.00  0.00     0.135 A 
ATOM     28  C   UNL A   1      31.144  28.277  24.162  1.00  0.00     0.065 A 
ATOM     29  O   UNL A   1      29.705  26.762  23.405  1.00  0.00    -0.451 OA
ENDBRANCH  17  20
ENDBRANCH  12  16
ENDBRANCH   9  11
ENDBRANCH   8   9
ENDBRANCH   7   8
ENDBRANCH   6   7
ENDBRANCH   5   6
ENDBRANCH   4   5
ENDBRANCH   3   4
ENDBRANCH   2   3
ENDBRANCH   1   2
BRANCH   1  30
ATOM     30  C   UNL A   1      41.825  24.320  27.458  1.00  0.00     0.188 C 
BRANCH  30  31
ATOM     31  O   UNL A   1      42.757  23.266  27.664  1.00  0.00    -0.376 OA
BRANCH  31  32
ATOM     32  C   UNL A   1      43.654  22.900  26.628  1.00  0.00     0.202 C 
BRANCH  32  33
ATOM     33  C   UNL A   1      43.289  23.266  25.180  1.00  0.00     0.261 C 
BRANCH  33  34
ATOM     34  O   UNL A   1      43.633  24.589  24.756  1.00  0.00    -0.460 OA
BRANCH  34  35
ATOM     35  C   UNL A   1      44.856  25.049  25.092  1.00  0.00     0.338 C 
ATOM     36  O   UNL A   1      45.930  24.658  24.658  1.00  0.00    -0.246 OA
BRANCH  35  37
ATOM     37  C   UNL A   1      44.673  26.258  25.919  1.00  0.00     0.060 A 
ATOM     38  C   UNL A   1      43.875  27.300  25.426  1.00  0.00     0.016 A 
ATOM     39  C   UNL A   1      45.258  26.350  27.185  1.00  0.00     0.016 A 
ATOM     40  C   UNL A   1      43.698  28.459  26.178  1.00  0.00     0.010 A 
ATOM     41  C   UNL A   1      45.103  27.523  27.924  1.00  0.00     0.010 A 
ATOM     42  C   UNL A   1      44.359  28.597  27.403  1.00  0.00    -0.014 A 
BRANCH  42  43
ATOM     43  C   UNL A   1      44.466  29.937  28.024  1.00  0.00     0.031 A 
ATOM     44  C   UNL A   1      43.408  30.341  29.013  1.00  0.00     0.074 A 
ATOM     45  C   UNL A   1      45.474  30.773  27.725  1.00  0.00     0.049 A 
ATOM     46  N   UNL A   1      43.266  31.463  29.666  1.00  0.00    -0.248 NA
ATOM     47  C   UNL A   1      42.365  29.341  29.300  1.00  0.00     0.031 C 
ATOM     48  C   UNL A   1      46.573  30.481  26.807  1.00  0.00     0.029 A 
ATOM     49  N   UNL A   1      45.722  32.052  28.157  1.00  0.00    -0.354 N 
ATOM     50  C   UNL A   1      42.098  31.323  30.405  1.00  0.00     0.074 A 
ATOM     51  C   UNL A   1      41.567  30.009  30.117  1.00  0.00     0.031 C 
ATOM     52  C   UNL A   1      47.371  31.562  26.730  1.00  0.00     0.029 A 
ATOM     53  C   UNL A   1      46.820  32.628  27.566  1.00  0.00     0.049 A 
ATOM     54  H   UNL A   1      45.166  32.512  28.827  1.00  0.00     0.167 HD
ATOM     55  C   UNL A   1      41.521  32.206  31.254  1.00  0.00     0.034 A 
ATOM     56  C   UNL A   1      47.309  33.879  27.677  1.00  0.00     0.034 A 
ATOM     57  C   UNL A   1      42.058  33.505  31.544  1.00  0.00     0.049 A 
ATOM     58  C   UNL A   1      46.622  34.861  28.592  1.00  0.00     0.074 A 
ATOM     59  C   UNL A   1      41.583  34.453  32.432  1.00  0.00     0.029 A 
ATOM     60  N   UNL A   1      43.176  34.053  30.933  1.00  0.00    -0.354 N 
ATOM     61  N   UNL A   1      45.583  34.679  29.372  1.00  0.00    -0.248 NA
ATOM     62  C   UNL A   1      47.192  36.214  28.662  1.00  0.00     0.031 C 
ATOM     63  C   UNL A   1      42.383  35.595  32.318  1.00  0.00     0.029 A 
ATOM     64  C   UNL A   1      43.390  35.338  31.401  1.00  0.00     0.049 A 
ATOM     65  H   UNL A   1      43.735  33.596  30.265  1.00  0.00     0.167 HD
ATOM     66  C   UNL A   1      45.404  35.876  30.059  1.00  0.00     0.074 A 
ATOM     67  C   UNL A   1      46.450  36.773  29.609  1.00  0.00     0.031 C 
ATOM     68  C   UNL A   1      44.460  36.205  30.976  1.00  0.00     0.034 A 
BRANCH  55  69
ATOM     69  C   UNL A   1      40.228  31.794  31.909  1.00  0.00     0.023 A 
ATOM     70  C   UNL A   1      40.237  30.908  33.007  1.00  0.00     0.012 A 
ATOM     71  C   UNL A   1      39.000  32.301  31.442  1.00  0.00     0.148 A 
ATOM     72  C   UNL A   1      39.042  30.498  33.597  1.00  0.00     0.002 A 
ATOM     73  C   UNL A   1      37.818  31.928  32.069  1.00  0.00     0.091 A 
ATOM     74  F   UNL A   1      39.008  33.120  30.381  1.00  0.00    -0.205 F 
ATOM     75  C   UNL A   1      37.835  31.015  33.135  1.00  0.00     0.022 A 
BRANCH  73  76
ATOM     76  S   UNL A   1      36.223  32.606  31.599  1.00  0.00     0.127 S 
ATOM     77  O   UNL A   1      36.108  32.153  30.214  1.00  0.00    -0.237 OA
ATOM     78  O   UNL A   1      35.318  31.938  32.536  1.00  0.00    -0.237 OA
ATOM     79  O   UNL A   1      36.330  34.047  31.780  1.00  0.00    -0.744 OA
ENDBRANCH  73  76
ENDBRANCH  55  69
BRANCH  56  80
ATOM     80  C   UNL A   1      48.541  34.266  26.932  1.00  0.00     0.023 A 
ATOM     81  C   UNL A   1      48.420  34.860  25.660  1.00  0.00     0.012 A 
ATOM     82  C   UNL A   1      49.824  34.071  27.480  1.00  0.00     0.148 A 
ATOM     83  C   UNL A   1      49.554  35.223  24.934  1.00  0.00     0.002 A 
ATOM     84  C   UNL A   1      50.947  34.489  26.777  1.00  0.00     0.091 A 
ATOM     85  F   UNL A   1      49.917  33.493  28.686  1.00  0.00    -0.205 F 
ATOM     86  C   UNL A   1      50.816  35.047  25.496  1.00  0.00     0.022 A 
BRANCH  84  87
ATOM     87  S   UNL A   1      52.603  34.425  27.471  1.00  0.00     0.127 S 
ATOM     88  O   UNL A   1      52.733  33.009  27.806  1.00  0.00    -0.237 OA
ATOM     89  O   UNL A   1      53.417  34.871  26.339  1.00  0.00    -0.237 OA
ATOM     90  O   UNL A   1      52.597  35.339  28.604  1.00  0.00    -0.744 OA
ENDBRANCH  84  87
ENDBRANCH  56  80
BRANCH  68  91
ATOM     91  C   UNL A   1      44.532  37.576  31.602  1.00  0.00     0.023 A 
ATOM     92  C   UNL A   1      45.252  37.774  32.798  1.00  0.00     0.012 A 
ATOM     93  C   UNL A   1      43.947  38.685  30.958  1.00  0.00     0.148 A 
ATOM     94  C   UNL A   1      45.355  39.046  33.360  1.00  0.00     0.002 A 
ATOM     95  C   UNL A   1      44.102  39.958  31.494  1.00  0.00     0.091 A 
ATOM     96  F   UNL A   1      43.253  38.476  29.830  1.00  0.00    -0.205 F 
ATOM     97  C   UNL A   1      44.792  40.139  32.704  1.00  0.00     0.022 A 
BRANCH  95  98
ATOM     98  S   UNL A   1      43.500  41.434  30.666  1.00  0.00     0.127 S 
ATOM     99  O   UNL A   1      43.789  42.470  31.656  1.00  0.00    -0.237 OA
ATOM    100  O   UNL A   1      44.342  41.481  29.470  1.00  0.00    -0.237 OA
ATOM    101  O   UNL A   1      42.087  41.201  30.403  1.00  0.00    -0.744 OA
ENDBRANCH  95  98
ENDBRANCH  68  91
ENDBRANCH  42  43
ENDBRANCH  35  37
ENDBRANCH  34  35
ENDBRANCH  33  34
ENDBRANCH  32  33
ENDBRANCH  31  32
ENDBRANCH  30  31
ENDBRANCH   1  30
TORSDOF 25
ENDMDL
