MODEL 1
REMARK VINA RESULT:      -6.3      0.000      0.000
REMARK SMILES Cc1c(Cc2ccccc2)c(=O)oc2c(C)c(O[C@H](C)C(=O)OCCOCCOCCOCCOC(=O)c3ccc(-c4c5nc(c(-c6cccc(S(=O)(=O)[O-])c6F)c6ccc([nH]6)c(-c6cccc(S(=O)(=O)[O-])c6F)c6nc(c(-c7cccc(S(=O)(=O)[O-])c7F)c7ccc4[nH]7)C=C6)C=C5)cc3)ccc12
REMARK SMILES IDX 28 1 27 2 26 3 25 4 24 5 23 6 21 7 22 8 19 9 20 10 18 11
REMARK SMILES IDX 17 12 1 13 2 14 3 15 103 16 11 17 14 18 102 19 12 20 13 21
REMARK SMILES IDX 15 22 101 23 16 24 4 25 5 26 6 27 10 28 7 29 9 30 8 31 29 32
REMARK SMILES IDX 30 33 31 34 32 35 33 36 34 37 35 38 36 39 37 40 38 41 39 42
REMARK SMILES IDX 100 43 40 44 99 45 41 46 42 47 43 48 93 49 44 50 98 51 92 52
REMARK SMILES IDX 94 53 45 54 97 55 91 56 90 57 46 59 78 60 58 61 77 62 59 63
REMARK SMILES IDX 62 64 76 65 95 66 60 67 61 68 75 70 96 71 63 72 47 73 48 74
REMARK SMILES IDX 56 75 49 76 51 77 57 78 50 79 52 80 53 81 54 82 55 83 79 84
REMARK SMILES IDX 80 85 88 86 81 87 83 88 89 89 82 90 84 91 85 92 86 93 87 94
REMARK SMILES IDX 64 95 65 96 73 97 66 98 68 99 74 100 67 101 69 102 70 103
REMARK SMILES IDX 71 104 72 105
REMARK H PARENT 94 58 62 69
REMARK Flexibility Score: inf
ROOT
ATOM      1  C   UNL A   1      54.799  33.118  25.618  1.00  0.00     0.188 C 
ENDROOT
BRANCH   1   2
ATOM      2  C   UNL A   1      54.625  31.998  26.642  1.00  0.00     0.188 C 
BRANCH   2   3
ATOM      3  O   UNL A   1      55.255  30.746  26.460  1.00  0.00    -0.376 OA
BRANCH   3   4
ATOM      4  C   UNL A   1      54.475  29.550  26.556  1.00  0.00     0.202 C 
BRANCH   4   5
ATOM      5  C   UNL A   1      53.055  29.352  25.956  1.00  0.00     0.261 C 
BRANCH   5   6
ATOM      6  O   UNL A   1      52.649  28.030  25.567  1.00  0.00    -0.461 OA
BRANCH   6   7
ATOM      7  C   UNL A   1      51.422  27.621  25.985  1.00  0.00     0.347 C 
ATOM      8  O   UNL A   1      51.075  27.610  27.163  1.00  0.00    -0.248 OA
BRANCH   7   9
ATOM      9  C   UNL A   1      50.434  27.303  24.822  1.00  0.00     0.279 C 
ATOM     10  C   UNL A   1      50.963  27.607  23.417  1.00  0.00     0.066 C 
BRANCH   9  11
ATOM     11  O   UNL A   1      49.556  26.216  24.697  1.00  0.00    -0.479 OA
BRANCH  11  12
ATOM     12  C   UNL A   1      48.353  26.043  25.289  1.00  0.00     0.127 A 
ATOM     13  C   UNL A   1      45.303  25.093  29.347  1.00  0.00     0.046 C 
ATOM     14  C   UNL A   1      45.043  25.214  27.871  1.00  0.00    -0.029 A 
ATOM     15  C   UNL A   1      43.846  25.094  27.265  1.00  0.00     0.046 A 
ATOM     16  C   UNL A   1      46.202  25.453  27.014  1.00  0.00     0.021 A 
ATOM     17  C   UNL A   1      43.696  25.546  25.851  1.00  0.00     0.340 A 
ATOM     18  C   UNL A   1      46.014  26.139  25.823  1.00  0.00     0.145 A 
ATOM     19  C   UNL A   1      47.480  25.008  27.322  1.00  0.00     0.016 A 
ATOM     20  O   UNL A   1      42.708  25.295  25.169  1.00  0.00    -0.246 OA
ATOM     21  O   UNL A   1      44.700  26.389  25.381  1.00  0.00    -0.422 OA
ATOM     22  C   UNL A   1      47.085  26.561  25.004  1.00  0.00     0.035 A 
ATOM     23  C   UNL A   1      48.526  25.265  26.446  1.00  0.00     0.047 A 
ATOM     24  C   UNL A   1      46.755  27.659  24.039  1.00  0.00     0.052 C 
BRANCH  15  25
ATOM     25  C   UNL A   1      42.602  24.531  27.909  1.00  0.00     0.079 C 
BRANCH  25  26
ATOM     26  C   UNL A   1      41.596  25.635  28.212  1.00  0.00    -0.043 A 
ATOM     27  C   UNL A   1      41.995  26.976  28.283  1.00  0.00     0.004 A 
ATOM     28  C   UNL A   1      40.233  25.339  28.372  1.00  0.00     0.004 A 
ATOM     29  C   UNL A   1      41.052  27.986  28.500  1.00  0.00     0.000 A 
ATOM     30  C   UNL A   1      39.288  26.347  28.558  1.00  0.00     0.000 A 
ATOM     31  C   UNL A   1      39.699  27.674  28.625  1.00  0.00     0.000 A 
ENDBRANCH  25  26
ENDBRANCH  15  25
ENDBRANCH  11  12
ENDBRANCH   9  11
ENDBRANCH   7   9
ENDBRANCH   6   7
ENDBRANCH   5   6
ENDBRANCH   4   5
ENDBRANCH   3   4
ENDBRANCH   2   3
ENDBRANCH   1   2
BRANCH   1  32
ATOM     32  O   UNL A   1      53.748  33.312  24.680  1.00  0.00    -0.377 OA
BRANCH  32  33
ATOM     33  C   UNL A   1      52.433  32.982  25.095  1.00  0.00     0.188 C 
BRANCH  33  34
ATOM     34  C   UNL A   1      51.527  34.107  25.628  1.00  0.00     0.188 C 
BRANCH  34  35
ATOM     35  O   UNL A   1      50.273  34.241  24.976  1.00  0.00    -0.376 OA
BRANCH  35  36
ATOM     36  C   UNL A   1      49.703  35.550  24.961  1.00  0.00     0.202 C 
BRANCH  36  37
ATOM     37  C   UNL A   1      48.229  35.689  25.388  1.00  0.00     0.261 C 
BRANCH  37  38
ATOM     38  O   UNL A   1      47.652  34.537  26.018  1.00  0.00    -0.460 OA
BRANCH  38  39
ATOM     39  C   UNL A   1      46.381  34.237  25.683  1.00  0.00     0.338 C 
ATOM     40  O   UNL A   1      45.771  34.602  24.697  1.00  0.00    -0.246 OA
BRANCH  39  41
ATOM     41  C   UNL A   1      45.889  33.236  26.642  1.00  0.00     0.060 A 
ATOM     42  C   UNL A   1      45.998  33.505  28.013  1.00  0.00     0.016 A 
ATOM     43  C   UNL A   1      45.373  32.024  26.183  1.00  0.00     0.016 A 
ATOM     44  C   UNL A   1      45.631  32.533  28.938  1.00  0.00     0.010 A 
ATOM     45  C   UNL A   1      45.048  31.036  27.110  1.00  0.00     0.010 A 
ATOM     46  C   UNL A   1      45.222  31.274  28.485  1.00  0.00    -0.014 A 
BRANCH  46  47
ATOM     47  C   UNL A   1      45.253  30.123  29.409  1.00  0.00     0.031 A 
ATOM     48  C   UNL A   1      44.027  29.869  30.243  1.00  0.00     0.074 A 
ATOM     49  C   UNL A   1      46.342  29.348  29.532  1.00  0.00     0.049 A 
ATOM     50  N   UNL A   1      43.845  29.005  31.203  1.00  0.00    -0.248 NA
ATOM     51  C   UNL A   1      42.845  30.704  29.951  1.00  0.00     0.031 C 
ATOM     52  C   UNL A   1      47.566  29.472  28.742  1.00  0.00     0.029 A 
ATOM     53  N   UNL A   1      46.597  28.313  30.395  1.00  0.00    -0.354 N 
ATOM     54  C   UNL A   1      42.542  29.204  31.643  1.00  0.00     0.074 A 
ATOM     55  C   UNL A   1      41.972  30.265  30.845  1.00  0.00     0.031 C 
ATOM     56  C   UNL A   1      48.458  28.568  29.182  1.00  0.00     0.029 A 
ATOM     57  C   UNL A   1      47.878  27.826  30.301  1.00  0.00     0.049 A 
ATOM     58  H   UNL A   1      45.926  27.953  31.020  1.00  0.00     0.167 HD
ATOM     59  C   UNL A   1      41.878  28.557  32.625  1.00  0.00     0.034 A 
ATOM     60  C   UNL A   1      48.512  26.904  31.052  1.00  0.00     0.034 A 
ATOM     61  C   UNL A   1      42.447  27.505  33.417  1.00  0.00     0.049 A 
ATOM     62  C   UNL A   1      47.765  26.229  32.174  1.00  0.00     0.074 A 
ATOM     63  C   UNL A   1      41.855  26.788  34.440  1.00  0.00     0.029 A 
ATOM     64  N   UNL A   1      43.738  27.024  33.276  1.00  0.00    -0.354 N 
ATOM     65  N   UNL A   1      46.523  26.400  32.558  1.00  0.00    -0.248 NA
ATOM     66  C   UNL A   1      48.498  25.218  32.951  1.00  0.00     0.031 C 
ATOM     67  C   UNL A   1      42.795  25.875  34.926  1.00  0.00     0.029 A 
ATOM     68  C   UNL A   1      43.962  26.011  34.188  1.00  0.00     0.049 A 
ATOM     69  H   UNL A   1      44.396  27.354  32.623  1.00  0.00     0.167 HD
ATOM     70  C   UNL A   1      46.311  25.490  33.588  1.00  0.00     0.074 A 
ATOM     71  C   UNL A   1      47.556  24.773  33.775  1.00  0.00     0.031 C 
ATOM     72  C   UNL A   1      45.189  25.271  34.316  1.00  0.00     0.034 A 
BRANCH  59  73
ATOM     73  C   UNL A   1      40.452  28.945  32.884  1.00  0.00     0.023 A 
ATOM     74  C   UNL A   1      39.416  28.205  32.282  1.00  0.00     0.012 A 
ATOM     75  C   UNL A   1      40.139  29.980  33.786  1.00  0.00     0.148 A 
ATOM     76  C   UNL A   1      38.084  28.489  32.575  1.00  0.00     0.002 A 
ATOM     77  C   UNL A   1      38.810  30.236  34.096  1.00  0.00     0.091 A 
ATOM     78  F   UNL A   1      41.146  30.682  34.325  1.00  0.00    -0.205 F 
ATOM     79  C   UNL A   1      37.782  29.495  33.490  1.00  0.00     0.022 A 
BRANCH  77  80
ATOM     80  S   UNL A   1      38.315  31.473  35.302  1.00  0.00     0.127 S 
ATOM     81  O   UNL A   1      39.387  32.460  35.169  1.00  0.00    -0.237 OA
ATOM     82  O   UNL A   1      37.019  31.905  34.780  1.00  0.00    -0.237 OA
ATOM     83  O   UNL A   1      38.264  30.789  36.586  1.00  0.00    -0.744 OA
ENDBRANCH  77  80
ENDBRANCH  59  73
BRANCH  60  84
ATOM     84  C   UNL A   1      49.916  26.536  30.729  1.00  0.00     0.023 A 
ATOM     85  C   UNL A   1      50.160  25.563  29.741  1.00  0.00     0.012 A 
ATOM     86  C   UNL A   1      51.005  27.185  31.341  1.00  0.00     0.148 A 
ATOM     87  C   UNL A   1      51.465  25.232  29.376  1.00  0.00     0.002 A 
ATOM     88  C   UNL A   1      52.302  26.882  30.943  1.00  0.00     0.091 A 
ATOM     89  F   UNL A   1      50.747  28.106  32.280  1.00  0.00    -0.205 F 
ATOM     90  C   UNL A   1      52.534  25.897  29.970  1.00  0.00     0.022 A 
BRANCH  88  91
ATOM     91  S   UNL A   1      53.741  27.759  31.562  1.00  0.00     0.127 S 
ATOM     92  O   UNL A   1      54.705  26.674  31.734  1.00  0.00    -0.237 OA
ATOM     93  O   UNL A   1      54.031  28.669  30.453  1.00  0.00    -0.237 OA
ATOM     94  O   UNL A   1      53.315  28.414  32.790  1.00  0.00    -0.744 OA
ENDBRANCH  88  91
ENDBRANCH  60  84
BRANCH  72  95
ATOM     95  C   UNL A   1      45.212  24.182  35.351  1.00  0.00     0.023 A 
ATOM     96  C   UNL A   1      45.185  22.833  34.949  1.00  0.00     0.012 A 
ATOM     97  C   UNL A   1      45.403  24.501  36.711  1.00  0.00     0.148 A 
ATOM     98  C   UNL A   1      45.335  21.816  35.890  1.00  0.00     0.002 A 
ATOM     99  C   UNL A   1      45.588  23.482  37.637  1.00  0.00     0.091 A 
ATOM    100  F   UNL A   1      45.419  25.794  37.066  1.00  0.00    -0.205 F 
ATOM    101  C   UNL A   1      45.548  22.139  37.229  1.00  0.00     0.022 A 
BRANCH  99 102
ATOM    102  S   UNL A   1      45.949  23.803  39.367  1.00  0.00     0.127 S 
ATOM    103  O   UNL A   1      45.302  22.668  40.021  1.00  0.00    -0.237 OA
ATOM    104  O   UNL A   1      47.411  23.770  39.390  1.00  0.00    -0.237 OA
ATOM    105  O   UNL A   1      45.368  25.106  39.666  1.00  0.00    -0.744 OA
ENDBRANCH  99 102
ENDBRANCH  72  95
ENDBRANCH  46  47
ENDBRANCH  39  41
ENDBRANCH  38  39
ENDBRANCH  37  38
ENDBRANCH  36  37
ENDBRANCH  35  36
ENDBRANCH  34  35
ENDBRANCH  33  34
ENDBRANCH  32  33
ENDBRANCH   1  32
TORSDOF 27
ENDMDL
MODEL 2
REMARK VINA RESULT:      -6.2      9.763     14.757
REMARK SMILES Cc1c(Cc2ccccc2)c(=O)oc2c(C)c(O[C@H](C)C(=O)OCCOCCOCCOCCOC(=O)c3ccc(-c4c5nc(c(-c6cccc(S(=O)(=O)[O-])c6F)c6ccc([nH]6)c(-c6cccc(S(=O)(=O)[O-])c6F)c6nc(c(-c7cccc(S(=O)(=O)[O-])c7F)c7ccc4[nH]7)C=C6)C=C5)cc3)ccc12
REMARK SMILES IDX 28 1 27 2 26 3 25 4 24 5 23 6 21 7 22 8 19 9 20 10 18 11
REMARK SMILES IDX 17 12 1 13 2 14 3 15 103 16 11 17 14 18 102 19 12 20 13 21
REMARK SMILES IDX 15 22 101 23 16 24 4 25 5 26 6 27 10 28 7 29 9 30 8 31 29 32
REMARK SMILES IDX 30 33 31 34 32 35 33 36 34 37 35 38 36 39 37 40 38 41 39 42
REMARK SMILES IDX 100 43 40 44 99 45 41 46 42 47 43 48 93 49 44 50 98 51 92 52
REMARK SMILES IDX 94 53 45 54 97 55 91 56 90 57 46 59 78 60 58 61 77 62 59 63
REMARK SMILES IDX 62 64 76 65 95 66 60 67 61 68 75 70 96 71 63 72 47 73 48 74
REMARK SMILES IDX 56 75 49 76 51 77 57 78 50 79 52 80 53 81 54 82 55 83 79 84
REMARK SMILES IDX 80 85 88 86 81 87 83 88 89 89 82 90 84 91 85 92 86 93 87 94
REMARK SMILES IDX 64 95 65 96 73 97 66 98 68 99 74 100 67 101 69 102 70 103
REMARK SMILES IDX 71 104 72 105
REMARK H PARENT 94 58 62 69
REMARK Flexibility Score: inf
ROOT
ATOM      1  C   UNL A   1      42.543  29.603  27.591  1.00  0.00     0.188 C 
ENDROOT
BRANCH   1   2
ATOM      2  C   UNL A   1      41.497  29.489  28.699  1.00  0.00     0.188 C 
BRANCH   2   3
ATOM      3  O   UNL A   1      41.254  30.569  29.578  1.00  0.00    -0.376 OA
BRANCH   3   4
ATOM      4  C   UNL A   1      39.904  30.918  29.899  1.00  0.00     0.202 C 
BRANCH   4   5
ATOM      5  C   UNL A   1      38.649  30.504  29.082  1.00  0.00     0.261 C 
BRANCH   5   6
ATOM      6  O   UNL A   1      37.437  31.256  29.250  1.00  0.00    -0.461 OA
BRANCH   6   7
ATOM      7  C   UNL A   1      36.293  30.542  29.417  1.00  0.00     0.347 C 
ATOM      8  O   UNL A   1      36.211  29.551  30.139  1.00  0.00    -0.248 OA
BRANCH   7   9
ATOM      9  C   UNL A   1      35.047  31.175  28.727  1.00  0.00     0.279 C 
ATOM     10  C   UNL A   1      34.711  32.601  29.173  1.00  0.00     0.066 C 
BRANCH   9  11
ATOM     11  O   UNL A   1      34.642  31.063  27.389  1.00  0.00    -0.479 OA
BRANCH  11  12
ATOM     12  C   UNL A   1      33.775  30.177  26.851  1.00  0.00     0.127 A 
ATOM     13  C   UNL A   1      31.645  25.492  26.415  1.00  0.00     0.046 C 
ATOM     14  C   UNL A   1      31.518  26.758  25.614  1.00  0.00    -0.029 A 
ATOM     15  C   UNL A   1      30.741  26.934  24.527  1.00  0.00     0.046 A 
ATOM     16  C   UNL A   1      32.336  27.892  26.037  1.00  0.00     0.021 A 
ATOM     17  C   UNL A   1      30.481  28.316  24.033  1.00  0.00     0.340 A 
ATOM     18  C   UNL A   1      31.875  29.175  25.779  1.00  0.00     0.145 A 
ATOM     19  C   UNL A   1      33.565  27.750  26.668  1.00  0.00     0.016 A 
ATOM     20  O   UNL A   1      29.956  28.553  22.950  1.00  0.00    -0.246 OA
ATOM     21  O   UNL A   1      30.756  29.339  24.938  1.00  0.00    -0.422 OA
ATOM     22  C   UNL A   1      32.505  30.333  26.284  1.00  0.00     0.035 A 
ATOM     23  C   UNL A   1      34.287  28.880  27.025  1.00  0.00     0.047 A 
ATOM     24  C   UNL A   1      31.649  31.562  26.313  1.00  0.00     0.052 C 
BRANCH  15  25
ATOM     25  C   UNL A   1      30.087  25.822  23.742  1.00  0.00     0.079 C 
BRANCH  25  26
ATOM     26  C   UNL A   1      31.123  24.821  23.246  1.00  0.00    -0.043 A 
ATOM     27  C   UNL A   1      31.013  23.458  23.547  1.00  0.00     0.004 A 
ATOM     28  C   UNL A   1      32.186  25.235  22.427  1.00  0.00     0.004 A 
ATOM     29  C   UNL A   1      31.936  22.540  23.034  1.00  0.00     0.000 A 
ATOM     30  C   UNL A   1      33.089  24.319  21.890  1.00  0.00     0.000 A 
ATOM     31  C   UNL A   1      32.966  22.969  22.196  1.00  0.00     0.000 A 
ENDBRANCH  25  26
ENDBRANCH  15  25
ENDBRANCH  11  12
ENDBRANCH   9  11
ENDBRANCH   7   9
ENDBRANCH   6   7
ENDBRANCH   5   6
ENDBRANCH   4   5
ENDBRANCH   3   4
ENDBRANCH   2   3
ENDBRANCH   1   2
BRANCH   1  32
ATOM     32  O   UNL A   1      43.666  30.438  27.839  1.00  0.00    -0.377 OA
BRANCH  32  33
ATOM     33  C   UNL A   1      44.027  31.364  26.827  1.00  0.00     0.188 C 
BRANCH  33  34
ATOM     34  C   UNL A   1      45.451  31.951  26.843  1.00  0.00     0.188 C 
BRANCH  34  35
ATOM     35  O   UNL A   1      45.565  33.262  27.374  1.00  0.00    -0.376 OA
BRANCH  35  36
ATOM     36  C   UNL A   1      44.347  33.993  27.521  1.00  0.00     0.202 C 
BRANCH  36  37
ATOM     37  C   UNL A   1      44.085  34.675  28.878  1.00  0.00     0.261 C 
BRANCH  37  38
ATOM     38  O   UNL A   1      44.872  34.196  29.976  1.00  0.00    -0.460 OA
BRANCH  38  39
ATOM     39  C   UNL A   1      44.339  33.200  30.713  1.00  0.00     0.338 C 
ATOM     40  O   UNL A   1      44.259  32.023  30.418  1.00  0.00    -0.246 OA
BRANCH  39  41
ATOM     41  C   UNL A   1      44.010  33.749  32.038  1.00  0.00     0.060 A 
ATOM     42  C   UNL A   1      42.729  34.274  32.251  1.00  0.00     0.016 A 
ATOM     43  C   UNL A   1      44.982  33.788  33.038  1.00  0.00     0.016 A 
ATOM     44  C   UNL A   1      42.426  34.887  33.463  1.00  0.00     0.010 A 
ATOM     45  C   UNL A   1      44.692  34.441  34.234  1.00  0.00     0.010 A 
ATOM     46  C   UNL A   1      43.430  35.032  34.427  1.00  0.00    -0.014 A 
BRANCH  46  47
ATOM     47  C   UNL A   1      43.269  36.035  35.499  1.00  0.00     0.031 A 
ATOM     48  C   UNL A   1      43.739  37.436  35.214  1.00  0.00     0.074 A 
ATOM     49  C   UNL A   1      42.756  35.710  36.695  1.00  0.00     0.049 A 
ATOM     50  N   UNL A   1      43.817  38.461  36.019  1.00  0.00    -0.248 NA
ATOM     51  C   UNL A   1      44.180  37.718  33.834  1.00  0.00     0.031 C 
ATOM     52  C   UNL A   1      42.225  34.399  37.063  1.00  0.00     0.029 A 
ATOM     53  N   UNL A   1      42.622  36.464  37.833  1.00  0.00    -0.354 N 
ATOM     54  C   UNL A   1      44.332  39.499  35.252  1.00  0.00     0.074 A 
ATOM     55  C   UNL A   1      44.545  38.988  33.918  1.00  0.00     0.031 C 
ATOM     56  C   UNL A   1      41.855  34.430  38.356  1.00  0.00     0.029 A 
ATOM     57  C   UNL A   1      42.150  35.751  38.909  1.00  0.00     0.049 A 
ATOM     58  H   UNL A   1      42.844  37.422  37.876  1.00  0.00     0.167 HD
ATOM     59  C   UNL A   1      44.602  40.767  35.628  1.00  0.00     0.034 A 
ATOM     60  C   UNL A   1      41.999  36.122  40.195  1.00  0.00     0.034 A 
ATOM     61  C   UNL A   1      44.392  41.271  36.955  1.00  0.00     0.049 A 
ATOM     62  C   UNL A   1      42.352  37.529  40.602  1.00  0.00     0.074 A 
ATOM     63  C   UNL A   1      44.638  42.543  37.437  1.00  0.00     0.029 A 
ATOM     64  N   UNL A   1      43.890  40.526  38.009  1.00  0.00    -0.354 N 
ATOM     65  N   UNL A   1      42.805  38.513  39.862  1.00  0.00    -0.248 NA
ATOM     66  C   UNL A   1      42.152  37.887  42.015  1.00  0.00     0.031 C 
ATOM     67  C   UNL A   1      44.291  42.565  38.790  1.00  0.00     0.029 A 
ATOM     68  C   UNL A   1      43.809  41.313  39.141  1.00  0.00     0.049 A 
ATOM     69  H   UNL A   1      43.629  39.578  37.958  1.00  0.00     0.167 HD
ATOM     70  C   UNL A   1      42.901  39.614  40.704  1.00  0.00     0.074 A 
ATOM     71  C   UNL A   1      42.467  39.177  42.015  1.00  0.00     0.031 C 
ATOM     72  C   UNL A   1      43.317  40.873  40.420  1.00  0.00     0.034 A 
BRANCH  59  73
ATOM     73  C   UNL A   1      45.128  41.712  34.589  1.00  0.00     0.023 A 
ATOM     74  C   UNL A   1      46.512  41.748  34.328  1.00  0.00     0.012 A 
ATOM     75  C   UNL A   1      44.250  42.494  33.814  1.00  0.00     0.148 A 
ATOM     76  C   UNL A   1      47.017  42.553  33.308  1.00  0.00     0.002 A 
ATOM     77  C   UNL A   1      44.758  43.268  32.779  1.00  0.00     0.091 A 
ATOM     78  F   UNL A   1      42.941  42.455  34.100  1.00  0.00    -0.205 F 
ATOM     79  C   UNL A   1      46.140  43.302  32.527  1.00  0.00     0.022 A 
BRANCH  77  80
ATOM     80  S   UNL A   1      43.711  44.228  31.679  1.00  0.00     0.127 S 
ATOM     81  O   UNL A   1      42.594  43.308  31.459  1.00  0.00    -0.237 OA
ATOM     82  O   UNL A   1      43.390  45.392  32.503  1.00  0.00    -0.237 OA
ATOM     83  O   UNL A   1      44.516  44.512  30.500  1.00  0.00    -0.744 OA
ENDBRANCH  77  80
ENDBRANCH  59  73
BRANCH  60  84
ATOM     84  C   UNL A   1      41.442  35.152  41.176  1.00  0.00     0.023 A 
ATOM     85  C   UNL A   1      42.324  34.337  41.911  1.00  0.00     0.012 A 
ATOM     86  C   UNL A   1      40.059  35.078  41.430  1.00  0.00     0.148 A 
ATOM     87  C   UNL A   1      41.838  33.454  42.875  1.00  0.00     0.002 A 
ATOM     88  C   UNL A   1      39.585  34.227  42.422  1.00  0.00     0.091 A 
ATOM     89  F   UNL A   1      39.241  35.862  40.715  1.00  0.00    -0.205 F 
ATOM     90  C   UNL A   1      40.471  33.406  43.137  1.00  0.00     0.022 A 
BRANCH  88  91
ATOM     91  S   UNL A   1      37.859  34.172  42.915  1.00  0.00     0.127 S 
ATOM     92  O   UNL A   1      37.202  33.785  41.668  1.00  0.00    -0.237 OA
ATOM     93  O   UNL A   1      37.880  33.135  43.947  1.00  0.00    -0.237 OA
ATOM     94  O   UNL A   1      37.538  35.506  43.400  1.00  0.00    -0.744 OA
ENDBRANCH  88  91
ENDBRANCH  60  84
BRANCH  72  95
ATOM     95  C   UNL A   1      43.278  41.901  41.515  1.00  0.00     0.023 A 
ATOM     96  C   UNL A   1      44.430  42.148  42.284  1.00  0.00     0.012 A 
ATOM     97  C   UNL A   1      42.139  42.715  41.683  1.00  0.00     0.148 A 
ATOM     98  C   UNL A   1      44.445  43.185  43.216  1.00  0.00     0.002 A 
ATOM     99  C   UNL A   1      42.175  43.769  42.586  1.00  0.00     0.091 A 
ATOM    100  F   UNL A   1      41.054  42.453  40.940  1.00  0.00    -0.205 F 
ATOM    101  C   UNL A   1      43.325  44.002  43.358  1.00  0.00     0.022 A 
BRANCH  99 102
ATOM    102  S   UNL A   1      40.810  44.921  42.779  1.00  0.00     0.127 S 
ATOM    103  O   UNL A   1      41.304  45.790  43.846  1.00  0.00    -0.237 OA
ATOM    104  O   UNL A   1      40.747  45.550  41.460  1.00  0.00    -0.237 OA
ATOM    105  O   UNL A   1      39.646  44.115  43.123  1.00  0.00    -0.744 OA
ENDBRANCH  99 102
ENDBRANCH  72  95
ENDBRANCH  46  47
ENDBRANCH  39  41
ENDBRANCH  38  39
ENDBRANCH  37  38
ENDBRANCH  36  37
ENDBRANCH  35  36
ENDBRANCH  34  35
ENDBRANCH  33  34
ENDBRANCH  32  33
ENDBRANCH   1  32
TORSDOF 27
ENDMDL
MODEL 3
REMARK VINA RESULT:      -6.0      3.527      9.502
REMARK SMILES Cc1c(Cc2ccccc2)c(=O)oc2c(C)c(O[C@H](C)C(=O)OCCOCCOCCOCCOC(=O)c3ccc(-c4c5nc(c(-c6cccc(S(=O)(=O)[O-])c6F)c6ccc([nH]6)c(-c6cccc(S(=O)(=O)[O-])c6F)c6nc(c(-c7cccc(S(=O)(=O)[O-])c7F)c7ccc4[nH]7)C=C6)C=C5)cc3)ccc12
REMARK SMILES IDX 28 1 27 2 26 3 25 4 24 5 23 6 21 7 22 8 19 9 20 10 18 11
REMARK SMILES IDX 17 12 1 13 2 14 3 15 103 16 11 17 14 18 102 19 12 20 13 21
REMARK SMILES IDX 15 22 101 23 16 24 4 25 5 26 6 27 10 28 7 29 9 30 8 31 29 32
REMARK SMILES IDX 30 33 31 34 32 35 33 36 34 37 35 38 36 39 37 40 38 41 39 42
REMARK SMILES IDX 100 43 40 44 99 45 41 46 42 47 43 48 93 49 44 50 98 51 92 52
REMARK SMILES IDX 94 53 45 54 97 55 91 56 90 57 46 59 78 60 58 61 77 62 59 63
REMARK SMILES IDX 62 64 76 65 95 66 60 67 61 68 75 70 96 71 63 72 47 73 48 74
REMARK SMILES IDX 56 75 49 76 51 77 57 78 50 79 52 80 53 81 54 82 55 83 79 84
REMARK SMILES IDX 80 85 88 86 81 87 83 88 89 89 82 90 84 91 85 92 86 93 87 94
REMARK SMILES IDX 64 95 65 96 73 97 66 98 68 99 74 100 67 101 69 102 70 103
REMARK SMILES IDX 71 104 72 105
REMARK H PARENT 94 58 62 69
REMARK Flexibility Score: inf
ROOT
ATOM      1  C   UNL A   1      46.810  24.455  24.635  1.00  0.00     0.188 C 
ENDROOT
BRANCH   1   2
ATOM      2  C   UNL A   1      46.835  24.161  26.133  1.00  0.00     0.188 C 
BRANCH   2   3
ATOM      3  O   UNL A   1      45.883  23.295  26.717  1.00  0.00    -0.376 OA
BRANCH   3   4
ATOM      4  C   UNL A   1      44.999  23.803  27.721  1.00  0.00     0.202 C 
BRANCH   4   5
ATOM      5  C   UNL A   1      43.854  24.825  27.477  1.00  0.00     0.261 C 
BRANCH   5   6
ATOM      6  O   UNL A   1      43.982  26.147  28.024  1.00  0.00    -0.461 OA
BRANCH   6   7
ATOM      7  C   UNL A   1      44.995  26.913  27.542  1.00  0.00     0.347 C 
ATOM      8  O   UNL A   1      44.999  27.403  26.415  1.00  0.00    -0.248 OA
BRANCH   7   9
ATOM      9  C   UNL A   1      46.094  27.242  28.597  1.00  0.00     0.279 C 
ATOM     10  C   UNL A   1      47.297  28.026  28.063  1.00  0.00     0.066 C 
BRANCH   9  11
ATOM     11  O   UNL A   1      45.928  27.621  29.938  1.00  0.00    -0.479 OA
BRANCH  11  12
ATOM     12  C   UNL A   1      45.829  26.823  31.024  1.00  0.00     0.127 A 
ATOM     13  C   UNL A   1      47.792  24.218  35.028  1.00  0.00     0.046 C 
ATOM     14  C   UNL A   1      46.424  24.271  34.408  1.00  0.00    -0.029 A 
ATOM     15  C   UNL A   1      45.338  23.589  34.822  1.00  0.00     0.046 A 
ATOM     16  C   UNL A   1      46.267  25.118  33.227  1.00  0.00     0.021 A 
ATOM     17  C   UNL A   1      43.993  23.980  34.310  1.00  0.00     0.340 A 
ATOM     18  C   UNL A   1      45.022  25.677  32.974  1.00  0.00     0.145 A 
ATOM     19  C   UNL A   1      47.297  25.374  32.333  1.00  0.00     0.016 A 
ATOM     20  O   UNL A   1      42.988  23.297  34.479  1.00  0.00    -0.246 OA
ATOM     21  O   UNL A   1      43.915  25.243  33.729  1.00  0.00    -0.422 OA
ATOM     22  C   UNL A   1      44.804  26.633  31.958  1.00  0.00     0.035 A 
ATOM     23  C   UNL A   1      47.061  26.180  31.227  1.00  0.00     0.047 A 
ATOM     24  C   UNL A   1      43.564  27.459  32.117  1.00  0.00     0.052 C 
BRANCH  15  25
ATOM     25  C   UNL A   1      45.361  22.433  35.793  1.00  0.00     0.079 C 
BRANCH  25  26
ATOM     26  C   UNL A   1      45.589  22.922  37.218  1.00  0.00    -0.043 A 
ATOM     27  C   UNL A   1      46.551  22.323  38.041  1.00  0.00     0.004 A 
ATOM     28  C   UNL A   1      44.877  24.023  37.721  1.00  0.00     0.004 A 
ATOM     29  C   UNL A   1      46.795  22.822  39.326  1.00  0.00     0.000 A 
ATOM     30  C   UNL A   1      45.139  24.539  38.989  1.00  0.00     0.000 A 
ATOM     31  C   UNL A   1      46.098  23.935  39.795  1.00  0.00     0.000 A 
ENDBRANCH  25  26
ENDBRANCH  15  25
ENDBRANCH  11  12
ENDBRANCH   9  11
ENDBRANCH   7   9
ENDBRANCH   6   7
ENDBRANCH   5   6
ENDBRANCH   4   5
ENDBRANCH   3   4
ENDBRANCH   2   3
ENDBRANCH   1   2
BRANCH   1  32
ATOM     32  O   UNL A   1      47.076  25.792  24.229  1.00  0.00    -0.377 OA
BRANCH  32  33
ATOM     33  C   UNL A   1      48.432  26.203  24.185  1.00  0.00     0.188 C 
BRANCH  33  34
ATOM     34  C   UNL A   1      49.006  26.699  22.844  1.00  0.00     0.188 C 
BRANCH  34  35
ATOM     35  O   UNL A   1      49.482  28.037  22.842  1.00  0.00    -0.376 OA
BRANCH  35  36
ATOM     36  C   UNL A   1      50.599  28.311  21.997  1.00  0.00     0.202 C 
BRANCH  36  37
ATOM     37  C   UNL A   1      51.461  27.115  21.546  1.00  0.00     0.261 C 
BRANCH  37  38
ATOM     38  O   UNL A   1      52.316  26.552  22.551  1.00  0.00    -0.460 OA
BRANCH  38  39
ATOM     39  C   UNL A   1      53.236  27.375  23.092  1.00  0.00     0.338 C 
ATOM     40  O   UNL A   1      54.106  27.995  22.511  1.00  0.00    -0.246 OA
BRANCH  39  41
ATOM     41  C   UNL A   1      52.910  27.538  24.517  1.00  0.00     0.060 A 
ATOM     42  C   UNL A   1      51.958  26.685  25.093  1.00  0.00     0.016 A 
ATOM     43  C   UNL A   1      53.505  28.559  25.258  1.00  0.00     0.016 A 
ATOM     44  C   UNL A   1      51.561  26.884  26.411  1.00  0.00     0.010 A 
ATOM     45  C   UNL A   1      53.075  28.784  26.563  1.00  0.00     0.010 A 
ATOM     46  C   UNL A   1      52.068  27.976  27.123  1.00  0.00    -0.014 A 
BRANCH  46  47
ATOM     47  C   UNL A   1      51.357  28.455  28.326  1.00  0.00     0.031 A 
ATOM     48  C   UNL A   1      51.499  27.643  29.584  1.00  0.00     0.074 A 
ATOM     49  C   UNL A   1      50.584  29.551  28.295  1.00  0.00     0.049 A 
ATOM     50  N   UNL A   1      50.890  27.782  30.730  1.00  0.00    -0.248 NA
ATOM     51  C   UNL A   1      52.460  26.524  29.544  1.00  0.00     0.031 C 
ATOM     52  C   UNL A   1      50.414  30.439  27.147  1.00  0.00     0.029 A 
ATOM     53  N   UNL A   1      49.776  30.089  29.265  1.00  0.00    -0.354 N 
ATOM     54  C   UNL A   1      51.375  26.760  31.537  1.00  0.00     0.074 A 
ATOM     55  C   UNL A   1      52.333  26.011  30.758  1.00  0.00     0.031 C 
ATOM     56  C   UNL A   1      49.523  31.394  27.467  1.00  0.00     0.029 A 
ATOM     57  C   UNL A   1      49.042  31.166  28.830  1.00  0.00     0.049 A 
ATOM     58  H   UNL A   1      49.726  29.737  30.183  1.00  0.00     0.167 HD
ATOM     59  C   UNL A   1      51.052  26.475  32.817  1.00  0.00     0.034 A 
ATOM     60  C   UNL A   1      48.077  31.866  29.456  1.00  0.00     0.034 A 
ATOM     61  C   UNL A   1      50.098  27.221  33.587  1.00  0.00     0.049 A 
ATOM     62  C   UNL A   1      47.699  31.499  30.868  1.00  0.00     0.074 A 
ATOM     63  C   UNL A   1      49.699  27.008  34.893  1.00  0.00     0.029 A 
ATOM     64  N   UNL A   1      49.395  28.318  33.119  1.00  0.00    -0.354 N 
ATOM     65  N   UNL A   1      48.189  30.555  31.634  1.00  0.00    -0.248 NA
ATOM     66  C   UNL A   1      46.652  32.308  31.512  1.00  0.00     0.031 C 
ATOM     67  C   UNL A   1      48.743  27.975  35.214  1.00  0.00     0.029 A 
ATOM     68  C   UNL A   1      48.568  28.802  34.114  1.00  0.00     0.049 A 
ATOM     69  H   UNL A   1      49.474  28.697  32.214  1.00  0.00     0.167 HD
ATOM     70  C   UNL A   1      47.546  30.682  32.860  1.00  0.00     0.074 A 
ATOM     71  C   UNL A   1      46.624  31.791  32.735  1.00  0.00     0.031 C 
ATOM     72  C   UNL A   1      47.702  29.944  33.987  1.00  0.00     0.034 A 
BRANCH  59  73
ATOM     73  C   UNL A   1      51.752  25.326  33.479  1.00  0.00     0.023 A 
ATOM     74  C   UNL A   1      52.754  25.586  34.433  1.00  0.00     0.012 A 
ATOM     75  C   UNL A   1      51.358  23.998  33.223  1.00  0.00     0.148 A 
ATOM     76  C   UNL A   1      53.358  24.538  35.126  1.00  0.00     0.002 A 
ATOM     77  C   UNL A   1      51.942  22.962  33.940  1.00  0.00     0.091 A 
ATOM     78  F   UNL A   1      50.417  23.780  32.294  1.00  0.00    -0.205 F 
ATOM     79  C   UNL A   1      52.944  23.229  34.888  1.00  0.00     0.022 A 
BRANCH  77  80
ATOM     80  S   UNL A   1      51.444  21.247  33.751  1.00  0.00     0.127 S 
ATOM     81  O   UNL A   1      51.658  21.034  32.319  1.00  0.00    -0.237 OA
ATOM     82  O   UNL A   1      52.395  20.555  34.620  1.00  0.00    -0.237 OA
ATOM     83  O   UNL A   1      50.055  21.179  34.182  1.00  0.00    -0.744 OA
ENDBRANCH  77  80
ENDBRANCH  59  73
BRANCH  60  84
ATOM     84  C   UNL A   1      47.440  33.017  28.761  1.00  0.00     0.023 A 
ATOM     85  C   UNL A   1      48.017  34.296  28.882  1.00  0.00     0.012 A 
ATOM     86  C   UNL A   1      46.314  32.844  27.935  1.00  0.00     0.148 A 
ATOM     87  C   UNL A   1      47.476  35.386  28.202  1.00  0.00     0.002 A 
ATOM     88  C   UNL A   1      45.805  33.926  27.226  1.00  0.00     0.091 A 
ATOM     89  F   UNL A   1      45.782  31.617  27.838  1.00  0.00    -0.205 F 
ATOM     90  C   UNL A   1      46.377  35.200  27.368  1.00  0.00     0.022 A 
BRANCH  88  91
ATOM     91  S   UNL A   1      44.465  33.771  26.040  1.00  0.00     0.127 S 
ATOM     92  O   UNL A   1      43.406  33.184  26.858  1.00  0.00    -0.237 OA
ATOM     93  O   UNL A   1      44.246  35.167  25.658  1.00  0.00    -0.237 OA
ATOM     94  O   UNL A   1      44.971  32.920  24.973  1.00  0.00    -0.744 OA
ENDBRANCH  88  91
ENDBRANCH  60  84
BRANCH  72  95
ATOM     95  C   UNL A   1      46.909  30.326  35.204  1.00  0.00     0.023 A 
ATOM     96  C   UNL A   1      47.424  31.277  36.105  1.00  0.00     0.012 A 
ATOM     97  C   UNL A   1      45.596  29.843  35.375  1.00  0.00     0.148 A 
ATOM     98  C   UNL A   1      46.645  31.734  37.167  1.00  0.00     0.002 A 
ATOM     99  C   UNL A   1      44.814  30.331  36.413  1.00  0.00     0.091 A 
ATOM    100  F   UNL A   1      45.133  28.933  34.505  1.00  0.00    -0.205 F 
ATOM    101  C   UNL A   1      45.339  31.272  37.314  1.00  0.00     0.022 A 
BRANCH  99 102
ATOM    102  S   UNL A   1      43.096  29.854  36.634  1.00  0.00     0.127 S 
ATOM    103  O   UNL A   1      43.221  28.435  36.961  1.00  0.00    -0.237 OA
ATOM    104  O   UNL A   1      42.679  30.704  37.750  1.00  0.00    -0.237 OA
ATOM    105  O   UNL A   1      42.430  30.145  35.371  1.00  0.00    -0.744 OA
ENDBRANCH  99 102
ENDBRANCH  72  95
ENDBRANCH  46  47
ENDBRANCH  39  41
ENDBRANCH  38  39
ENDBRANCH  37  38
ENDBRANCH  36  37
ENDBRANCH  35  36
ENDBRANCH  34  35
ENDBRANCH  33  34
ENDBRANCH  32  33
ENDBRANCH   1  32
TORSDOF 27
ENDMDL
