MODEL 1
REMARK VINA RESULT:      -7.3      0.000      0.000
REMARK SMILES O=C(N[C@H]1C=C[C@@H](C(=O)OCCOCCOCCOCCOC(=O)c2ccc(-c3c4nc(c(-c5cccc(S(=O)(=O)[O-])c5F)c5ccc([nH]5)c(-c5cccc(S(=O)(=O)[O-])c5F)c5nc(c(-c6cccc(S(=O)(=O)[O-])c6F)c6ccc3[nH]6)C=C5)C=C4)cc2)C1)c1ccc(Br)cc1
REMARK SMILES IDX 17 1 16 2 15 3 14 4 13 5 12 6 11 7 10 8 8 9 9 10 7 11 4 12
REMARK SMILES IDX 5 13 88 14 6 15 3 16 1 17 2 18 89 20 90 21 95 22 91 23 94 24
REMARK SMILES IDX 92 25 93 26 18 27 19 28 20 29 21 30 22 31 23 32 24 33 25 34
REMARK SMILES IDX 26 35 87 36 27 37 86 38 28 39 29 40 30 41 80 42 31 43 85 44
REMARK SMILES IDX 79 45 81 46 32 47 84 48 78 49 77 50 33 52 65 53 45 54 64 55
REMARK SMILES IDX 46 56 49 57 63 58 82 59 47 60 48 61 62 63 83 64 50 65 34 66
REMARK SMILES IDX 35 67 43 68 36 69 38 70 44 71 37 72 39 73 40 74 41 75 42 76
REMARK SMILES IDX 66 77 67 78 75 79 68 80 70 81 76 82 69 83 71 84 72 85 73 86
REMARK SMILES IDX 74 87 51 88 52 89 60 90 53 91 55 92 61 93 54 94 56 95 57 96
REMARK SMILES IDX 58 97 59 98
REMARK H PARENT 3 19 81 51 49 62
REMARK Flexibility Score: inf
ROOT
ATOM      1  C   UNL A   1      48.524  27.254  23.909  1.00  0.00     0.188 C 
ENDROOT
BRANCH   1   2
ATOM      2  O   UNL A   1      47.407  28.134  23.856  1.00  0.00    -0.377 OA
BRANCH   2   3
ATOM      3  C   UNL A   1      46.235  27.719  24.521  1.00  0.00     0.188 C 
BRANCH   3   4
ATOM      4  C   UNL A   1      46.038  28.325  25.917  1.00  0.00     0.188 C 
BRANCH   4   5
ATOM      5  O   UNL A   1      45.223  29.473  26.106  1.00  0.00    -0.376 OA
BRANCH   5   6
ATOM      6  C   UNL A   1      43.908  29.346  26.636  1.00  0.00     0.202 C 
BRANCH   6   7
ATOM      7  C   UNL A   1      43.596  28.443  27.843  1.00  0.00     0.261 C 
BRANCH   7   8
ATOM      8  O   UNL A   1      43.309  27.068  27.542  1.00  0.00    -0.463 OA
BRANCH   8   9
ATOM      9  C   UNL A   1      42.534  26.827  26.460  1.00  0.00     0.312 C 
ATOM     10  O   UNL A   1      42.954  26.760  25.308  1.00  0.00    -0.252 OA
BRANCH   9  11
ATOM     11  C   UNL A   1      41.058  26.590  26.789  1.00  0.00     0.124 C 
ATOM     12  C   UNL A   1      39.360  24.867  27.269  1.00  0.00     0.106 C 
ATOM     13  C   UNL A   1      39.946  25.443  28.516  1.00  0.00    -0.006 C 
ATOM     14  C   UNL A   1      40.336  25.373  26.207  1.00  0.00     0.048 C 
ATOM     15  C   UNL A   1      40.858  26.390  28.258  1.00  0.00    -0.014 C 
BRANCH  12  16
ATOM     16  N   UNL A   1      39.331  23.425  27.351  1.00  0.00    -0.346 N 
ATOM     17  O   UNL A   1      40.177  21.327  27.384  1.00  0.00    -0.269 OA
ATOM     18  C   UNL A   1      40.373  22.536  27.452  1.00  0.00     0.251 C 
ATOM     19  H   UNL A   1      38.433  23.021  27.332  1.00  0.00     0.164 HD
BRANCH  18  20
ATOM     20  C   UNL A   1      41.767  23.010  27.597  1.00  0.00     0.039 A 
ATOM     21  C   UNL A   1      42.328  23.265  28.852  1.00  0.00     0.015 A 
ATOM     22  C   UNL A   1      42.560  23.100  26.447  1.00  0.00     0.015 A 
ATOM     23  C   UNL A   1      43.654  23.698  28.948  1.00  0.00     0.016 A 
ATOM     24  C   UNL A   1      43.890  23.516  26.543  1.00  0.00     0.016 A 
ATOM     25  C   UNL A   1      44.425  23.831  27.792  1.00  0.00     0.018 A 
ATOM     26  Br  UNL A   1      46.214  24.427  27.922  1.00  0.00    -0.051 Br
ENDBRANCH  18  20
ENDBRANCH  12  16
ENDBRANCH   9  11
ENDBRANCH   8   9
ENDBRANCH   7   8
ENDBRANCH   6   7
ENDBRANCH   5   6
ENDBRANCH   4   5
ENDBRANCH   3   4
ENDBRANCH   2   3
ENDBRANCH   1   2
BRANCH   1  27
ATOM     27  C   UNL A   1      49.681  27.488  22.914  1.00  0.00     0.188 C 
BRANCH  27  28
ATOM     28  O   UNL A   1      50.637  28.457  23.330  1.00  0.00    -0.376 OA
BRANCH  28  29
ATOM     29  C   UNL A   1      52.018  28.133  23.247  1.00  0.00     0.202 C 
BRANCH  29  30
ATOM     30  C   UNL A   1      52.797  27.908  24.555  1.00  0.00     0.261 C 
BRANCH  30  31
ATOM     31  O   UNL A   1      52.224  26.988  25.496  1.00  0.00    -0.460 OA
BRANCH  31  32
ATOM     32  C   UNL A   1      52.600  27.086  26.787  1.00  0.00     0.338 C 
ATOM     33  O   UNL A   1      53.743  27.147  27.212  1.00  0.00    -0.246 OA
BRANCH  32  34
ATOM     34  C   UNL A   1      51.388  27.326  27.599  1.00  0.00     0.060 A 
ATOM     35  C   UNL A   1      50.167  26.803  27.155  1.00  0.00     0.016 A 
ATOM     36  C   UNL A   1      51.454  28.059  28.786  1.00  0.00     0.016 A 
ATOM     37  C   UNL A   1      48.996  27.052  27.873  1.00  0.00     0.010 A 
ATOM     38  C   UNL A   1      50.276  28.327  29.492  1.00  0.00     0.010 A 
ATOM     39  C   UNL A   1      49.037  27.859  29.015  1.00  0.00    -0.014 A 
BRANCH  39  40
ATOM     40  C   UNL A   1      47.772  28.377  29.589  1.00  0.00     0.031 A 
ATOM     41  C   UNL A   1      47.045  27.529  30.598  1.00  0.00     0.074 A 
ATOM     42  C   UNL A   1      47.278  29.577  29.234  1.00  0.00     0.049 A 
ATOM     43  N   UNL A   1      45.911  27.753  31.208  1.00  0.00    -0.248 NA
ATOM     44  C   UNL A   1      47.685  26.254  30.966  1.00  0.00     0.031 C 
ATOM     45  C   UNL A   1      47.893  30.498  28.282  1.00  0.00     0.029 A 
ATOM     46  N   UNL A   1      46.123  30.213  29.622  1.00  0.00    -0.354 N 
ATOM     47  C   UNL A   1      45.683  26.635  32.002  1.00  0.00     0.074 A 
ATOM     48  C   UNL A   1      46.791  25.731  31.792  1.00  0.00     0.031 C 
ATOM     49  C   UNL A   1      47.092  31.567  28.131  1.00  0.00     0.029 A 
ATOM     50  C   UNL A   1      45.896  31.393  28.953  1.00  0.00     0.049 A 
ATOM     51  H   UNL A   1      45.517  29.858  30.311  1.00  0.00     0.167 HD
ATOM     52  C   UNL A   1      44.647  26.384  32.838  1.00  0.00     0.034 A 
ATOM     53  C   UNL A   1      44.829  32.218  28.980  1.00  0.00     0.034 A 
ATOM     54  C   UNL A   1      43.551  27.289  33.054  1.00  0.00     0.049 A 
ATOM     55  C   UNL A   1      43.671  31.900  29.893  1.00  0.00     0.074 A 
ATOM     56  C   UNL A   1      42.481  27.148  33.918  1.00  0.00     0.029 A 
ATOM     57  N   UNL A   1      43.371  28.489  32.384  1.00  0.00    -0.354 N 
ATOM     58  N   UNL A   1      43.524  30.897  30.725  1.00  0.00    -0.248 NA
ATOM     59  C   UNL A   1      42.547  32.847  29.896  1.00  0.00     0.031 C 
ATOM     60  C   UNL A   1      41.629  28.243  33.738  1.00  0.00     0.029 A 
ATOM     61  C   UNL A   1      42.196  29.090  32.801  1.00  0.00     0.049 A 
ATOM     62  H   UNL A   1      43.988  28.859  31.712  1.00  0.00     0.167 HD
ATOM     63  C   UNL A   1      42.313  31.114  31.376  1.00  0.00     0.074 A 
ATOM     64  C   UNL A   1      41.777  32.354  30.857  1.00  0.00     0.031 C 
ATOM     65  C   UNL A   1      41.696  30.351  32.313  1.00  0.00     0.034 A 
BRANCH  52  66
ATOM     66  C   UNL A   1      44.650  25.076  33.584  1.00  0.00     0.023 A 
ATOM     67  C   UNL A   1      44.067  23.932  33.004  1.00  0.00     0.012 A 
ATOM     68  C   UNL A   1      45.282  24.971  34.838  1.00  0.00     0.148 A 
ATOM     69  C   UNL A   1      44.081  22.710  33.677  1.00  0.00     0.002 A 
ATOM     70  C   UNL A   1      45.336  23.739  35.480  1.00  0.00     0.091 A 
ATOM     71  F   UNL A   1      45.811  26.076  35.382  1.00  0.00    -0.205 F 
ATOM     72  C   UNL A   1      44.725  22.612  34.908  1.00  0.00     0.022 A 
BRANCH  70  73
ATOM     73  S   UNL A   1      46.212  23.491  37.027  1.00  0.00     0.127 S 
ATOM     74  O   UNL A   1      45.753  24.636  37.813  1.00  0.00    -0.237 OA
ATOM     75  O   UNL A   1      45.688  22.199  37.470  1.00  0.00    -0.237 OA
ATOM     76  O   UNL A   1      47.629  23.492  36.695  1.00  0.00    -0.744 OA
ENDBRANCH  70  73
ENDBRANCH  52  66
BRANCH  53  77
ATOM     77  C   UNL A   1      44.804  33.438  28.122  1.00  0.00     0.023 A 
ATOM     78  C   UNL A   1      44.289  33.362  26.813  1.00  0.00     0.012 A 
ATOM     79  C   UNL A   1      45.292  34.670  28.596  1.00  0.00     0.148 A 
ATOM     80  C   UNL A   1      44.297  34.481  25.980  1.00  0.00     0.002 A 
ATOM     81  C   UNL A   1      45.243  35.795  27.783  1.00  0.00     0.091 A 
ATOM     82  F   UNL A   1      45.793  34.718  29.838  1.00  0.00    -0.205 F 
ATOM     83  C   UNL A   1      44.764  35.699  26.467  1.00  0.00     0.022 A 
BRANCH  81  84
ATOM     84  S   UNL A   1      45.706  37.430  28.364  1.00  0.00     0.127 S 
ATOM     85  O   UNL A   1      45.480  38.246  27.173  1.00  0.00    -0.237 OA
ATOM     86  O   UNL A   1      44.747  37.644  29.448  1.00  0.00    -0.237 OA
ATOM     87  O   UNL A   1      47.092  37.317  28.798  1.00  0.00    -0.744 OA
ENDBRANCH  81  84
ENDBRANCH  53  77
BRANCH  65  88
ATOM     88  C   UNL A   1      40.395  30.853  32.887  1.00  0.00     0.023 A 
ATOM     89  C   UNL A   1      40.386  31.591  34.087  1.00  0.00     0.012 A 
ATOM     90  C   UNL A   1      39.185  30.654  32.191  1.00  0.00     0.148 A 
ATOM     91  C   UNL A   1      39.189  32.088  34.605  1.00  0.00     0.002 A 
ATOM     92  C   UNL A   1      38.006  31.199  32.683  1.00  0.00     0.091 A 
ATOM     93  F   UNL A   1      39.210  29.937  31.057  1.00  0.00    -0.205 F 
ATOM     94  C   UNL A   1      38.003  31.904  33.898  1.00  0.00     0.022 A 
BRANCH  92  95
ATOM     95  S   UNL A   1      36.449  31.099  31.791  1.00  0.00     0.127 S 
ATOM     96  O   UNL A   1      36.222  29.655  31.752  1.00  0.00    -0.237 OA
ATOM     97  O   UNL A   1      35.542  31.836  32.671  1.00  0.00    -0.237 OA
ATOM     98  O   UNL A   1      36.684  31.727  30.499  1.00  0.00    -0.744 OA
ENDBRANCH  92  95
ENDBRANCH  65  88
ENDBRANCH  39  40
ENDBRANCH  32  34
ENDBRANCH  31  32
ENDBRANCH  30  31
ENDBRANCH  29  30
ENDBRANCH  28  29
ENDBRANCH  27  28
ENDBRANCH   1  27
TORSDOF 25
ENDMDL
MODEL 2
REMARK VINA RESULT:      -7.2      6.567     13.927
REMARK SMILES O=C(N[C@H]1C=C[C@@H](C(=O)OCCOCCOCCOCCOC(=O)c2ccc(-c3c4nc(c(-c5cccc(S(=O)(=O)[O-])c5F)c5ccc([nH]5)c(-c5cccc(S(=O)(=O)[O-])c5F)c5nc(c(-c6cccc(S(=O)(=O)[O-])c6F)c6ccc3[nH]6)C=C5)C=C4)cc2)C1)c1ccc(Br)cc1
REMARK SMILES IDX 17 1 16 2 15 3 14 4 13 5 12 6 11 7 10 8 8 9 9 10 7 11 4 12
REMARK SMILES IDX 5 13 88 14 6 15 3 16 1 17 2 18 89 20 90 21 95 22 91 23 94 24
REMARK SMILES IDX 92 25 93 26 18 27 19 28 20 29 21 30 22 31 23 32 24 33 25 34
REMARK SMILES IDX 26 35 87 36 27 37 86 38 28 39 29 40 30 41 80 42 31 43 85 44
REMARK SMILES IDX 79 45 81 46 32 47 84 48 78 49 77 50 33 52 65 53 45 54 64 55
REMARK SMILES IDX 46 56 49 57 63 58 82 59 47 60 48 61 62 63 83 64 50 65 34 66
REMARK SMILES IDX 35 67 43 68 36 69 38 70 44 71 37 72 39 73 40 74 41 75 42 76
REMARK SMILES IDX 66 77 67 78 75 79 68 80 70 81 76 82 69 83 71 84 72 85 73 86
REMARK SMILES IDX 74 87 51 88 52 89 60 90 53 91 55 92 61 93 54 94 56 95 57 96
REMARK SMILES IDX 58 97 59 98
REMARK H PARENT 3 19 81 51 49 62
REMARK Flexibility Score: inf
ROOT
ATOM      1  C   UNL A   1      45.738  42.784  31.930  1.00  0.00     0.188 C 
ENDROOT
BRANCH   1   2
ATOM      2  O   UNL A   1      45.428  42.616  30.552  1.00  0.00    -0.377 OA
BRANCH   2   3
ATOM      3  C   UNL A   1      45.986  43.547  29.652  1.00  0.00     0.188 C 
BRANCH   3   4
ATOM      4  C   UNL A   1      45.251  43.666  28.310  1.00  0.00     0.188 C 
BRANCH   4   5
ATOM      5  O   UNL A   1      44.417  42.618  27.840  1.00  0.00    -0.376 OA
BRANCH   5   6
ATOM      6  C   UNL A   1      44.981  41.472  27.212  1.00  0.00     0.202 C 
BRANCH   6   7
ATOM      7  C   UNL A   1      44.211  40.654  26.159  1.00  0.00     0.261 C 
BRANCH   7   8
ATOM      8  O   UNL A   1      43.895  41.341  24.937  1.00  0.00    -0.463 OA
BRANCH   8   9
ATOM      9  C   UNL A   1      42.606  41.708  24.756  1.00  0.00     0.312 C 
ATOM     10  O   UNL A   1      41.677  41.352  25.476  1.00  0.00    -0.252 OA
BRANCH   9  11
ATOM     11  C   UNL A   1      42.388  42.665  23.582  1.00  0.00     0.124 C 
ATOM     12  C   UNL A   1      43.386  43.563  21.513  1.00  0.00     0.106 C 
ATOM     13  C   UNL A   1      42.477  42.410  21.244  1.00  0.00    -0.006 C 
ATOM     14  C   UNL A   1      43.567  43.468  23.028  1.00  0.00     0.048 C 
ATOM     15  C   UNL A   1      41.922  41.929  22.365  1.00  0.00    -0.014 C 
BRANCH  12  16
ATOM     16  N   UNL A   1      44.630  43.397  20.796  1.00  0.00    -0.346 N 
ATOM     17  O   UNL A   1      46.073  43.588  19.065  1.00  0.00    -0.269 OA
ATOM     18  C   UNL A   1      45.023  43.935  19.595  1.00  0.00     0.251 C 
ATOM     19  H   UNL A   1      45.292  42.814  21.234  1.00  0.00     0.164 HD
BRANCH  18  20
ATOM     20  C   UNL A   1      44.170  44.911  18.882  1.00  0.00     0.039 A 
ATOM     21  C   UNL A   1      42.945  44.541  18.320  1.00  0.00     0.015 A 
ATOM     22  C   UNL A   1      44.566  46.254  18.871  1.00  0.00     0.015 A 
ATOM     23  C   UNL A   1      42.160  45.496  17.667  1.00  0.00     0.016 A 
ATOM     24  C   UNL A   1      43.775  47.213  18.233  1.00  0.00     0.016 A 
ATOM     25  C   UNL A   1      42.584  46.825  17.617  1.00  0.00     0.018 A 
ATOM     26  Br  UNL A   1      41.528  48.114  16.725  1.00  0.00    -0.051 Br
ENDBRANCH  18  20
ENDBRANCH  12  16
ENDBRANCH   9  11
ENDBRANCH   8   9
ENDBRANCH   7   8
ENDBRANCH   6   7
ENDBRANCH   5   6
ENDBRANCH   4   5
ENDBRANCH   3   4
ENDBRANCH   2   3
ENDBRANCH   1   2
BRANCH   1  27
ATOM     27  C   UNL A   1      44.716  43.523  32.821  1.00  0.00     0.188 C 
BRANCH  27  28
ATOM     28  O   UNL A   1      43.446  43.740  32.216  1.00  0.00    -0.376 OA
BRANCH  28  29
ATOM     29  C   UNL A   1      42.480  42.699  32.268  1.00  0.00     0.202 C 
BRANCH  29  30
ATOM     30  C   UNL A   1      42.347  41.888  33.570  1.00  0.00     0.261 C 
BRANCH  30  31
ATOM     31  O   UNL A   1      42.465  40.463  33.456  1.00  0.00    -0.460 OA
BRANCH  31  32
ATOM     32  C   UNL A   1      43.544  39.870  34.006  1.00  0.00     0.338 C 
ATOM     33  O   UNL A   1      44.180  40.264  34.972  1.00  0.00    -0.246 OA
BRANCH  32  34
ATOM     34  C   UNL A   1      43.705  38.541  33.381  1.00  0.00     0.060 A 
ATOM     35  C   UNL A   1      43.781  38.461  31.984  1.00  0.00     0.016 A 
ATOM     36  C   UNL A   1      43.782  37.385  34.160  1.00  0.00     0.016 A 
ATOM     37  C   UNL A   1      43.886  37.218  31.359  1.00  0.00     0.010 A 
ATOM     38  C   UNL A   1      43.863  36.138  33.531  1.00  0.00     0.010 A 
ATOM     39  C   UNL A   1      43.874  36.048  32.127  1.00  0.00    -0.014 A 
BRANCH  39  40
ATOM     40  C   UNL A   1      43.668  34.739  31.461  1.00  0.00     0.031 A 
ATOM     41  C   UNL A   1      44.840  34.100  30.765  1.00  0.00     0.074 A 
ATOM     42  C   UNL A   1      42.473  34.121  31.477  1.00  0.00     0.049 A 
ATOM     43  N   UNL A   1      44.896  32.983  30.089  1.00  0.00    -0.248 NA
ATOM     44  C   UNL A   1      46.122  34.821  30.842  1.00  0.00     0.031 C 
ATOM     45  C   UNL A   1      41.267  34.628  32.127  1.00  0.00     0.029 A 
ATOM     46  N   UNL A   1      42.076  32.938  30.902  1.00  0.00    -0.354 N 
ATOM     47  C   UNL A   1      46.204  32.885  29.630  1.00  0.00     0.074 A 
ATOM     48  C   UNL A   1      46.908  34.058  30.098  1.00  0.00     0.031 C 
ATOM     49  C   UNL A   1      40.253  33.778  31.886  1.00  0.00     0.029 A 
ATOM     50  C   UNL A   1      40.732  32.685  31.042  1.00  0.00     0.049 A 
ATOM     51  H   UNL A   1      42.694  32.331  30.435  1.00  0.00     0.167 HD
ATOM     52  C   UNL A   1      46.773  31.903  28.891  1.00  0.00     0.034 A 
ATOM     53  C   UNL A   1      39.972  31.700  30.519  1.00  0.00     0.034 A 
ATOM     54  C   UNL A   1      46.075  30.732  28.435  1.00  0.00     0.049 A 
ATOM     55  C   UNL A   1      40.622  30.636  29.670  1.00  0.00     0.074 A 
ATOM     56  C   UNL A   1      46.576  29.657  27.724  1.00  0.00     0.029 A 
ATOM     57  N   UNL A   1      44.722  30.493  28.623  1.00  0.00    -0.354 N 
ATOM     58  N   UNL A   1      41.884  30.496  29.341  1.00  0.00    -0.248 NA
ATOM     59  C   UNL A   1      39.747  29.577  29.146  1.00  0.00     0.031 C 
ATOM     60  C   UNL A   1      45.517  28.789  27.443  1.00  0.00     0.029 A 
ATOM     61  C   UNL A   1      44.367  29.297  28.025  1.00  0.00     0.049 A 
ATOM     62  H   UNL A   1      44.106  31.086  29.111  1.00  0.00     0.167 HD
ATOM     63  C   UNL A   1      41.959  29.314  28.609  1.00  0.00     0.074 A 
ATOM     64  C   UNL A   1      40.620  28.769  28.559  1.00  0.00     0.031 C 
ATOM     65  C   UNL A   1      43.039  28.738  28.023  1.00  0.00     0.034 A 
BRANCH  52  66
ATOM     66  C   UNL A   1      48.227  32.053  28.528  1.00  0.00     0.023 A 
ATOM     67  C   UNL A   1      49.209  31.330  29.235  1.00  0.00     0.012 A 
ATOM     68  C   UNL A   1      48.613  32.870  27.448  1.00  0.00     0.148 A 
ATOM     69  C   UNL A   1      50.557  31.445  28.894  1.00  0.00     0.002 A 
ATOM     70  C   UNL A   1      49.952  32.941  27.083  1.00  0.00     0.091 A 
ATOM     71  F   UNL A   1      47.666  33.567  26.803  1.00  0.00    -0.205 F 
ATOM     72  C   UNL A   1      50.925  32.241  27.813  1.00  0.00     0.022 A 
BRANCH  70  73
ATOM     73  S   UNL A   1      50.519  33.871  25.656  1.00  0.00     0.127 S 
ATOM     74  O   UNL A   1      51.384  34.872  26.281  1.00  0.00    -0.237 OA
ATOM     75  O   UNL A   1      51.227  32.849  24.886  1.00  0.00    -0.237 OA
ATOM     76  O   UNL A   1      49.322  34.397  25.014  1.00  0.00    -0.744 OA
ENDBRANCH  70  73
ENDBRANCH  52  66
BRANCH  53  77
ATOM     77  C   UNL A   1      38.506  31.661  30.791  1.00  0.00     0.023 A 
ATOM     78  C   UNL A   1      38.019  30.945  31.901  1.00  0.00     0.012 A 
ATOM     79  C   UNL A   1      37.593  32.327  29.950  1.00  0.00     0.148 A 
ATOM     80  C   UNL A   1      36.648  30.862  32.148  1.00  0.00     0.002 A 
ATOM     81  C   UNL A   1      36.234  32.288  30.233  1.00  0.00     0.091 A 
ATOM     82  F   UNL A   1      38.075  32.989  28.888  1.00  0.00    -0.205 F 
ATOM     83  C   UNL A   1      35.757  31.540  31.321  1.00  0.00     0.022 A 
BRANCH  81  84
ATOM     84  S   UNL A   1      35.024  33.232  29.300  1.00  0.00     0.127 S 
ATOM     85  O   UNL A   1      33.807  33.008  30.076  1.00  0.00    -0.237 OA
ATOM     86  O   UNL A   1      35.570  34.586  29.386  1.00  0.00    -0.237 OA
ATOM     87  O   UNL A   1      35.031  32.664  27.959  1.00  0.00    -0.744 OA
ENDBRANCH  81  84
ENDBRANCH  53  77
BRANCH  65  88
ATOM     88  C   UNL A   1      42.839  27.418  27.320  1.00  0.00     0.023 A 
ATOM     89  C   UNL A   1      42.499  27.386  25.954  1.00  0.00     0.012 A 
ATOM     90  C   UNL A   1      43.063  26.206  28.004  1.00  0.00     0.148 A 
ATOM     91  C   UNL A   1      42.346  26.168  25.289  1.00  0.00     0.002 A 
ATOM     92  C   UNL A   1      42.964  24.999  27.323  1.00  0.00     0.091 A 
ATOM     93  F   UNL A   1      43.373  26.255  29.308  1.00  0.00    -0.205 F 
ATOM     94  C   UNL A   1      42.591  24.977  25.969  1.00  0.00     0.022 A 
BRANCH  92  95
ATOM     95  S   UNL A   1      43.358  23.422  28.089  1.00  0.00     0.127 S 
ATOM     96  O   UNL A   1      42.315  23.318  29.108  1.00  0.00    -0.237 OA
ATOM     97  O   UNL A   1      43.214  22.491  26.970  1.00  0.00    -0.237 OA
ATOM     98  O   UNL A   1      44.717  23.551  28.599  1.00  0.00    -0.744 OA
ENDBRANCH  92  95
ENDBRANCH  65  88
ENDBRANCH  39  40
ENDBRANCH  32  34
ENDBRANCH  31  32
ENDBRANCH  30  31
ENDBRANCH  29  30
ENDBRANCH  28  29
ENDBRANCH  27  28
ENDBRANCH   1  27
TORSDOF 25
ENDMDL
MODEL 3
REMARK VINA RESULT:      -7.1      5.083     10.548
REMARK SMILES O=C(N[C@H]1C=C[C@@H](C(=O)OCCOCCOCCOCCOC(=O)c2ccc(-c3c4nc(c(-c5cccc(S(=O)(=O)[O-])c5F)c5ccc([nH]5)c(-c5cccc(S(=O)(=O)[O-])c5F)c5nc(c(-c6cccc(S(=O)(=O)[O-])c6F)c6ccc3[nH]6)C=C5)C=C4)cc2)C1)c1ccc(Br)cc1
REMARK SMILES IDX 17 1 16 2 15 3 14 4 13 5 12 6 11 7 10 8 8 9 9 10 7 11 4 12
REMARK SMILES IDX 5 13 88 14 6 15 3 16 1 17 2 18 89 20 90 21 95 22 91 23 94 24
REMARK SMILES IDX 92 25 93 26 18 27 19 28 20 29 21 30 22 31 23 32 24 33 25 34
REMARK SMILES IDX 26 35 87 36 27 37 86 38 28 39 29 40 30 41 80 42 31 43 85 44
REMARK SMILES IDX 79 45 81 46 32 47 84 48 78 49 77 50 33 52 65 53 45 54 64 55
REMARK SMILES IDX 46 56 49 57 63 58 82 59 47 60 48 61 62 63 83 64 50 65 34 66
REMARK SMILES IDX 35 67 43 68 36 69 38 70 44 71 37 72 39 73 40 74 41 75 42 76
REMARK SMILES IDX 66 77 67 78 75 79 68 80 70 81 76 82 69 83 71 84 72 85 73 86
REMARK SMILES IDX 74 87 51 88 52 89 60 90 53 91 55 92 61 93 54 94 56 95 57 96
REMARK SMILES IDX 58 97 59 98
REMARK H PARENT 3 19 81 51 49 62
REMARK Flexibility Score: inf
ROOT
ATOM      1  C   UNL A   1      35.583  22.478  24.627  1.00  0.00     0.188 C 
ENDROOT
BRANCH   1   2
ATOM      2  O   UNL A   1      35.248  21.761  25.810  1.00  0.00    -0.377 OA
BRANCH   2   3
ATOM      3  C   UNL A   1      34.312  20.715  25.681  1.00  0.00     0.188 C 
BRANCH   3   4
ATOM      4  C   UNL A   1      33.109  21.035  24.784  1.00  0.00     0.188 C 
BRANCH   4   5
ATOM      5  O   UNL A   1      31.784  20.980  25.294  1.00  0.00    -0.376 OA
BRANCH   5   6
ATOM      6  C   UNL A   1      31.372  21.864  26.330  1.00  0.00     0.202 C 
BRANCH   6   7
ATOM      7  C   UNL A   1      30.706  23.219  26.032  1.00  0.00     0.261 C 
BRANCH   7   8
ATOM      8  O   UNL A   1      31.322  24.009  25.001  1.00  0.00    -0.463 OA
BRANCH   8   9
ATOM      9  C   UNL A   1      30.509  24.808  24.273  1.00  0.00     0.312 C 
ATOM     10  O   UNL A   1      30.010  24.491  23.196  1.00  0.00    -0.252 OA
BRANCH   9  11
ATOM     11  C   UNL A   1      30.207  26.157  24.929  1.00  0.00     0.124 C 
ATOM     12  C   UNL A   1      31.175  28.324  25.599  1.00  0.00     0.106 C 
ATOM     13  C   UNL A   1      30.518  28.391  24.260  1.00  0.00    -0.006 C 
ATOM     14  C   UNL A   1      31.256  26.815  25.829  1.00  0.00     0.048 C 
ATOM     15  C   UNL A   1      29.979  27.218  23.900  1.00  0.00    -0.014 C 
BRANCH  12  16
ATOM     16  N   UNL A   1      32.479  28.945  25.547  1.00  0.00    -0.346 N 
ATOM     17  O   UNL A   1      34.674  29.133  25.031  1.00  0.00    -0.269 OA
ATOM     18  C   UNL A   1      33.605  28.555  24.864  1.00  0.00     0.251 C 
ATOM     19  H   UNL A   1      32.574  29.769  26.078  1.00  0.00     0.164 HD
BRANCH  18  20
ATOM     20  C   UNL A   1      33.574  27.396  23.944  1.00  0.00     0.039 A 
ATOM     21  C   UNL A   1      33.933  26.113  24.368  1.00  0.00     0.015 A 
ATOM     22  C   UNL A   1      33.072  27.589  22.652  1.00  0.00     0.015 A 
ATOM     23  C   UNL A   1      33.877  25.041  23.473  1.00  0.00     0.016 A 
ATOM     24  C   UNL A   1      32.999  26.515  21.761  1.00  0.00     0.016 A 
ATOM     25  C   UNL A   1      33.420  25.250  22.170  1.00  0.00     0.018 A 
ATOM     26  Br  UNL A   1      33.354  23.802  20.957  1.00  0.00    -0.051 Br
ENDBRANCH  18  20
ENDBRANCH  12  16
ENDBRANCH   9  11
ENDBRANCH   8   9
ENDBRANCH   7   8
ENDBRANCH   6   7
ENDBRANCH   5   6
ENDBRANCH   4   5
ENDBRANCH   3   4
ENDBRANCH   2   3
ENDBRANCH   1   2
BRANCH   1  27
ATOM     27  C   UNL A   1      36.965  22.223  23.988  1.00  0.00     0.188 C 
BRANCH  27  28
ATOM     28  O   UNL A   1      37.793  21.313  24.704  1.00  0.00    -0.376 OA
BRANCH  28  29
ATOM     29  C   UNL A   1      38.643  21.822  25.723  1.00  0.00     0.202 C 
BRANCH  29  30
ATOM     30  C   UNL A   1      39.462  20.822  26.560  1.00  0.00     0.261 C 
BRANCH  30  31
ATOM     31  O   UNL A   1      40.186  19.817  25.835  1.00  0.00    -0.460 OA
BRANCH  31  32
ATOM     32  C   UNL A   1      41.490  19.643  26.126  1.00  0.00     0.338 C 
ATOM     33  O   UNL A   1      42.129  18.607  26.025  1.00  0.00    -0.246 OA
BRANCH  32  34
ATOM     34  C   UNL A   1      42.083  20.971  26.387  1.00  0.00     0.060 A 
ATOM     35  C   UNL A   1      42.309  21.357  27.715  1.00  0.00     0.016 A 
ATOM     36  C   UNL A   1      42.413  21.829  25.336  1.00  0.00     0.016 A 
ATOM     37  C   UNL A   1      42.822  22.623  27.998  1.00  0.00     0.010 A 
ATOM     38  C   UNL A   1      42.906  23.106  25.622  1.00  0.00     0.010 A 
ATOM     39  C   UNL A   1      43.073  23.523  26.956  1.00  0.00    -0.014 A 
BRANCH  39  40
ATOM     40  C   UNL A   1      43.314  24.953  27.267  1.00  0.00     0.031 A 
ATOM     41  C   UNL A   1      44.689  25.515  27.024  1.00  0.00     0.074 A 
ATOM     42  C   UNL A   1      42.336  25.743  27.747  1.00  0.00     0.049 A 
ATOM     43  N   UNL A   1      45.145  26.719  27.250  1.00  0.00    -0.248 NA
ATOM     44  C   UNL A   1      45.683  24.593  26.449  1.00  0.00     0.031 C 
ATOM     45  C   UNL A   1      40.962  25.323  28.011  1.00  0.00     0.029 A 
ATOM     46  N   UNL A   1      42.364  27.064  28.121  1.00  0.00    -0.354 N 
ATOM     47  C   UNL A   1      46.485  26.690  26.882  1.00  0.00     0.074 A 
ATOM     48  C   UNL A   1      46.770  25.348  26.423  1.00  0.00     0.031 C 
ATOM     49  C   UNL A   1      40.285  26.358  28.539  1.00  0.00     0.029 A 
ATOM     50  C   UNL A   1      41.184  27.503  28.676  1.00  0.00     0.049 A 
ATOM     51  H   UNL A   1      43.153  27.642  28.005  1.00  0.00     0.167 HD
ATOM     52  C   UNL A   1      47.396  27.691  26.914  1.00  0.00     0.034 A 
ATOM     53  C   UNL A   1      40.879  28.681  29.256  1.00  0.00     0.034 A 
ATOM     54  C   UNL A   1      47.109  29.026  27.360  1.00  0.00     0.049 A 
ATOM     55  C   UNL A   1      41.922  29.770  29.312  1.00  0.00     0.074 A 
ATOM     56  C   UNL A   1      47.951  30.123  27.383  1.00  0.00     0.029 A 
ATOM     57  N   UNL A   1      45.895  29.442  27.884  1.00  0.00    -0.354 N 
ATOM     58  N   UNL A   1      43.150  29.764  28.853  1.00  0.00    -0.248 NA
ATOM     59  C   UNL A   1      41.524  31.040  29.936  1.00  0.00     0.031 C 
ATOM     60  C   UNL A   1      47.259  31.191  27.962  1.00  0.00     0.029 A 
ATOM     61  C   UNL A   1      45.970  30.774  28.251  1.00  0.00     0.049 A 
ATOM     62  H   UNL A   1      45.096  28.874  27.979  1.00  0.00     0.167 HD
ATOM     63  C   UNL A   1      43.656  31.037  29.097  1.00  0.00     0.074 A 
ATOM     64  C   UNL A   1      42.595  31.794  29.726  1.00  0.00     0.031 C 
ATOM     65  C   UNL A   1      44.891  31.533  28.832  1.00  0.00     0.034 A 
BRANCH  52  66
ATOM     66  C   UNL A   1      48.795  27.379  26.453  1.00  0.00     0.023 A 
ATOM     67  C   UNL A   1      49.716  26.786  27.340  1.00  0.00     0.012 A 
ATOM     68  C   UNL A   1      49.180  27.624  25.120  1.00  0.00     0.148 A 
ATOM     69  C   UNL A   1      51.008  26.474  26.919  1.00  0.00     0.002 A 
ATOM     70  C   UNL A   1      50.453  27.265  24.694  1.00  0.00     0.091 A 
ATOM     71  F   UNL A   1      48.298  28.209  24.298  1.00  0.00    -0.205 F 
ATOM     72  C   UNL A   1      51.372  26.703  25.595  1.00  0.00     0.022 A 
BRANCH  70  73
ATOM     73  S   UNL A   1      50.990  27.442  22.990  1.00  0.00     0.127 S 
ATOM     74  O   UNL A   1      52.290  26.772  23.019  1.00  0.00    -0.237 OA
ATOM     75  O   UNL A   1      49.947  26.718  22.264  1.00  0.00    -0.237 OA
ATOM     76  O   UNL A   1      51.034  28.874  22.727  1.00  0.00    -0.744 OA
ENDBRANCH  70  73
ENDBRANCH  52  66
BRANCH  53  77
ATOM     77  C   UNL A   1      39.519  28.905  29.826  1.00  0.00     0.023 A 
ATOM     78  C   UNL A   1      39.238  28.503  31.146  1.00  0.00     0.012 A 
ATOM     79  C   UNL A   1      38.502  29.511  29.063  1.00  0.00     0.148 A 
ATOM     80  C   UNL A   1      37.960  28.666  31.682  1.00  0.00     0.002 A 
ATOM     81  C   UNL A   1      37.249  29.722  29.621  1.00  0.00     0.091 A 
ATOM     82  F   UNL A   1      38.784  29.870  27.802  1.00  0.00    -0.205 F 
ATOM     83  C   UNL A   1      36.969  29.283  30.925  1.00  0.00     0.022 A 
BRANCH  81  84
ATOM     84  S   UNL A   1      35.948  30.620  28.767  1.00  0.00     0.127 S 
ATOM     85  O   UNL A   1      36.704  31.347  27.750  1.00  0.00    -0.237 OA
ATOM     86  O   UNL A   1      35.118  29.529  28.256  1.00  0.00    -0.237 OA
ATOM     87  O   UNL A   1      35.305  31.443  29.782  1.00  0.00    -0.744 OA
ENDBRANCH  81  84
ENDBRANCH  53  77
BRANCH  65  88
ATOM     88  C   UNL A   1      45.158  32.979  29.167  1.00  0.00     0.023 A 
ATOM     89  C   UNL A   1      45.682  33.331  30.426  1.00  0.00     0.012 A 
ATOM     90  C   UNL A   1      44.955  33.983  28.199  1.00  0.00     0.148 A 
ATOM     91  C   UNL A   1      45.963  34.664  30.730  1.00  0.00     0.002 A 
ATOM     92  C   UNL A   1      45.289  35.301  28.488  1.00  0.00     0.091 A 
ATOM     93  F   UNL A   1      44.443  33.631  27.010  1.00  0.00    -0.205 F 
ATOM     94  C   UNL A   1      45.779  35.645  29.758  1.00  0.00     0.022 A 
BRANCH  92  95
ATOM     95  S   UNL A   1      45.181  36.615  27.268  1.00  0.00     0.127 S 
ATOM     96  O   UNL A   1      45.728  37.752  28.007  1.00  0.00    -0.237 OA
ATOM     97  O   UNL A   1      46.041  36.112  26.196  1.00  0.00    -0.237 OA
ATOM     98  O   UNL A   1      43.772  36.721  26.914  1.00  0.00    -0.744 OA
ENDBRANCH  92  95
ENDBRANCH  65  88
ENDBRANCH  39  40
ENDBRANCH  32  34
ENDBRANCH  31  32
ENDBRANCH  30  31
ENDBRANCH  29  30
ENDBRANCH  28  29
ENDBRANCH  27  28
ENDBRANCH   1  27
TORSDOF 25
ENDMDL
