MODEL 1
REMARK VINA RESULT:     -10.5      0.000      0.000
REMARK SMILES Cc1ccc(C(=O)OCCOCCOCCOCCOC(=O)c2ccc(-c3c4nc(c(-c5cccc(S(=O)(=O)[O-])c5F)c5ccc([nH]5)c(-c5cccc(S(=O)(=O)[O-])c5F)c5nc(c(-c6cccc(S(=O)(=O)[O-])c6F)c6ccc3[nH]6)C=C5)C=C4)cc2)cc1N1CC(C)C1
REMARK SMILES IDX 15 1 14 2 13 3 12 4 11 5 10 6 9 7 8 8 6 9 7 10 5 11 1 12
REMARK SMILES IDX 2 13 3 14 87 15 4 16 86 17 88 18 89 19 92 20 90 21 91 22
REMARK SMILES IDX 16 23 17 24 18 25 19 26 20 27 21 28 22 29 23 30 24 31 85 32
REMARK SMILES IDX 25 33 84 34 26 35 27 36 28 37 78 38 29 39 83 40 77 41 79 42
REMARK SMILES IDX 30 43 82 44 76 45 75 46 31 48 63 49 43 50 62 51 44 52 47 53
REMARK SMILES IDX 61 54 80 55 45 56 46 57 60 59 81 60 48 61 32 62 33 63 41 64
REMARK SMILES IDX 34 65 36 66 42 67 35 68 37 69 38 70 39 71 40 72 64 73 65 74
REMARK SMILES IDX 73 75 66 76 68 77 74 78 67 79 69 80 70 81 71 82 72 83 49 84
REMARK SMILES IDX 50 85 58 86 51 87 53 88 59 89 52 90 54 91 55 92 56 93 57 94
REMARK H PARENT 79 47 47 58
REMARK Flexibility Score: inf
ROOT
ATOM      1  C   UNL A   1      37.039  34.362  33.619  1.00  0.00     0.188 C 
ENDROOT
BRANCH   1   2
ATOM      2  O   UNL A   1      38.259  34.461  32.927  1.00  0.00    -0.377 OA
BRANCH   2   3
ATOM      3  C   UNL A   1      38.289  33.594  31.828  1.00  0.00     0.188 C 
BRANCH   3   4
ATOM      4  C   UNL A   1      38.589  34.232  30.471  1.00  0.00     0.188 C 
BRANCH   4   5
ATOM      5  O   UNL A   1      37.664  33.948  29.137  1.00  0.00    -0.376 OA
BRANCH   5   6
ATOM      6  C   UNL A   1      35.900  34.064  28.937  1.00  0.00     0.202 C 
BRANCH   6   7
ATOM      7  C   UNL A   1      34.452  32.899  29.233  1.00  0.00     0.261 C 
BRANCH   7   8
ATOM      8  O   UNL A   1      33.717  31.666  28.061  1.00  0.00    -0.460 OA
BRANCH   8   9
ATOM      9  C   UNL A   1      33.969  30.292  27.252  1.00  0.00     0.338 C 
ATOM     10  O   UNL A   1      35.139  29.888  27.170  1.00  0.00    -0.246 OA
BRANCH   9  11
ATOM     11  C   UNL A   1      32.951  29.251  26.340  1.00  0.00     0.062 A 
ATOM     12  C   UNL A   1      29.930  27.041  23.926  1.00  0.00     0.046 C 
ATOM     13  C   UNL A   1      30.960  27.740  24.759  1.00  0.00    -0.028 A 
ATOM     14  C   UNL A   1      31.198  29.128  24.597  1.00  0.00     0.006 A 
ATOM     15  C   UNL A   1      31.737  27.063  25.674  1.00  0.00     0.040 A 
ATOM     16  C   UNL A   1      32.134  29.864  25.388  1.00  0.00     0.016 A 
ATOM     17  C   UNL A   1      32.745  27.828  26.323  1.00  0.00     0.041 A 
BRANCH  15  18
ATOM     18  N   UNL A   1      31.602  25.703  26.049  1.00  0.00    -0.371 N 
ATOM     19  C   UNL A   1      30.470  24.836  25.854  1.00  0.00     0.121 C 
ATOM     20  C   UNL A   1      32.497  24.614  26.281  1.00  0.00     0.121 C 
ATOM     21  C   UNL A   1      31.250  23.759  26.629  1.00  0.00     0.025 C 
ATOM     22  C   UNL A   1      31.153  22.319  26.154  1.00  0.00     0.011 C 
ENDBRANCH  15  18
ENDBRANCH   9  11
ENDBRANCH   8   9
ENDBRANCH   7   8
ENDBRANCH   6   7
ENDBRANCH   5   6
ENDBRANCH   4   5
ENDBRANCH   3   4
ENDBRANCH   2   3
ENDBRANCH   1   2
BRANCH   1  23
ATOM     23  C   UNL A   1      36.559  32.921  33.880  1.00  0.00     0.188 C 
BRANCH  23  24
ATOM     24  O   UNL A   1      37.220  32.250  34.934  1.00  0.00    -0.376 OA
BRANCH  24  25
ATOM     25  C   UNL A   1      38.066  31.192  34.498  1.00  0.00     0.202 C 
BRANCH  25  26
ATOM     26  C   UNL A   1      38.983  30.400  35.528  1.00  0.00     0.261 C 
BRANCH  26  27
ATOM     27  O   UNL A   1      39.836  31.252  36.397  1.00  0.00    -0.460 OA
BRANCH  27  28
ATOM     28  C   UNL A   1      41.215  31.289  36.229  1.00  0.00     0.338 C 
ATOM     29  O   UNL A   1      41.930  30.314  36.417  1.00  0.00    -0.246 OA
BRANCH  28  30
ATOM     30  C   UNL A   1      41.747  32.743  36.095  1.00  0.00     0.060 A 
ATOM     31  C   UNL A   1      41.151  33.676  35.258  1.00  0.00     0.016 A 
ATOM     32  C   UNL A   1      43.020  33.117  36.518  1.00  0.00     0.016 A 
ATOM     33  C   UNL A   1      41.946  34.714  34.669  1.00  0.00     0.010 A 
ATOM     34  C   UNL A   1      43.853  33.936  35.676  1.00  0.00     0.010 A 
ATOM     35  C   UNL A   1      43.359  34.627  34.556  1.00  0.00    -0.014 A 
BRANCH  35  36
ATOM     36  C   UNL A   1      44.422  35.323  33.298  1.00  0.00     0.031 A 
ATOM     37  C   UNL A   1      43.848  36.988  33.615  1.00  0.00     0.074 A 
ATOM     38  C   UNL A   1      45.240  34.701  31.918  1.00  0.00     0.049 A 
ATOM     39  N   UNL A   1      43.298  37.813  32.741  1.00  0.00    -0.248 NA
ATOM     40  C   UNL A   1      43.720  37.614  34.947  1.00  0.00     0.031 C 
ATOM     41  C   UNL A   1      45.960  35.294  30.495  1.00  0.00     0.029 A 
ATOM     42  N   UNL A   1      45.350  33.280  31.204  1.00  0.00    -0.354 N 
ATOM     43  C   UNL A   1      43.467  39.081  33.213  1.00  0.00     0.074 A 
ATOM     44  C   UNL A   1      43.368  38.871  34.635  1.00  0.00     0.031 C 
ATOM     45  C   UNL A   1      46.200  34.422  29.512  1.00  0.00     0.029 A 
ATOM     46  C   UNL A   1      45.375  33.320  29.791  1.00  0.00     0.049 A 
ATOM     47  H   UNL A   1      45.396  32.437  31.710  1.00  0.00     0.167 HD
ATOM     48  C   UNL A   1      44.052  40.067  32.449  1.00  0.00     0.034 A 
ATOM     49  C   UNL A   1      44.387  32.963  28.900  1.00  0.00     0.034 A 
ATOM     50  C   UNL A   1      44.496  39.607  31.070  1.00  0.00     0.049 A 
ATOM     51  C   UNL A   1      43.944  34.247  28.094  1.00  0.00     0.074 A 
ATOM     52  C   UNL A   1      45.763  39.483  30.497  1.00  0.00     0.029 A 
ATOM     53  N   UNL A   1      43.644  38.961  30.147  1.00  0.00    -0.354 N 
ATOM     54  N   UNL A   1      44.151  35.481  28.507  1.00  0.00    -0.248 NA
ATOM     55  C   UNL A   1      43.358  34.260  26.763  1.00  0.00     0.031 C 
ATOM     56  C   UNL A   1      45.682  38.706  29.303  1.00  0.00     0.029 A 
ATOM     57  C   UNL A   1      44.357  38.360  29.084  1.00  0.00     0.049 A 
ATOM     58  H   UNL A   1      42.665  38.931  30.236  1.00  0.00     0.167 HD
ATOM     59  C   UNL A   1      43.705  36.425  27.630  1.00  0.00     0.074 A 
ATOM     60  C   UNL A   1      43.281  35.587  26.506  1.00  0.00     0.031 C 
ATOM     61  C   UNL A   1      43.689  37.787  27.887  1.00  0.00     0.034 A 
BRANCH  48  62
ATOM     62  C   UNL A   1      44.658  41.312  33.159  1.00  0.00     0.023 A 
ATOM     63  C   UNL A   1      45.617  41.136  34.180  1.00  0.00     0.012 A 
ATOM     64  C   UNL A   1      44.295  42.664  32.918  1.00  0.00     0.148 A 
ATOM     65  C   UNL A   1      46.046  42.181  35.017  1.00  0.00     0.002 A 
ATOM     66  C   UNL A   1      44.660  43.699  33.794  1.00  0.00     0.091 A 
ATOM     67  F   UNL A   1      43.689  42.987  31.768  1.00  0.00    -0.205 F 
ATOM     68  C   UNL A   1      45.526  43.455  34.858  1.00  0.00     0.022 A 
BRANCH  66  69
ATOM     69  S   UNL A   1      43.990  45.369  33.655  1.00  0.00     0.127 S 
ATOM     70  O   UNL A   1      42.681  45.242  34.302  1.00  0.00    -0.237 OA
ATOM     71  O   UNL A   1      44.957  46.163  34.408  1.00  0.00    -0.237 OA
ATOM     72  O   UNL A   1      43.915  45.654  32.226  1.00  0.00    -0.744 OA
ENDBRANCH  66  69
ENDBRANCH  48  62
BRANCH  49  73
ATOM     73  C   UNL A   1      43.519  31.788  29.316  1.00  0.00     0.023 A 
ATOM     74  C   UNL A   1      42.388  32.082  30.128  1.00  0.00     0.012 A 
ATOM     75  C   UNL A   1      43.534  30.543  28.656  1.00  0.00     0.148 A 
ATOM     76  C   UNL A   1      41.243  31.276  30.117  1.00  0.00     0.002 A 
ATOM     77  C   UNL A   1      42.368  29.759  28.618  1.00  0.00     0.091 A 
ATOM     78  F   UNL A   1      44.609  30.218  27.925  1.00  0.00    -0.205 F 
ATOM     79  C   UNL A   1      41.217  30.136  29.325  1.00  0.00     0.022 A 
BRANCH  77  80
ATOM     80  S   UNL A   1      42.216  28.397  27.441  1.00  0.00     0.127 S 
ATOM     81  O   UNL A   1      40.807  28.043  27.578  1.00  0.00    -0.237 OA
ATOM     82  O   UNL A   1      42.575  29.015  26.163  1.00  0.00    -0.237 OA
ATOM     83  O   UNL A   1      43.185  27.416  27.912  1.00  0.00    -0.744 OA
ENDBRANCH  77  80
ENDBRANCH  49  73
BRANCH  61  84
ATOM     84  C   UNL A   1      43.050  38.808  26.958  1.00  0.00     0.023 A 
ATOM     85  C   UNL A   1      41.655  38.926  26.845  1.00  0.00     0.012 A 
ATOM     86  C   UNL A   1      43.832  39.804  26.310  1.00  0.00     0.148 A 
ATOM     87  C   UNL A   1      41.063  39.947  26.095  1.00  0.00     0.002 A 
ATOM     88  C   UNL A   1      43.235  40.888  25.676  1.00  0.00     0.091 A 
ATOM     89  F   UNL A   1      45.167  39.700  26.266  1.00  0.00    -0.205 F 
ATOM     90  C   UNL A   1      41.850  40.946  25.541  1.00  0.00     0.022 A 
BRANCH  88  91
ATOM     91  S   UNL A   1      44.221  42.311  25.180  1.00  0.00     0.127 S 
ATOM     92  O   UNL A   1      45.225  41.690  24.302  1.00  0.00    -0.237 OA
ATOM     93  O   UNL A   1      43.233  43.135  24.462  1.00  0.00    -0.237 OA
ATOM     94  O   UNL A   1      44.707  42.894  26.400  1.00  0.00    -0.744 OA
ENDBRANCH  88  91
ENDBRANCH  61  84
ENDBRANCH  35  36
ENDBRANCH  28  30
ENDBRANCH  27  28
ENDBRANCH  26  27
ENDBRANCH  25  26
ENDBRANCH  24  25
ENDBRANCH  23  24
ENDBRANCH   1  23
TORSDOF 24
ENDMDL
MODEL 2
REMARK VINA RESULT:     -10.3      1.987      2.268
REMARK SMILES Cc1ccc(C(=O)OCCOCCOCCOCCOC(=O)c2ccc(-c3c4nc(c(-c5cccc(S(=O)(=O)[O-])c5F)c5ccc([nH]5)c(-c5cccc(S(=O)(=O)[O-])c5F)c5nc(c(-c6cccc(S(=O)(=O)[O-])c6F)c6ccc3[nH]6)C=C5)C=C4)cc2)cc1N1CC(C)C1
REMARK SMILES IDX 15 1 14 2 13 3 12 4 11 5 10 6 9 7 8 8 6 9 7 10 5 11 1 12
REMARK SMILES IDX 2 13 3 14 87 15 4 16 86 17 88 18 89 19 92 20 90 21 91 22
REMARK SMILES IDX 16 23 17 24 18 25 19 26 20 27 21 28 22 29 23 30 24 31 85 32
REMARK SMILES IDX 25 33 84 34 26 35 27 36 28 37 78 38 29 39 83 40 77 41 79 42
REMARK SMILES IDX 30 43 82 44 76 45 75 46 31 48 63 49 43 50 62 51 44 52 47 53
REMARK SMILES IDX 61 54 80 55 45 56 46 57 60 59 81 60 48 61 32 62 33 63 41 64
REMARK SMILES IDX 34 65 36 66 42 67 35 68 37 69 38 70 39 71 40 72 64 73 65 74
REMARK SMILES IDX 73 75 66 76 68 77 74 78 67 79 69 80 70 81 71 82 72 83 49 84
REMARK SMILES IDX 50 85 58 86 51 87 53 88 59 89 52 90 54 91 55 92 56 93 57 94
REMARK H PARENT 79 47 47 58
REMARK Flexibility Score: inf
ROOT
ATOM      1  C   UNL A   1      36.498  34.525  33.426  1.00  0.00     0.188 C 
ENDROOT
BRANCH   1   2
ATOM      2  O   UNL A   1      37.691  34.571  32.684  1.00  0.00    -0.377 OA
BRANCH   2   3
ATOM      3  C   UNL A   1      37.685  33.623  31.654  1.00  0.00     0.188 C 
BRANCH   3   4
ATOM      4  C   UNL A   1      38.168  34.109  30.286  1.00  0.00     0.188 C 
BRANCH   4   5
ATOM      5  O   UNL A   1      37.383  33.729  28.887  1.00  0.00    -0.376 OA
BRANCH   5   6
ATOM      6  C   UNL A   1      35.655  33.862  28.486  1.00  0.00     0.202 C 
BRANCH   6   7
ATOM      7  C   UNL A   1      34.151  32.756  28.722  1.00  0.00     0.261 C 
BRANCH   7   8
ATOM      8  O   UNL A   1      33.609  31.323  27.678  1.00  0.00    -0.460 OA
BRANCH   8   9
ATOM      9  C   UNL A   1      33.925  29.798  27.252  1.00  0.00     0.338 C 
ATOM     10  O   UNL A   1      35.062  29.365  27.495  1.00  0.00    -0.246 OA
BRANCH   9  11
ATOM     11  C   UNL A   1      33.037  28.599  26.401  1.00  0.00     0.062 A 
ATOM     12  C   UNL A   1      30.255  25.881  24.231  1.00  0.00     0.046 C 
ATOM     13  C   UNL A   1      31.217  26.754  24.976  1.00  0.00    -0.028 A 
ATOM     14  C   UNL A   1      31.128  28.166  24.887  1.00  0.00     0.006 A 
ATOM     15  C   UNL A   1      32.239  26.227  25.736  1.00  0.00     0.040 A 
ATOM     16  C   UNL A   1      31.984  29.056  25.606  1.00  0.00     0.016 A 
ATOM     17  C   UNL A   1      33.140  27.167  26.307  1.00  0.00     0.041 A 
BRANCH  15  18
ATOM     18  N   UNL A   1      32.451  24.856  26.025  1.00  0.00    -0.371 N 
ATOM     19  C   UNL A   1      33.672  24.101  25.907  1.00  0.00     0.121 C 
ATOM     20  C   UNL A   1      31.840  23.885  26.876  1.00  0.00     0.121 C 
ATOM     21  C   UNL A   1      32.861  22.859  26.317  1.00  0.00     0.025 C 
ATOM     22  C   UNL A   1      33.514  21.848  27.244  1.00  0.00     0.011 C 
ENDBRANCH  15  18
ENDBRANCH   9  11
ENDBRANCH   8   9
ENDBRANCH   7   8
ENDBRANCH   6   7
ENDBRANCH   5   6
ENDBRANCH   4   5
ENDBRANCH   3   4
ENDBRANCH   2   3
ENDBRANCH   1   2
BRANCH   1  23
ATOM     23  C   UNL A   1      36.122  33.129  33.958  1.00  0.00     0.188 C 
BRANCH  23  24
ATOM     24  O   UNL A   1      36.829  32.712  35.108  1.00  0.00    -0.376 OA
BRANCH  24  25
ATOM     25  C   UNL A   1      37.730  31.637  34.868  1.00  0.00     0.202 C 
BRANCH  25  26
ATOM     26  C   UNL A   1      38.673  31.086  36.025  1.00  0.00     0.261 C 
BRANCH  26  27
ATOM     27  O   UNL A   1      39.542  32.106  36.669  1.00  0.00    -0.460 OA
BRANCH  27  28
ATOM     28  C   UNL A   1      40.895  32.187  36.364  1.00  0.00     0.338 C 
ATOM     29  O   UNL A   1      41.673  31.263  36.557  1.00  0.00    -0.246 OA
BRANCH  28  30
ATOM     30  C   UNL A   1      41.336  33.647  36.062  1.00  0.00     0.060 A 
ATOM     31  C   UNL A   1      40.760  34.400  35.049  1.00  0.00     0.016 A 
ATOM     32  C   UNL A   1      42.535  34.178  36.531  1.00  0.00     0.016 A 
ATOM     33  C   UNL A   1      41.535  35.407  34.383  1.00  0.00     0.010 A 
ATOM     34  C   UNL A   1      43.387  34.935  35.650  1.00  0.00     0.010 A 
ATOM     35  C   UNL A   1      42.956  35.420  34.403  1.00  0.00    -0.014 A 
BRANCH  35  36
ATOM     36  C   UNL A   1      44.083  36.016  33.150  1.00  0.00     0.031 A 
ATOM     37  C   UNL A   1      43.607  37.720  33.413  1.00  0.00     0.074 A 
ATOM     38  C   UNL A   1      44.887  35.308  31.804  1.00  0.00     0.049 A 
ATOM     39  N   UNL A   1      43.126  38.554  32.507  1.00  0.00    -0.248 NA
ATOM     40  C   UNL A   1      43.493  38.388  34.726  1.00  0.00     0.031 C 
ATOM     41  C   UNL A   1      45.670  35.818  30.381  1.00  0.00     0.029 A 
ATOM     42  N   UNL A   1      44.924  33.865  31.129  1.00  0.00    -0.354 N 
ATOM     43  C   UNL A   1      43.364  39.821  32.950  1.00  0.00     0.074 A 
ATOM     44  C   UNL A   1      43.225  39.656  34.374  1.00  0.00     0.031 C 
ATOM     45  C   UNL A   1      45.875  34.907  29.426  1.00  0.00     0.029 A 
ATOM     46  C   UNL A   1      44.978  33.866  29.716  1.00  0.00     0.049 A 
ATOM     47  H   UNL A   1      44.908  33.034  31.657  1.00  0.00     0.167 HD
ATOM     48  C   UNL A   1      44.022  40.749  32.174  1.00  0.00     0.034 A 
ATOM     49  C   UNL A   1      43.987  33.545  28.814  1.00  0.00     0.034 A 
ATOM     50  C   UNL A   1      44.465  40.226  30.816  1.00  0.00     0.049 A 
ATOM     51  C   UNL A   1      43.640  34.832  27.966  1.00  0.00     0.074 A 
ATOM     52  C   UNL A   1      45.732  40.010  30.273  1.00  0.00     0.029 A 
ATOM     53  N   UNL A   1      43.592  39.609  29.893  1.00  0.00    -0.354 N 
ATOM     54  N   UNL A   1      43.915  36.062  28.352  1.00  0.00    -0.248 NA
ATOM     55  C   UNL A   1      43.081  34.845  26.623  1.00  0.00     0.031 C 
ATOM     56  C   UNL A   1      45.626  39.208  29.098  1.00  0.00     0.029 A 
ATOM     57  C   UNL A   1      44.286  38.937  28.860  1.00  0.00     0.049 A 
ATOM     58  H   UNL A   1      42.611  39.641  29.962  1.00  0.00     0.167 HD
ATOM     59  C   UNL A   1      43.545  37.008  27.442  1.00  0.00     0.074 A 
ATOM     60  C   UNL A   1      43.092  36.168  26.332  1.00  0.00     0.031 C 
ATOM     61  C   UNL A   1      43.607  38.375  27.664  1.00  0.00     0.034 A 
BRANCH  48  62
ATOM     62  C   UNL A   1      44.690  41.973  32.864  1.00  0.00     0.023 A 
ATOM     63  C   UNL A   1      44.039  43.225  32.849  1.00  0.00     0.012 A 
ATOM     64  C   UNL A   1      45.966  41.980  33.489  1.00  0.00     0.148 A 
ATOM     65  C   UNL A   1      44.664  44.419  33.249  1.00  0.00     0.002 A 
ATOM     66  C   UNL A   1      46.625  43.174  33.821  1.00  0.00     0.091 A 
ATOM     67  F   UNL A   1      46.512  40.822  33.883  1.00  0.00    -0.205 F 
ATOM     68  C   UNL A   1      45.979  44.402  33.686  1.00  0.00     0.022 A 
BRANCH  66  69
ATOM     69  S   UNL A   1      48.346  43.216  34.364  1.00  0.00     0.127 S 
ATOM     70  O   UNL A   1      48.642  44.651  34.373  1.00  0.00    -0.237 OA
ATOM     71  O   UNL A   1      48.275  42.608  35.691  1.00  0.00    -0.237 OA
ATOM     72  O   UNL A   1      49.100  42.466  33.365  1.00  0.00    -0.744 OA
ENDBRANCH  66  69
ENDBRANCH  48  62
BRANCH  49  73
ATOM     73  C   UNL A   1      43.040  32.437  29.242  1.00  0.00     0.023 A 
ATOM     74  C   UNL A   1      43.162  31.193  28.562  1.00  0.00     0.012 A 
ATOM     75  C   UNL A   1      42.356  32.436  30.474  1.00  0.00     0.148 A 
ATOM     76  C   UNL A   1      42.807  29.983  29.171  1.00  0.00     0.002 A 
ATOM     77  C   UNL A   1      42.041  31.216  31.096  1.00  0.00     0.091 A 
ATOM     78  F   UNL A   1      42.184  33.602  31.112  1.00  0.00    -0.205 F 
ATOM     79  C   UNL A   1      42.288  29.991  30.458  1.00  0.00     0.022 A 
BRANCH  77  80
ATOM     80  S   UNL A   1      41.570  31.170  32.839  1.00  0.00     0.127 S 
ATOM     81  O   UNL A   1      41.486  29.734  33.085  1.00  0.00    -0.237 OA
ATOM     82  O   UNL A   1      42.683  31.847  33.506  1.00  0.00    -0.237 OA
ATOM     83  O   UNL A   1      40.317  31.914  32.884  1.00  0.00    -0.744 OA
ENDBRANCH  77  80
ENDBRANCH  49  73
BRANCH  61  84
ATOM     84  C   UNL A   1      43.051  39.408  26.696  1.00  0.00     0.023 A 
ATOM     85  C   UNL A   1      41.670  39.637  26.581  1.00  0.00     0.012 A 
ATOM     86  C   UNL A   1      43.910  40.309  26.007  1.00  0.00     0.148 A 
ATOM     87  C   UNL A   1      41.161  40.673  25.793  1.00  0.00     0.002 A 
ATOM     88  C   UNL A   1      43.401  41.413  25.332  1.00  0.00     0.091 A 
ATOM     89  F   UNL A   1      45.231  40.092  25.965  1.00  0.00    -0.205 F 
ATOM     90  C   UNL A   1      42.025  41.580  25.197  1.00  0.00     0.022 A 
BRANCH  88  91
ATOM     91  S   UNL A   1      44.500  42.728  24.777  1.00  0.00     0.127 S 
ATOM     92  O   UNL A   1      45.245  42.062  23.699  1.00  0.00    -0.237 OA
ATOM     93  O   UNL A   1      43.546  43.745  24.301  1.00  0.00    -0.237 OA
ATOM     94  O   UNL A   1      45.256  43.119  25.935  1.00  0.00    -0.744 OA
ENDBRANCH  88  91
ENDBRANCH  61  84
ENDBRANCH  35  36
ENDBRANCH  28  30
ENDBRANCH  27  28
ENDBRANCH  26  27
ENDBRANCH  25  26
ENDBRANCH  24  25
ENDBRANCH  23  24
ENDBRANCH   1  23
TORSDOF 24
ENDMDL
MODEL 3
REMARK VINA RESULT:     -10.3      4.035      8.067
REMARK SMILES Cc1ccc(C(=O)OCCOCCOCCOCCOC(=O)c2ccc(-c3c4nc(c(-c5cccc(S(=O)(=O)[O-])c5F)c5ccc([nH]5)c(-c5cccc(S(=O)(=O)[O-])c5F)c5nc(c(-c6cccc(S(=O)(=O)[O-])c6F)c6ccc3[nH]6)C=C5)C=C4)cc2)cc1N1CC(C)C1
REMARK SMILES IDX 15 1 14 2 13 3 12 4 11 5 10 6 9 7 8 8 6 9 7 10 5 11 1 12
REMARK SMILES IDX 2 13 3 14 87 15 4 16 86 17 88 18 89 19 92 20 90 21 91 22
REMARK SMILES IDX 16 23 17 24 18 25 19 26 20 27 21 28 22 29 23 30 24 31 85 32
REMARK SMILES IDX 25 33 84 34 26 35 27 36 28 37 78 38 29 39 83 40 77 41 79 42
REMARK SMILES IDX 30 43 82 44 76 45 75 46 31 48 63 49 43 50 62 51 44 52 47 53
REMARK SMILES IDX 61 54 80 55 45 56 46 57 60 59 81 60 48 61 32 62 33 63 41 64
REMARK SMILES IDX 34 65 36 66 42 67 35 68 37 69 38 70 39 71 40 72 64 73 65 74
REMARK SMILES IDX 73 75 66 76 68 77 74 78 67 79 69 80 70 81 71 82 72 83 49 84
REMARK SMILES IDX 50 85 58 86 51 87 53 88 59 89 52 90 54 91 55 92 56 93 57 94
REMARK H PARENT 79 47 47 58
REMARK Flexibility Score: inf
ROOT
ATOM      1  C   UNL A   1      34.039  28.714  26.307  1.00  0.00     0.188 C 
ENDROOT
BRANCH   1   2
ATOM      2  O   UNL A   1      32.855  28.223  26.884  1.00  0.00    -0.377 OA
BRANCH   2   3
ATOM      3  C   UNL A   1      31.799  29.127  26.719  1.00  0.00     0.188 C 
BRANCH   3   4
ATOM      4  C   UNL A   1      31.710  29.821  25.358  1.00  0.00     0.188 C 
BRANCH   4   5
ATOM      5  O   UNL A   1      30.539  29.458  24.256  1.00  0.00    -0.376 OA
BRANCH   5   6
ATOM      6  C   UNL A   1      29.850  27.878  23.815  1.00  0.00     0.202 C 
BRANCH   6   7
ATOM      7  C   UNL A   1      30.012  26.128  24.485  1.00  0.00     0.261 C 
BRANCH   7   8
ATOM      8  O   UNL A   1      31.512  25.314  25.210  1.00  0.00    -0.460 OA
BRANCH   8   9
ATOM      9  C   UNL A   1      32.057  24.046  26.049  1.00  0.00     0.338 C 
ATOM     10  O   UNL A   1      31.538  23.831  27.155  1.00  0.00    -0.246 OA
BRANCH   9  11
ATOM     11  C   UNL A   1      33.331  22.922  25.799  1.00  0.00     0.062 A 
ATOM     12  C   UNL A   1      36.964  20.490  24.947  1.00  0.00     0.046 C 
ATOM     13  C   UNL A   1      35.714  21.266  25.226  1.00  0.00    -0.028 A 
ATOM     14  C   UNL A   1      35.783  22.619  25.644  1.00  0.00     0.006 A 
ATOM     15  C   UNL A   1      34.464  20.692  25.129  1.00  0.00     0.040 A 
ATOM     16  C   UNL A   1      34.630  23.428  25.884  1.00  0.00     0.016 A 
ATOM     17  C   UNL A   1      33.370  21.511  25.520  1.00  0.00     0.041 A 
BRANCH  15  18
ATOM     18  N   UNL A   1      34.172  19.391  24.649  1.00  0.00    -0.371 N 
ATOM     19  C   UNL A   1      34.409  18.129  25.300  1.00  0.00     0.121 C 
ATOM     20  C   UNL A   1      33.237  18.830  23.725  1.00  0.00     0.121 C 
ATOM     21  C   UNL A   1      33.884  17.451  24.022  1.00  0.00     0.025 C 
ATOM     22  C   UNL A   1      33.015  16.214  24.169  1.00  0.00     0.011 C 
ENDBRANCH  15  18
ENDBRANCH   9  11
ENDBRANCH   8   9
ENDBRANCH   7   8
ENDBRANCH   6   7
ENDBRANCH   5   6
ENDBRANCH   4   5
ENDBRANCH   3   4
ENDBRANCH   2   3
ENDBRANCH   1   2
BRANCH   1  23
ATOM     23  C   UNL A   1      34.515  30.070  26.863  1.00  0.00     0.188 C 
BRANCH  23  24
ATOM     24  O   UNL A   1      35.588  30.002  27.779  1.00  0.00    -0.376 OA
BRANCH  24  25
ATOM     25  C   UNL A   1      35.314  30.623  29.030  1.00  0.00     0.202 C 
BRANCH  25  26
ATOM     26  C   UNL A   1      34.620  32.052  29.099  1.00  0.00     0.261 C 
BRANCH  26  27
ATOM     27  O   UNL A   1      34.291  32.527  30.468  1.00  0.00    -0.460 OA
BRANCH  27  28
ATOM     28  C   UNL A   1      35.210  33.259  31.211  1.00  0.00     0.338 C 
ATOM     29  O   UNL A   1      34.985  34.394  31.608  1.00  0.00    -0.246 OA
BRANCH  28  30
ATOM     30  C   UNL A   1      36.621  32.607  31.197  1.00  0.00     0.060 A 
ATOM     31  C   UNL A   1      37.061  31.772  32.215  1.00  0.00     0.016 A 
ATOM     32  C   UNL A   1      37.648  33.063  30.376  1.00  0.00     0.016 A 
ATOM     33  C   UNL A   1      38.459  31.706  32.525  1.00  0.00     0.010 A 
ATOM     34  C   UNL A   1      38.975  33.244  30.905  1.00  0.00     0.010 A 
ATOM     35  C   UNL A   1      39.379  32.721  32.146  1.00  0.00    -0.014 A 
BRANCH  35  36
ATOM     36  C   UNL A   1      40.867  33.247  32.984  1.00  0.00     0.031 A 
ATOM     37  C   UNL A   1      39.949  34.132  34.239  1.00  0.00     0.074 A 
ATOM     38  C   UNL A   1      42.523  33.399  32.539  1.00  0.00     0.049 A 
ATOM     39  N   UNL A   1      40.059  35.414  34.540  1.00  0.00    -0.248 NA
ATOM     40  C   UNL A   1      38.790  33.605  34.988  1.00  0.00     0.031 C 
ATOM     41  C   UNL A   1      43.921  34.191  33.101  1.00  0.00     0.029 A 
ATOM     42  N   UNL A   1      43.371  33.163  31.210  1.00  0.00    -0.354 N 
ATOM     43  C   UNL A   1      39.600  35.576  35.813  1.00  0.00     0.074 A 
ATOM     44  C   UNL A   1      38.549  34.593  35.864  1.00  0.00     0.031 C 
ATOM     45  C   UNL A   1      44.949  34.307  32.256  1.00  0.00     0.029 A 
ATOM     46  C   UNL A   1      44.398  34.108  30.980  1.00  0.00     0.049 A 
ATOM     47  H   UNL A   1      43.193  32.416  30.595  1.00  0.00     0.167 HD
ATOM     48  C   UNL A   1      40.360  36.188  36.785  1.00  0.00     0.034 A 
ATOM     49  C   UNL A   1      44.443  35.123  30.050  1.00  0.00     0.034 A 
ATOM     50  C   UNL A   1      41.735  36.635  36.315  1.00  0.00     0.049 A 
ATOM     51  C   UNL A   1      44.491  36.506  30.812  1.00  0.00     0.074 A 
ATOM     52  C   UNL A   1      43.018  36.210  36.664  1.00  0.00     0.029 A 
ATOM     53  N   UNL A   1      41.947  37.459  35.188  1.00  0.00    -0.354 N 
ATOM     54  N   UNL A   1      44.106  36.669  32.061  1.00  0.00    -0.248 NA
ATOM     55  C   UNL A   1      45.054  37.745  30.299  1.00  0.00     0.031 C 
ATOM     56  C   UNL A   1      43.965  36.700  35.717  1.00  0.00     0.029 A 
ATOM     57  C   UNL A   1      43.300  37.473  34.776  1.00  0.00     0.049 A 
ATOM     58  H   UNL A   1      41.233  37.965  34.738  1.00  0.00     0.167 HD
ATOM     59  C   UNL A   1      44.265  37.947  32.512  1.00  0.00     0.074 A 
ATOM     60  C   UNL A   1      44.944  38.565  31.371  1.00  0.00     0.031 C 
ATOM     61  C   UNL A   1      43.819  38.404  33.742  1.00  0.00     0.034 A 
BRANCH  48  62
ATOM     62  C   UNL A   1      40.026  35.922  38.282  1.00  0.00     0.023 A 
ATOM     63  C   UNL A   1      39.330  36.899  39.027  1.00  0.00     0.012 A 
ATOM     64  C   UNL A   1      40.409  34.776  39.028  1.00  0.00     0.148 A 
ATOM     65  C   UNL A   1      39.184  36.839  40.423  1.00  0.00     0.002 A 
ATOM     66  C   UNL A   1      40.335  34.741  40.430  1.00  0.00     0.091 A 
ATOM     67  F   UNL A   1      40.742  33.651  38.381  1.00  0.00    -0.205 F 
ATOM     68  C   UNL A   1      39.735  35.784  41.133  1.00  0.00     0.022 A 
BRANCH  66  69
ATOM     69  S   UNL A   1      41.063  33.411  41.408  1.00  0.00     0.127 S 
ATOM     70  O   UNL A   1      42.498  33.588  41.170  1.00  0.00    -0.237 OA
ATOM     71  O   UNL A   1      40.633  33.743  42.765  1.00  0.00    -0.237 OA
ATOM     72  O   UNL A   1      40.524  32.170  40.861  1.00  0.00    -0.744 OA
ENDBRANCH  66  69
ENDBRANCH  48  62
BRANCH  49  73
ATOM     73  C   UNL A   1      43.778  34.825  28.717  1.00  0.00     0.023 A 
ATOM     74  C   UNL A   1      42.701  35.672  28.335  1.00  0.00     0.012 A 
ATOM     75  C   UNL A   1      44.385  34.055  27.704  1.00  0.00     0.148 A 
ATOM     76  C   UNL A   1      42.382  35.899  26.990  1.00  0.00     0.002 A 
ATOM     77  C   UNL A   1      44.088  34.317  26.356  1.00  0.00     0.091 A 
ATOM     78  F   UNL A   1      45.369  33.211  28.044  1.00  0.00    -0.205 F 
ATOM     79  C   UNL A   1      43.107  35.253  25.997  1.00  0.00     0.022 A 
BRANCH  77  80
ATOM     80  S   UNL A   1      45.144  33.669  25.042  1.00  0.00     0.127 S 
ATOM     81  O   UNL A   1      45.113  32.236  25.316  1.00  0.00    -0.237 OA
ATOM     82  O   UNL A   1      44.449  34.078  23.820  1.00  0.00    -0.237 OA
ATOM     83  O   UNL A   1      46.418  34.346  25.248  1.00  0.00    -0.744 OA
ENDBRANCH  77  80
ENDBRANCH  49  73
BRANCH  61  84
ATOM     84  C   UNL A   1      43.873  39.865  34.163  1.00  0.00     0.023 A 
ATOM     85  C   UNL A   1      42.881  40.779  33.771  1.00  0.00     0.012 A 
ATOM     86  C   UNL A   1      44.824  40.321  35.118  1.00  0.00     0.148 A 
ATOM     87  C   UNL A   1      42.853  42.087  34.261  1.00  0.00     0.002 A 
ATOM     88  C   UNL A   1      44.713  41.580  35.698  1.00  0.00     0.091 A 
ATOM     89  F   UNL A   1      45.870  39.557  35.455  1.00  0.00    -0.205 F 
ATOM     90  C   UNL A   1      43.747  42.477  35.249  1.00  0.00     0.022 A 
BRANCH  88  91
ATOM     91  S   UNL A   1      45.692  42.006  37.149  1.00  0.00     0.127 S 
ATOM     92  O   UNL A   1      45.422  43.446  37.281  1.00  0.00    -0.237 OA
ATOM     93  O   UNL A   1      45.063  41.184  38.197  1.00  0.00    -0.237 OA
ATOM     94  O   UNL A   1      47.043  41.631  36.830  1.00  0.00    -0.744 OA
ENDBRANCH  88  91
ENDBRANCH  61  84
ENDBRANCH  35  36
ENDBRANCH  28  30
ENDBRANCH  27  28
ENDBRANCH  26  27
ENDBRANCH  25  26
ENDBRANCH  24  25
ENDBRANCH  23  24
ENDBRANCH   1  23
TORSDOF 24
ENDMDL
