MODEL 1
REMARK VINA RESULT:      -6.7      0.000      0.000
REMARK SMILES O=C(OCCOCCOCCOCCOC(=O)c1cc([C@@H]2C=NN=C2c2ccc(F)cc2)c2c(ccc3ccccc32)n1)c1ccc(-c2c3nc(c(-c4cccc(S(=O)(=O)[O-])c4F)c4ccc([nH]4)c(-c4cccc(S(=O)(=O)[O-])c4F)c4nc(c(-c5cccc(S(=O)(=O)[O-])c5F)c5ccc2[nH]5)C=C4)C=C3)cc1
REMARK SMILES IDX 8 1 7 2 6 3 5 4 4 5 3 6 2 7 1 8 44 9 45 10 106 11 46 12
REMARK SMILES IDX 105 13 47 14 48 15 49 16 99 17 50 18 104 19 98 20 100 21
REMARK SMILES IDX 51 22 103 23 97 24 96 25 52 27 84 28 64 29 83 30 65 31 68 32
REMARK SMILES IDX 82 33 101 34 66 35 67 36 81 38 102 39 69 40 53 41 54 42
REMARK SMILES IDX 62 43 55 44 57 45 63 46 56 47 58 48 59 49 60 50 61 51 85 52
REMARK SMILES IDX 86 53 94 54 87 55 89 56 95 57 88 58 90 59 91 60 92 61 93 62
REMARK SMILES IDX 70 63 71 64 79 65 72 66 74 67 80 68 73 69 75 70 76 71 77 72
REMARK SMILES IDX 78 73 9 74 10 75 11 76 12 77 13 78 14 79 15 80 16 81 17 82
REMARK SMILES IDX 18 83 19 84 43 85 20 86 34 87 33 88 35 89 42 90 36 91 37 92
REMARK SMILES IDX 41 93 38 94 40 95 39 96 21 97 22 98 25 99 23 100 24 101
REMARK SMILES IDX 26 102 27 103 32 104 28 105 31 106 29 107 30 108
REMARK H PARENT 100 26 68 37
REMARK Flexibility Score: inf
ROOT
ATOM      1  C   UNL A   1      41.043  21.735  27.671  1.00  0.00     0.188 C 
ENDROOT
BRANCH   1   2
ATOM      2  C   UNL A   1      41.205  20.806  26.451  1.00  0.00     0.188 C 
BRANCH   2   3
ATOM      3  O   UNL A   1      42.317  20.811  25.571  1.00  0.00    -0.376 OA
BRANCH   3   4
ATOM      4  C   UNL A   1      43.685  21.086  25.790  1.00  0.00     0.202 C 
BRANCH   4   5
ATOM      5  C   UNL A   1      44.504  22.227  25.184  1.00  0.00     0.261 C 
BRANCH   5   6
ATOM      6  O   UNL A   1      44.667  23.373  25.999  1.00  0.00    -0.460 OA
BRANCH   6   7
ATOM      7  C   UNL A   1      45.743  23.717  26.735  1.00  0.00     0.338 C 
ATOM      8  O   UNL A   1      46.850  23.609  26.210  1.00  0.00    -0.246 OA
BRANCH   7   9
ATOM      9  C   UNL A   1      45.676  24.141  28.160  1.00  0.00     0.060 A 
ATOM     10  C   UNL A   1      44.646  23.869  29.067  1.00  0.00     0.016 A 
ATOM     11  C   UNL A   1      46.773  24.909  28.592  1.00  0.00     0.016 A 
ATOM     12  C   UNL A   1      44.575  24.549  30.259  1.00  0.00     0.010 A 
ATOM     13  C   UNL A   1      46.736  25.557  29.807  1.00  0.00     0.010 A 
ATOM     14  C   UNL A   1      45.581  25.452  30.566  1.00  0.00    -0.014 A 
BRANCH  14  15
ATOM     15  C   UNL A   1      45.365  26.290  31.720  1.00  0.00     0.031 A 
ATOM     16  C   UNL A   1      45.382  25.557  33.006  1.00  0.00     0.074 A 
ATOM     17  C   UNL A   1      45.194  27.615  31.552  1.00  0.00     0.049 A 
ATOM     18  N   UNL A   1      44.416  25.412  33.850  1.00  0.00    -0.248 NA
ATOM     19  C   UNL A   1      46.568  24.735  33.298  1.00  0.00     0.031 C 
ATOM     20  C   UNL A   1      45.400  28.390  30.322  1.00  0.00     0.029 A 
ATOM     21  N   UNL A   1      44.957  28.572  32.481  1.00  0.00    -0.354 N 
ATOM     22  C   UNL A   1      44.969  24.699  34.911  1.00  0.00     0.074 A 
ATOM     23  C   UNL A   1      46.197  24.131  34.427  1.00  0.00     0.031 C 
ATOM     24  C   UNL A   1      45.565  29.690  30.646  1.00  0.00     0.029 A 
ATOM     25  C   UNL A   1      45.340  29.845  32.071  1.00  0.00     0.049 A 
ATOM     26  H   UNL A   1      44.553  28.385  33.361  1.00  0.00     0.167 HD
ATOM     27  C   UNL A   1      44.532  24.892  36.184  1.00  0.00     0.034 A 
ATOM     28  C   UNL A   1      45.569  30.908  32.879  1.00  0.00     0.034 A 
ATOM     29  C   UNL A   1      43.207  25.453  36.208  1.00  0.00     0.049 A 
ATOM     30  C   UNL A   1      44.887  30.628  34.165  1.00  0.00     0.074 A 
ATOM     31  C   UNL A   1      41.978  25.065  35.713  1.00  0.00     0.029 A 
ATOM     32  N   UNL A   1      43.100  26.793  36.485  1.00  0.00    -0.354 N 
ATOM     33  N   UNL A   1      43.592  30.541  34.292  1.00  0.00    -0.248 NA
ATOM     34  C   UNL A   1      45.666  30.007  35.225  1.00  0.00     0.031 C 
ATOM     35  C   UNL A   1      41.361  26.273  35.280  1.00  0.00     0.029 A 
ATOM     36  C   UNL A   1      42.212  27.334  35.595  1.00  0.00     0.049 A 
ATOM     37  H   UNL A   1      43.578  27.280  37.196  1.00  0.00     0.167 HD
ATOM     38  C   UNL A   1      43.404  29.483  35.172  1.00  0.00     0.074 A 
ATOM     39  C   UNL A   1      44.708  29.272  35.798  1.00  0.00     0.031 C 
ATOM     40  C   UNL A   1      42.297  28.688  35.090  1.00  0.00     0.034 A 
BRANCH  27  41
ATOM     41  C   UNL A   1      45.451  24.951  37.383  1.00  0.00     0.023 A 
ATOM     42  C   UNL A   1      45.137  24.127  38.485  1.00  0.00     0.012 A 
ATOM     43  C   UNL A   1      46.428  25.953  37.597  1.00  0.00     0.148 A 
ATOM     44  C   UNL A   1      45.726  24.321  39.739  1.00  0.00     0.002 A 
ATOM     45  C   UNL A   1      47.079  26.082  38.818  1.00  0.00     0.091 A 
ATOM     46  F   UNL A   1      46.647  26.893  36.674  1.00  0.00    -0.205 F 
ATOM     47  C   UNL A   1      46.707  25.291  39.904  1.00  0.00     0.022 A 
BRANCH  45  48
ATOM     48  S   UNL A   1      48.400  27.278  39.049  1.00  0.00     0.127 S 
ATOM     49  O   UNL A   1      48.771  27.038  40.440  1.00  0.00    -0.237 OA
ATOM     50  O   UNL A   1      49.381  26.833  38.060  1.00  0.00    -0.237 OA
ATOM     51  O   UNL A   1      47.805  28.577  38.755  1.00  0.00    -0.744 OA
ENDBRANCH  45  48
ENDBRANCH  27  41
BRANCH  28  52
ATOM     52  C   UNL A   1      46.607  31.960  32.757  1.00  0.00     0.023 A 
ATOM     53  C   UNL A   1      46.206  33.294  32.540  1.00  0.00     0.012 A 
ATOM     54  C   UNL A   1      47.946  31.723  33.144  1.00  0.00     0.148 A 
ATOM     55  C   UNL A   1      47.092  34.357  32.747  1.00  0.00     0.002 A 
ATOM     56  C   UNL A   1      48.825  32.782  33.343  1.00  0.00     0.091 A 
ATOM     57  F   UNL A   1      48.332  30.469  33.411  1.00  0.00    -0.205 F 
ATOM     58  C   UNL A   1      48.397  34.103  33.159  1.00  0.00     0.022 A 
BRANCH  56  59
ATOM     59  S   UNL A   1      50.514  32.534  33.912  1.00  0.00     0.127 S 
ATOM     60  O   UNL A   1      50.856  33.859  34.429  1.00  0.00    -0.237 OA
ATOM     61  O   UNL A   1      50.339  31.504  34.932  1.00  0.00    -0.237 OA
ATOM     62  O   UNL A   1      51.275  32.135  32.735  1.00  0.00    -0.744 OA
ENDBRANCH  56  59
ENDBRANCH  28  52
BRANCH  40  63
ATOM     63  C   UNL A   1      41.166  29.124  34.190  1.00  0.00     0.023 A 
ATOM     64  C   UNL A   1      40.772  28.381  33.057  1.00  0.00     0.012 A 
ATOM     65  C   UNL A   1      40.349  30.180  34.626  1.00  0.00     0.148 A 
ATOM     66  C   UNL A   1      39.594  28.692  32.371  1.00  0.00     0.002 A 
ATOM     67  C   UNL A   1      39.152  30.450  33.976  1.00  0.00     0.091 A 
ATOM     68  F   UNL A   1      40.739  30.876  35.705  1.00  0.00    -0.205 F 
ATOM     69  C   UNL A   1      38.774  29.715  32.842  1.00  0.00     0.022 A 
BRANCH  67  70
ATOM     70  S   UNL A   1      37.983  31.645  34.629  1.00  0.00     0.127 S 
ATOM     71  O   UNL A   1      36.838  31.470  33.738  1.00  0.00    -0.237 OA
ATOM     72  O   UNL A   1      37.774  31.164  35.996  1.00  0.00    -0.237 OA
ATOM     73  O   UNL A   1      38.648  32.940  34.550  1.00  0.00    -0.744 OA
ENDBRANCH  67  70
ENDBRANCH  40  63
ENDBRANCH  14  15
ENDBRANCH   7   9
ENDBRANCH   6   7
ENDBRANCH   5   6
ENDBRANCH   4   5
ENDBRANCH   3   4
ENDBRANCH   2   3
ENDBRANCH   1   2
BRANCH   1  74
ATOM     74  O   UNL A   1      40.017  22.709  27.603  1.00  0.00    -0.377 OA
BRANCH  74  75
ATOM     75  C   UNL A   1      40.481  24.022  27.818  1.00  0.00     0.188 C 
BRANCH  75  76
ATOM     76  C   UNL A   1      41.561  24.488  26.816  1.00  0.00     0.188 C 
BRANCH  76  77
ATOM     77  O   UNL A   1      41.255  25.275  25.670  1.00  0.00    -0.376 OA
BRANCH  77  78
ATOM     78  C   UNL A   1      41.587  26.650  25.595  1.00  0.00     0.202 C 
BRANCH  78  79
ATOM     79  C   UNL A   1      40.965  27.626  26.600  1.00  0.00     0.261 C 
BRANCH  79  80
ATOM     80  O   UNL A   1      41.403  28.981  26.486  1.00  0.00    -0.459 OA
BRANCH  80  81
ATOM     81  C   UNL A   1      42.751  29.164  26.456  1.00  0.00     0.357 C 
ATOM     82  O   UNL A   1      43.562  28.626  25.743  1.00  0.00    -0.244 OA
BRANCH  81  83
ATOM     83  C   UNL A   1      43.062  30.190  27.486  1.00  0.00     0.149 A 
ATOM     84  C   UNL A   1      43.994  31.134  27.176  1.00  0.00     0.041 A 
ATOM     85  N   UNL A   1      42.401  30.172  28.657  1.00  0.00    -0.241 NA
ATOM     86  C   UNL A   1      44.146  32.252  28.020  1.00  0.00    -0.021 A 
ATOM     87  C   UNL A   1      42.640  31.148  29.542  1.00  0.00     0.072 A 
ATOM     88  C   UNL A   1      43.421  32.312  29.281  1.00  0.00     0.012 A 
ATOM     89  C   UNL A   1      42.013  30.971  30.761  1.00  0.00     0.029 A 
ATOM     90  C   UNL A   1      43.313  33.390  30.281  1.00  0.00    -0.009 A 
ATOM     91  C   UNL A   1      42.056  31.930  31.762  1.00  0.00     0.011 A 
ATOM     92  C   UNL A   1      42.660  33.155  31.523  1.00  0.00    -0.018 A 
ATOM     93  C   UNL A   1      43.748  34.724  30.113  1.00  0.00     0.009 A 
ATOM     94  C   UNL A   1      42.560  34.150  32.515  1.00  0.00     0.009 A 
ATOM     95  C   UNL A   1      43.634  35.722  31.087  1.00  0.00     0.001 A 
ATOM     96  C   UNL A   1      43.051  35.430  32.301  1.00  0.00     0.001 A 
BRANCH  86  97
ATOM     97  C   UNL A   1      44.916  33.323  27.292  1.00  0.00     0.115 C 
ATOM     98  C   UNL A   1      44.507  33.884  25.992  1.00  0.00     0.123 C 
ATOM     99  C   UNL A   1      46.340  32.995  26.966  1.00  0.00     0.083 C 
ATOM    100  N   UNL A   1      45.516  34.053  25.194  1.00  0.00    -0.162 NA
ATOM    101  N   UNL A   1      46.696  33.487  25.816  1.00  0.00    -0.154 NA
BRANCH  99 102
ATOM    102  C   UNL A   1      47.225  32.279  27.906  1.00  0.00    -0.001 A 
ATOM    103  C   UNL A   1      47.581  30.957  27.633  1.00  0.00     0.013 A 
ATOM    104  C   UNL A   1      47.766  32.930  29.025  1.00  0.00     0.013 A 
ATOM    105  C   UNL A   1      48.503  30.307  28.459  1.00  0.00     0.040 A 
ATOM    106  C   UNL A   1      48.711  32.290  29.828  1.00  0.00     0.040 A 
ATOM    107  C   UNL A   1      49.068  30.981  29.540  1.00  0.00     0.123 A 
ATOM    108  F   UNL A   1      49.960  30.355  30.319  1.00  0.00    -0.207 F 
ENDBRANCH  99 102
ENDBRANCH  86  97
ENDBRANCH  81  83
ENDBRANCH  80  81
ENDBRANCH  79  80
ENDBRANCH  78  79
ENDBRANCH  77  78
ENDBRANCH  76  77
ENDBRANCH  75  76
ENDBRANCH  74  75
ENDBRANCH   1  74
TORSDOF 25
ENDMDL
MODEL 2
REMARK VINA RESULT:      -6.6      7.725     15.863
REMARK SMILES O=C(OCCOCCOCCOCCOC(=O)c1cc([C@@H]2C=NN=C2c2ccc(F)cc2)c2c(ccc3ccccc32)n1)c1ccc(-c2c3nc(c(-c4cccc(S(=O)(=O)[O-])c4F)c4ccc([nH]4)c(-c4cccc(S(=O)(=O)[O-])c4F)c4nc(c(-c5cccc(S(=O)(=O)[O-])c5F)c5ccc2[nH]5)C=C4)C=C3)cc1
REMARK SMILES IDX 8 1 7 2 6 3 5 4 4 5 3 6 2 7 1 8 44 9 45 10 106 11 46 12
REMARK SMILES IDX 105 13 47 14 48 15 49 16 99 17 50 18 104 19 98 20 100 21
REMARK SMILES IDX 51 22 103 23 97 24 96 25 52 27 84 28 64 29 83 30 65 31 68 32
REMARK SMILES IDX 82 33 101 34 66 35 67 36 81 38 102 39 69 40 53 41 54 42
REMARK SMILES IDX 62 43 55 44 57 45 63 46 56 47 58 48 59 49 60 50 61 51 85 52
REMARK SMILES IDX 86 53 94 54 87 55 89 56 95 57 88 58 90 59 91 60 92 61 93 62
REMARK SMILES IDX 70 63 71 64 79 65 72 66 74 67 80 68 73 69 75 70 76 71 77 72
REMARK SMILES IDX 78 73 9 74 10 75 11 76 12 77 13 78 14 79 15 80 16 81 17 82
REMARK SMILES IDX 18 83 19 84 43 85 20 86 34 87 33 88 35 89 42 90 36 91 37 92
REMARK SMILES IDX 41 93 38 94 40 95 39 96 21 97 22 98 25 99 23 100 24 101
REMARK SMILES IDX 26 102 27 103 32 104 28 105 31 106 29 107 30 108
REMARK H PARENT 100 26 68 37
REMARK Flexibility Score: inf
ROOT
ATOM      1  C   UNL A   1      45.710  18.697  37.184  1.00  0.00     0.188 C 
ENDROOT
BRANCH   1   2
ATOM      2  C   UNL A   1      46.798  19.764  36.947  1.00  0.00     0.188 C 
BRANCH   2   3
ATOM      3  O   UNL A   1      46.807  20.687  35.871  1.00  0.00    -0.376 OA
BRANCH   3   4
ATOM      4  C   UNL A   1      47.273  22.018  35.781  1.00  0.00     0.202 C 
BRANCH   4   5
ATOM      5  C   UNL A   1      46.506  23.289  36.150  1.00  0.00     0.261 C 
BRANCH   5   6
ATOM      6  O   UNL A   1      47.257  24.489  36.137  1.00  0.00    -0.460 OA
BRANCH   6   7
ATOM      7  C   UNL A   1      46.792  25.755  36.154  1.00  0.00     0.338 C 
ATOM      8  O   UNL A   1      47.053  26.445  37.138  1.00  0.00    -0.246 OA
BRANCH   7   9
ATOM      9  C   UNL A   1      45.922  26.336  35.095  1.00  0.00     0.060 A 
ATOM     10  C   UNL A   1      44.534  26.209  34.989  1.00  0.00     0.016 A 
ATOM     11  C   UNL A   1      46.613  27.064  34.108  1.00  0.00     0.016 A 
ATOM     12  C   UNL A   1      43.893  26.553  33.823  1.00  0.00     0.010 A 
ATOM     13  C   UNL A   1      45.970  27.459  32.955  1.00  0.00     0.010 A 
ATOM     14  C   UNL A   1      44.644  27.091  32.790  1.00  0.00    -0.014 A 
BRANCH  14  15
ATOM     15  C   UNL A   1      43.978  27.246  31.520  1.00  0.00     0.031 A 
ATOM     16  C   UNL A   1      44.277  26.169  30.550  1.00  0.00     0.074 A 
ATOM     17  C   UNL A   1      43.156  28.296  31.329  1.00  0.00     0.049 A 
ATOM     18  N   UNL A   1      44.877  26.270  29.411  1.00  0.00    -0.248 NA
ATOM     19  C   UNL A   1      44.037  24.784  30.986  1.00  0.00     0.031 C 
ATOM     20  C   UNL A   1      42.670  29.242  32.341  1.00  0.00     0.029 A 
ATOM     21  N   UNL A   1      42.456  28.644  30.222  1.00  0.00    -0.354 N 
ATOM     22  C   UNL A   1      44.844  24.987  28.872  1.00  0.00     0.074 A 
ATOM     23  C   UNL A   1      44.526  24.096  29.954  1.00  0.00     0.031 C 
ATOM     24  C   UNL A   1      41.558  29.849  31.875  1.00  0.00     0.029 A 
ATOM     25  C   UNL A   1      41.347  29.437  30.500  1.00  0.00     0.049 A 
ATOM     26  H   UNL A   1      42.707  28.364  29.311  1.00  0.00     0.167 HD
ATOM     27  C   UNL A   1      44.773  24.796  27.528  1.00  0.00     0.034 A 
ATOM     28  C   UNL A   1      40.281  29.630  29.686  1.00  0.00     0.034 A 
ATOM     29  C   UNL A   1      45.239  25.951  26.805  1.00  0.00     0.049 A 
ATOM     30  C   UNL A   1      40.714  29.271  28.314  1.00  0.00     0.074 A 
ATOM     31  C   UNL A   1      46.423  26.660  26.767  1.00  0.00     0.029 A 
ATOM     32  N   UNL A   1      44.287  26.769  26.251  1.00  0.00    -0.354 N 
ATOM     33  N   UNL A   1      41.615  29.934  27.644  1.00  0.00    -0.248 NA
ATOM     34  C   UNL A   1      40.465  27.912  27.858  1.00  0.00     0.031 C 
ATOM     35  C   UNL A   1      46.030  28.021  26.632  1.00  0.00     0.029 A 
ATOM     36  C   UNL A   1      44.638  28.063  26.526  1.00  0.00     0.049 A 
ATOM     37  H   UNL A   1      43.493  26.478  25.747  1.00  0.00     0.167 HD
ATOM     38  C   UNL A   1      42.357  28.951  27.001  1.00  0.00     0.074 A 
ATOM     39  C   UNL A   1      41.536  27.744  27.077  1.00  0.00     0.031 C 
ATOM     40  C   UNL A   1      43.684  29.131  26.737  1.00  0.00     0.034 A 
BRANCH  27  41
ATOM     41  C   UNL A   1      43.911  23.737  26.878  1.00  0.00     0.023 A 
ATOM     42  C   UNL A   1      42.530  23.753  27.168  1.00  0.00     0.012 A 
ATOM     43  C   UNL A   1      44.412  22.580  26.233  1.00  0.00     0.148 A 
ATOM     44  C   UNL A   1      41.705  22.662  26.876  1.00  0.00     0.002 A 
ATOM     45  C   UNL A   1      43.572  21.538  25.860  1.00  0.00     0.091 A 
ATOM     46  F   UNL A   1      45.727  22.398  26.095  1.00  0.00    -0.205 F 
ATOM     47  C   UNL A   1      42.223  21.557  26.211  1.00  0.00     0.022 A 
BRANCH  45  48
ATOM     48  S   UNL A   1      44.191  20.125  24.938  1.00  0.00     0.127 S 
ATOM     49  O   UNL A   1      45.332  19.721  25.753  1.00  0.00    -0.237 OA
ATOM     50  O   UNL A   1      43.045  19.217  24.979  1.00  0.00    -0.237 OA
ATOM     51  O   UNL A   1      44.497  20.634  23.606  1.00  0.00    -0.744 OA
ENDBRANCH  45  48
ENDBRANCH  27  41
BRANCH  28  52
ATOM     52  C   UNL A   1      38.848  29.753  30.046  1.00  0.00     0.023 A 
ATOM     53  C   UNL A   1      38.255  28.751  30.841  1.00  0.00     0.012 A 
ATOM     54  C   UNL A   1      38.147  30.969  29.876  1.00  0.00     0.148 A 
ATOM     55  C   UNL A   1      37.030  28.969  31.482  1.00  0.00     0.002 A 
ATOM     56  C   UNL A   1      36.928  31.179  30.511  1.00  0.00     0.091 A 
ATOM     57  F   UNL A   1      38.718  31.954  29.173  1.00  0.00    -0.205 F 
ATOM     58  C   UNL A   1      36.372  30.186  31.327  1.00  0.00     0.022 A 
BRANCH  56  59
ATOM     59  S   UNL A   1      36.038  32.738  30.388  1.00  0.00     0.127 S 
ATOM     60  O   UNL A   1      34.711  32.368  30.880  1.00  0.00    -0.237 OA
ATOM     61  O   UNL A   1      36.808  33.594  31.286  1.00  0.00    -0.237 OA
ATOM     62  O   UNL A   1      36.073  33.106  28.978  1.00  0.00    -0.744 OA
ENDBRANCH  56  59
ENDBRANCH  28  52
BRANCH  40  63
ATOM     63  C   UNL A   1      44.274  30.507  26.933  1.00  0.00     0.023 A 
ATOM     64  C   UNL A   1      44.110  31.542  25.989  1.00  0.00     0.012 A 
ATOM     65  C   UNL A   1      44.809  30.818  28.195  1.00  0.00     0.148 A 
ATOM     66  C   UNL A   1      44.480  32.856  26.294  1.00  0.00     0.002 A 
ATOM     67  C   UNL A   1      45.123  32.133  28.514  1.00  0.00     0.091 A 
ATOM     68  F   UNL A   1      44.958  29.822  29.081  1.00  0.00    -0.205 F 
ATOM     69  C   UNL A   1      44.969  33.154  27.563  1.00  0.00     0.022 A 
BRANCH  67  70
ATOM     70  S   UNL A   1      45.604  32.602  30.178  1.00  0.00     0.127 S 
ATOM     71  O   UNL A   1      46.823  31.821  30.374  1.00  0.00    -0.237 OA
ATOM     72  O   UNL A   1      45.815  34.045  30.048  1.00  0.00    -0.237 OA
ATOM     73  O   UNL A   1      44.482  32.241  31.036  1.00  0.00    -0.744 OA
ENDBRANCH  67  70
ENDBRANCH  40  63
ENDBRANCH  14  15
ENDBRANCH   7   9
ENDBRANCH   6   7
ENDBRANCH   5   6
ENDBRANCH   4   5
ENDBRANCH   3   4
ENDBRANCH   2   3
ENDBRANCH   1   2
BRANCH   1  74
ATOM     74  O   UNL A   1      45.320  18.467  38.526  1.00  0.00    -0.377 OA
BRANCH  74  75
ATOM     75  C   UNL A   1      45.513  17.134  38.941  1.00  0.00     0.188 C 
BRANCH  75  76
ATOM     76  C   UNL A   1      44.477  16.633  39.972  1.00  0.00     0.188 C 
BRANCH  76  77
ATOM     77  O   UNL A   1      43.076  16.642  39.719  1.00  0.00    -0.376 OA
BRANCH  77  78
ATOM     78  C   UNL A   1      42.290  15.467  39.811  1.00  0.00     0.202 C 
BRANCH  78  79
ATOM     79  C   UNL A   1      42.253  14.693  41.133  1.00  0.00     0.261 C 
BRANCH  79  80
ATOM     80  O   UNL A   1      41.920  15.470  42.286  1.00  0.00    -0.459 OA
BRANCH  80  81
ATOM     81  C   UNL A   1      41.985  14.815  43.476  1.00  0.00     0.357 C 
ATOM     82  O   UNL A   1      41.216  13.998  43.922  1.00  0.00    -0.244 OA
BRANCH  81  83
ATOM     83  C   UNL A   1      43.220  15.288  44.154  1.00  0.00     0.149 A 
ATOM     84  C   UNL A   1      43.399  14.941  45.458  1.00  0.00     0.041 A 
ATOM     85  N   UNL A   1      44.123  16.004  43.458  1.00  0.00    -0.241 NA
ATOM     86  C   UNL A   1      44.651  15.163  46.064  1.00  0.00    -0.021 A 
ATOM     87  C   UNL A   1      45.264  16.357  44.063  1.00  0.00     0.072 A 
ATOM     88  C   UNL A   1      45.684  15.893  45.344  1.00  0.00     0.012 A 
ATOM     89  C   UNL A   1      46.064  17.197  43.313  1.00  0.00     0.029 A 
ATOM     90  C   UNL A   1      47.092  16.166  45.690  1.00  0.00    -0.009 A 
ATOM     91  C   UNL A   1      47.330  17.580  43.728  1.00  0.00     0.011 A 
ATOM     92  C   UNL A   1      47.873  17.042  44.885  1.00  0.00    -0.018 A 
ATOM     93  C   UNL A   1      47.815  15.572  46.749  1.00  0.00     0.009 A 
ATOM     94  C   UNL A   1      49.211  17.349  45.197  1.00  0.00     0.009 A 
ATOM     95  C   UNL A   1      49.151  15.859  47.053  1.00  0.00     0.001 A 
ATOM     96  C   UNL A   1      49.849  16.764  46.283  1.00  0.00     0.001 A 
BRANCH  86  97
ATOM     97  C   UNL A   1      44.738  14.361  47.336  1.00  0.00     0.115 C 
ATOM     98  C   UNL A   1      45.361  14.858  48.576  1.00  0.00     0.123 C 
ATOM     99  C   UNL A   1      45.445  13.045  47.231  1.00  0.00     0.083 C 
ATOM    100  N   UNL A   1      46.074  13.947  49.163  1.00  0.00    -0.162 NA
ATOM    101  N   UNL A   1      46.129  12.780  48.305  1.00  0.00    -0.154 NA
BRANCH  99 102
ATOM    102  C   UNL A   1      45.283  12.147  46.071  1.00  0.00    -0.001 A 
ATOM    103  C   UNL A   1      46.391  11.864  45.270  1.00  0.00     0.013 A 
ATOM    104  C   UNL A   1      44.054  11.523  45.808  1.00  0.00     0.013 A 
ATOM    105  C   UNL A   1      46.272  10.931  44.235  1.00  0.00     0.040 A 
ATOM    106  C   UNL A   1      43.947  10.569  44.796  1.00  0.00     0.040 A 
ATOM    107  C   UNL A   1      45.057  10.284  44.014  1.00  0.00     0.123 A 
ATOM    108  F   UNL A   1      44.956   9.383  43.029  1.00  0.00    -0.207 F 
ENDBRANCH  99 102
ENDBRANCH  86  97
ENDBRANCH  81  83
ENDBRANCH  80  81
ENDBRANCH  79  80
ENDBRANCH  78  79
ENDBRANCH  77  78
ENDBRANCH  76  77
ENDBRANCH  75  76
ENDBRANCH  74  75
ENDBRANCH   1  74
TORSDOF 25
ENDMDL
MODEL 3
REMARK VINA RESULT:      -6.5      3.712     10.229
REMARK SMILES O=C(OCCOCCOCCOCCOC(=O)c1cc([C@@H]2C=NN=C2c2ccc(F)cc2)c2c(ccc3ccccc32)n1)c1ccc(-c2c3nc(c(-c4cccc(S(=O)(=O)[O-])c4F)c4ccc([nH]4)c(-c4cccc(S(=O)(=O)[O-])c4F)c4nc(c(-c5cccc(S(=O)(=O)[O-])c5F)c5ccc2[nH]5)C=C4)C=C3)cc1
REMARK SMILES IDX 8 1 7 2 6 3 5 4 4 5 3 6 2 7 1 8 44 9 45 10 106 11 46 12
REMARK SMILES IDX 105 13 47 14 48 15 49 16 99 17 50 18 104 19 98 20 100 21
REMARK SMILES IDX 51 22 103 23 97 24 96 25 52 27 84 28 64 29 83 30 65 31 68 32
REMARK SMILES IDX 82 33 101 34 66 35 67 36 81 38 102 39 69 40 53 41 54 42
REMARK SMILES IDX 62 43 55 44 57 45 63 46 56 47 58 48 59 49 60 50 61 51 85 52
REMARK SMILES IDX 86 53 94 54 87 55 89 56 95 57 88 58 90 59 91 60 92 61 93 62
REMARK SMILES IDX 70 63 71 64 79 65 72 66 74 67 80 68 73 69 75 70 76 71 77 72
REMARK SMILES IDX 78 73 9 74 10 75 11 76 12 77 13 78 14 79 15 80 16 81 17 82
REMARK SMILES IDX 18 83 19 84 43 85 20 86 34 87 33 88 35 89 42 90 36 91 37 92
REMARK SMILES IDX 41 93 38 94 40 95 39 96 21 97 22 98 25 99 23 100 24 101
REMARK SMILES IDX 26 102 27 103 32 104 28 105 31 106 29 107 30 108
REMARK H PARENT 100 26 68 37
REMARK Flexibility Score: inf
ROOT
ATOM      1  C   UNL A   1      32.499  36.183  30.345  1.00  0.00     0.188 C 
ENDROOT
BRANCH   1   2
ATOM      2  C   UNL A   1      33.241  35.664  29.097  1.00  0.00     0.188 C 
BRANCH   2   3
ATOM      3  O   UNL A   1      34.375  34.813  29.124  1.00  0.00    -0.376 OA
BRANCH   3   4
ATOM      4  C   UNL A   1      34.687  33.643  28.397  1.00  0.00     0.202 C 
BRANCH   4   5
ATOM      5  C   UNL A   1      36.079  33.144  28.007  1.00  0.00     0.261 C 
BRANCH   5   6
ATOM      6  O   UNL A   1      36.685  32.235  28.908  1.00  0.00    -0.460 OA
BRANCH   6   7
ATOM      7  C   UNL A   1      37.583  32.506  29.876  1.00  0.00     0.338 C 
ATOM      8  O   UNL A   1      37.447  33.556  30.502  1.00  0.00    -0.246 OA
BRANCH   7   9
ATOM      9  C   UNL A   1      38.766  31.653  30.176  1.00  0.00     0.060 A 
ATOM     10  C   UNL A   1      39.658  31.806  31.243  1.00  0.00     0.016 A 
ATOM     11  C   UNL A   1      38.983  30.612  29.255  1.00  0.00     0.016 A 
ATOM     12  C   UNL A   1      40.856  31.131  31.246  1.00  0.00     0.010 A 
ATOM     13  C   UNL A   1      40.158  29.894  29.278  1.00  0.00     0.010 A 
ATOM     14  C   UNL A   1      41.121  30.250  30.209  1.00  0.00    -0.014 A 
BRANCH  14  15
ATOM     15  C   UNL A   1      42.462  29.723  30.139  1.00  0.00     0.031 A 
ATOM     16  C   UNL A   1      43.361  30.485  29.244  1.00  0.00     0.074 A 
ATOM     17  C   UNL A   1      42.785  28.641  30.873  1.00  0.00     0.049 A 
ATOM     18  N   UNL A   1      43.936  30.078  28.161  1.00  0.00    -0.248 NA
ATOM     19  C   UNL A   1      43.490  31.930  29.490  1.00  0.00     0.031 C 
ATOM     20  C   UNL A   1      41.985  28.012  31.932  1.00  0.00     0.029 A 
ATOM     21  N   UNL A   1      43.963  27.973  30.941  1.00  0.00    -0.354 N 
ATOM     22  C   UNL A   1      44.716  31.153  27.743  1.00  0.00     0.074 A 
ATOM     23  C   UNL A   1      44.238  32.307  28.453  1.00  0.00     0.031 C 
ATOM     24  C   UNL A   1      42.798  27.268  32.712  1.00  0.00     0.029 A 
ATOM     25  C   UNL A   1      44.126  27.265  32.127  1.00  0.00     0.049 A 
ATOM     26  H   UNL A   1      44.636  27.989  30.222  1.00  0.00     0.167 HD
ATOM     27  C   UNL A   1      45.888  30.950  27.084  1.00  0.00     0.034 A 
ATOM     28  C   UNL A   1      45.301  26.821  32.634  1.00  0.00     0.034 A 
ATOM     29  C   UNL A   1      45.929  29.649  26.468  1.00  0.00     0.049 A 
ATOM     30  C   UNL A   1      46.270  26.784  31.513  1.00  0.00     0.074 A 
ATOM     31  C   UNL A   1      45.149  28.990  25.540  1.00  0.00     0.029 A 
ATOM     32  N   UNL A   1      46.674  28.683  27.096  1.00  0.00    -0.354 N 
ATOM     33  N   UNL A   1      46.163  25.981  30.492  1.00  0.00    -0.248 NA
ATOM     34  C   UNL A   1      47.117  27.949  31.310  1.00  0.00     0.031 C 
ATOM     35  C   UNL A   1      45.121  27.636  25.981  1.00  0.00     0.029 A 
ATOM     36  C   UNL A   1      45.936  27.530  27.110  1.00  0.00     0.049 A 
ATOM     37  H   UNL A   1      47.578  28.797  27.469  1.00  0.00     0.167 HD
ATOM     38  C   UNL A   1      46.539  26.757  29.403  1.00  0.00     0.074 A 
ATOM     39  C   UNL A   1      47.222  27.915  29.979  1.00  0.00     0.031 C 
ATOM     40  C   UNL A   1      46.000  26.543  28.167  1.00  0.00     0.034 A 
BRANCH  27  41
ATOM     41  C   UNL A   1      47.141  31.757  27.339  1.00  0.00     0.023 A 
ATOM     42  C   UNL A   1      47.389  32.858  26.492  1.00  0.00     0.012 A 
ATOM     43  C   UNL A   1      48.209  31.340  28.169  1.00  0.00     0.148 A 
ATOM     44  C   UNL A   1      48.643  33.477  26.439  1.00  0.00     0.002 A 
ATOM     45  C   UNL A   1      49.423  32.016  28.182  1.00  0.00     0.091 A 
ATOM     46  F   UNL A   1      48.127  30.198  28.857  1.00  0.00    -0.205 F 
ATOM     47  C   UNL A   1      49.658  33.064  27.293  1.00  0.00     0.022 A 
BRANCH  45  48
ATOM     48  S   UNL A   1      50.735  31.557  29.321  1.00  0.00     0.127 S 
ATOM     49  O   UNL A   1      51.413  30.501  28.575  1.00  0.00    -0.237 OA
ATOM     50  O   UNL A   1      51.480  32.810  29.439  1.00  0.00    -0.237 OA
ATOM     51  O   UNL A   1      50.060  31.149  30.548  1.00  0.00    -0.744 OA
ENDBRANCH  45  48
ENDBRANCH  27  41
BRANCH  28  52
ATOM     52  C   UNL A   1      45.741  26.769  34.050  1.00  0.00     0.023 A 
ATOM     53  C   UNL A   1      46.573  27.794  34.545  1.00  0.00     0.012 A 
ATOM     54  C   UNL A   1      45.120  25.907  34.983  1.00  0.00     0.148 A 
ATOM     55  C   UNL A   1      46.744  27.983  35.921  1.00  0.00     0.002 A 
ATOM     56  C   UNL A   1      45.298  26.095  36.349  1.00  0.00     0.091 A 
ATOM     57  F   UNL A   1      44.282  24.964  34.538  1.00  0.00    -0.205 F 
ATOM     58  C   UNL A   1      46.099  27.142  36.823  1.00  0.00     0.022 A 
BRANCH  56  59
ATOM     59  S   UNL A   1      44.467  25.073  37.575  1.00  0.00     0.127 S 
ATOM     60  O   UNL A   1      45.045  23.755  37.311  1.00  0.00    -0.237 OA
ATOM     61  O   UNL A   1      44.898  25.693  38.824  1.00  0.00    -0.237 OA
ATOM     62  O   UNL A   1      43.044  25.173  37.277  1.00  0.00    -0.744 OA
ENDBRANCH  56  59
ENDBRANCH  28  52
BRANCH  40  63
ATOM     63  C   UNL A   1      45.177  25.296  27.950  1.00  0.00     0.023 A 
ATOM     64  C   UNL A   1      43.928  25.096  28.574  1.00  0.00     0.012 A 
ATOM     65  C   UNL A   1      45.572  24.419  26.926  1.00  0.00     0.148 A 
ATOM     66  C   UNL A   1      43.097  24.039  28.191  1.00  0.00     0.002 A 
ATOM     67  C   UNL A   1      44.719  23.404  26.509  1.00  0.00     0.091 A 
ATOM     68  F   UNL A   1      46.763  24.623  26.342  1.00  0.00    -0.205 F 
ATOM     69  C   UNL A   1      43.485  23.205  27.146  1.00  0.00     0.022 A 
BRANCH  67  70
ATOM     70  S   UNL A   1      45.092  22.402  25.068  1.00  0.00     0.127 S 
ATOM     71  O   UNL A   1      45.319  23.416  24.041  1.00  0.00    -0.237 OA
ATOM     72  O   UNL A   1      46.293  21.680  25.493  1.00  0.00    -0.237 OA
ATOM     73  O   UNL A   1      43.929  21.548  24.862  1.00  0.00    -0.744 OA
ENDBRANCH  67  70
ENDBRANCH  40  63
ENDBRANCH  14  15
ENDBRANCH   7   9
ENDBRANCH   6   7
ENDBRANCH   5   6
ENDBRANCH   4   5
ENDBRANCH   3   4
ENDBRANCH   2   3
ENDBRANCH   1   2
BRANCH   1  74
ATOM     74  O   UNL A   1      33.003  37.362  30.946  1.00  0.00    -0.377 OA
BRANCH  74  75
ATOM     75  C   UNL A   1      33.301  37.205  32.314  1.00  0.00     0.188 C 
BRANCH  75  76
ATOM     76  C   UNL A   1      34.493  36.264  32.602  1.00  0.00     0.188 C 
BRANCH  76  77
ATOM     77  O   UNL A   1      34.343  35.022  33.281  1.00  0.00    -0.376 OA
BRANCH  77  78
ATOM     78  C   UNL A   1      35.428  34.129  33.460  1.00  0.00     0.202 C 
BRANCH  78  79
ATOM     79  C   UNL A   1      36.076  34.006  34.843  1.00  0.00     0.261 C 
BRANCH  79  80
ATOM     80  O   UNL A   1      37.501  33.891  34.841  1.00  0.00    -0.459 OA
BRANCH  80  81
ATOM     81  C   UNL A   1      38.000  32.741  35.369  1.00  0.00     0.357 C 
ATOM     82  O   UNL A   1      37.411  31.884  35.982  1.00  0.00    -0.244 OA
BRANCH  81  83
ATOM     83  C   UNL A   1      39.448  32.714  35.036  1.00  0.00     0.149 A 
ATOM     84  C   UNL A   1      40.167  31.626  35.427  1.00  0.00     0.041 A 
ATOM     85  N   UNL A   1      39.985  33.734  34.341  1.00  0.00    -0.241 NA
ATOM     86  C   UNL A   1      41.474  31.451  34.931  1.00  0.00    -0.021 A 
ATOM     87  C   UNL A   1      41.273  33.657  33.985  1.00  0.00     0.072 A 
ATOM     88  C   UNL A   1      42.093  32.501  34.135  1.00  0.00     0.012 A 
ATOM     89  C   UNL A   1      41.764  34.805  33.393  1.00  0.00     0.029 A 
ATOM     90  C   UNL A   1      43.380  32.533  33.415  1.00  0.00    -0.009 A 
ATOM     91  C   UNL A   1      43.043  34.875  32.860  1.00  0.00     0.011 A 
ATOM     92  C   UNL A   1      43.842  33.742  32.824  1.00  0.00    -0.018 A 
ATOM     93  C   UNL A   1      44.222  31.425  33.171  1.00  0.00     0.009 A 
ATOM     94  C   UNL A   1      45.077  33.821  32.152  1.00  0.00     0.009 A 
ATOM     95  C   UNL A   1      45.441  31.493  32.487  1.00  0.00     0.001 A 
ATOM     96  C   UNL A   1      45.880  32.701  31.988  1.00  0.00     0.001 A 
BRANCH  86  97
ATOM     97  C   UNL A   1      41.909  30.028  35.166  1.00  0.00     0.115 C 
ATOM     98  C   UNL A   1      40.973  28.894  35.274  1.00  0.00     0.123 C 
ATOM     99  C   UNL A   1      42.710  29.787  36.408  1.00  0.00     0.083 C 
ATOM    100  N   UNL A   1      41.309  28.071  36.219  1.00  0.00    -0.162 NA
ATOM    101  N   UNL A   1      42.426  28.638  36.948  1.00  0.00    -0.154 NA
BRANCH  99 102
ATOM    102  C   UNL A   1      43.752  30.723  36.874  1.00  0.00    -0.001 A 
ATOM    103  C   UNL A   1      45.016  30.683  36.284  1.00  0.00     0.013 A 
ATOM    104  C   UNL A   1      43.467  31.692  37.848  1.00  0.00     0.013 A 
ATOM    105  C   UNL A   1      45.974  31.636  36.643  1.00  0.00     0.040 A 
ATOM    106  C   UNL A   1      44.414  32.661  38.181  1.00  0.00     0.040 A 
ATOM    107  C   UNL A   1      45.663  32.622  37.577  1.00  0.00     0.123 A 
ATOM    108  F   UNL A   1      46.583  33.537  37.907  1.00  0.00    -0.207 F 
ENDBRANCH  99 102
ENDBRANCH  86  97
ENDBRANCH  81  83
ENDBRANCH  80  81
ENDBRANCH  79  80
ENDBRANCH  78  79
ENDBRANCH  77  78
ENDBRANCH  76  77
ENDBRANCH  75  76
ENDBRANCH  74  75
ENDBRANCH   1  74
TORSDOF 25
ENDMDL
