MODEL 1
REMARK VINA RESULT:      -8.2      0.000      0.000
REMARK SMILES Cc1cc(C(=O)N[C@H](C(=O)OCCOCCOCCOCCOC(=O)c2ccc(-c3c4nc(c(-c5cccc(S(=O)(=O)[O-])c5F)c5ccc([nH]5)c(-c5cccc(S(=O)(=O)[O-])c5F)c5nc(c(-c6cccc(S(=O)(=O)[O-])c6F)c6ccc3[nH]6)C=C5)C=C4)cc2)C(C)C)c(C)s1
REMARK SMILES IDX 18 1 17 2 16 3 15 4 14 5 13 6 12 7 11 8 9 9 10 10 8 11 7 12
REMARK SMILES IDX 5 13 6 14 4 16 1 17 2 18 3 19 94 20 92 21 93 22 89 23 90 24
REMARK SMILES IDX 91 25 19 26 20 27 21 28 22 29 23 30 24 31 25 32 26 33 27 34
REMARK SMILES IDX 88 35 28 36 87 37 29 38 30 39 31 40 81 41 32 42 86 43 80 44
REMARK SMILES IDX 82 45 33 46 85 47 79 48 78 49 34 51 66 52 46 53 65 54 47 55
REMARK SMILES IDX 50 56 64 57 83 58 48 59 49 60 63 62 84 63 51 64 35 65 36 66
REMARK SMILES IDX 44 67 37 68 39 69 45 70 38 71 40 72 41 73 42 74 43 75 67 76
REMARK SMILES IDX 68 77 76 78 69 79 71 80 77 81 70 82 72 83 73 84 74 85 75 86
REMARK SMILES IDX 52 87 53 88 61 89 54 90 56 91 62 92 55 93 57 94 58 95 59 96
REMARK SMILES IDX 60 97
REMARK H PARENT 7 15 82 50 50 61
REMARK Flexibility Score: inf
ROOT
ATOM      1  C   UNL A   1      42.895  21.677  26.156  1.00  0.00     0.188 C 
ENDROOT
BRANCH   1   2
ATOM      2  O   UNL A   1      41.594  21.465  26.697  1.00  0.00    -0.377 OA
BRANCH   2   3
ATOM      3  C   UNL A   1      40.625  22.482  26.546  1.00  0.00     0.188 C 
BRANCH   3   4
ATOM      4  C   UNL A   1      39.211  21.951  26.247  1.00  0.00     0.188 C 
BRANCH   4   5
ATOM      5  O   UNL A   1      38.202  22.953  26.263  1.00  0.00    -0.376 OA
BRANCH   5   6
ATOM      6  C   UNL A   1      37.092  22.819  25.388  1.00  0.00     0.202 C 
BRANCH   6   7
ATOM      7  C   UNL A   1      36.094  23.984  25.254  1.00  0.00     0.261 C 
BRANCH   7   8
ATOM      8  O   UNL A   1      34.691  23.669  25.177  1.00  0.00    -0.462 OA
BRANCH   8   9
ATOM      9  C   UNL A   1      33.791  24.670  25.347  1.00  0.00     0.328 C 
ATOM     10  O   UNL A   1      32.846  24.602  26.117  1.00  0.00    -0.250 OA
BRANCH   9  11
ATOM     11  C   UNL A   1      34.123  25.849  24.403  1.00  0.00     0.195 C 
BRANCH  11  12
ATOM     12  N   UNL A   1      33.838  25.425  23.033  1.00  0.00    -0.338 N 
ATOM     13  C   UNL A   1      32.768  25.581  22.187  1.00  0.00     0.253 C 
ATOM     14  O   UNL A   1      32.951  25.177  21.038  1.00  0.00    -0.269 OA
ATOM     15  H   UNL A   1      34.576  24.915  22.627  1.00  0.00     0.164 HD
BRANCH  13  16
ATOM     16  C   UNL A   1      31.465  26.133  22.610  1.00  0.00     0.053 A 
ATOM     17  C   UNL A   1      29.018  28.997  23.123  1.00  0.00     0.056 C 
ATOM     18  C   UNL A   1      29.718  27.686  23.029  1.00  0.00     0.003 A 
ATOM     19  C   UNL A   1      30.907  27.436  22.388  1.00  0.00     0.029 A 
ATOM     20  S   UNL A   1      29.119  26.277  23.745  1.00  0.00    -0.145 S 
ATOM     21  C   UNL A   1      30.527  25.381  23.320  1.00  0.00     0.014 A 
ATOM     22  C   UNL A   1      30.588  23.952  23.762  1.00  0.00     0.057 C 
ENDBRANCH  13  16
ENDBRANCH  11  12
BRANCH  11  23
ATOM     23  C   UNL A   1      33.579  27.285  24.675  1.00  0.00     0.017 C 
ATOM     24  C   UNL A   1      33.740  27.812  26.102  1.00  0.00     0.010 C 
ATOM     25  C   UNL A   1      34.196  28.302  23.704  1.00  0.00     0.010 C 
ENDBRANCH  11  23
ENDBRANCH   9  11
ENDBRANCH   8   9
ENDBRANCH   7   8
ENDBRANCH   6   7
ENDBRANCH   5   6
ENDBRANCH   4   5
ENDBRANCH   3   4
ENDBRANCH   2   3
ENDBRANCH   1   2
BRANCH   1  26
ATOM     26  C   UNL A   1      43.207  22.862  25.209  1.00  0.00     0.188 C 
BRANCH  26  27
ATOM     27  O   UNL A   1      44.568  23.277  25.204  1.00  0.00    -0.376 OA
BRANCH  27  28
ATOM     28  C   UNL A   1      45.460  22.663  26.116  1.00  0.00     0.202 C 
BRANCH  28  29
ATOM     29  C   UNL A   1      46.237  23.619  27.028  1.00  0.00     0.261 C 
BRANCH  29  30
ATOM     30  O   UNL A   1      47.493  24.083  26.518  1.00  0.00    -0.460 OA
BRANCH  30  31
ATOM     31  C   UNL A   1      48.316  24.752  27.356  1.00  0.00     0.338 C 
ATOM     32  O   UNL A   1      49.455  24.453  27.667  1.00  0.00    -0.246 OA
BRANCH  31  33
ATOM     33  C   UNL A   1      47.662  26.043  27.656  1.00  0.00     0.060 A 
ATOM     34  C   UNL A   1      46.984  26.731  26.638  1.00  0.00     0.016 A 
ATOM     35  C   UNL A   1      47.674  26.533  28.962  1.00  0.00     0.016 A 
ATOM     36  C   UNL A   1      46.340  27.937  26.921  1.00  0.00     0.010 A 
ATOM     37  C   UNL A   1      47.057  27.750  29.238  1.00  0.00     0.010 A 
ATOM     38  C   UNL A   1      46.422  28.472  28.211  1.00  0.00    -0.014 A 
BRANCH  38  39
ATOM     39  C   UNL A   1      46.111  29.898  28.458  1.00  0.00     0.031 A 
ATOM     40  C   UNL A   1      44.743  30.213  28.993  1.00  0.00     0.074 A 
ATOM     41  C   UNL A   1      46.971  30.879  28.136  1.00  0.00     0.049 A 
ATOM     42  N   UNL A   1      44.140  31.364  29.105  1.00  0.00    -0.248 NA
ATOM     43  C   UNL A   1      43.938  29.063  29.444  1.00  0.00     0.031 C 
ATOM     44  C   UNL A   1      48.330  30.690  27.636  1.00  0.00     0.029 A 
ATOM     45  N   UNL A   1      46.796  32.241  28.140  1.00  0.00    -0.354 N 
ATOM     46  C   UNL A   1      42.873  31.075  29.597  1.00  0.00     0.074 A 
ATOM     47  C   UNL A   1      42.792  29.642  29.764  1.00  0.00     0.031 C 
ATOM     48  C   UNL A   1      48.853  31.892  27.336  1.00  0.00     0.029 A 
ATOM     49  C   UNL A   1      47.850  32.928  27.583  1.00  0.00     0.049 A 
ATOM     50  H   UNL A   1      45.996  32.683  28.504  1.00  0.00     0.167 HD
ATOM     51  C   UNL A   1      41.866  31.929  29.888  1.00  0.00     0.034 A 
ATOM     52  C   UNL A   1      47.966  34.234  27.271  1.00  0.00     0.034 A 
ATOM     53  C   UNL A   1      41.957  33.350  29.721  1.00  0.00     0.049 A 
ATOM     54  C   UNL A   1      46.811  35.163  27.561  1.00  0.00     0.074 A 
ATOM     55  C   UNL A   1      41.005  34.311  30.007  1.00  0.00     0.029 A 
ATOM     56  N   UNL A   1      43.062  34.013  29.213  1.00  0.00    -0.354 N 
ATOM     57  N   UNL A   1      45.649  34.892  28.105  1.00  0.00    -0.248 NA
ATOM     58  C   UNL A   1      46.990  36.581  27.215  1.00  0.00     0.031 C 
ATOM     59  C   UNL A   1      41.525  35.555  29.645  1.00  0.00     0.029 A 
ATOM     60  C   UNL A   1      42.817  35.373  29.172  1.00  0.00     0.049 A 
ATOM     61  H   UNL A   1      43.898  33.581  28.925  1.00  0.00     0.167 HD
ATOM     62  C   UNL A   1      44.983  36.110  28.215  1.00  0.00     0.074 A 
ATOM     63  C   UNL A   1      45.871  37.120  27.681  1.00  0.00     0.031 C 
ATOM     64  C   UNL A   1      43.747  36.369  28.709  1.00  0.00     0.034 A 
BRANCH  51  65
ATOM     65  C   UNL A   1      40.588  31.343  30.421  1.00  0.00     0.023 A 
ATOM     66  C   UNL A   1      39.580  30.932  29.526  1.00  0.00     0.012 A 
ATOM     67  C   UNL A   1      40.403  31.162  31.805  1.00  0.00     0.148 A 
ATOM     68  C   UNL A   1      38.392  30.379  30.002  1.00  0.00     0.002 A 
ATOM     69  C   UNL A   1      39.236  30.567  32.269  1.00  0.00     0.091 A 
ATOM     70  F   UNL A   1      41.362  31.586  32.640  1.00  0.00    -0.205 F 
ATOM     71  C   UNL A   1      38.226  30.187  31.371  1.00  0.00     0.022 A 
BRANCH  69  72
ATOM     72  S   UNL A   1      38.961  30.204  34.006  1.00  0.00     0.127 S 
ATOM     73  O   UNL A   1      38.720  31.540  34.551  1.00  0.00    -0.237 OA
ATOM     74  O   UNL A   1      37.779  29.344  33.955  1.00  0.00    -0.237 OA
ATOM     75  O   UNL A   1      40.172  29.549  34.478  1.00  0.00    -0.744 OA
ENDBRANCH  69  72
ENDBRANCH  51  65
BRANCH  52  76
ATOM     76  C   UNL A   1      49.223  34.756  26.663  1.00  0.00     0.023 A 
ATOM     77  C   UNL A   1      49.321  34.859  25.261  1.00  0.00     0.012 A 
ATOM     78  C   UNL A   1      50.320  35.144  27.456  1.00  0.00     0.148 A 
ATOM     79  C   UNL A   1      50.499  35.305  24.661  1.00  0.00     0.002 A 
ATOM     80  C   UNL A   1      51.471  35.638  26.855  1.00  0.00     0.091 A 
ATOM     81  F   UNL A   1      50.215  35.023  28.788  1.00  0.00    -0.205 F 
ATOM     82  C   UNL A   1      51.570  35.703  25.456  1.00  0.00     0.022 A 
BRANCH  80  83
ATOM     83  S   UNL A   1      52.856  36.284  27.800  1.00  0.00     0.127 S 
ATOM     84  O   UNL A   1      52.245  36.510  29.107  1.00  0.00    -0.237 OA
ATOM     85  O   UNL A   1      53.802  35.169  27.745  1.00  0.00    -0.237 OA
ATOM     86  O   UNL A   1      53.292  37.480  27.091  1.00  0.00    -0.744 OA
ENDBRANCH  80  83
ENDBRANCH  52  76
BRANCH  64  87
ATOM     87  C   UNL A   1      43.294  37.802  28.786  1.00  0.00     0.023 A 
ATOM     88  C   UNL A   1      42.445  38.331  27.796  1.00  0.00     0.012 A 
ATOM     89  C   UNL A   1      43.605  38.576  29.922  1.00  0.00     0.148 A 
ATOM     90  C   UNL A   1      41.924  39.618  27.930  1.00  0.00     0.002 A 
ATOM     91  C   UNL A   1      43.042  39.836  30.073  1.00  0.00     0.091 A 
ATOM     92  F   UNL A   1      44.426  38.053  30.844  1.00  0.00    -0.205 F 
ATOM     93  C   UNL A   1      42.209  40.363  29.073  1.00  0.00     0.022 A 
BRANCH  91  94
ATOM     94  S   UNL A   1      43.264  40.821  31.559  1.00  0.00     0.127 S 
ATOM     95  O   UNL A   1      44.701  41.089  31.525  1.00  0.00    -0.237 OA
ATOM     96  O   UNL A   1      42.420  41.984  31.287  1.00  0.00    -0.237 OA
ATOM     97  O   UNL A   1      42.815  39.990  32.668  1.00  0.00    -0.744 OA
ENDBRANCH  91  94
ENDBRANCH  64  87
ENDBRANCH  38  39
ENDBRANCH  31  33
ENDBRANCH  30  31
ENDBRANCH  29  30
ENDBRANCH  28  29
ENDBRANCH  27  28
ENDBRANCH  26  27
ENDBRANCH   1  26
TORSDOF 26
ENDMDL
MODEL 2
REMARK VINA RESULT:      -8.1      5.772      8.308
REMARK SMILES Cc1cc(C(=O)N[C@H](C(=O)OCCOCCOCCOCCOC(=O)c2ccc(-c3c4nc(c(-c5cccc(S(=O)(=O)[O-])c5F)c5ccc([nH]5)c(-c5cccc(S(=O)(=O)[O-])c5F)c5nc(c(-c6cccc(S(=O)(=O)[O-])c6F)c6ccc3[nH]6)C=C5)C=C4)cc2)C(C)C)c(C)s1
REMARK SMILES IDX 18 1 17 2 16 3 15 4 14 5 13 6 12 7 11 8 9 9 10 10 8 11 7 12
REMARK SMILES IDX 5 13 6 14 4 16 1 17 2 18 3 19 94 20 92 21 93 22 89 23 90 24
REMARK SMILES IDX 91 25 19 26 20 27 21 28 22 29 23 30 24 31 25 32 26 33 27 34
REMARK SMILES IDX 88 35 28 36 87 37 29 38 30 39 31 40 81 41 32 42 86 43 80 44
REMARK SMILES IDX 82 45 33 46 85 47 79 48 78 49 34 51 66 52 46 53 65 54 47 55
REMARK SMILES IDX 50 56 64 57 83 58 48 59 49 60 63 62 84 63 51 64 35 65 36 66
REMARK SMILES IDX 44 67 37 68 39 69 45 70 38 71 40 72 41 73 42 74 43 75 67 76
REMARK SMILES IDX 68 77 76 78 69 79 71 80 77 81 70 82 72 83 73 84 74 85 75 86
REMARK SMILES IDX 52 87 53 88 61 89 54 90 56 91 62 92 55 93 57 94 58 95 59 96
REMARK SMILES IDX 60 97
REMARK H PARENT 7 15 82 50 50 61
REMARK Flexibility Score: inf
ROOT
ATOM      1  C   UNL A   1      42.125  24.025  27.253  1.00  0.00     0.188 C 
ENDROOT
BRANCH   1   2
ATOM      2  O   UNL A   1      40.863  23.835  26.620  1.00  0.00    -0.377 OA
BRANCH   2   3
ATOM      3  C   UNL A   1      39.983  22.863  27.147  1.00  0.00     0.188 C 
BRANCH   3   4
ATOM      4  C   UNL A   1      40.147  21.469  26.511  1.00  0.00     0.188 C 
BRANCH   4   5
ATOM      5  O   UNL A   1      39.022  21.045  25.752  1.00  0.00    -0.376 OA
BRANCH   5   6
ATOM      6  C   UNL A   1      37.891  21.899  25.670  1.00  0.00     0.202 C 
BRANCH   6   7
ATOM      7  C   UNL A   1      36.734  21.528  24.725  1.00  0.00     0.261 C 
BRANCH   7   8
ATOM      8  O   UNL A   1      35.851  20.461  25.121  1.00  0.00    -0.462 OA
BRANCH   8   9
ATOM      9  C   UNL A   1      34.535  20.558  24.807  1.00  0.00     0.328 C 
ATOM     10  O   UNL A   1      33.836  19.597  24.531  1.00  0.00    -0.250 OA
BRANCH   9  11
ATOM     11  C   UNL A   1      34.095  22.041  24.810  1.00  0.00     0.195 C 
BRANCH  11  12
ATOM     12  N   UNL A   1      33.865  22.447  23.424  1.00  0.00    -0.338 N 
ATOM     13  C   UNL A   1      33.542  23.635  22.818  1.00  0.00     0.253 C 
ATOM     14  O   UNL A   1      33.553  23.610  21.586  1.00  0.00    -0.269 OA
ATOM     15  H   UNL A   1      33.963  21.705  22.785  1.00  0.00     0.164 HD
BRANCH  13  16
ATOM     16  C   UNL A   1      33.150  24.852  23.558  1.00  0.00     0.053 A 
ATOM     17  C   UNL A   1      33.881  27.776  25.874  1.00  0.00     0.056 C 
ATOM     18  C   UNL A   1      33.290  26.774  24.945  1.00  0.00     0.003 A 
ATOM     19  C   UNL A   1      33.970  25.818  24.229  1.00  0.00     0.029 A 
ATOM     20  S   UNL A   1      31.629  26.670  24.649  1.00  0.00    -0.145 S 
ATOM     21  C   UNL A   1      31.820  25.255  23.686  1.00  0.00     0.014 A 
ATOM     22  C   UNL A   1      30.578  24.631  23.132  1.00  0.00     0.057 C 
ENDBRANCH  13  16
ENDBRANCH  11  12
BRANCH  11  23
ATOM     23  C   UNL A   1      32.955  22.548  25.744  1.00  0.00     0.017 C 
ATOM     24  C   UNL A   1      31.589  21.883  25.569  1.00  0.00     0.010 C 
ATOM     25  C   UNL A   1      33.364  22.447  27.221  1.00  0.00     0.010 C 
ENDBRANCH  11  23
ENDBRANCH   9  11
ENDBRANCH   8   9
ENDBRANCH   7   8
ENDBRANCH   6   7
ENDBRANCH   5   6
ENDBRANCH   4   5
ENDBRANCH   3   4
ENDBRANCH   2   3
ENDBRANCH   1   2
BRANCH   1  26
ATOM     26  C   UNL A   1      43.223  22.933  27.241  1.00  0.00     0.188 C 
BRANCH  26  27
ATOM     27  O   UNL A   1      44.316  23.198  26.368  1.00  0.00    -0.376 OA
BRANCH  27  28
ATOM     28  C   UNL A   1      45.280  24.153  26.771  1.00  0.00     0.202 C 
BRANCH  28  29
ATOM     29  C   UNL A   1      45.193  25.515  26.073  1.00  0.00     0.261 C 
BRANCH  29  30
ATOM     30  O   UNL A   1      45.788  26.613  26.776  1.00  0.00    -0.460 OA
BRANCH  30  31
ATOM     31  C   UNL A   1      45.191  27.823  26.695  1.00  0.00     0.338 C 
ATOM     32  O   UNL A   1      44.863  28.418  25.684  1.00  0.00    -0.246 OA
BRANCH  31  33
ATOM     33  C   UNL A   1      44.800  28.199  28.069  1.00  0.00     0.060 A 
ATOM     34  C   UNL A   1      43.985  27.338  28.820  1.00  0.00     0.016 A 
ATOM     35  C   UNL A   1      45.296  29.377  28.628  1.00  0.00     0.016 A 
ATOM     36  C   UNL A   1      43.636  27.673  30.129  1.00  0.00     0.010 A 
ATOM     37  C   UNL A   1      44.923  29.726  29.923  1.00  0.00     0.010 A 
ATOM     38  C   UNL A   1      44.063  28.894  30.662  1.00  0.00    -0.014 A 
BRANCH  38  39
ATOM     39  C   UNL A   1      43.409  29.466  31.860  1.00  0.00     0.031 A 
ATOM     40  C   UNL A   1      42.211  30.343  31.627  1.00  0.00     0.074 A 
ATOM     41  C   UNL A   1      43.909  29.292  33.095  1.00  0.00     0.049 A 
ATOM     42  N   UNL A   1      41.580  31.124  32.459  1.00  0.00    -0.248 NA
ATOM     43  C   UNL A   1      41.663  30.349  30.258  1.00  0.00     0.031 C 
ATOM     44  C   UNL A   1      45.048  28.445  33.440  1.00  0.00     0.029 A 
ATOM     45  N   UNL A   1      43.541  29.868  34.285  1.00  0.00    -0.354 N 
ATOM     46  C   UNL A   1      40.592  31.748  31.707  1.00  0.00     0.074 A 
ATOM     47  C   UNL A   1      40.704  31.255  30.354  1.00  0.00     0.031 C 
ATOM     48  C   UNL A   1      45.317  28.592  34.749  1.00  0.00     0.029 A 
ATOM     49  C   UNL A   1      44.397  29.575  35.321  1.00  0.00     0.049 A 
ATOM     50  H   UNL A   1      42.744  30.437  34.387  1.00  0.00     0.167 HD
ATOM     51  C   UNL A   1      39.669  32.651  32.110  1.00  0.00     0.034 A 
ATOM     52  C   UNL A   1      44.450  30.078  36.571  1.00  0.00     0.034 A 
ATOM     53  C   UNL A   1      39.565  33.133  33.457  1.00  0.00     0.049 A 
ATOM     54  C   UNL A   1      43.440  31.120  36.986  1.00  0.00     0.074 A 
ATOM     55  C   UNL A   1      38.653  34.031  33.979  1.00  0.00     0.029 A 
ATOM     56  N   UNL A   1      40.410  32.765  34.491  1.00  0.00    -0.354 N 
ATOM     57  N   UNL A   1      42.456  31.642  36.292  1.00  0.00    -0.248 NA
ATOM     58  C   UNL A   1      43.531  31.631  38.362  1.00  0.00     0.031 C 
ATOM     59  C   UNL A   1      38.964  34.227  35.327  1.00  0.00     0.029 A 
ATOM     60  C   UNL A   1      40.045  33.420  35.652  1.00  0.00     0.049 A 
ATOM     61  H   UNL A   1      41.158  32.131  34.412  1.00  0.00     0.167 HD
ATOM     62  C   UNL A   1      41.782  32.495  37.160  1.00  0.00     0.074 A 
ATOM     63  C   UNL A   1      42.469  32.423  38.432  1.00  0.00     0.031 C 
ATOM     64  C   UNL A   1      40.696  33.272  36.927  1.00  0.00     0.034 A 
BRANCH  51  65
ATOM     65  C   UNL A   1      38.702  33.165  31.080  1.00  0.00     0.023 A 
ATOM     66  C   UNL A   1      39.134  34.100  30.119  1.00  0.00     0.012 A 
ATOM     67  C   UNL A   1      37.376  32.692  31.041  1.00  0.00     0.148 A 
ATOM     68  C   UNL A   1      38.253  34.580  29.152  1.00  0.00     0.002 A 
ATOM     69  C   UNL A   1      36.517  33.140  30.045  1.00  0.00     0.091 A 
ATOM     70  F   UNL A   1      36.978  31.824  31.982  1.00  0.00    -0.205 F 
ATOM     71  C   UNL A   1      36.950  34.093  29.109  1.00  0.00     0.022 A 
BRANCH  69  72
ATOM     72  S   UNL A   1      34.845  32.513  29.857  1.00  0.00     0.127 S 
ATOM     73  O   UNL A   1      35.081  31.240  29.179  1.00  0.00    -0.237 OA
ATOM     74  O   UNL A   1      34.406  32.391  31.248  1.00  0.00    -0.237 OA
ATOM     75  O   UNL A   1      34.126  33.510  29.077  1.00  0.00    -0.744 OA
ENDBRANCH  69  72
ENDBRANCH  51  65
BRANCH  52  76
ATOM     76  C   UNL A   1      45.484  29.600  37.533  1.00  0.00     0.023 A 
ATOM     77  C   UNL A   1      46.676  30.336  37.688  1.00  0.00     0.012 A 
ATOM     78  C   UNL A   1      45.301  28.426  38.288  1.00  0.00     0.148 A 
ATOM     79  C   UNL A   1      47.679  29.893  38.551  1.00  0.00     0.002 A 
ATOM     80  C   UNL A   1      46.281  28.018  39.185  1.00  0.00     0.091 A 
ATOM     81  F   UNL A   1      44.169  27.729  38.114  1.00  0.00    -0.205 F 
ATOM     82  C   UNL A   1      47.479  28.740  39.305  1.00  0.00     0.022 A 
BRANCH  80  83
ATOM     83  S   UNL A   1      46.063  26.613  40.283  1.00  0.00     0.127 S 
ATOM     84  O   UNL A   1      45.494  25.615  39.382  1.00  0.00    -0.237 OA
ATOM     85  O   UNL A   1      47.438  26.349  40.708  1.00  0.00    -0.237 OA
ATOM     86  O   UNL A   1      45.183  27.079  41.347  1.00  0.00    -0.744 OA
ENDBRANCH  80  83
ENDBRANCH  52  76
BRANCH  64  87
ATOM     87  C   UNL A   1      40.112  34.049  38.077  1.00  0.00     0.023 A 
ATOM     88  C   UNL A   1      40.354  35.431  38.194  1.00  0.00     0.012 A 
ATOM     89  C   UNL A   1      39.209  33.424  38.960  1.00  0.00     0.148 A 
ATOM     90  C   UNL A   1      39.715  36.175  39.185  1.00  0.00     0.002 A 
ATOM     91  C   UNL A   1      38.538  34.180  39.910  1.00  0.00     0.091 A 
ATOM     92  F   UNL A   1      39.007  32.104  38.834  1.00  0.00    -0.205 F 
ATOM     93  C   UNL A   1      38.796  35.555  40.031  1.00  0.00     0.022 A 
BRANCH  91  94
ATOM     94  S   UNL A   1      37.261  33.490  40.968  1.00  0.00     0.127 S 
ATOM     95  O   UNL A   1      37.976  32.391  41.618  1.00  0.00    -0.237 OA
ATOM     96  O   UNL A   1      36.946  34.617  41.846  1.00  0.00    -0.237 OA
ATOM     97  O   UNL A   1      36.176  33.086  40.084  1.00  0.00    -0.744 OA
ENDBRANCH  91  94
ENDBRANCH  64  87
ENDBRANCH  38  39
ENDBRANCH  31  33
ENDBRANCH  30  31
ENDBRANCH  29  30
ENDBRANCH  28  29
ENDBRANCH  27  28
ENDBRANCH  26  27
ENDBRANCH   1  26
TORSDOF 26
ENDMDL
MODEL 3
REMARK VINA RESULT:      -7.8      2.961      8.726
REMARK SMILES Cc1cc(C(=O)N[C@H](C(=O)OCCOCCOCCOCCOC(=O)c2ccc(-c3c4nc(c(-c5cccc(S(=O)(=O)[O-])c5F)c5ccc([nH]5)c(-c5cccc(S(=O)(=O)[O-])c5F)c5nc(c(-c6cccc(S(=O)(=O)[O-])c6F)c6ccc3[nH]6)C=C5)C=C4)cc2)C(C)C)c(C)s1
REMARK SMILES IDX 18 1 17 2 16 3 15 4 14 5 13 6 12 7 11 8 9 9 10 10 8 11 7 12
REMARK SMILES IDX 5 13 6 14 4 16 1 17 2 18 3 19 94 20 92 21 93 22 89 23 90 24
REMARK SMILES IDX 91 25 19 26 20 27 21 28 22 29 23 30 24 31 25 32 26 33 27 34
REMARK SMILES IDX 88 35 28 36 87 37 29 38 30 39 31 40 81 41 32 42 86 43 80 44
REMARK SMILES IDX 82 45 33 46 85 47 79 48 78 49 34 51 66 52 46 53 65 54 47 55
REMARK SMILES IDX 50 56 64 57 83 58 48 59 49 60 63 62 84 63 51 64 35 65 36 66
REMARK SMILES IDX 44 67 37 68 39 69 45 70 38 71 40 72 41 73 42 74 43 75 67 76
REMARK SMILES IDX 68 77 76 78 69 79 71 80 77 81 70 82 72 83 73 84 74 85 75 86
REMARK SMILES IDX 52 87 53 88 61 89 54 90 56 91 62 92 55 93 57 94 58 95 59 96
REMARK SMILES IDX 60 97
REMARK H PARENT 7 15 82 50 50 61
REMARK Flexibility Score: inf
ROOT
ATOM      1  C   UNL A   1      35.943  33.598  28.786  1.00  0.00     0.188 C 
ENDROOT
BRANCH   1   2
ATOM      2  O   UNL A   1      34.702  34.281  28.636  1.00  0.00    -0.377 OA
BRANCH   2   3
ATOM      3  C   UNL A   1      33.690  33.680  27.854  1.00  0.00     0.188 C 
BRANCH   3   4
ATOM      4  C   UNL A   1      33.480  32.184  28.156  1.00  0.00     0.188 C 
BRANCH   4   5
ATOM      5  O   UNL A   1      33.812  31.325  27.073  1.00  0.00    -0.376 OA
BRANCH   5   6
ATOM      6  C   UNL A   1      33.553  29.934  27.200  1.00  0.00     0.202 C 
BRANCH   6   7
ATOM      7  C   UNL A   1      34.629  28.924  26.762  1.00  0.00     0.261 C 
BRANCH   7   8
ATOM      8  O   UNL A   1      34.196  27.698  26.143  1.00  0.00    -0.462 OA
BRANCH   8   9
ATOM      9  C   UNL A   1      32.865  27.487  25.985  1.00  0.00     0.328 C 
ATOM     10  O   UNL A   1      32.150  27.020  26.856  1.00  0.00    -0.250 OA
BRANCH   9  11
ATOM     11  C   UNL A   1      32.432  27.877  24.552  1.00  0.00     0.195 C 
BRANCH  11  12
ATOM     12  N   UNL A   1      33.143  27.010  23.613  1.00  0.00    -0.338 N 
ATOM     13  C   UNL A   1      33.323  25.653  23.515  1.00  0.00     0.253 C 
ATOM     14  O   UNL A   1      33.896  25.277  22.491  1.00  0.00    -0.269 OA
ATOM     15  H   UNL A   1      33.590  27.509  22.892  1.00  0.00     0.164 HD
BRANCH  13  16
ATOM     16  C   UNL A   1      32.925  24.697  24.568  1.00  0.00     0.053 A 
ATOM     17  C   UNL A   1      30.336  22.916  26.707  1.00  0.00     0.056 C 
ATOM     18  C   UNL A   1      31.567  23.412  26.031  1.00  0.00     0.003 A 
ATOM     19  C   UNL A   1      31.624  24.195  24.904  1.00  0.00     0.029 A 
ATOM     20  S   UNL A   1      33.122  23.071  26.600  1.00  0.00    -0.145 S 
ATOM     21  C   UNL A   1      33.851  24.096  25.423  1.00  0.00     0.014 A 
ATOM     22  C   UNL A   1      35.340  24.233  25.464  1.00  0.00     0.057 C 
ENDBRANCH  13  16
ENDBRANCH  11  12
BRANCH  11  23
ATOM     23  C   UNL A   1      30.928  28.014  24.167  1.00  0.00     0.017 C 
ATOM     24  C   UNL A   1      30.449  29.417  23.791  1.00  0.00     0.010 C 
ATOM     25  C   UNL A   1      30.558  27.048  23.032  1.00  0.00     0.010 C 
ENDBRANCH  11  23
ENDBRANCH   9  11
ENDBRANCH   8   9
ENDBRANCH   7   8
ENDBRANCH   6   7
ENDBRANCH   5   6
ENDBRANCH   4   5
ENDBRANCH   3   4
ENDBRANCH   2   3
ENDBRANCH   1   2
BRANCH   1  26
ATOM     26  C   UNL A   1      36.487  33.178  30.174  1.00  0.00     0.188 C 
BRANCH  26  27
ATOM     27  O   UNL A   1      35.582  32.412  30.961  1.00  0.00    -0.376 OA
BRANCH  27  28
ATOM     28  C   UNL A   1      36.112  31.415  31.814  1.00  0.00     0.202 C 
BRANCH  28  29
ATOM     29  C   UNL A   1      36.757  30.216  31.110  1.00  0.00     0.261 C 
BRANCH  29  30
ATOM     30  O   UNL A   1      36.767  28.990  31.851  1.00  0.00    -0.460 OA
BRANCH  30  31
ATOM     31  C   UNL A   1      37.959  28.493  32.251  1.00  0.00     0.338 C 
ATOM     32  O   UNL A   1      38.158  27.468  32.878  1.00  0.00    -0.246 OA
BRANCH  31  33
ATOM     33  C   UNL A   1      39.003  29.306  31.593  1.00  0.00     0.060 A 
ATOM     34  C   UNL A   1      39.142  29.260  30.198  1.00  0.00     0.016 A 
ATOM     35  C   UNL A   1      39.798  30.157  32.361  1.00  0.00     0.016 A 
ATOM     36  C   UNL A   1      40.107  30.047  29.567  1.00  0.00     0.010 A 
ATOM     37  C   UNL A   1      40.781  30.919  31.735  1.00  0.00     0.010 A 
ATOM     38  C   UNL A   1      40.962  30.837  30.343  1.00  0.00    -0.014 A 
BRANCH  38  39
ATOM     39  C   UNL A   1      42.225  31.363  29.778  1.00  0.00     0.031 A 
ATOM     40  C   UNL A   1      43.255  30.353  29.358  1.00  0.00     0.074 A 
ATOM     41  C   UNL A   1      42.487  32.681  29.725  1.00  0.00     0.049 A 
ATOM     42  N   UNL A   1      44.504  30.529  29.030  1.00  0.00    -0.248 NA
ATOM     43  C   UNL A   1      42.812  28.947  29.323  1.00  0.00     0.031 C 
ATOM     44  C   UNL A   1      41.555  33.748  30.082  1.00  0.00     0.029 A 
ATOM     45  N   UNL A   1      43.645  33.337  29.393  1.00  0.00    -0.354 N 
ATOM     46  C   UNL A   1      45.010  29.256  28.793  1.00  0.00     0.074 A 
ATOM     47  C   UNL A   1      43.934  28.317  29.013  1.00  0.00     0.031 C 
ATOM     48  C   UNL A   1      42.194  34.928  29.993  1.00  0.00     0.029 A 
ATOM     49  C   UNL A   1      43.588  34.693  29.617  1.00  0.00     0.049 A 
ATOM     50  H   UNL A   1      44.440  32.883  29.031  1.00  0.00     0.167 HD
ATOM     51  C   UNL A   1      46.261  28.901  28.422  1.00  0.00     0.034 A 
ATOM     52  C   UNL A   1      44.563  35.623  29.564  1.00  0.00     0.034 A 
ATOM     53  C   UNL A   1      47.321  29.841  28.204  1.00  0.00     0.049 A 
ATOM     54  C   UNL A   1      45.963  35.197  29.193  1.00  0.00     0.074 A 
ATOM     55  C   UNL A   1      48.620  29.591  27.803  1.00  0.00     0.029 A 
ATOM     56  N   UNL A   1      47.207  31.210  28.380  1.00  0.00    -0.354 N 
ATOM     57  N   UNL A   1      46.411  34.003  28.889  1.00  0.00    -0.248 NA
ATOM     58  C   UNL A   1      46.989  36.249  29.137  1.00  0.00     0.031 C 
ATOM     59  C   UNL A   1      49.302  30.810  27.764  1.00  0.00     0.029 A 
ATOM     60  C   UNL A   1      48.414  31.822  28.100  1.00  0.00     0.049 A 
ATOM     61  H   UNL A   1      46.388  31.678  28.662  1.00  0.00     0.167 HD
ATOM     62  C   UNL A   1      47.752  34.169  28.554  1.00  0.00     0.074 A 
ATOM     63  C   UNL A   1      48.045  35.579  28.693  1.00  0.00     0.031 C 
ATOM     64  C   UNL A   1      48.661  33.238  28.170  1.00  0.00     0.034 A 
BRANCH  51  65
ATOM     65  C   UNL A   1      46.539  27.437  28.224  1.00  0.00     0.023 A 
ATOM     66  C   UNL A   1      46.962  26.651  29.314  1.00  0.00     0.012 A 
ATOM     67  C   UNL A   1      46.343  26.831  26.967  1.00  0.00     0.148 A 
ATOM     68  C   UNL A   1      47.216  25.290  29.151  1.00  0.00     0.002 A 
ATOM     69  C   UNL A   1      46.552  25.466  26.823  1.00  0.00     0.091 A 
ATOM     70  F   UNL A   1      45.967  27.603  25.937  1.00  0.00    -0.205 F 
ATOM     71  C   UNL A   1      47.001  24.697  27.910  1.00  0.00     0.022 A 
BRANCH  69  72
ATOM     72  S   UNL A   1      46.228  24.594  25.287  1.00  0.00     0.127 S 
ATOM     73  O   UNL A   1      44.825  24.930  25.049  1.00  0.00    -0.237 OA
ATOM     74  O   UNL A   1      47.172  25.232  24.369  1.00  0.00    -0.237 OA
ATOM     75  O   UNL A   1      46.495  23.189  25.557  1.00  0.00    -0.744 OA
ENDBRANCH  69  72
ENDBRANCH  51  65
BRANCH  52  76
ATOM     76  C   UNL A   1      44.257  37.053  29.853  1.00  0.00     0.023 A 
ATOM     77  C   UNL A   1      44.342  37.523  31.179  1.00  0.00     0.012 A 
ATOM     78  C   UNL A   1      43.879  37.947  28.833  1.00  0.00     0.148 A 
ATOM     79  C   UNL A   1      44.024  38.846  31.488  1.00  0.00     0.002 A 
ATOM     80  C   UNL A   1      43.615  39.277  29.139  1.00  0.00     0.091 A 
ATOM     81  F   UNL A   1      43.786  37.478  27.581  1.00  0.00    -0.205 F 
ATOM     82  C   UNL A   1      43.669  39.725  30.468  1.00  0.00     0.022 A 
BRANCH  80  83
ATOM     83  S   UNL A   1      43.264  40.508  27.878  1.00  0.00     0.127 S 
ATOM     84  O   UNL A   1      41.804  40.495  27.846  1.00  0.00    -0.237 OA
ATOM     85  O   UNL A   1      43.858  41.711  28.461  1.00  0.00    -0.237 OA
ATOM     86  O   UNL A   1      43.927  40.033  26.670  1.00  0.00    -0.744 OA
ENDBRANCH  80  83
ENDBRANCH  52  76
BRANCH  64  87
ATOM     87  C   UNL A   1      50.040  33.703  27.784  1.00  0.00     0.023 A 
ATOM     88  C   UNL A   1      51.063  33.761  28.749  1.00  0.00     0.012 A 
ATOM     89  C   UNL A   1      50.345  33.947  26.430  1.00  0.00     0.148 A 
ATOM     90  C   UNL A   1      52.370  34.071  28.370  1.00  0.00     0.002 A 
ATOM     91  C   UNL A   1      51.656  34.204  26.054  1.00  0.00     0.091 A 
ATOM     92  F   UNL A   1      49.349  33.897  25.534  1.00  0.00    -0.205 F 
ATOM     93  C   UNL A   1      52.669  34.276  27.024  1.00  0.00     0.022 A 
BRANCH  91  94
ATOM     94  S   UNL A   1      52.153  34.372  24.336  1.00  0.00     0.127 S 
ATOM     95  O   UNL A   1      51.473  35.609  23.950  1.00  0.00    -0.237 OA
ATOM     96  O   UNL A   1      53.607  34.484  24.445  1.00  0.00    -0.237 OA
ATOM     97  O   UNL A   1      51.684  33.171  23.659  1.00  0.00    -0.744 OA
ENDBRANCH  91  94
ENDBRANCH  64  87
ENDBRANCH  38  39
ENDBRANCH  31  33
ENDBRANCH  30  31
ENDBRANCH  29  30
ENDBRANCH  28  29
ENDBRANCH  27  28
ENDBRANCH  26  27
ENDBRANCH   1  26
TORSDOF 26
ENDMDL
