MODEL 1
REMARK VINA RESULT:     -10.7      0.000      0.000
REMARK SMILES C[C@H](NS(=O)(=O)c1ccc(-c2cc(-c3ccccc3)c3cc([N+](=O)[O-])ccc3n2)cc1)C(=O)OCCOCCOCCOCCOC(=O)c1ccc(-c2c3nc(c(-c4cccc(S(=O)(=O)[O-])c4F)c4ccc([nH]4)c(-c4cccc(S(=O)(=O)[O-])c4F)c4nc(c(-c5cccc(S(=O)(=O)[O-])c5F)c5ccc2[nH]5)C=C4)C=C3)cc1
REMARK SMILES IDX 39 1 38 2 37 3 36 4 35 5 34 6 32 7 33 8 2 9 1 10 3 11 4 13
REMARK SMILES IDX 5 14 6 15 7 16 8 17 31 18 9 19 30 20 10 21 11 22 12 23 29 24
REMARK SMILES IDX 13 25 28 26 20 27 27 28 21 29 26 30 22 31 14 32 15 33 19 34
REMARK SMILES IDX 16 35 18 36 17 37 23 38 24 39 25 40 40 41 41 42 42 43 43 44
REMARK SMILES IDX 44 45 45 46 46 47 47 48 48 49 49 50 50 51 111 52 51 53
REMARK SMILES IDX 110 54 52 55 53 56 54 57 104 58 55 59 109 60 103 61 105 62
REMARK SMILES IDX 56 63 108 64 102 65 101 66 57 68 89 69 69 70 88 71 70 72
REMARK SMILES IDX 73 73 87 74 106 75 71 76 72 77 86 79 107 80 74 81 58 82
REMARK SMILES IDX 59 83 67 84 60 85 62 86 68 87 61 88 63 89 64 90 65 91 66 92
REMARK SMILES IDX 90 93 91 94 99 95 92 96 94 97 100 98 93 99 95 100 96 101
REMARK SMILES IDX 97 102 98 103 75 104 76 105 84 106 77 107 79 108 85 109
REMARK SMILES IDX 78 110 80 111 81 112 82 113 83 114
REMARK H PARENT 3 12 105 67 73 78
REMARK Flexibility Score: inf
ROOT
ATOM      1  C   UNL A   1      39.021  21.271  25.928  1.00  0.00     0.188 C 
ENDROOT
BRANCH   1   2
ATOM      2  C   UNL A   1      38.516  19.975  25.270  1.00  0.00     0.188 C 
BRANCH   2   3
ATOM      3  O   UNL A   1      37.216  19.858  24.696  1.00  0.00    -0.376 OA
BRANCH   3   4
ATOM      4  C   UNL A   1      36.490  18.635  24.689  1.00  0.00     0.202 C 
BRANCH   4   5
ATOM      5  C   UNL A   1      34.962  18.623  24.725  1.00  0.00     0.261 C 
BRANCH   5   6
ATOM      6  O   UNL A   1      34.384  19.596  25.593  1.00  0.00    -0.462 OA
BRANCH   6   7
ATOM      7  C   UNL A   1      33.218  20.128  25.147  1.00  0.00     0.323 C 
ATOM      8  O   UNL A   1      32.103  19.653  25.331  1.00  0.00    -0.250 OA
BRANCH   7   9
ATOM      9  C   UNL A   1      33.449  21.405  24.370  1.00  0.00     0.176 C 
ATOM     10  C   UNL A   1      32.784  21.247  23.015  1.00  0.00     0.038 C 
BRANCH   9  11
ATOM     11  N   UNL A   1      34.864  21.871  24.401  1.00  0.00    -0.197 NA
ATOM     12  H   UNL A   1      35.179  21.854  23.430  1.00  0.00     0.142 HD
BRANCH  11  13
ATOM     13  S   UNL A   1      35.369  23.353  25.011  1.00  0.00     0.241 S 
ATOM     14  O   UNL A   1      36.313  23.062  26.057  1.00  0.00    -0.207 OA
ATOM     15  O   UNL A   1      35.713  24.162  23.860  1.00  0.00    -0.207 OA
BRANCH  13  16
ATOM     16  C   UNL A   1      33.947  24.064  25.784  1.00  0.00     0.082 A 
ATOM     17  C   UNL A   1      33.055  23.242  26.475  1.00  0.00     0.022 A 
ATOM     18  C   UNL A   1      33.707  25.431  25.664  1.00  0.00     0.022 A 
ATOM     19  C   UNL A   1      31.815  23.760  26.864  1.00  0.00     0.012 A 
ATOM     20  C   UNL A   1      32.538  25.969  26.186  1.00  0.00     0.012 A 
ATOM     21  C   UNL A   1      31.489  25.101  26.579  1.00  0.00     0.000 A 
BRANCH  21  22
ATOM     22  C   UNL A   1      30.137  25.394  25.964  1.00  0.00     0.072 A 
ATOM     23  C   UNL A   1      29.775  26.702  25.672  1.00  0.00     0.038 A 
ATOM     24  N   UNL A   1      29.958  24.469  24.989  1.00  0.00    -0.248 NA
ATOM     25  C   UNL A   1      29.843  27.101  24.328  1.00  0.00    -0.007 A 
ATOM     26  C   UNL A   1      30.422  24.827  23.795  1.00  0.00     0.072 A 
ATOM     27  C   UNL A   1      30.465  26.184  23.438  1.00  0.00     0.015 A 
ATOM     28  C   UNL A   1      31.064  23.879  23.008  1.00  0.00     0.036 A 
ATOM     29  C   UNL A   1      31.266  26.573  22.339  1.00  0.00     0.096 A 
ATOM     30  C   UNL A   1      31.905  24.264  21.960  1.00  0.00     0.088 A 
ATOM     31  C   UNL A   1      32.036  25.621  21.660  1.00  0.00     0.270 A 
BRANCH  25  32
ATOM     32  C   UNL A   1      29.362  28.416  23.853  1.00  0.00    -0.018 A 
ATOM     33  C   UNL A   1      28.074  28.494  23.279  1.00  0.00     0.009 A 
ATOM     34  C   UNL A   1      30.095  29.605  23.961  1.00  0.00     0.009 A 
ATOM     35  C   UNL A   1      27.557  29.690  22.787  1.00  0.00     0.001 A 
ATOM     36  C   UNL A   1      29.570  30.813  23.481  1.00  0.00     0.001 A 
ATOM     37  C   UNL A   1      28.309  30.852  22.886  1.00  0.00     0.000 A 
ENDBRANCH  25  32
BRANCH  31  38
ATOM     38  N   UNL A   1      33.078  26.067  20.725  1.00  0.00     0.062 N 
ATOM     39  O   UNL A   1      33.788  27.023  21.073  1.00  0.00    -0.258 OA
ATOM     40  O   UNL A   1      33.209  25.450  19.661  1.00  0.00    -0.258 OA
ENDBRANCH  31  38
ENDBRANCH  21  22
ENDBRANCH  13  16
ENDBRANCH  11  13
ENDBRANCH   9  11
ENDBRANCH   7   9
ENDBRANCH   6   7
ENDBRANCH   5   6
ENDBRANCH   4   5
ENDBRANCH   3   4
ENDBRANCH   2   3
ENDBRANCH   1   2
BRANCH   1  41
ATOM     41  O   UNL A   1      40.422  21.314  26.109  1.00  0.00    -0.377 OA
BRANCH  41  42
ATOM     42  C   UNL A   1      40.914  20.483  27.165  1.00  0.00     0.188 C 
BRANCH  42  43
ATOM     43  C   UNL A   1      42.106  19.564  26.814  1.00  0.00     0.188 C 
BRANCH  43  44
ATOM     44  O   UNL A   1      42.463  19.627  25.433  1.00  0.00    -0.376 OA
BRANCH  44  45
ATOM     45  C   UNL A   1      43.778  20.098  25.150  1.00  0.00     0.202 C 
BRANCH  45  46
ATOM     46  C   UNL A   1      44.137  21.439  25.804  1.00  0.00     0.261 C 
BRANCH  46  47
ATOM     47  O   UNL A   1      43.307  22.555  25.433  1.00  0.00    -0.460 OA
BRANCH  47  48
ATOM     48  C   UNL A   1      43.900  23.742  25.179  1.00  0.00     0.338 C 
ATOM     49  O   UNL A   1      44.679  23.999  24.280  1.00  0.00    -0.246 OA
BRANCH  48  50
ATOM     50  C   UNL A   1      43.276  24.750  26.062  1.00  0.00     0.060 A 
ATOM     51  C   UNL A   1      43.669  26.090  25.948  1.00  0.00     0.016 A 
ATOM     52  C   UNL A   1      42.307  24.371  26.993  1.00  0.00     0.016 A 
ATOM     53  C   UNL A   1      43.114  27.053  26.793  1.00  0.00     0.010 A 
ATOM     54  C   UNL A   1      41.769  25.332  27.850  1.00  0.00     0.010 A 
ATOM     55  C   UNL A   1      42.191  26.671  27.774  1.00  0.00    -0.014 A 
BRANCH  55  56
ATOM     56  C   UNL A   1      41.786  27.615  28.842  1.00  0.00     0.031 A 
ATOM     57  C   UNL A   1      42.507  27.551  30.161  1.00  0.00     0.074 A 
ATOM     58  C   UNL A   1      40.754  28.460  28.672  1.00  0.00     0.049 A 
ATOM     59  N   UNL A   1      42.261  28.195  31.271  1.00  0.00    -0.248 NA
ATOM     60  C   UNL A   1      43.655  26.631  30.238  1.00  0.00     0.031 C 
ATOM     61  C   UNL A   1      39.972  28.607  27.447  1.00  0.00     0.029 A 
ATOM     62  N   UNL A   1      40.158  29.323  29.560  1.00  0.00    -0.354 N 
ATOM     63  C   UNL A   1      43.193  27.729  32.190  1.00  0.00     0.074 A 
ATOM     64  C   UNL A   1      44.016  26.755  31.508  1.00  0.00     0.031 C 
ATOM     65  C   UNL A   1      38.968  29.472  27.673  1.00  0.00     0.029 A 
ATOM     66  C   UNL A   1      39.019  29.917  29.065  1.00  0.00     0.049 A 
ATOM     67  H   UNL A   1      40.512  29.501  30.461  1.00  0.00     0.167 HD
ATOM     68  C   UNL A   1      43.354  28.086  33.485  1.00  0.00     0.034 A 
ATOM     69  C   UNL A   1      38.106  30.697  29.679  1.00  0.00     0.034 A 
ATOM     70  C   UNL A   1      42.553  29.070  34.156  1.00  0.00     0.049 A 
ATOM     71  C   UNL A   1      38.297  31.058  31.131  1.00  0.00     0.074 A 
ATOM     72  C   UNL A   1      42.695  29.562  35.442  1.00  0.00     0.029 A 
ATOM     73  N   UNL A   1      41.446  29.696  33.607  1.00  0.00    -0.354 N 
ATOM     74  N   UNL A   1      39.277  30.739  31.942  1.00  0.00    -0.248 NA
ATOM     75  C   UNL A   1      37.266  31.908  31.749  1.00  0.00     0.031 C 
ATOM     76  C   UNL A   1      41.654  30.462  35.681  1.00  0.00     0.029 A 
ATOM     77  C   UNL A   1      40.878  30.549  34.536  1.00  0.00     0.049 A 
ATOM     78  H   UNL A   1      41.113  29.554  32.692  1.00  0.00     0.167 HD
ATOM     79  C   UNL A   1      38.997  31.370  33.150  1.00  0.00     0.074 A 
ATOM     80  C   UNL A   1      37.767  32.109  32.960  1.00  0.00     0.031 C 
ATOM     81  C   UNL A   1      39.685  31.326  34.318  1.00  0.00     0.034 A 
BRANCH  68  82
ATOM     82  C   UNL A   1      44.456  27.422  34.263  1.00  0.00     0.023 A 
ATOM     83  C   UNL A   1      45.738  28.007  34.295  1.00  0.00     0.012 A 
ATOM     84  C   UNL A   1      44.203  26.261  35.019  1.00  0.00     0.148 A 
ATOM     85  C   UNL A   1      46.759  27.434  35.052  1.00  0.00     0.002 A 
ATOM     86  C   UNL A   1      45.214  25.718  35.801  1.00  0.00     0.091 A 
ATOM     87  F   UNL A   1      42.984  25.707  34.952  1.00  0.00    -0.205 F 
ATOM     88  C   UNL A   1      46.493  26.298  35.813  1.00  0.00     0.022 A 
BRANCH  86  89
ATOM     89  S   UNL A   1      44.953  24.299  36.871  1.00  0.00     0.127 S 
ATOM     90  O   UNL A   1      43.999  24.833  37.841  1.00  0.00    -0.237 OA
ATOM     91  O   UNL A   1      44.394  23.314  35.944  1.00  0.00    -0.237 OA
ATOM     92  O   UNL A   1      46.262  23.953  37.407  1.00  0.00    -0.744 OA
ENDBRANCH  86  89
ENDBRANCH  68  82
BRANCH  69  93
ATOM     93  C   UNL A   1      36.924  31.203  28.924  1.00  0.00     0.023 A 
ATOM     94  C   UNL A   1      36.804  32.584  28.669  1.00  0.00     0.012 A 
ATOM     95  C   UNL A   1      35.917  30.331  28.466  1.00  0.00     0.148 A 
ATOM     96  C   UNL A   1      35.689  33.088  27.999  1.00  0.00     0.002 A 
ATOM     97  C   UNL A   1      34.835  30.834  27.755  1.00  0.00     0.091 A 
ATOM     98  F   UNL A   1      36.037  29.024  28.740  1.00  0.00    -0.205 F 
ATOM     99  C   UNL A   1      34.711  32.215  27.533  1.00  0.00     0.022 A 
BRANCH  97 100
ATOM    100  S   UNL A   1      33.584  29.772  27.024  1.00  0.00     0.127 S 
ATOM    101  O   UNL A   1      32.516  30.726  26.733  1.00  0.00    -0.237 OA
ATOM    102  O   UNL A   1      34.280  29.250  25.847  1.00  0.00    -0.237 OA
ATOM    103  O   UNL A   1      33.281  28.772  28.039  1.00  0.00    -0.744 OA
ENDBRANCH  97 100
ENDBRANCH  69  93
BRANCH  81 104
ATOM    104  C   UNL A   1      39.153  32.114  35.486  1.00  0.00     0.023 A 
ATOM    105  C   UNL A   1      38.252  31.508  36.382  1.00  0.00     0.012 A 
ATOM    106  C   UNL A   1      39.626  33.415  35.753  1.00  0.00     0.148 A 
ATOM    107  C   UNL A   1      37.813  32.191  37.516  1.00  0.00     0.002 A 
ATOM    108  C   UNL A   1      39.220  34.071  36.910  1.00  0.00     0.091 A 
ATOM    109  F   UNL A   1      40.472  33.979  34.881  1.00  0.00    -0.205 F 
ATOM    110  C   UNL A   1      38.307  33.464  37.787  1.00  0.00     0.022 A 
BRANCH 108 111
ATOM    111  S   UNL A   1      39.877  35.672  37.393  1.00  0.00     0.127 S 
ATOM    112  O   UNL A   1      39.116  35.952  38.610  1.00  0.00    -0.237 OA
ATOM    113  O   UNL A   1      41.292  35.374  37.615  1.00  0.00    -0.237 OA
ATOM    114  O   UNL A   1      39.616  36.569  36.275  1.00  0.00    -0.744 OA
ENDBRANCH 108 111
ENDBRANCH  81 104
ENDBRANCH  55  56
ENDBRANCH  48  50
ENDBRANCH  47  48
ENDBRANCH  46  47
ENDBRANCH  45  46
ENDBRANCH  44  45
ENDBRANCH  43  44
ENDBRANCH  42  43
ENDBRANCH  41  42
ENDBRANCH   1  41
TORSDOF 29
ENDMDL
MODEL 2
REMARK VINA RESULT:     -10.2      5.554      7.550
REMARK SMILES C[C@H](NS(=O)(=O)c1ccc(-c2cc(-c3ccccc3)c3cc([N+](=O)[O-])ccc3n2)cc1)C(=O)OCCOCCOCCOCCOC(=O)c1ccc(-c2c3nc(c(-c4cccc(S(=O)(=O)[O-])c4F)c4ccc([nH]4)c(-c4cccc(S(=O)(=O)[O-])c4F)c4nc(c(-c5cccc(S(=O)(=O)[O-])c5F)c5ccc2[nH]5)C=C4)C=C3)cc1
REMARK SMILES IDX 39 1 38 2 37 3 36 4 35 5 34 6 32 7 33 8 2 9 1 10 3 11 4 13
REMARK SMILES IDX 5 14 6 15 7 16 8 17 31 18 9 19 30 20 10 21 11 22 12 23 29 24
REMARK SMILES IDX 13 25 28 26 20 27 27 28 21 29 26 30 22 31 14 32 15 33 19 34
REMARK SMILES IDX 16 35 18 36 17 37 23 38 24 39 25 40 40 41 41 42 42 43 43 44
REMARK SMILES IDX 44 45 45 46 46 47 47 48 48 49 49 50 50 51 111 52 51 53
REMARK SMILES IDX 110 54 52 55 53 56 54 57 104 58 55 59 109 60 103 61 105 62
REMARK SMILES IDX 56 63 108 64 102 65 101 66 57 68 89 69 69 70 88 71 70 72
REMARK SMILES IDX 73 73 87 74 106 75 71 76 72 77 86 79 107 80 74 81 58 82
REMARK SMILES IDX 59 83 67 84 60 85 62 86 68 87 61 88 63 89 64 90 65 91 66 92
REMARK SMILES IDX 90 93 91 94 99 95 92 96 94 97 100 98 93 99 95 100 96 101
REMARK SMILES IDX 97 102 98 103 75 104 76 105 84 106 77 107 79 108 85 109
REMARK SMILES IDX 78 110 80 111 81 112 82 113 83 114
REMARK H PARENT 3 12 105 67 73 78
REMARK Flexibility Score: inf
ROOT
ATOM      1  C   UNL A   1      38.142  21.779  25.757  1.00  0.00     0.188 C 
ENDROOT
BRANCH   1   2
ATOM      2  C   UNL A   1      37.848  20.502  24.951  1.00  0.00     0.188 C 
BRANCH   2   3
ATOM      3  O   UNL A   1      36.549  19.919  24.876  1.00  0.00    -0.376 OA
BRANCH   3   4
ATOM      4  C   UNL A   1      36.344  18.517  24.761  1.00  0.00     0.202 C 
BRANCH   4   5
ATOM      5  C   UNL A   1      34.937  17.930  24.654  1.00  0.00     0.261 C 
BRANCH   5   6
ATOM      6  O   UNL A   1      33.930  18.682  25.328  1.00  0.00    -0.462 OA
BRANCH   6   7
ATOM      7  C   UNL A   1      32.712  18.653  24.733  1.00  0.00     0.323 C 
ATOM      8  O   UNL A   1      31.823  17.841  24.970  1.00  0.00    -0.250 OA
BRANCH   7   9
ATOM      9  C   UNL A   1      32.562  19.760  23.713  1.00  0.00     0.176 C 
ATOM     10  C   UNL A   1      32.164  19.121  22.395  1.00  0.00     0.038 C 
BRANCH   9  11
ATOM     11  N   UNL A   1      33.704  20.717  23.705  1.00  0.00    -0.197 NA
ATOM     12  H   UNL A   1      34.346  20.371  22.991  1.00  0.00     0.142 HD
BRANCH  11  13
ATOM     13  S   UNL A   1      33.564  22.367  23.422  1.00  0.00     0.241 S 
ATOM     14  O   UNL A   1      34.889  22.916  23.551  1.00  0.00    -0.207 OA
ATOM     15  O   UNL A   1      32.787  22.499  22.207  1.00  0.00    -0.207 OA
BRANCH  13  16
ATOM     16  C   UNL A   1      32.610  23.007  24.765  1.00  0.00     0.082 A 
ATOM     17  C   UNL A   1      31.219  22.885  24.742  1.00  0.00     0.022 A 
ATOM     18  C   UNL A   1      33.249  23.662  25.816  1.00  0.00     0.022 A 
ATOM     19  C   UNL A   1      30.458  23.607  25.669  1.00  0.00     0.012 A 
ATOM     20  C   UNL A   1      32.489  24.251  26.818  1.00  0.00     0.012 A 
ATOM     21  C   UNL A   1      31.097  24.424  26.623  1.00  0.00     0.000 A 
BRANCH  21  22
ATOM     22  C   UNL A   1      30.581  25.833  26.817  1.00  0.00     0.072 A 
ATOM     23  C   UNL A   1      31.429  26.824  27.293  1.00  0.00     0.038 A 
ATOM     24  N   UNL A   1      29.849  26.122  25.714  1.00  0.00    -0.248 NA
ATOM     25  C   UNL A   1      31.933  27.741  26.357  1.00  0.00    -0.007 A 
ATOM     26  C   UNL A   1      30.542  26.663  24.716  1.00  0.00     0.072 A 
ATOM     27  C   UNL A   1      31.680  27.437  24.991  1.00  0.00     0.015 A 
ATOM     28  C   UNL A   1      30.265  26.272  23.411  1.00  0.00     0.036 A 
ATOM     29  C   UNL A   1      32.590  27.706  23.943  1.00  0.00     0.096 A 
ATOM     30  C   UNL A   1      31.191  26.482  22.385  1.00  0.00     0.088 A 
ATOM     31  C   UNL A   1      32.375  27.163  22.670  1.00  0.00     0.270 A 
BRANCH  25  32
ATOM     32  C   UNL A   1      32.735  28.923  26.738  1.00  0.00    -0.018 A 
ATOM     33  C   UNL A   1      34.087  28.733  27.095  1.00  0.00     0.009 A 
ATOM     34  C   UNL A   1      32.243  30.235  26.741  1.00  0.00     0.009 A 
ATOM     35  C   UNL A   1      34.903  29.792  27.488  1.00  0.00     0.001 A 
ATOM     36  C   UNL A   1      33.067  31.305  27.120  1.00  0.00     0.001 A 
ATOM     37  C   UNL A   1      34.389  31.081  27.503  1.00  0.00     0.000 A 
ENDBRANCH  25  32
BRANCH  31  38
ATOM     38  N   UNL A   1      33.458  27.196  21.678  1.00  0.00     0.062 N 
ATOM     39  O   UNL A   1      34.342  28.054  21.823  1.00  0.00    -0.258 OA
ATOM     40  O   UNL A   1      33.445  26.352  20.774  1.00  0.00    -0.258 OA
ENDBRANCH  31  38
ENDBRANCH  21  22
ENDBRANCH  13  16
ENDBRANCH  11  13
ENDBRANCH   9  11
ENDBRANCH   7   9
ENDBRANCH   6   7
ENDBRANCH   5   6
ENDBRANCH   4   5
ENDBRANCH   3   4
ENDBRANCH   2   3
ENDBRANCH   1   2
BRANCH   1  41
ATOM     41  O   UNL A   1      39.502  22.164  25.746  1.00  0.00    -0.377 OA
BRANCH  41  42
ATOM     42  C   UNL A   1      40.069  22.396  27.039  1.00  0.00     0.188 C 
BRANCH  42  43
ATOM     43  C   UNL A   1      40.876  21.230  27.651  1.00  0.00     0.188 C 
BRANCH  43  44
ATOM     44  O   UNL A   1      40.552  19.968  27.066  1.00  0.00    -0.376 OA
BRANCH  44  45
ATOM     45  C   UNL A   1      41.630  19.280  26.435  1.00  0.00     0.202 C 
BRANCH  45  46
ATOM     46  C   UNL A   1      42.681  20.190  25.783  1.00  0.00     0.261 C 
BRANCH  46  47
ATOM     47  O   UNL A   1      43.330  19.656  24.615  1.00  0.00    -0.460 OA
BRANCH  47  48
ATOM     48  C   UNL A   1      44.676  19.727  24.535  1.00  0.00     0.338 C 
ATOM     49  O   UNL A   1      45.439  18.859  24.154  1.00  0.00    -0.246 OA
BRANCH  48  50
ATOM     50  C   UNL A   1      45.064  21.129  24.795  1.00  0.00     0.060 A 
ATOM     51  C   UNL A   1      45.454  21.498  26.089  1.00  0.00     0.016 A 
ATOM     52  C   UNL A   1      45.043  22.071  23.764  1.00  0.00     0.016 A 
ATOM     53  C   UNL A   1      45.796  22.824  26.364  1.00  0.00     0.010 A 
ATOM     54  C   UNL A   1      45.366  23.399  24.045  1.00  0.00     0.010 A 
ATOM     55  C   UNL A   1      45.714  23.788  25.351  1.00  0.00    -0.014 A 
BRANCH  55  56
ATOM     56  C   UNL A   1      45.817  25.231  25.670  1.00  0.00     0.031 A 
ATOM     57  C   UNL A   1      47.185  25.853  25.729  1.00  0.00     0.074 A 
ATOM     58  C   UNL A   1      44.726  25.959  25.971  1.00  0.00     0.049 A 
ATOM     59  N   UNL A   1      47.532  27.059  26.090  1.00  0.00    -0.248 NA
ATOM     60  C   UNL A   1      48.315  24.993  25.335  1.00  0.00     0.031 C 
ATOM     61  C   UNL A   1      43.350  25.469  25.958  1.00  0.00     0.029 A 
ATOM     62  N   UNL A   1      44.618  27.262  26.395  1.00  0.00    -0.354 N 
ATOM     63  C   UNL A   1      48.919  27.092  26.008  1.00  0.00     0.074 A 
ATOM     64  C   UNL A   1      49.352  25.789  25.556  1.00  0.00     0.031 C 
ATOM     65  C   UNL A   1      42.538  26.443  26.403  1.00  0.00     0.029 A 
ATOM     66  C   UNL A   1      43.338  27.614  26.757  1.00  0.00     0.049 A 
ATOM     67  H   UNL A   1      45.381  27.882  26.435  1.00  0.00     0.167 HD
ATOM     68  C   UNL A   1      49.756  28.119  26.280  1.00  0.00     0.034 A 
ATOM     69  C   UNL A   1      42.877  28.738  27.342  1.00  0.00     0.034 A 
ATOM     70  C   UNL A   1      49.326  29.421  26.707  1.00  0.00     0.049 A 
ATOM     71  C   UNL A   1      43.838  29.857  27.657  1.00  0.00     0.074 A 
ATOM     72  C   UNL A   1      50.095  30.551  26.923  1.00  0.00     0.029 A 
ATOM     73  N   UNL A   1      48.017  29.761  27.005  1.00  0.00    -0.354 N 
ATOM     74  N   UNL A   1      45.125  29.934  27.421  1.00  0.00    -0.248 NA
ATOM     75  C   UNL A   1      43.278  31.058  28.299  1.00  0.00     0.031 C 
ATOM     76  C   UNL A   1      49.253  31.567  27.384  1.00  0.00     0.029 A 
ATOM     77  C   UNL A   1      47.958  31.077  27.431  1.00  0.00     0.049 A 
ATOM     78  H   UNL A   1      47.245  29.157  26.927  1.00  0.00     0.167 HD
ATOM     79  C   UNL A   1      45.522  31.195  27.858  1.00  0.00     0.074 A 
ATOM     80  C   UNL A   1      44.334  31.858  28.352  1.00  0.00     0.031 C 
ATOM     81  C   UNL A   1      46.760  31.747  27.866  1.00  0.00     0.034 A 
BRANCH  68  82
ATOM     82  C   UNL A   1      51.232  27.886  26.103  1.00  0.00     0.023 A 
ATOM     83  C   UNL A   1      52.015  27.508  27.212  1.00  0.00     0.012 A 
ATOM     84  C   UNL A   1      51.825  27.972  24.829  1.00  0.00     0.148 A 
ATOM     85  C   UNL A   1      53.374  27.238  27.059  1.00  0.00     0.002 A 
ATOM     86  C   UNL A   1      53.171  27.665  24.677  1.00  0.00     0.091 A 
ATOM     87  F   UNL A   1      51.066  28.361  23.795  1.00  0.00    -0.205 F 
ATOM     88  C   UNL A   1      53.948  27.305  25.791  1.00  0.00     0.022 A 
BRANCH  86  89
ATOM     89  S   UNL A   1      53.986  27.652  23.077  1.00  0.00     0.127 S 
ATOM     90  O   UNL A   1      55.250  26.991  23.396  1.00  0.00    -0.237 OA
ATOM     91  O   UNL A   1      53.065  26.851  22.270  1.00  0.00    -0.237 OA
ATOM     92  O   UNL A   1      54.095  29.046  22.670  1.00  0.00    -0.744 OA
ENDBRANCH  86  89
ENDBRANCH  68  82
BRANCH  69  93
ATOM     93  C   UNL A   1      41.427  28.874  27.665  1.00  0.00     0.023 A 
ATOM     94  C   UNL A   1      40.500  29.070  26.622  1.00  0.00     0.012 A 
ATOM     95  C   UNL A   1      40.964  28.820  28.995  1.00  0.00     0.148 A 
ATOM     96  C   UNL A   1      39.144  29.239  26.900  1.00  0.00     0.002 A 
ATOM     97  C   UNL A   1      39.605  28.939  29.260  1.00  0.00     0.091 A 
ATOM     98  F   UNL A   1      41.864  28.659  29.974  1.00  0.00    -0.205 F 
ATOM     99  C   UNL A   1      38.694  29.164  28.215  1.00  0.00     0.022 A 
BRANCH  97 100
ATOM    100  S   UNL A   1      38.925  28.746  30.911  1.00  0.00     0.127 S 
ATOM    101  O   UNL A   1      37.569  29.262  30.738  1.00  0.00    -0.237 OA
ATOM    102  O   UNL A   1      39.012  27.298  31.107  1.00  0.00    -0.237 OA
ATOM    103  O   UNL A   1      39.793  29.525  31.783  1.00  0.00    -0.744 OA
ENDBRANCH  97 100
ENDBRANCH  69  93
BRANCH  81 104
ATOM    104  C   UNL A   1      46.910  33.147  28.401  1.00  0.00     0.023 A 
ATOM    105  C   UNL A   1      47.232  33.344  29.757  1.00  0.00     0.012 A 
ATOM    106  C   UNL A   1      46.835  34.260  27.538  1.00  0.00     0.148 A 
ATOM    107  C   UNL A   1      47.459  34.628  30.252  1.00  0.00     0.002 A 
ATOM    108  C   UNL A   1      47.108  35.532  28.029  1.00  0.00     0.091 A 
ATOM    109  F   UNL A   1      46.513  34.052  26.254  1.00  0.00    -0.205 F 
ATOM    110  C   UNL A   1      47.410  35.718  29.387  1.00  0.00     0.022 A 
BRANCH 108 111
ATOM    111  S   UNL A   1      47.165  36.983  26.971  1.00  0.00     0.127 S 
ATOM    112  O   UNL A   1      45.743  37.243  26.745  1.00  0.00    -0.237 OA
ATOM    113  O   UNL A   1      47.836  37.964  27.825  1.00  0.00    -0.237 OA
ATOM    114  O   UNL A   1      47.922  36.591  25.789  1.00  0.00    -0.744 OA
ENDBRANCH 108 111
ENDBRANCH  81 104
ENDBRANCH  55  56
ENDBRANCH  48  50
ENDBRANCH  47  48
ENDBRANCH  46  47
ENDBRANCH  45  46
ENDBRANCH  44  45
ENDBRANCH  43  44
ENDBRANCH  42  43
ENDBRANCH  41  42
ENDBRANCH   1  41
TORSDOF 29
ENDMDL
MODEL 3
REMARK VINA RESULT:      -9.4      4.946      6.871
REMARK SMILES C[C@H](NS(=O)(=O)c1ccc(-c2cc(-c3ccccc3)c3cc([N+](=O)[O-])ccc3n2)cc1)C(=O)OCCOCCOCCOCCOC(=O)c1ccc(-c2c3nc(c(-c4cccc(S(=O)(=O)[O-])c4F)c4ccc([nH]4)c(-c4cccc(S(=O)(=O)[O-])c4F)c4nc(c(-c5cccc(S(=O)(=O)[O-])c5F)c5ccc2[nH]5)C=C4)C=C3)cc1
REMARK SMILES IDX 39 1 38 2 37 3 36 4 35 5 34 6 32 7 33 8 2 9 1 10 3 11 4 13
REMARK SMILES IDX 5 14 6 15 7 16 8 17 31 18 9 19 30 20 10 21 11 22 12 23 29 24
REMARK SMILES IDX 13 25 28 26 20 27 27 28 21 29 26 30 22 31 14 32 15 33 19 34
REMARK SMILES IDX 16 35 18 36 17 37 23 38 24 39 25 40 40 41 41 42 42 43 43 44
REMARK SMILES IDX 44 45 45 46 46 47 47 48 48 49 49 50 50 51 111 52 51 53
REMARK SMILES IDX 110 54 52 55 53 56 54 57 104 58 55 59 109 60 103 61 105 62
REMARK SMILES IDX 56 63 108 64 102 65 101 66 57 68 89 69 69 70 88 71 70 72
REMARK SMILES IDX 73 73 87 74 106 75 71 76 72 77 86 79 107 80 74 81 58 82
REMARK SMILES IDX 59 83 67 84 60 85 62 86 68 87 61 88 63 89 64 90 65 91 66 92
REMARK SMILES IDX 90 93 91 94 99 95 92 96 94 97 100 98 93 99 95 100 96 101
REMARK SMILES IDX 97 102 98 103 75 104 76 105 84 106 77 107 79 108 85 109
REMARK SMILES IDX 78 110 80 111 81 112 82 113 83 114
REMARK H PARENT 3 12 105 67 73 78
REMARK Flexibility Score: inf
ROOT
ATOM      1  C   UNL A   1      36.560  23.104  26.109  1.00  0.00     0.188 C 
ENDROOT
BRANCH   1   2
ATOM      2  C   UNL A   1      35.768  21.784  26.113  1.00  0.00     0.188 C 
BRANCH   2   3
ATOM      3  O   UNL A   1      34.603  21.582  25.318  1.00  0.00    -0.376 OA
BRANCH   3   4
ATOM      4  C   UNL A   1      33.467  20.868  25.790  1.00  0.00     0.202 C 
BRANCH   4   5
ATOM      5  C   UNL A   1      32.218  20.706  24.924  1.00  0.00     0.261 C 
BRANCH   5   6
ATOM      6  O   UNL A   1      31.955  21.807  24.056  1.00  0.00    -0.462 OA
BRANCH   6   7
ATOM      7  C   UNL A   1      32.144  21.544  22.739  1.00  0.00     0.323 C 
ATOM      8  O   UNL A   1      31.880  20.486  22.178  1.00  0.00    -0.250 OA
BRANCH   7   9
ATOM      9  C   UNL A   1      32.740  22.731  22.014  1.00  0.00     0.176 C 
ATOM     10  C   UNL A   1      34.231  22.742  22.295  1.00  0.00     0.038 C 
BRANCH   9  11
ATOM     11  N   UNL A   1      31.982  23.997  22.226  1.00  0.00    -0.197 NA
ATOM     12  H   UNL A   1      31.826  24.056  23.232  1.00  0.00     0.142 HD
BRANCH  11  13
ATOM     13  S   UNL A   1      32.520  25.520  21.763  1.00  0.00     0.241 S 
ATOM     14  O   UNL A   1      33.499  25.309  20.729  1.00  0.00    -0.207 OA
ATOM     15  O   UNL A   1      31.328  26.316  21.551  1.00  0.00    -0.207 OA
BRANCH  13  16
ATOM     16  C   UNL A   1      33.381  26.171  23.163  1.00  0.00     0.082 A 
ATOM     17  C   UNL A   1      33.764  25.315  24.197  1.00  0.00     0.022 A 
ATOM     18  C   UNL A   1      33.635  27.539  23.241  1.00  0.00     0.022 A 
ATOM     19  C   UNL A   1      34.213  25.864  25.403  1.00  0.00     0.012 A 
ATOM     20  C   UNL A   1      34.221  28.061  24.387  1.00  0.00     0.012 A 
ATOM     21  C   UNL A   1      34.296  27.262  25.555  1.00  0.00     0.000 A 
BRANCH  21  22
ATOM     22  C   UNL A   1      33.714  27.882  26.807  1.00  0.00     0.072 A 
ATOM     23  C   UNL A   1      33.997  29.203  27.125  1.00  0.00     0.038 A 
ATOM     24  N   UNL A   1      32.413  27.501  26.846  1.00  0.00    -0.248 NA
ATOM     25  C   UNL A   1      32.997  30.154  26.868  1.00  0.00    -0.007 A 
ATOM     26  C   UNL A   1      31.576  28.323  26.220  1.00  0.00     0.072 A 
ATOM     27  C   UNL A   1      31.876  29.691  26.127  1.00  0.00     0.015 A 
ATOM     28  C   UNL A   1      30.535  27.785  25.473  1.00  0.00     0.036 A 
ATOM     29  C   UNL A   1      31.180  30.478  25.180  1.00  0.00     0.096 A 
ATOM     30  C   UNL A   1      29.887  28.544  24.493  1.00  0.00     0.088 A 
ATOM     31  C   UNL A   1      30.247  29.880  24.321  1.00  0.00     0.270 A 
BRANCH  25  32
ATOM     32  C   UNL A   1      33.106  31.570  27.279  1.00  0.00    -0.018 A 
ATOM     33  C   UNL A   1      34.332  32.023  27.813  1.00  0.00     0.009 A 
ATOM     34  C   UNL A   1      32.073  32.506  27.146  1.00  0.00     0.009 A 
ATOM     35  C   UNL A   1      34.509  33.336  28.244  1.00  0.00     0.001 A 
ATOM     36  C   UNL A   1      32.254  33.832  27.563  1.00  0.00     0.001 A 
ATOM     37  C   UNL A   1      33.465  34.242  28.121  1.00  0.00     0.000 A 
ENDBRANCH  25  32
BRANCH  31  38
ATOM     38  N   UNL A   1      29.753  30.630  23.158  1.00  0.00     0.062 N 
ATOM     39  O   UNL A   1      29.977  30.156  22.034  1.00  0.00    -0.258 OA
ATOM     40  O   UNL A   1      29.118  31.671  23.364  1.00  0.00    -0.258 OA
ENDBRANCH  31  38
ENDBRANCH  21  22
ENDBRANCH  13  16
ENDBRANCH  11  13
ENDBRANCH   9  11
ENDBRANCH   7   9
ENDBRANCH   6   7
ENDBRANCH   5   6
ENDBRANCH   4   5
ENDBRANCH   3   4
ENDBRANCH   2   3
ENDBRANCH   1   2
BRANCH   1  41
ATOM     41  O   UNL A   1      37.740  23.062  25.331  1.00  0.00    -0.377 OA
BRANCH  41  42
ATOM     42  C   UNL A   1      38.955  23.129  26.084  1.00  0.00     0.188 C 
BRANCH  42  43
ATOM     43  C   UNL A   1      39.605  21.777  26.456  1.00  0.00     0.188 C 
BRANCH  43  44
ATOM     44  O   UNL A   1      39.079  20.686  25.700  1.00  0.00    -0.376 OA
BRANCH  44  45
ATOM     45  C   UNL A   1      39.883  19.509  25.664  1.00  0.00     0.202 C 
BRANCH  45  46
ATOM     46  C   UNL A   1      41.321  19.695  26.168  1.00  0.00     0.261 C 
BRANCH  46  47
ATOM     47  O   UNL A   1      42.357  19.434  25.204  1.00  0.00    -0.460 OA
BRANCH  47  48
ATOM     48  C   UNL A   1      43.615  19.840  25.485  1.00  0.00     0.338 C 
ATOM     49  O   UNL A   1      44.642  19.200  25.355  1.00  0.00    -0.246 OA
BRANCH  48  50
ATOM     50  C   UNL A   1      43.560  21.286  25.784  1.00  0.00     0.060 A 
ATOM     51  C   UNL A   1      43.472  22.197  24.724  1.00  0.00     0.016 A 
ATOM     52  C   UNL A   1      43.594  21.736  27.106  1.00  0.00     0.016 A 
ATOM     53  C   UNL A   1      43.449  23.569  24.983  1.00  0.00     0.010 A 
ATOM     54  C   UNL A   1      43.591  23.108  27.361  1.00  0.00     0.010 A 
ATOM     55  C   UNL A   1      43.549  24.030  26.301  1.00  0.00    -0.014 A 
BRANCH  55  56
ATOM     56  C   UNL A   1      43.788  25.465  26.585  1.00  0.00     0.031 A 
ATOM     57  C   UNL A   1      45.186  26.000  26.432  1.00  0.00     0.074 A 
ATOM     58  C   UNL A   1      42.802  26.260  27.040  1.00  0.00     0.049 A 
ATOM     59  N   UNL A   1      45.657  27.183  26.724  1.00  0.00    -0.248 NA
ATOM     60  C   UNL A   1      46.188  25.070  25.882  1.00  0.00     0.031 C 
ATOM     61  C   UNL A   1      41.412  25.857  27.238  1.00  0.00     0.029 A 
ATOM     62  N   UNL A   1      42.839  27.568  27.461  1.00  0.00    -0.354 N 
ATOM     63  C   UNL A   1      47.014  27.129  26.435  1.00  0.00     0.074 A 
ATOM     64  C   UNL A   1      47.293  25.800  25.937  1.00  0.00     0.031 C 
ATOM     65  C   UNL A   1      40.737  26.881  27.789  1.00  0.00     0.029 A 
ATOM     66  C   UNL A   1      41.653  28.000  28.007  1.00  0.00     0.049 A 
ATOM     67  H   UNL A   1      43.637  28.139  27.379  1.00  0.00     0.167 HD
ATOM     68  C   UNL A   1      47.945  28.101  26.567  1.00  0.00     0.034 A 
ATOM     69  C   UNL A   1      41.355  29.152  28.643  1.00  0.00     0.034 A 
ATOM     70  C   UNL A   1      47.665  29.428  27.040  1.00  0.00     0.049 A 
ATOM     71  C   UNL A   1      42.420  30.209  28.798  1.00  0.00     0.074 A 
ATOM     72  C   UNL A   1      48.526  30.508  27.126  1.00  0.00     0.029 A 
ATOM     73  N   UNL A   1      46.440  29.850  27.527  1.00  0.00    -0.354 N 
ATOM     74  N   UNL A   1      43.660  30.204  28.371  1.00  0.00    -0.248 NA
ATOM     75  C   UNL A   1      42.038  31.443  29.504  1.00  0.00     0.031 C 
ATOM     76  C   UNL A   1      47.828  31.575  27.697  1.00  0.00     0.029 A 
ATOM     77  C   UNL A   1      46.526  31.167  27.943  1.00  0.00     0.049 A 
ATOM     78  H   UNL A   1      45.628  29.295  27.572  1.00  0.00     0.167 HD
ATOM     79  C   UNL A   1      44.195  31.438  28.729  1.00  0.00     0.074 A 
ATOM     80  C   UNL A   1      43.138  32.176  29.389  1.00  0.00     0.031 C 
ATOM     81  C   UNL A   1      45.452  31.912  28.546  1.00  0.00     0.034 A 
BRANCH  68  82
ATOM     82  C   UNL A   1      49.360  27.776  26.174  1.00  0.00     0.023 A 
ATOM     83  C   UNL A   1      49.751  27.884  24.825  1.00  0.00     0.012 A 
ATOM     84  C   UNL A   1      50.316  27.433  27.150  1.00  0.00     0.148 A 
ATOM     85  C   UNL A   1      51.070  27.635  24.448  1.00  0.00     0.002 A 
ATOM     86  C   UNL A   1      51.636  27.225  26.773  1.00  0.00     0.091 A 
ATOM     87  F   UNL A   1      49.914  27.309  28.423  1.00  0.00    -0.205 F 
ATOM     88  C   UNL A   1      52.013  27.318  25.423  1.00  0.00     0.022 A 
BRANCH  86  89
ATOM     89  S   UNL A   1      52.939  26.881  27.961  1.00  0.00     0.127 S 
ATOM     90  O   UNL A   1      52.177  26.739  29.200  1.00  0.00    -0.237 OA
ATOM     91  O   UNL A   1      53.503  25.633  27.445  1.00  0.00    -0.237 OA
ATOM     92  O   UNL A   1      53.842  28.023  27.909  1.00  0.00    -0.744 OA
ENDBRANCH  86  89
ENDBRANCH  68  82
BRANCH  69  93
ATOM     93  C   UNL A   1      39.982  29.378  29.178  1.00  0.00     0.023 A 
ATOM     94  C   UNL A   1      38.957  29.794  28.305  1.00  0.00     0.012 A 
ATOM     95  C   UNL A   1      39.687  29.195  30.543  1.00  0.00     0.148 A 
ATOM     96  C   UNL A   1      37.674  30.052  28.786  1.00  0.00     0.002 A 
ATOM     97  C   UNL A   1      38.394  29.404  31.007  1.00  0.00     0.091 A 
ATOM     98  F   UNL A   1      40.681  28.823  31.362  1.00  0.00    -0.205 F 
ATOM     99  C   UNL A   1      37.389  29.847  30.133  1.00  0.00     0.022 A 
BRANCH  97 100
ATOM    100  S   UNL A   1      37.911  29.060  32.703  1.00  0.00     0.127 S 
ATOM    101  O   UNL A   1      38.092  27.612  32.777  1.00  0.00    -0.237 OA
ATOM    102  O   UNL A   1      38.890  29.842  33.460  1.00  0.00    -0.237 OA
ATOM    103  O   UNL A   1      36.540  29.535  32.821  1.00  0.00    -0.744 OA
ENDBRANCH  97 100
ENDBRANCH  69  93
BRANCH  81 104
ATOM    104  C   UNL A   1      45.766  33.301  29.037  1.00  0.00     0.023 A 
ATOM    105  C   UNL A   1      46.407  33.472  30.279  1.00  0.00     0.012 A 
ATOM    106  C   UNL A   1      45.523  34.425  28.223  1.00  0.00     0.148 A 
ATOM    107  C   UNL A   1      46.783  34.742  30.713  1.00  0.00     0.002 A 
ATOM    108  C   UNL A   1      45.943  35.683  28.641  1.00  0.00     0.091 A 
ATOM    109  F   UNL A   1      44.900  34.242  27.050  1.00  0.00    -0.205 F 
ATOM    110  C   UNL A   1      46.564  35.844  29.890  1.00  0.00     0.022 A 
BRANCH 108 111
ATOM    111  S   UNL A   1      45.792  37.145  27.608  1.00  0.00     0.127 S 
ATOM    112  O   UNL A   1      44.387  37.081  27.205  1.00  0.00    -0.237 OA
ATOM    113  O   UNL A   1      46.110  38.222  28.545  1.00  0.00    -0.237 OA
ATOM    114  O   UNL A   1      46.757  36.977  26.528  1.00  0.00    -0.744 OA
ENDBRANCH 108 111
ENDBRANCH  81 104
ENDBRANCH  55  56
ENDBRANCH  48  50
ENDBRANCH  47  48
ENDBRANCH  46  47
ENDBRANCH  45  46
ENDBRANCH  44  45
ENDBRANCH  43  44
ENDBRANCH  42  43
ENDBRANCH  41  42
ENDBRANCH   1  41
TORSDOF 29
ENDMDL
