MODEL 1
REMARK VINA RESULT:      -9.1      0.000      0.000
REMARK SMILES O=C(OCCOCCOCCOCCOC(=O)c1ccc(-c2c3nc(c(-c4cccc(S(=O)(=O)[O-])c4F)c4ccc([nH]4)c(-c4cccc(S(=O)(=O)[O-])c4F)c4nc(c(-c5cccc(S(=O)(=O)[O-])c5F)c5ccc2[nH]5)C=C4)C=C3)cc1)C1=Cc2cc(Cl)cc(C#Cc3ccccc3)c2O[C@@H]1C(F)(F)F
REMARK SMILES IDX 10 1 9 2 8 3 7 4 6 5 5 6 4 7 3 8 2 9 1 10 81 11 82 12 99 13
REMARK SMILES IDX 83 14 98 15 84 16 97 17 85 18 88 19 86 20 87 21 100 22
REMARK SMILES IDX 101 23 102 24 103 25 89 26 90 27 91 28 92 29 96 30 93 31
REMARK SMILES IDX 95 32 94 33 11 34 12 35 13 36 14 37 15 38 16 39 17 40 18 41
REMARK SMILES IDX 19 42 80 43 20 44 79 45 21 46 22 47 23 48 73 49 24 50 78 51
REMARK SMILES IDX 72 52 74 53 25 54 77 55 71 56 70 57 26 59 58 60 38 61 57 62
REMARK SMILES IDX 39 63 42 64 56 65 75 66 40 67 41 68 55 70 76 71 43 72 27 73
REMARK SMILES IDX 28 74 36 75 29 76 31 77 37 78 30 79 32 80 33 81 34 82 35 83
REMARK SMILES IDX 59 84 60 85 68 86 61 87 63 88 69 89 62 90 64 91 65 92 66 93
REMARK SMILES IDX 67 94 44 95 45 96 53 97 46 98 48 99 54 100 47 101 49 102
REMARK SMILES IDX 50 103 51 104 52 105
REMARK H PARENT 74 58 42 69
REMARK Flexibility Score: inf
ROOT
ATOM      1  C   UNL A   1      33.940  25.001  25.582  1.00  0.00     0.188 C 
ENDROOT
BRANCH   1   2
ATOM      2  O   UNL A   1      34.868  24.423  24.690  1.00  0.00    -0.377 OA
BRANCH   2   3
ATOM      3  C   UNL A   1      36.012  23.947  25.356  1.00  0.00     0.188 C 
BRANCH   3   4
ATOM      4  C   UNL A   1      36.768  22.871  24.575  1.00  0.00     0.188 C 
BRANCH   4   5
ATOM      5  O   UNL A   1      37.967  22.194  25.067  1.00  0.00    -0.376 OA
BRANCH   5   6
ATOM      6  C   UNL A   1      38.316  20.642  25.444  1.00  0.00     0.202 C 
BRANCH   6   7
ATOM      7  C   UNL A   1      40.247  19.773  25.944  1.00  0.00     0.261 C 
BRANCH   7   8
ATOM      8  O   UNL A   1      41.400  20.477  26.658  1.00  0.00    -0.460 OA
BRANCH   8   9
ATOM      9  C   UNL A   1      42.566  20.332  26.020  1.00  0.00     0.338 C 
ATOM     10  O   UNL A   1      43.382  19.449  26.123  1.00  0.00    -0.246 OA
BRANCH   9  11
ATOM     11  C   UNL A   1      42.700  21.716  25.608  1.00  0.00     0.087 C 
ATOM     12  C   UNL A   1      41.547  22.555  25.982  1.00  0.00     0.027 C 
ATOM     13  C   UNL A   1      44.474  21.903  26.334  1.00  0.00     0.316 C 
ATOM     14  C   UNL A   1      41.565  23.751  27.339  1.00  0.00     0.020 A 
ATOM     15  O   UNL A   1      44.488  23.091  27.875  1.00  0.00    -0.474 OA
ATOM     16  C   UNL A   1      40.435  24.482  27.590  1.00  0.00     0.032 A 
ATOM     17  C   UNL A   1      42.954  23.968  28.368  1.00  0.00     0.143 A 
ATOM     18  C   UNL A   1      40.533  25.374  28.671  1.00  0.00     0.043 A 
ATOM     19  C   UNL A   1      42.925  24.831  29.444  1.00  0.00     0.069 A 
ATOM     20  Cl  UNL A   1      39.146  26.372  28.978  1.00  0.00    -0.084 Cl
ATOM     21  C   UNL A   1      41.689  25.534  29.541  1.00  0.00     0.041 A 
BRANCH  13  22
ATOM     22  C   UNL A   1      45.200  21.999  24.852  1.00  0.00     0.430 C 
ATOM     23  F   UNL A   1      44.695  22.865  23.955  1.00  0.00    -0.167 F 
ATOM     24  F   UNL A   1      46.473  22.456  25.071  1.00  0.00    -0.167 F 
ATOM     25  F   UNL A   1      45.384  20.809  24.227  1.00  0.00    -0.167 F 
ENDBRANCH  13  22
BRANCH  19  26
ATOM     26  C   UNL A   1      43.954  25.114  30.399  1.00  0.00    -0.058 C 
ATOM     27  C   UNL A   1      44.880  25.201  31.157  1.00  0.00    -0.062 C 
BRANCH  27  28
ATOM     28  C   UNL A   1      45.992  25.156  32.073  1.00  0.00     0.025 A 
ATOM     29  C   UNL A   1      47.220  25.733  31.745  1.00  0.00     0.017 A 
ATOM     30  C   UNL A   1      45.874  24.449  33.272  1.00  0.00     0.017 A 
ATOM     31  C   UNL A   1      48.336  25.547  32.569  1.00  0.00     0.001 A 
ATOM     32  C   UNL A   1      46.977  24.300  34.121  1.00  0.00     0.001 A 
ATOM     33  C   UNL A   1      48.216  24.830  33.757  1.00  0.00     0.000 A 
ENDBRANCH  27  28
ENDBRANCH  19  26
ENDBRANCH   9  11
ENDBRANCH   8   9
ENDBRANCH   7   8
ENDBRANCH   6   7
ENDBRANCH   5   6
ENDBRANCH   4   5
ENDBRANCH   3   4
ENDBRANCH   2   3
ENDBRANCH   1   2
BRANCH   1  34
ATOM     34  C   UNL A   1      33.998  26.522  25.772  1.00  0.00     0.188 C 
BRANCH  34  35
ATOM     35  O   UNL A   1      32.868  27.369  25.649  1.00  0.00    -0.376 OA
BRANCH  35  36
ATOM     36  C   UNL A   1      32.104  27.730  26.780  1.00  0.00     0.202 C 
BRANCH  36  37
ATOM     37  C   UNL A   1      32.141  29.168  27.324  1.00  0.00     0.261 C 
BRANCH  37  38
ATOM     38  O   UNL A   1      33.025  30.092  26.680  1.00  0.00    -0.460 OA
BRANCH  38  39
ATOM     39  C   UNL A   1      33.519  31.092  27.446  1.00  0.00     0.338 C 
ATOM     40  O   UNL A   1      32.894  31.984  27.989  1.00  0.00    -0.246 OA
BRANCH  39  41
ATOM     41  C   UNL A   1      34.969  30.856  27.634  1.00  0.00     0.060 A 
ATOM     42  C   UNL A   1      35.509  29.563  27.530  1.00  0.00     0.016 A 
ATOM     43  C   UNL A   1      35.797  31.931  27.926  1.00  0.00     0.016 A 
ATOM     44  C   UNL A   1      36.868  29.333  27.777  1.00  0.00     0.010 A 
ATOM     45  C   UNL A   1      37.149  31.696  28.172  1.00  0.00     0.010 A 
ATOM     46  C   UNL A   1      37.688  30.393  28.168  1.00  0.00    -0.014 A 
BRANCH  46  47
ATOM     47  C   UNL A   1      39.000  30.167  28.845  1.00  0.00     0.031 A 
ATOM     48  C   UNL A   1      39.173  30.777  30.219  1.00  0.00     0.074 A 
ATOM     49  C   UNL A   1      40.031  29.498  28.289  1.00  0.00     0.049 A 
ATOM     50  N   UNL A   1      40.243  30.874  30.963  1.00  0.00    -0.248 NA
ATOM     51  C   UNL A   1      37.983  31.420  30.811  1.00  0.00     0.031 C 
ATOM     52  C   UNL A   1      40.028  28.840  26.985  1.00  0.00     0.029 A 
ATOM     53  N   UNL A   1      41.314  29.303  28.749  1.00  0.00    -0.354 N 
ATOM     54  C   UNL A   1      39.862  31.639  32.059  1.00  0.00     0.074 A 
ATOM     55  C   UNL A   1      38.509  32.079  31.826  1.00  0.00     0.031 C 
ATOM     56  C   UNL A   1      41.261  28.368  26.722  1.00  0.00     0.029 A 
ATOM     57  C   UNL A   1      42.141  28.669  27.848  1.00  0.00     0.049 A 
ATOM     58  H   UNL A   1      41.613  29.592  29.642  1.00  0.00     0.167 HD
ATOM     59  C   UNL A   1      40.535  31.896  33.202  1.00  0.00     0.034 A 
ATOM     60  C   UNL A   1      43.451  28.360  27.929  1.00  0.00     0.034 A 
ATOM     61  C   UNL A   1      41.841  31.380  33.481  1.00  0.00     0.049 A 
ATOM     62  C   UNL A   1      44.196  28.652  29.210  1.00  0.00     0.074 A 
ATOM     63  C   UNL A   1      42.573  31.477  34.650  1.00  0.00     0.029 A 
ATOM     64  N   UNL A   1      42.612  30.672  32.577  1.00  0.00    -0.354 N 
ATOM     65  N   UNL A   1      43.775  29.256  30.295  1.00  0.00    -0.248 NA
ATOM     66  C   UNL A   1      45.577  28.151  29.305  1.00  0.00     0.031 C 
ATOM     67  C   UNL A   1      43.816  30.876  34.430  1.00  0.00     0.029 A 
ATOM     68  C   UNL A   1      43.822  30.339  33.152  1.00  0.00     0.049 A 
ATOM     69  H   UNL A   1      42.339  30.440  31.659  1.00  0.00     0.167 HD
ATOM     70  C   UNL A   1      44.802  29.133  31.225  1.00  0.00     0.074 A 
ATOM     71  C   UNL A   1      45.871  28.406  30.572  1.00  0.00     0.031 C 
ATOM     72  C   UNL A   1      44.852  29.567  32.508  1.00  0.00     0.034 A 
BRANCH  59  73
ATOM     73  C   UNL A   1      39.844  32.741  34.240  1.00  0.00     0.023 A 
ATOM     74  C   UNL A   1      39.777  34.143  34.092  1.00  0.00     0.012 A 
ATOM     75  C   UNL A   1      39.264  32.138  35.370  1.00  0.00     0.148 A 
ATOM     76  C   UNL A   1      39.211  34.937  35.088  1.00  0.00     0.002 A 
ATOM     77  C   UNL A   1      38.640  32.929  36.325  1.00  0.00     0.091 A 
ATOM     78  F   UNL A   1      39.354  30.808  35.502  1.00  0.00    -0.205 F 
ATOM     79  C   UNL A   1      38.634  34.328  36.199  1.00  0.00     0.022 A 
BRANCH  77  80
ATOM     80  S   UNL A   1      37.784  32.236  37.741  1.00  0.00     0.127 S 
ATOM     81  O   UNL A   1      37.567  30.856  37.306  1.00  0.00    -0.237 OA
ATOM     82  O   UNL A   1      38.778  32.394  38.801  1.00  0.00    -0.237 OA
ATOM     83  O   UNL A   1      36.576  33.029  37.911  1.00  0.00    -0.744 OA
ENDBRANCH  77  80
ENDBRANCH  59  73
BRANCH  60  84
ATOM     84  C   UNL A   1      44.134  27.632  26.818  1.00  0.00     0.023 A 
ATOM     85  C   UNL A   1      43.639  26.374  26.411  1.00  0.00     0.012 A 
ATOM     86  C   UNL A   1      45.280  28.151  26.187  1.00  0.00     0.148 A 
ATOM     87  C   UNL A   1      44.300  25.626  25.437  1.00  0.00     0.002 A 
ATOM     88  C   UNL A   1      45.909  27.419  25.184  1.00  0.00     0.091 A 
ATOM     89  F   UNL A   1      45.733  29.349  26.582  1.00  0.00    -0.205 F 
ATOM     90  C   UNL A   1      45.433  26.149  24.821  1.00  0.00     0.022 A 
BRANCH  88  91
ATOM     91  S   UNL A   1      47.320  28.039  24.261  1.00  0.00     0.127 S 
ATOM     92  O   UNL A   1      47.782  26.836  23.572  1.00  0.00    -0.237 OA
ATOM     93  O   UNL A   1      46.693  29.041  23.399  1.00  0.00    -0.237 OA
ATOM     94  O   UNL A   1      48.236  28.582  25.256  1.00  0.00    -0.744 OA
ENDBRANCH  88  91
ENDBRANCH  60  84
BRANCH  72  95
ATOM     95  C   UNL A   1      46.048  29.186  33.341  1.00  0.00     0.023 A 
ATOM     96  C   UNL A   1      47.336  29.643  33.010  1.00  0.00     0.012 A 
ATOM     97  C   UNL A   1      45.864  28.422  34.513  1.00  0.00     0.148 A 
ATOM     98  C   UNL A   1      48.431  29.304  33.805  1.00  0.00     0.002 A 
ATOM     99  C   UNL A   1      46.947  28.143  35.333  1.00  0.00     0.091 A 
ATOM    100  F   UNL A   1      44.631  27.983  34.804  1.00  0.00    -0.205 F 
ATOM    101  C   UNL A   1      48.235  28.567  34.971  1.00  0.00     0.022 A 
BRANCH  99 102
ATOM    102  S   UNL A   1      46.765  27.301  36.908  1.00  0.00     0.127 S 
ATOM    103  O   UNL A   1      45.782  28.146  37.584  1.00  0.00    -0.237 OA
ATOM    104  O   UNL A   1      46.263  25.988  36.498  1.00  0.00    -0.237 OA
ATOM    105  O   UNL A   1      48.091  27.280  37.511  1.00  0.00    -0.744 OA
ENDBRANCH  99 102
ENDBRANCH  72  95
ENDBRANCH  46  47
ENDBRANCH  39  41
ENDBRANCH  38  39
ENDBRANCH  37  38
ENDBRANCH  36  37
ENDBRANCH  35  36
ENDBRANCH  34  35
ENDBRANCH   1  34
TORSDOF 26
ENDMDL
MODEL 2
REMARK VINA RESULT:      -9.1      6.274     11.987
REMARK SMILES O=C(OCCOCCOCCOCCOC(=O)c1ccc(-c2c3nc(c(-c4cccc(S(=O)(=O)[O-])c4F)c4ccc([nH]4)c(-c4cccc(S(=O)(=O)[O-])c4F)c4nc(c(-c5cccc(S(=O)(=O)[O-])c5F)c5ccc2[nH]5)C=C4)C=C3)cc1)C1=Cc2cc(Cl)cc(C#Cc3ccccc3)c2O[C@@H]1C(F)(F)F
REMARK SMILES IDX 10 1 9 2 8 3 7 4 6 5 5 6 4 7 3 8 2 9 1 10 81 11 82 12 99 13
REMARK SMILES IDX 83 14 98 15 84 16 97 17 85 18 88 19 86 20 87 21 100 22
REMARK SMILES IDX 101 23 102 24 103 25 89 26 90 27 91 28 92 29 96 30 93 31
REMARK SMILES IDX 95 32 94 33 11 34 12 35 13 36 14 37 15 38 16 39 17 40 18 41
REMARK SMILES IDX 19 42 80 43 20 44 79 45 21 46 22 47 23 48 73 49 24 50 78 51
REMARK SMILES IDX 72 52 74 53 25 54 77 55 71 56 70 57 26 59 58 60 38 61 57 62
REMARK SMILES IDX 39 63 42 64 56 65 75 66 40 67 41 68 55 70 76 71 43 72 27 73
REMARK SMILES IDX 28 74 36 75 29 76 31 77 37 78 30 79 32 80 33 81 34 82 35 83
REMARK SMILES IDX 59 84 60 85 68 86 61 87 63 88 69 89 62 90 64 91 65 92 66 93
REMARK SMILES IDX 67 94 44 95 45 96 53 97 46 98 48 99 54 100 47 101 49 102
REMARK SMILES IDX 50 103 51 104 52 105
REMARK H PARENT 74 58 42 69
REMARK Flexibility Score: inf
ROOT
ATOM      1  C   UNL A   1      38.947  22.057  25.719  1.00  0.00     0.188 C 
ENDROOT
BRANCH   1   2
ATOM      2  O   UNL A   1      37.717  21.367  25.743  1.00  0.00    -0.377 OA
BRANCH   2   3
ATOM      3  C   UNL A   1      36.624  22.242  25.885  1.00  0.00     0.188 C 
BRANCH   3   4
ATOM      4  C   UNL A   1      35.275  21.526  25.953  1.00  0.00     0.188 C 
BRANCH   4   5
ATOM      5  O   UNL A   1      33.986  22.188  25.754  1.00  0.00    -0.376 OA
BRANCH   5   6
ATOM      6  C   UNL A   1      32.462  21.649  25.513  1.00  0.00     0.202 C 
BRANCH   6   7
ATOM      7  C   UNL A   1      30.698  22.790  24.948  1.00  0.00     0.261 C 
BRANCH   7   8
ATOM      8  O   UNL A   1      30.641  24.291  24.667  1.00  0.00    -0.460 OA
BRANCH   8   9
ATOM      9  C   UNL A   1      31.214  25.017  25.634  1.00  0.00     0.338 C 
ATOM     10  O   UNL A   1      30.966  25.037  26.814  1.00  0.00    -0.246 OA
BRANCH   9  11
ATOM     11  C   UNL A   1      31.801  26.015  24.761  1.00  0.00     0.087 C 
ATOM     12  C   UNL A   1      31.239  27.364  24.949  1.00  0.00     0.027 C 
ATOM     13  C   UNL A   1      33.613  25.513  25.181  1.00  0.00     0.316 C 
ATOM     14  C   UNL A   1      32.098  28.708  25.804  1.00  0.00     0.020 A 
ATOM     15  O   UNL A   1      34.511  26.898  26.211  1.00  0.00    -0.474 OA
ATOM     16  C   UNL A   1      31.479  29.924  25.911  1.00  0.00     0.032 A 
ATOM     17  C   UNL A   1      33.662  28.491  26.539  1.00  0.00     0.143 A 
ATOM     18  C   UNL A   1      32.210  30.903  26.605  1.00  0.00     0.043 A 
ATOM     19  C   UNL A   1      34.270  29.504  27.252  1.00  0.00     0.069 A 
ATOM     20  Cl  UNL A   1      31.493  32.481  26.702  1.00  0.00    -0.084 Cl
ATOM     21  C   UNL A   1      33.508  30.709  27.236  1.00  0.00     0.041 A 
BRANCH  13  22
ATOM     22  C   UNL A   1      33.909  24.874  23.686  1.00  0.00     0.430 C 
ATOM     23  F   UNL A   1      33.019  23.999  23.184  1.00  0.00    -0.167 F 
ATOM     24  F   UNL A   1      33.878  25.920  22.802  1.00  0.00    -0.167 F 
ATOM     25  F   UNL A   1      35.150  24.348  23.525  1.00  0.00    -0.167 F 
ENDBRANCH  13  22
BRANCH  19  26
ATOM     26  C   UNL A   1      35.529  29.496  27.933  1.00  0.00    -0.058 C 
ATOM     27  C   UNL A   1      36.611  29.640  28.433  1.00  0.00    -0.062 C 
BRANCH  27  28
ATOM     28  C   UNL A   1      37.944  29.898  28.915  1.00  0.00     0.025 A 
ATOM     29  C   UNL A   1      38.213  30.996  29.736  1.00  0.00     0.017 A 
ATOM     30  C   UNL A   1      39.004  29.094  28.488  1.00  0.00     0.017 A 
ATOM     31  C   UNL A   1      39.532  31.328  30.068  1.00  0.00     0.001 A 
ATOM     32  C   UNL A   1      40.319  29.399  28.857  1.00  0.00     0.001 A 
ATOM     33  C   UNL A   1      40.586  30.530  29.628  1.00  0.00     0.000 A 
ENDBRANCH  27  28
ENDBRANCH  19  26
ENDBRANCH   9  11
ENDBRANCH   8   9
ENDBRANCH   7   8
ENDBRANCH   6   7
ENDBRANCH   5   6
ENDBRANCH   4   5
ENDBRANCH   3   4
ENDBRANCH   2   3
ENDBRANCH   1   2
BRANCH   1  34
ATOM     34  C   UNL A   1      39.942  21.766  26.849  1.00  0.00     0.188 C 
BRANCH  34  35
ATOM     35  O   UNL A   1      41.116  22.528  27.073  1.00  0.00    -0.376 OA
BRANCH  35  36
ATOM     36  C   UNL A   1      42.384  21.909  27.135  1.00  0.00     0.202 C 
BRANCH  36  37
ATOM     37  C   UNL A   1      43.059  21.377  25.860  1.00  0.00     0.261 C 
BRANCH  37  38
ATOM     38  O   UNL A   1      43.991  22.240  25.201  1.00  0.00    -0.460 OA
BRANCH  38  39
ATOM     39  C   UNL A   1      45.205  22.380  25.783  1.00  0.00     0.338 C 
ATOM     40  O   UNL A   1      46.007  21.501  26.037  1.00  0.00    -0.246 OA
BRANCH  39  41
ATOM     41  C   UNL A   1      45.471  23.827  25.955  1.00  0.00     0.060 A 
ATOM     42  C   UNL A   1      44.955  24.767  25.047  1.00  0.00     0.016 A 
ATOM     43  C   UNL A   1      46.248  24.250  27.024  1.00  0.00     0.016 A 
ATOM     44  C   UNL A   1      45.266  26.127  25.171  1.00  0.00     0.010 A 
ATOM     45  C   UNL A   1      46.555  25.604  27.142  1.00  0.00     0.010 A 
ATOM     46  C   UNL A   1      46.127  26.549  26.185  1.00  0.00    -0.014 A 
BRANCH  46  47
ATOM     47  C   UNL A   1      46.828  27.867  26.128  1.00  0.00     0.031 A 
ATOM     48  C   UNL A   1      48.330  27.833  25.947  1.00  0.00     0.074 A 
ATOM     49  C   UNL A   1      46.210  29.057  26.271  1.00  0.00     0.049 A 
ATOM     50  N   UNL A   1      49.203  28.803  26.017  1.00  0.00    -0.248 NA
ATOM     51  C   UNL A   1      48.938  26.509  25.709  1.00  0.00     0.031 C 
ATOM     52  C   UNL A   1      44.774  29.268  26.440  1.00  0.00     0.029 A 
ATOM     53  N   UNL A   1      46.735  30.327  26.340  1.00  0.00    -0.354 N 
ATOM     54  C   UNL A   1      50.445  28.190  25.902  1.00  0.00     0.074 A 
ATOM     55  C   UNL A   1      50.221  26.766  25.878  1.00  0.00     0.031 C 
ATOM     56  C   UNL A   1      44.539  30.576  26.654  1.00  0.00     0.029 A 
ATOM     57  C   UNL A   1      45.804  31.304  26.615  1.00  0.00     0.049 A 
ATOM     58  H   UNL A   1      47.692  30.520  26.205  1.00  0.00     0.167 HD
ATOM     59  C   UNL A   1      51.666  28.748  25.746  1.00  0.00     0.034 A 
ATOM     60  C   UNL A   1      45.955  32.631  26.804  1.00  0.00     0.034 A 
ATOM     61  C   UNL A   1      51.885  30.161  25.670  1.00  0.00     0.049 A 
ATOM     62  C   UNL A   1      47.324  33.245  26.629  1.00  0.00     0.074 A 
ATOM     63  C   UNL A   1      53.059  30.836  25.398  1.00  0.00     0.029 A 
ATOM     64  N   UNL A   1      50.903  31.115  25.870  1.00  0.00    -0.354 N 
ATOM     65  N   UNL A   1      48.470  32.659  26.380  1.00  0.00    -0.248 NA
ATOM     66  C   UNL A   1      47.406  34.714  26.688  1.00  0.00     0.031 C 
ATOM     67  C   UNL A   1      52.798  32.207  25.493  1.00  0.00     0.029 A 
ATOM     68  C   UNL A   1      51.447  32.379  25.746  1.00  0.00     0.049 A 
ATOM     69  H   UNL A   1      49.958  30.923  26.071  1.00  0.00     0.167 HD
ATOM     70  C   UNL A   1      49.387  33.685  26.168  1.00  0.00     0.074 A 
ATOM     71  C   UNL A   1      48.664  34.929  26.329  1.00  0.00     0.031 C 
ATOM     72  C   UNL A   1      50.702  33.606  25.854  1.00  0.00     0.034 A 
BRANCH  59  73
ATOM     73  C   UNL A   1      52.842  27.817  25.612  1.00  0.00     0.023 A 
ATOM     74  C   UNL A   1      53.251  27.358  24.340  1.00  0.00     0.012 A 
ATOM     75  C   UNL A   1      53.541  27.391  26.755  1.00  0.00     0.148 A 
ATOM     76  C   UNL A   1      54.286  26.433  24.217  1.00  0.00     0.002 A 
ATOM     77  C   UNL A   1      54.617  26.524  26.618  1.00  0.00     0.091 A 
ATOM     78  F   UNL A   1      53.128  27.822  27.955  1.00  0.00    -0.205 F 
ATOM     79  C   UNL A   1      54.975  26.025  25.355  1.00  0.00     0.022 A 
BRANCH  77  80
ATOM     80  S   UNL A   1      55.627  26.015  28.011  1.00  0.00     0.127 S 
ATOM     81  O   UNL A   1      56.266  24.808  27.485  1.00  0.00    -0.237 OA
ATOM     82  O   UNL A   1      56.521  27.161  28.169  1.00  0.00    -0.237 OA
ATOM     83  O   UNL A   1      54.709  25.797  29.119  1.00  0.00    -0.744 OA
ENDBRANCH  77  80
ENDBRANCH  59  73
BRANCH  60  84
ATOM     84  C   UNL A   1      44.773  33.505  27.064  1.00  0.00     0.023 A 
ATOM     85  C   UNL A   1      44.064  34.049  25.972  1.00  0.00     0.012 A 
ATOM     86  C   UNL A   1      44.365  33.829  28.372  1.00  0.00     0.148 A 
ATOM     87  C   UNL A   1      43.008  34.938  26.174  1.00  0.00     0.002 A 
ATOM     88  C   UNL A   1      43.282  34.681  28.568  1.00  0.00     0.091 A 
ATOM     89  F   UNL A   1      45.046  33.299  29.397  1.00  0.00    -0.205 F 
ATOM     90  C   UNL A   1      42.615  35.252  27.471  1.00  0.00     0.022 A 
BRANCH  88  91
ATOM     91  S   UNL A   1      42.634  35.078  30.195  1.00  0.00     0.127 S 
ATOM     92  O   UNL A   1      43.276  36.362  30.471  1.00  0.00    -0.237 OA
ATOM     93  O   UNL A   1      41.196  35.153  29.931  1.00  0.00    -0.237 OA
ATOM     94  O   UNL A   1      43.036  33.978  31.061  1.00  0.00    -0.744 OA
ENDBRANCH  88  91
ENDBRANCH  60  84
BRANCH  72  95
ATOM     95  C   UNL A   1      51.439  34.885  25.553  1.00  0.00     0.023 A 
ATOM     96  C   UNL A   1      51.544  35.367  24.236  1.00  0.00     0.012 A 
ATOM     97  C   UNL A   1      51.968  35.649  26.615  1.00  0.00     0.148 A 
ATOM     98  C   UNL A   1      52.208  36.567  23.975  1.00  0.00     0.002 A 
ATOM     99  C   UNL A   1      52.569  36.871  26.354  1.00  0.00     0.091 A 
ATOM    100  F   UNL A   1      51.871  35.165  27.862  1.00  0.00    -0.205 F 
ATOM    101  C   UNL A   1      52.706  37.324  25.033  1.00  0.00     0.022 A 
BRANCH  99 102
ATOM    102  S   UNL A   1      53.134  37.960  27.665  1.00  0.00     0.127 S 
ATOM    103  O   UNL A   1      54.490  37.466  27.896  1.00  0.00    -0.237 OA
ATOM    104  O   UNL A   1      53.064  39.275  27.024  1.00  0.00    -0.237 OA
ATOM    105  O   UNL A   1      52.205  37.777  28.772  1.00  0.00    -0.744 OA
ENDBRANCH  99 102
ENDBRANCH  72  95
ENDBRANCH  46  47
ENDBRANCH  39  41
ENDBRANCH  38  39
ENDBRANCH  37  38
ENDBRANCH  36  37
ENDBRANCH  35  36
ENDBRANCH  34  35
ENDBRANCH   1  34
TORSDOF 26
ENDMDL
MODEL 3
REMARK VINA RESULT:      -9.1      4.901      9.204
REMARK SMILES O=C(OCCOCCOCCOCCOC(=O)c1ccc(-c2c3nc(c(-c4cccc(S(=O)(=O)[O-])c4F)c4ccc([nH]4)c(-c4cccc(S(=O)(=O)[O-])c4F)c4nc(c(-c5cccc(S(=O)(=O)[O-])c5F)c5ccc2[nH]5)C=C4)C=C3)cc1)C1=Cc2cc(Cl)cc(C#Cc3ccccc3)c2O[C@@H]1C(F)(F)F
REMARK SMILES IDX 10 1 9 2 8 3 7 4 6 5 5 6 4 7 3 8 2 9 1 10 81 11 82 12 99 13
REMARK SMILES IDX 83 14 98 15 84 16 97 17 85 18 88 19 86 20 87 21 100 22
REMARK SMILES IDX 101 23 102 24 103 25 89 26 90 27 91 28 92 29 96 30 93 31
REMARK SMILES IDX 95 32 94 33 11 34 12 35 13 36 14 37 15 38 16 39 17 40 18 41
REMARK SMILES IDX 19 42 80 43 20 44 79 45 21 46 22 47 23 48 73 49 24 50 78 51
REMARK SMILES IDX 72 52 74 53 25 54 77 55 71 56 70 57 26 59 58 60 38 61 57 62
REMARK SMILES IDX 39 63 42 64 56 65 75 66 40 67 41 68 55 70 76 71 43 72 27 73
REMARK SMILES IDX 28 74 36 75 29 76 31 77 37 78 30 79 32 80 33 81 34 82 35 83
REMARK SMILES IDX 59 84 60 85 68 86 61 87 63 88 69 89 62 90 64 91 65 92 66 93
REMARK SMILES IDX 67 94 44 95 45 96 53 97 46 98 48 99 54 100 47 101 49 102
REMARK SMILES IDX 50 103 51 104 52 105
REMARK H PARENT 74 58 42 69
REMARK Flexibility Score: inf
ROOT
ATOM      1  C   UNL A   1      37.640  21.638  25.105  1.00  0.00     0.188 C 
ENDROOT
BRANCH   1   2
ATOM      2  O   UNL A   1      36.457  21.253  24.439  1.00  0.00    -0.377 OA
BRANCH   2   3
ATOM      3  C   UNL A   1      35.381  22.107  24.741  1.00  0.00     0.188 C 
BRANCH   3   4
ATOM      4  C   UNL A   1      34.014  21.439  24.593  1.00  0.00     0.188 C 
BRANCH   4   5
ATOM      5  O   UNL A   1      32.924  21.584  25.558  1.00  0.00    -0.376 OA
BRANCH   5   6
ATOM      6  C   UNL A   1      31.430  22.245  25.488  1.00  0.00     0.202 C 
BRANCH   6   7
ATOM      7  C   UNL A   1      30.652  23.675  24.045  1.00  0.00     0.261 C 
BRANCH   7   8
ATOM      8  O   UNL A   1      30.257  25.125  24.329  1.00  0.00    -0.460 OA
BRANCH   8   9
ATOM      9  C   UNL A   1      30.989  25.676  25.303  1.00  0.00     0.338 C 
ATOM     10  O   UNL A   1      30.881  25.545  26.498  1.00  0.00    -0.246 OA
BRANCH   9  11
ATOM     11  C   UNL A   1      31.543  26.751  24.503  1.00  0.00     0.087 C 
ATOM     12  C   UNL A   1      31.078  28.088  24.912  1.00  0.00     0.027 C 
ATOM     13  C   UNL A   1      33.356  26.121  24.669  1.00  0.00     0.316 C 
ATOM     14  C   UNL A   1      32.089  29.273  25.830  1.00  0.00     0.020 A 
ATOM     15  O   UNL A   1      34.426  27.325  25.761  1.00  0.00    -0.474 OA
ATOM     16  C   UNL A   1      31.553  30.492  26.149  1.00  0.00     0.032 A 
ATOM     17  C   UNL A   1      33.703  28.898  26.367  1.00  0.00     0.143 A 
ATOM     18  C   UNL A   1      32.401  31.342  26.877  1.00  0.00     0.043 A 
ATOM     19  C   UNL A   1      34.433  29.785  27.131  1.00  0.00     0.069 A 
ATOM     20  Cl  UNL A   1      31.786  32.925  27.239  1.00  0.00    -0.084 Cl
ATOM     21  C   UNL A   1      33.742  31.014  27.341  1.00  0.00     0.041 A 
BRANCH  13  22
ATOM     22  C   UNL A   1      33.470  25.665  23.084  1.00  0.00     0.430 C 
ATOM     23  F   UNL A   1      32.329  25.501  22.389  1.00  0.00    -0.167 F 
ATOM     24  F   UNL A   1      34.110  26.685  22.430  1.00  0.00    -0.167 F 
ATOM     25  F   UNL A   1      34.259  24.585  22.855  1.00  0.00    -0.167 F 
ENDBRANCH  13  22
BRANCH  19  26
ATOM     26  C   UNL A   1      35.750  29.637  27.672  1.00  0.00    -0.058 C 
ATOM     27  C   UNL A   1      36.866  29.374  28.028  1.00  0.00    -0.062 C 
BRANCH  27  28
ATOM     28  C   UNL A   1      38.174  28.917  28.425  1.00  0.00     0.025 A 
ATOM     29  C   UNL A   1      38.378  28.302  29.662  1.00  0.00     0.017 A 
ATOM     30  C   UNL A   1      39.275  29.169  27.603  1.00  0.00     0.017 A 
ATOM     31  C   UNL A   1      39.673  28.007  30.104  1.00  0.00     0.001 A 
ATOM     32  C   UNL A   1      40.567  28.832  28.024  1.00  0.00     0.001 A 
ATOM     33  C   UNL A   1      40.768  28.273  29.286  1.00  0.00     0.000 A 
ENDBRANCH  27  28
ENDBRANCH  19  26
ENDBRANCH   9  11
ENDBRANCH   8   9
ENDBRANCH   7   8
ENDBRANCH   6   7
ENDBRANCH   5   6
ENDBRANCH   4   5
ENDBRANCH   3   4
ENDBRANCH   2   3
ENDBRANCH   1   2
BRANCH   1  34
ATOM     34  C   UNL A   1      37.529  22.754  26.152  1.00  0.00     0.188 C 
BRANCH  34  35
ATOM     35  O   UNL A   1      38.196  23.999  26.040  1.00  0.00    -0.376 OA
BRANCH  35  36
ATOM     36  C   UNL A   1      38.898  24.549  27.135  1.00  0.00     0.202 C 
BRANCH  36  37
ATOM     37  C   UNL A   1      40.413  24.335  27.281  1.00  0.00     0.261 C 
BRANCH  37  38
ATOM     38  O   UNL A   1      41.191  24.295  26.080  1.00  0.00    -0.460 OA
BRANCH  38  39
ATOM     39  C   UNL A   1      41.715  25.469  25.657  1.00  0.00     0.338 C 
ATOM     40  O   UNL A   1      41.158  26.334  25.006  1.00  0.00    -0.246 OA
BRANCH  39  41
ATOM     41  C   UNL A   1      43.073  25.603  26.233  1.00  0.00     0.060 A 
ATOM     42  C   UNL A   1      43.976  24.528  26.206  1.00  0.00     0.016 A 
ATOM     43  C   UNL A   1      43.446  26.808  26.812  1.00  0.00     0.016 A 
ATOM     44  C   UNL A   1      45.234  24.635  26.813  1.00  0.00     0.010 A 
ATOM     45  C   UNL A   1      44.698  26.908  27.416  1.00  0.00     0.010 A 
ATOM     46  C   UNL A   1      45.579  25.809  27.484  1.00  0.00    -0.014 A 
BRANCH  46  47
ATOM     47  C   UNL A   1      46.683  25.848  28.490  1.00  0.00     0.031 A 
ATOM     48  C   UNL A   1      46.310  25.548  29.925  1.00  0.00     0.074 A 
ATOM     49  C   UNL A   1      47.960  26.172  28.196  1.00  0.00     0.049 A 
ATOM     50  N   UNL A   1      47.021  25.660  31.015  1.00  0.00    -0.248 NA
ATOM     51  C   UNL A   1      44.920  25.115  30.170  1.00  0.00     0.031 C 
ATOM     52  C   UNL A   1      48.489  26.474  26.869  1.00  0.00     0.029 A 
ATOM     53  N   UNL A   1      49.044  26.344  29.026  1.00  0.00    -0.354 N 
ATOM     54  C   UNL A   1      46.145  25.380  32.057  1.00  0.00     0.074 A 
ATOM     55  C   UNL A   1      44.833  25.212  31.483  1.00  0.00     0.031 C 
ATOM     56  C   UNL A   1      49.776  26.854  26.979  1.00  0.00     0.029 A 
ATOM     57  C   UNL A   1      50.174  26.799  28.383  1.00  0.00     0.049 A 
ATOM     58  H   UNL A   1      49.014  26.159  29.993  1.00  0.00     0.167 HD
ATOM     59  C   UNL A   1      46.405  25.195  33.371  1.00  0.00     0.034 A 
ATOM     60  C   UNL A   1      51.388  27.125  28.871  1.00  0.00     0.034 A 
ATOM     61  C   UNL A   1      47.720  25.263  33.932  1.00  0.00     0.049 A 
ATOM     62  C   UNL A   1      51.669  26.916  30.340  1.00  0.00     0.074 A 
ATOM     63  C   UNL A   1      48.120  24.979  35.225  1.00  0.00     0.029 A 
ATOM     64  N   UNL A   1      48.850  25.646  33.232  1.00  0.00    -0.354 N 
ATOM     65  N   UNL A   1      50.860  26.515  31.290  1.00  0.00    -0.248 NA
ATOM     66  C   UNL A   1      53.054  27.135  30.790  1.00  0.00     0.031 C 
ATOM     67  C   UNL A   1      49.488  25.250  35.320  1.00  0.00     0.029 A 
ATOM     68  C   UNL A   1      49.949  25.624  34.068  1.00  0.00     0.049 A 
ATOM     69  H   UNL A   1      48.869  25.896  32.279  1.00  0.00     0.167 HD
ATOM     70  C   UNL A   1      51.651  26.350  32.423  1.00  0.00     0.074 A 
ATOM     71  C   UNL A   1      53.002  26.707  32.044  1.00  0.00     0.031 C 
ATOM     72  C   UNL A   1      51.296  25.928  33.661  1.00  0.00     0.034 A 
BRANCH  59  73
ATOM     73  C   UNL A   1      45.242  24.865  34.268  1.00  0.00     0.023 A 
ATOM     74  C   UNL A   1      44.862  23.522  34.484  1.00  0.00     0.012 A 
ATOM     75  C   UNL A   1      44.518  25.894  34.896  1.00  0.00     0.148 A 
ATOM     76  C   UNL A   1      43.737  23.215  35.247  1.00  0.00     0.002 A 
ATOM     77  C   UNL A   1      43.441  25.577  35.712  1.00  0.00     0.091 A 
ATOM     78  F   UNL A   1      44.882  27.164  34.665  1.00  0.00    -0.205 F 
ATOM     79  C   UNL A   1      43.034  24.242  35.869  1.00  0.00     0.022 A 
BRANCH  77  80
ATOM     80  S   UNL A   1      42.532  26.819  36.633  1.00  0.00     0.127 S 
ATOM     81  O   UNL A   1      41.161  26.316  36.531  1.00  0.00    -0.237 OA
ATOM     82  O   UNL A   1      43.128  26.706  37.962  1.00  0.00    -0.237 OA
ATOM     83  O   UNL A   1      42.778  28.085  35.957  1.00  0.00    -0.744 OA
ENDBRANCH  77  80
ENDBRANCH  59  73
BRANCH  60  84
ATOM     84  C   UNL A   1      52.483  27.574  27.959  1.00  0.00     0.023 A 
ATOM     85  C   UNL A   1      52.733  28.955  27.809  1.00  0.00     0.012 A 
ATOM     86  C   UNL A   1      53.252  26.657  27.218  1.00  0.00     0.148 A 
ATOM     87  C   UNL A   1      53.688  29.416  26.902  1.00  0.00     0.002 A 
ATOM     88  C   UNL A   1      54.235  27.121  26.349  1.00  0.00     0.091 A 
ATOM     89  F   UNL A   1      53.005  25.349  27.378  1.00  0.00    -0.205 F 
ATOM     90  C   UNL A   1      54.441  28.500  26.174  1.00  0.00     0.022 A 
BRANCH  88  91
ATOM     91  S   UNL A   1      55.325  26.026  25.432  1.00  0.00     0.127 S 
ATOM     92  O   UNL A   1      54.591  25.848  24.181  1.00  0.00    -0.237 OA
ATOM     93  O   UNL A   1      56.537  26.838  25.325  1.00  0.00    -0.237 OA
ATOM     94  O   UNL A   1      55.465  24.831  26.252  1.00  0.00    -0.744 OA
ENDBRANCH  88  91
ENDBRANCH  60  84
BRANCH  72  95
ATOM     95  C   UNL A   1      52.385  25.718  34.680  1.00  0.00     0.023 A 
ATOM     96  C   UNL A   1      52.620  26.665  35.693  1.00  0.00     0.012 A 
ATOM     97  C   UNL A   1      53.132  24.521  34.663  1.00  0.00     0.148 A 
ATOM     98  C   UNL A   1      53.615  26.446  36.646  1.00  0.00     0.002 A 
ATOM     99  C   UNL A   1      54.075  24.282  35.652  1.00  0.00     0.091 A 
ATOM    100  F   UNL A   1      52.904  23.638  33.681  1.00  0.00    -0.205 F 
ATOM    101  C   UNL A   1      54.331  25.251  36.634  1.00  0.00     0.022 A 
BRANCH  99 102
ATOM    102  S   UNL A   1      54.958  22.724  35.777  1.00  0.00     0.127 S 
ATOM    103  O   UNL A   1      55.958  23.031  36.797  1.00  0.00    -0.237 OA
ATOM    104  O   UNL A   1      53.903  21.806  36.211  1.00  0.00    -0.237 OA
ATOM    105  O   UNL A   1      55.486  22.450  34.447  1.00  0.00    -0.744 OA
ENDBRANCH  99 102
ENDBRANCH  72  95
ENDBRANCH  46  47
ENDBRANCH  39  41
ENDBRANCH  38  39
ENDBRANCH  37  38
ENDBRANCH  36  37
ENDBRANCH  35  36
ENDBRANCH  34  35
ENDBRANCH   1  34
TORSDOF 26
ENDMDL
