MODEL 1
REMARK VINA RESULT:      -8.2      0.000      0.000
REMARK SMILES C[C@H](CCC(=O)OCCOCCOCCOCCOC(=O)c1ccc(-c2c3nc(c(-c4cccc(S(=O)(=O)[O-])c4F)c4ccc([nH]4)c(-c4cccc(S(=O)(=O)[O-])c4F)c4nc(c(-c5cccc(S(=O)(=O)[O-])c5F)c5ccc2[nH]5)C=C4)C=C3)cc1)NC(=O)OC(C)(C)C
REMARK SMILES IDX 12 1 11 2 10 3 9 4 8 5 7 6 5 7 6 8 4 9 3 10 2 11 1 12 85 13
REMARK SMILES IDX 86 14 87 16 88 17 89 18 90 19 91 20 92 21 13 22 14 23 15 24
REMARK SMILES IDX 16 25 17 26 18 27 19 28 20 29 21 30 22 31 23 32 84 33 24 34
REMARK SMILES IDX 83 35 25 36 26 37 27 38 77 39 28 40 82 41 76 42 78 43 29 44
REMARK SMILES IDX 81 45 75 46 74 47 30 49 62 50 42 51 61 52 43 53 46 54 60 55
REMARK SMILES IDX 79 56 44 57 45 58 59 60 80 61 47 62 31 63 32 64 40 65 33 66
REMARK SMILES IDX 35 67 41 68 34 69 36 70 37 71 38 72 39 73 63 74 64 75 72 76
REMARK SMILES IDX 65 77 67 78 73 79 66 80 68 81 69 82 70 83 71 84 48 85 49 86
REMARK SMILES IDX 57 87 50 88 52 89 58 90 51 91 53 92 54 93 55 94 56 95
REMARK H PARENT 85 15 78 48 46 59
REMARK Flexibility Score: inf
ROOT
ATOM      1  C   UNL A   1      34.719  24.781  24.371  1.00  0.00     0.188 C 
ENDROOT
BRANCH   1   2
ATOM      2  C   UNL A   1      34.046  25.474  25.558  1.00  0.00     0.188 C 
BRANCH   2   3
ATOM      3  O   UNL A   1      34.018  26.878  25.440  1.00  0.00    -0.376 OA
BRANCH   3   4
ATOM      4  C   UNL A   1      33.501  27.734  26.438  1.00  0.00     0.202 C 
BRANCH   4   5
ATOM      5  C   UNL A   1      32.013  27.846  26.827  1.00  0.00     0.261 C 
BRANCH   5   6
ATOM      6  O   UNL A   1      31.309  26.640  27.137  1.00  0.00    -0.463 OA
BRANCH   6   7
ATOM      7  C   UNL A   1      30.553  26.089  26.167  1.00  0.00     0.305 C 
ATOM      8  O   UNL A   1      29.728  25.203  26.363  1.00  0.00    -0.252 OA
BRANCH   7   9
ATOM      9  C   UNL A   1      30.745  26.706  24.791  1.00  0.00     0.125 C 
BRANCH   9  10
ATOM     10  C   UNL A   1      29.905  27.860  24.213  1.00  0.00     0.036 C 
BRANCH  10  11
ATOM     11  C   UNL A   1      30.474  28.775  23.118  1.00  0.00     0.083 C 
ATOM     12  C   UNL A   1      31.862  28.453  22.578  1.00  0.00     0.031 C 
BRANCH  11  13
ATOM     13  N   UNL A   1      29.515  28.955  22.052  1.00  0.00    -0.319 N 
ATOM     14  C   UNL A   1      28.968  30.146  21.694  1.00  0.00     0.407 C 
ATOM     15  H   UNL A   1      29.238  28.156  21.548  1.00  0.00     0.167 HD
ATOM     16  O   UNL A   1      28.023  30.199  20.915  1.00  0.00    -0.225 OA
BRANCH  14  17
ATOM     17  O   UNL A   1      29.577  31.182  22.303  1.00  0.00    -0.444 OA
BRANCH  17  18
ATOM     18  C   UNL A   1      28.933  31.919  23.362  1.00  0.00     0.106 C 
ATOM     19  C   UNL A   1      29.741  31.851  24.659  1.00  0.00     0.056 C 
ATOM     20  C   UNL A   1      28.653  33.351  22.902  1.00  0.00     0.056 C 
ATOM     21  C   UNL A   1      27.595  31.193  23.577  1.00  0.00     0.056 C 
ENDBRANCH  17  18
ENDBRANCH  14  17
ENDBRANCH  11  13
ENDBRANCH  10  11
ENDBRANCH   9  10
ENDBRANCH   7   9
ENDBRANCH   6   7
ENDBRANCH   5   6
ENDBRANCH   4   5
ENDBRANCH   3   4
ENDBRANCH   2   3
ENDBRANCH   1   2
BRANCH   1  22
ATOM     22  O   UNL A   1      35.423  23.570  24.554  1.00  0.00    -0.377 OA
BRANCH  22  23
ATOM     23  C   UNL A   1      34.796  22.560  25.323  1.00  0.00     0.188 C 
BRANCH  23  24
ATOM     24  C   UNL A   1      35.622  21.263  25.388  1.00  0.00     0.188 C 
BRANCH  24  25
ATOM     25  O   UNL A   1      36.643  20.968  24.439  1.00  0.00    -0.376 OA
BRANCH  25  26
ATOM     26  C   UNL A   1      37.881  20.411  24.845  1.00  0.00     0.202 C 
BRANCH  26  27
ATOM     27  C   UNL A   1      38.636  21.015  26.046  1.00  0.00     0.261 C 
BRANCH  27  28
ATOM     28  O   UNL A   1      38.941  22.415  25.999  1.00  0.00    -0.460 OA
BRANCH  28  29
ATOM     29  C   UNL A   1      40.232  22.739  26.239  1.00  0.00     0.338 C 
ATOM     30  O   UNL A   1      41.218  22.074  25.973  1.00  0.00    -0.246 OA
BRANCH  29  31
ATOM     31  C   UNL A   1      40.295  24.116  26.776  1.00  0.00     0.060 A 
ATOM     32  C   UNL A   1      40.667  25.149  25.908  1.00  0.00     0.016 A 
ATOM     33  C   UNL A   1      40.059  24.383  28.127  1.00  0.00     0.016 A 
ATOM     34  C   UNL A   1      40.830  26.445  26.388  1.00  0.00     0.010 A 
ATOM     35  C   UNL A   1      40.257  25.680  28.616  1.00  0.00     0.010 A 
ATOM     36  C   UNL A   1      40.676  26.708  27.754  1.00  0.00    -0.014 A 
BRANCH  36  37
ATOM     37  C   UNL A   1      41.140  28.016  28.279  1.00  0.00     0.031 A 
ATOM     38  C   UNL A   1      40.116  28.994  28.791  1.00  0.00     0.074 A 
ATOM     39  C   UNL A   1      42.451  28.300  28.364  1.00  0.00     0.049 A 
ATOM     40  N   UNL A   1      40.291  30.181  29.309  1.00  0.00    -0.248 NA
ATOM     41  C   UNL A   1      38.706  28.574  28.716  1.00  0.00     0.031 C 
ATOM     42  C   UNL A   1      43.536  27.421  27.931  1.00  0.00     0.029 A 
ATOM     43  N   UNL A   1      43.092  29.419  28.835  1.00  0.00    -0.354 N 
ATOM     44  C   UNL A   1      39.019  30.661  29.597  1.00  0.00     0.074 A 
ATOM     45  C   UNL A   1      38.078  29.641  29.188  1.00  0.00     0.031 C 
ATOM     46  C   UNL A   1      44.709  28.047  28.132  1.00  0.00     0.029 A 
ATOM     47  C   UNL A   1      44.457  29.378  28.678  1.00  0.00     0.049 A 
ATOM     48  H   UNL A   1      42.619  30.179  29.246  1.00  0.00     0.167 HD
ATOM     49  C   UNL A   1      38.665  31.839  30.163  1.00  0.00     0.034 A 
ATOM     50  C   UNL A   1      45.390  30.320  28.919  1.00  0.00     0.034 A 
ATOM     51  C   UNL A   1      39.604  32.846  30.579  1.00  0.00     0.049 A 
ATOM     52  C   UNL A   1      44.962  31.642  29.504  1.00  0.00     0.074 A 
ATOM     53  C   UNL A   1      39.346  34.062  31.187  1.00  0.00     0.029 A 
ATOM     54  N   UNL A   1      40.977  32.765  30.414  1.00  0.00    -0.354 N 
ATOM     55  N   UNL A   1      43.765  32.044  29.858  1.00  0.00    -0.248 NA
ATOM     56  C   UNL A   1      46.022  32.632  29.754  1.00  0.00     0.031 C 
ATOM     57  C   UNL A   1      40.561  34.734  31.352  1.00  0.00     0.029 A 
ATOM     58  C   UNL A   1      41.581  33.915  30.894  1.00  0.00     0.049 A 
ATOM     59  H   UNL A   1      41.454  32.002  30.016  1.00  0.00     0.167 HD
ATOM     60  C   UNL A   1      43.932  33.312  30.404  1.00  0.00     0.074 A 
ATOM     61  C   UNL A   1      45.351  33.600  30.361  1.00  0.00     0.031 C 
ATOM     62  C   UNL A   1      42.998  34.169  30.885  1.00  0.00     0.034 A 
BRANCH  49  63
ATOM     63  C   UNL A   1      37.197  32.106  30.375  1.00  0.00     0.023 A 
ATOM     64  C   UNL A   1      36.579  31.720  31.580  1.00  0.00     0.012 A 
ATOM     65  C   UNL A   1      36.450  32.804  29.406  1.00  0.00     0.148 A 
ATOM     66  C   UNL A   1      35.232  32.001  31.808  1.00  0.00     0.002 A 
ATOM     67  C   UNL A   1      35.122  33.124  29.660  1.00  0.00     0.091 A 
ATOM     68  F   UNL A   1      37.053  33.145  28.258  1.00  0.00    -0.205 F 
ATOM     69  C   UNL A   1      34.508  32.713  30.855  1.00  0.00     0.022 A 
BRANCH  67  70
ATOM     70  S   UNL A   1      34.126  34.105  28.533  1.00  0.00     0.127 S 
ATOM     71  O   UNL A   1      34.929  35.322  28.413  1.00  0.00    -0.237 OA
ATOM     72  O   UNL A   1      34.107  33.267  27.334  1.00  0.00    -0.237 OA
ATOM     73  O   UNL A   1      32.833  34.279  29.180  1.00  0.00    -0.744 OA
ENDBRANCH  67  70
ENDBRANCH  49  63
BRANCH  50  74
ATOM     74  C   UNL A   1      46.824  30.059  28.607  1.00  0.00     0.023 A 
ATOM     75  C   UNL A   1      47.358  30.452  27.365  1.00  0.00     0.012 A 
ATOM     76  C   UNL A   1      47.654  29.396  29.532  1.00  0.00     0.148 A 
ATOM     77  C   UNL A   1      48.681  30.151  27.033  1.00  0.00     0.002 A 
ATOM     78  C   UNL A   1      48.986  29.155  29.219  1.00  0.00     0.091 A 
ATOM     79  F   UNL A   1      47.122  29.013  30.702  1.00  0.00    -0.205 F 
ATOM     80  C   UNL A   1      49.496  29.510  27.962  1.00  0.00     0.022 A 
BRANCH  78  81
ATOM     81  S   UNL A   1      50.137  28.451  30.405  1.00  0.00     0.127 S 
ATOM     82  O   UNL A   1      49.253  28.120  31.519  1.00  0.00    -0.237 OA
ATOM     83  O   UNL A   1      50.657  27.301  29.665  1.00  0.00    -0.237 OA
ATOM     84  O   UNL A   1      51.120  29.494  30.664  1.00  0.00    -0.744 OA
ENDBRANCH  78  81
ENDBRANCH  50  74
BRANCH  62  85
ATOM     85  C   UNL A   1      43.480  35.480  31.453  1.00  0.00     0.023 A 
ATOM     86  C   UNL A   1      43.810  35.581  32.820  1.00  0.00     0.012 A 
ATOM     87  C   UNL A   1      43.653  36.602  30.617  1.00  0.00     0.148 A 
ATOM     88  C   UNL A   1      44.256  36.790  33.355  1.00  0.00     0.002 A 
ATOM     89  C   UNL A   1      44.152  37.786  31.145  1.00  0.00     0.091 A 
ATOM     90  F   UNL A   1      43.322  36.491  29.323  1.00  0.00    -0.205 F 
ATOM     91  C   UNL A   1      44.437  37.887  32.516  1.00  0.00     0.022 A 
BRANCH  89  92
ATOM     92  S   UNL A   1      44.511  39.220  30.126  1.00  0.00     0.127 S 
ATOM     93  O   UNL A   1      45.486  38.678  29.181  1.00  0.00    -0.237 OA
ATOM     94  O   UNL A   1      43.202  39.523  29.546  1.00  0.00    -0.237 OA
ATOM     95  O   UNL A   1      45.022  40.241  31.032  1.00  0.00    -0.744 OA
ENDBRANCH  89  92
ENDBRANCH  62  85
ENDBRANCH  36  37
ENDBRANCH  29  31
ENDBRANCH  28  29
ENDBRANCH  27  28
ENDBRANCH  26  27
ENDBRANCH  25  26
ENDBRANCH  24  25
ENDBRANCH  23  24
ENDBRANCH  22  23
ENDBRANCH   1  22
TORSDOF 28
ENDMDL
MODEL 2
REMARK VINA RESULT:      -8.1      4.547      9.859
REMARK SMILES C[C@H](CCC(=O)OCCOCCOCCOCCOC(=O)c1ccc(-c2c3nc(c(-c4cccc(S(=O)(=O)[O-])c4F)c4ccc([nH]4)c(-c4cccc(S(=O)(=O)[O-])c4F)c4nc(c(-c5cccc(S(=O)(=O)[O-])c5F)c5ccc2[nH]5)C=C4)C=C3)cc1)NC(=O)OC(C)(C)C
REMARK SMILES IDX 12 1 11 2 10 3 9 4 8 5 7 6 5 7 6 8 4 9 3 10 2 11 1 12 85 13
REMARK SMILES IDX 86 14 87 16 88 17 89 18 90 19 91 20 92 21 13 22 14 23 15 24
REMARK SMILES IDX 16 25 17 26 18 27 19 28 20 29 21 30 22 31 23 32 84 33 24 34
REMARK SMILES IDX 83 35 25 36 26 37 27 38 77 39 28 40 82 41 76 42 78 43 29 44
REMARK SMILES IDX 81 45 75 46 74 47 30 49 62 50 42 51 61 52 43 53 46 54 60 55
REMARK SMILES IDX 79 56 44 57 45 58 59 60 80 61 47 62 31 63 32 64 40 65 33 66
REMARK SMILES IDX 35 67 41 68 34 69 36 70 37 71 38 72 39 73 63 74 64 75 72 76
REMARK SMILES IDX 65 77 67 78 73 79 66 80 68 81 69 82 70 83 71 84 48 85 49 86
REMARK SMILES IDX 57 87 50 88 52 89 58 90 51 91 53 92 54 93 55 94 56 95
REMARK H PARENT 85 15 78 48 46 59
REMARK Flexibility Score: inf
ROOT
ATOM      1  C   UNL A   1      33.401  24.563  25.526  1.00  0.00     0.188 C 
ENDROOT
BRANCH   1   2
ATOM      2  C   UNL A   1      34.859  24.992  25.339  1.00  0.00     0.188 C 
BRANCH   2   3
ATOM      3  O   UNL A   1      35.740  24.378  26.250  1.00  0.00    -0.376 OA
BRANCH   3   4
ATOM      4  C   UNL A   1      37.103  24.127  25.969  1.00  0.00     0.202 C 
BRANCH   4   5
ATOM      5  C   UNL A   1      37.719  22.733  25.736  1.00  0.00     0.261 C 
BRANCH   5   6
ATOM      6  O   UNL A   1      37.778  22.242  24.394  1.00  0.00    -0.463 OA
BRANCH   6   7
ATOM      7  C   UNL A   1      36.675  22.371  23.630  1.00  0.00     0.305 C 
ATOM      8  O   UNL A   1      36.641  23.001  22.579  1.00  0.00    -0.252 OA
BRANCH   7   9
ATOM      9  C   UNL A   1      35.465  21.601  24.135  1.00  0.00     0.125 C 
BRANCH   9  10
ATOM     10  C   UNL A   1      35.341  20.961  25.531  1.00  0.00     0.036 C 
BRANCH  10  11
ATOM     11  C   UNL A   1      33.962  20.702  26.156  1.00  0.00     0.083 C 
ATOM     12  C   UNL A   1      33.512  21.625  27.282  1.00  0.00     0.031 C 
BRANCH  11  13
ATOM     13  N   UNL A   1      32.951  20.577  25.132  1.00  0.00    -0.319 N 
ATOM     14  C   UNL A   1      32.579  19.408  24.549  1.00  0.00     0.407 C 
ATOM     15  H   UNL A   1      32.498  21.399  24.836  1.00  0.00     0.167 HD
ATOM     16  O   UNL A   1      31.859  19.397  23.557  1.00  0.00    -0.225 OA
BRANCH  14  17
ATOM     17  O   UNL A   1      33.107  18.341  25.180  1.00  0.00    -0.444 OA
BRANCH  17  18
ATOM     18  C   UNL A   1      33.675  17.235  24.448  1.00  0.00     0.106 C 
ATOM     19  C   UNL A   1      33.157  15.895  24.973  1.00  0.00     0.056 C 
ATOM     20  C   UNL A   1      33.434  17.427  22.949  1.00  0.00     0.056 C 
ATOM     21  C   UNL A   1      35.183  17.324  24.728  1.00  0.00     0.056 C 
ENDBRANCH  17  18
ENDBRANCH  14  17
ENDBRANCH  11  13
ENDBRANCH  10  11
ENDBRANCH   9  10
ENDBRANCH   7   9
ENDBRANCH   6   7
ENDBRANCH   5   6
ENDBRANCH   4   5
ENDBRANCH   3   4
ENDBRANCH   2   3
ENDBRANCH   1   2
BRANCH   1  22
ATOM     22  O   UNL A   1      32.361  25.517  25.474  1.00  0.00    -0.377 OA
BRANCH  22  23
ATOM     23  C   UNL A   1      32.717  26.880  25.623  1.00  0.00     0.188 C 
BRANCH  23  24
ATOM     24  C   UNL A   1      31.493  27.805  25.739  1.00  0.00     0.188 C 
BRANCH  24  25
ATOM     25  O   UNL A   1      31.547  29.048  26.433  1.00  0.00    -0.376 OA
BRANCH  25  26
ATOM     26  C   UNL A   1      32.469  30.056  26.060  1.00  0.00     0.202 C 
BRANCH  26  27
ATOM     27  C   UNL A   1      32.965  31.069  27.112  1.00  0.00     0.261 C 
BRANCH  27  28
ATOM     28  O   UNL A   1      34.142  30.728  27.855  1.00  0.00    -0.460 OA
BRANCH  28  29
ATOM     29  C   UNL A   1      35.072  31.705  27.956  1.00  0.00     0.338 C 
ATOM     30  O   UNL A   1      34.972  32.857  27.570  1.00  0.00    -0.246 OA
BRANCH  29  31
ATOM     31  C   UNL A   1      36.223  31.202  28.737  1.00  0.00     0.060 A 
ATOM     32  C   UNL A   1      37.457  31.845  28.586  1.00  0.00     0.016 A 
ATOM     33  C   UNL A   1      36.112  30.074  29.555  1.00  0.00     0.016 A 
ATOM     34  C   UNL A   1      38.589  31.351  29.228  1.00  0.00     0.010 A 
ATOM     35  C   UNL A   1      37.258  29.558  30.173  1.00  0.00     0.010 A 
ATOM     36  C   UNL A   1      38.506  30.176  29.984  1.00  0.00    -0.014 A 
BRANCH  36  37
ATOM     37  C   UNL A   1      39.766  29.516  30.406  1.00  0.00     0.031 A 
ATOM     38  C   UNL A   1      40.460  30.010  31.647  1.00  0.00     0.074 A 
ATOM     39  C   UNL A   1      40.246  28.453  29.737  1.00  0.00     0.049 A 
ATOM     40  N   UNL A   1      41.557  29.575  32.211  1.00  0.00    -0.248 NA
ATOM     41  C   UNL A   1      39.830  31.140  32.352  1.00  0.00     0.031 C 
ATOM     42  C   UNL A   1      39.646  27.865  28.541  1.00  0.00     0.029 A 
ATOM     43  N   UNL A   1      41.362  27.686  29.965  1.00  0.00    -0.354 N 
ATOM     44  C   UNL A   1      41.763  30.390  33.318  1.00  0.00     0.074 A 
ATOM     45  C   UNL A   1      40.684  31.353  33.342  1.00  0.00     0.031 C 
ATOM     46  C   UNL A   1      40.415  26.845  28.124  1.00  0.00     0.029 A 
ATOM     47  C   UNL A   1      41.575  26.727  29.004  1.00  0.00     0.049 A 
ATOM     48  H   UNL A   1      41.953  27.812  30.743  1.00  0.00     0.167 HD
ATOM     49  C   UNL A   1      42.754  30.335  34.238  1.00  0.00     0.034 A 
ATOM     50  C   UNL A   1      42.606  25.874  28.839  1.00  0.00     0.034 A 
ATOM     51  C   UNL A   1      43.819  29.369  34.217  1.00  0.00     0.049 A 
ATOM     52  C   UNL A   1      43.721  25.868  29.853  1.00  0.00     0.074 A 
ATOM     53  C   UNL A   1      44.856  29.213  35.121  1.00  0.00     0.029 A 
ATOM     54  N   UNL A   1      43.996  28.407  33.236  1.00  0.00    -0.354 N 
ATOM     55  N   UNL A   1      43.853  26.582  30.945  1.00  0.00    -0.248 NA
ATOM     56  C   UNL A   1      44.817  24.912  29.628  1.00  0.00     0.031 C 
ATOM     57  C   UNL A   1      45.684  28.183  34.662  1.00  0.00     0.029 A 
ATOM     58  C   UNL A   1      45.135  27.664  33.501  1.00  0.00     0.049 A 
ATOM     59  H   UNL A   1      43.401  28.271  32.464  1.00  0.00     0.167 HD
ATOM     60  C   UNL A   1      45.022  26.137  31.554  1.00  0.00     0.074 A 
ATOM     61  C   UNL A   1      45.545  25.072  30.724  1.00  0.00     0.031 C 
ATOM     62  C   UNL A   1      45.619  26.577  32.690  1.00  0.00     0.034 A 
BRANCH  49  63
ATOM     63  C   UNL A   1      42.734  31.345  35.357  1.00  0.00     0.023 A 
ATOM     64  C   UNL A   1      41.908  31.136  36.479  1.00  0.00     0.012 A 
ATOM     65  C   UNL A   1      43.588  32.465  35.325  1.00  0.00     0.148 A 
ATOM     66  C   UNL A   1      41.913  32.039  37.541  1.00  0.00     0.002 A 
ATOM     67  C   UNL A   1      43.623  33.334  36.409  1.00  0.00     0.091 A 
ATOM     68  F   UNL A   1      44.351  32.655  34.240  1.00  0.00    -0.205 F 
ATOM     69  C   UNL A   1      42.779  33.130  37.512  1.00  0.00     0.022 A 
BRANCH  67  70
ATOM     70  S   UNL A   1      44.759  34.723  36.503  1.00  0.00     0.127 S 
ATOM     71  O   UNL A   1      44.044  35.627  37.404  1.00  0.00    -0.237 OA
ATOM     72  O   UNL A   1      45.951  34.103  37.082  1.00  0.00    -0.237 OA
ATOM     73  O   UNL A   1      44.920  35.208  35.140  1.00  0.00    -0.744 OA
ENDBRANCH  67  70
ENDBRANCH  49  63
BRANCH  50  74
ATOM     74  C   UNL A   1      42.643  24.954  27.667  1.00  0.00     0.023 A 
ATOM     75  C   UNL A   1      43.168  25.398  26.438  1.00  0.00     0.012 A 
ATOM     76  C   UNL A   1      42.133  23.644  27.761  1.00  0.00     0.148 A 
ATOM     77  C   UNL A   1      43.145  24.569  25.314  1.00  0.00     0.002 A 
ATOM     78  C   UNL A   1      42.168  22.805  26.656  1.00  0.00     0.091 A 
ATOM     79  F   UNL A   1      41.619  23.246  28.934  1.00  0.00    -0.205 F 
ATOM     80  C   UNL A   1      42.653  23.272  25.425  1.00  0.00     0.022 A 
BRANCH  78  81
ATOM     81  S   UNL A   1      41.675  21.080  26.744  1.00  0.00     0.127 S 
ATOM     82  O   UNL A   1      42.573  20.566  27.774  1.00  0.00    -0.237 OA
ATOM     83  O   UNL A   1      40.272  21.194  27.147  1.00  0.00    -0.237 OA
ATOM     84  O   UNL A   1      41.875  20.545  25.404  1.00  0.00    -0.744 OA
ENDBRANCH  78  81
ENDBRANCH  50  74
BRANCH  62  85
ATOM     85  C   UNL A   1      46.878  25.876  33.133  1.00  0.00     0.023 A 
ATOM     86  C   UNL A   1      48.139  26.379  32.753  1.00  0.00     0.012 A 
ATOM     87  C   UNL A   1      46.811  24.744  33.971  1.00  0.00     0.148 A 
ATOM     88  C   UNL A   1      49.310  25.737  33.158  1.00  0.00     0.002 A 
ATOM     89  C   UNL A   1      47.982  24.144  34.416  1.00  0.00     0.091 A 
ATOM     90  F   UNL A   1      45.603  24.273  34.311  1.00  0.00    -0.205 F 
ATOM     91  C   UNL A   1      49.231  24.629  33.997  1.00  0.00     0.022 A 
BRANCH  89  92
ATOM     92  S   UNL A   1      47.982  22.774  35.577  1.00  0.00     0.127 S 
ATOM     93  O   UNL A   1      49.414  22.545  35.767  1.00  0.00    -0.237 OA
ATOM     94  O   UNL A   1      47.298  23.350  36.735  1.00  0.00    -0.237 OA
ATOM     95  O   UNL A   1      47.258  21.692  34.923  1.00  0.00    -0.744 OA
ENDBRANCH  89  92
ENDBRANCH  62  85
ENDBRANCH  36  37
ENDBRANCH  29  31
ENDBRANCH  28  29
ENDBRANCH  27  28
ENDBRANCH  26  27
ENDBRANCH  25  26
ENDBRANCH  24  25
ENDBRANCH  23  24
ENDBRANCH  22  23
ENDBRANCH   1  22
TORSDOF 28
ENDMDL
MODEL 3
REMARK VINA RESULT:      -7.9      2.035      2.379
REMARK SMILES C[C@H](CCC(=O)OCCOCCOCCOCCOC(=O)c1ccc(-c2c3nc(c(-c4cccc(S(=O)(=O)[O-])c4F)c4ccc([nH]4)c(-c4cccc(S(=O)(=O)[O-])c4F)c4nc(c(-c5cccc(S(=O)(=O)[O-])c5F)c5ccc2[nH]5)C=C4)C=C3)cc1)NC(=O)OC(C)(C)C
REMARK SMILES IDX 12 1 11 2 10 3 9 4 8 5 7 6 5 7 6 8 4 9 3 10 2 11 1 12 85 13
REMARK SMILES IDX 86 14 87 16 88 17 89 18 90 19 91 20 92 21 13 22 14 23 15 24
REMARK SMILES IDX 16 25 17 26 18 27 19 28 20 29 21 30 22 31 23 32 84 33 24 34
REMARK SMILES IDX 83 35 25 36 26 37 27 38 77 39 28 40 82 41 76 42 78 43 29 44
REMARK SMILES IDX 81 45 75 46 74 47 30 49 62 50 42 51 61 52 43 53 46 54 60 55
REMARK SMILES IDX 79 56 44 57 45 58 59 60 80 61 47 62 31 63 32 64 40 65 33 66
REMARK SMILES IDX 35 67 41 68 34 69 36 70 37 71 38 72 39 73 63 74 64 75 72 76
REMARK SMILES IDX 65 77 67 78 73 79 66 80 68 81 69 82 70 83 71 84 48 85 49 86
REMARK SMILES IDX 57 87 50 88 52 89 58 90 51 91 53 92 54 93 55 94 56 95
REMARK H PARENT 85 15 78 48 46 59
REMARK Flexibility Score: inf
ROOT
ATOM      1  C   UNL A   1      34.243  25.627  24.808  1.00  0.00     0.188 C 
ENDROOT
BRANCH   1   2
ATOM      2  C   UNL A   1      33.989  26.328  26.145  1.00  0.00     0.188 C 
BRANCH   2   3
ATOM      3  O   UNL A   1      33.972  27.733  26.042  1.00  0.00    -0.376 OA
BRANCH   3   4
ATOM      4  C   UNL A   1      32.988  28.547  26.647  1.00  0.00     0.202 C 
BRANCH   4   5
ATOM      5  C   UNL A   1      31.470  28.281  26.608  1.00  0.00     0.261 C 
BRANCH   5   6
ATOM      6  O   UNL A   1      30.996  27.026  27.103  1.00  0.00    -0.463 OA
BRANCH   6   7
ATOM      7  C   UNL A   1      30.586  26.112  26.202  1.00  0.00     0.305 C 
ATOM      8  O   UNL A   1      30.206  24.984  26.497  1.00  0.00    -0.252 OA
BRANCH   7   9
ATOM      9  C   UNL A   1      30.556  26.611  24.766  1.00  0.00     0.125 C 
BRANCH   9  10
ATOM     10  C   UNL A   1      29.946  27.948  24.306  1.00  0.00     0.036 C 
BRANCH  10  11
ATOM     11  C   UNL A   1      30.559  28.729  23.134  1.00  0.00     0.083 C 
ATOM     12  C   UNL A   1      31.923  28.280  22.622  1.00  0.00     0.031 C 
BRANCH  11  13
ATOM     13  N   UNL A   1      29.605  28.869  22.057  1.00  0.00    -0.319 N 
ATOM     14  C   UNL A   1      29.019  30.037  21.689  1.00  0.00     0.407 C 
ATOM     15  H   UNL A   1      29.363  28.058  21.555  1.00  0.00     0.167 HD
ATOM     16  O   UNL A   1      28.080  30.052  20.901  1.00  0.00    -0.225 OA
BRANCH  14  17
ATOM     17  O   UNL A   1      29.583  31.097  22.299  1.00  0.00    -0.444 OA
BRANCH  17  18
ATOM     18  C   UNL A   1      28.897  31.824  23.339  1.00  0.00     0.106 C 
ATOM     19  C   UNL A   1      27.555  31.172  23.680  1.00  0.00     0.056 C 
ATOM     20  C   UNL A   1      29.814  31.984  24.553  1.00  0.00     0.056 C 
ATOM     21  C   UNL A   1      28.630  33.208  22.727  1.00  0.00     0.056 C 
ENDBRANCH  17  18
ENDBRANCH  14  17
ENDBRANCH  11  13
ENDBRANCH  10  11
ENDBRANCH   9  10
ENDBRANCH   7   9
ENDBRANCH   6   7
ENDBRANCH   5   6
ENDBRANCH   4   5
ENDBRANCH   3   4
ENDBRANCH   2   3
ENDBRANCH   1   2
BRANCH   1  22
ATOM     22  O   UNL A   1      34.877  24.365  24.769  1.00  0.00    -0.377 OA
BRANCH  22  23
ATOM     23  C   UNL A   1      34.358  23.348  25.606  1.00  0.00     0.188 C 
BRANCH  23  24
ATOM     24  C   UNL A   1      35.242  22.090  25.630  1.00  0.00     0.188 C 
BRANCH  24  25
ATOM     25  O   UNL A   1      36.114  21.756  24.554  1.00  0.00    -0.376 OA
BRANCH  25  26
ATOM     26  C   UNL A   1      37.324  21.056  24.781  1.00  0.00     0.202 C 
BRANCH  26  27
ATOM     27  C   UNL A   1      38.277  21.516  25.903  1.00  0.00     0.261 C 
BRANCH  27  28
ATOM     28  O   UNL A   1      38.749  22.868  25.856  1.00  0.00    -0.460 OA
BRANCH  28  29
ATOM     29  C   UNL A   1      40.004  23.064  26.323  1.00  0.00     0.338 C 
ATOM     30  O   UNL A   1      40.956  22.313  26.207  1.00  0.00    -0.246 OA
BRANCH  29  31
ATOM     31  C   UNL A   1      40.098  24.420  26.908  1.00  0.00     0.060 A 
ATOM     32  C   UNL A   1      40.849  25.384  26.228  1.00  0.00     0.016 A 
ATOM     33  C   UNL A   1      39.513  24.723  28.141  1.00  0.00     0.016 A 
ATOM     34  C   UNL A   1      41.043  26.645  26.785  1.00  0.00     0.010 A 
ATOM     35  C   UNL A   1      39.737  25.980  28.716  1.00  0.00     0.010 A 
ATOM     36  C   UNL A   1      40.532  26.933  28.055  1.00  0.00    -0.014 A 
BRANCH  36  37
ATOM     37  C   UNL A   1      40.998  28.162  28.743  1.00  0.00     0.031 A 
ATOM     38  C   UNL A   1      39.973  29.145  29.241  1.00  0.00     0.074 A 
ATOM     39  C   UNL A   1      42.306  28.364  28.984  1.00  0.00     0.049 A 
ATOM     40  N   UNL A   1      40.148  30.271  29.881  1.00  0.00    -0.248 NA
ATOM     41  C   UNL A   1      38.560  28.812  28.987  1.00  0.00     0.031 C 
ATOM     42  C   UNL A   1      43.388  27.469  28.580  1.00  0.00     0.029 A 
ATOM     43  N   UNL A   1      42.944  29.401  29.618  1.00  0.00    -0.354 N 
ATOM     44  C   UNL A   1      38.876  30.793  30.086  1.00  0.00     0.074 A 
ATOM     45  C   UNL A   1      37.937  29.867  29.492  1.00  0.00     0.031 C 
ATOM     46  C   UNL A   1      44.561  28.009  28.953  1.00  0.00     0.029 A 
ATOM     47  C   UNL A   1      44.315  29.299  29.593  1.00  0.00     0.049 A 
ATOM     48  H   UNL A   1      42.467  30.146  30.049  1.00  0.00     0.167 HD
ATOM     49  C   UNL A   1      38.520  31.934  30.721  1.00  0.00     0.034 A 
ATOM     50  C   UNL A   1      45.260  30.163  30.013  1.00  0.00     0.034 A 
ATOM     51  C   UNL A   1      39.455  32.847  31.320  1.00  0.00     0.049 A 
ATOM     52  C   UNL A   1      44.835  31.450  30.673  1.00  0.00     0.074 A 
ATOM     53  C   UNL A   1      39.192  34.017  32.011  1.00  0.00     0.029 A 
ATOM     54  N   UNL A   1      40.834  32.705  31.286  1.00  0.00    -0.354 N 
ATOM     55  N   UNL A   1      43.628  31.884  30.942  1.00  0.00    -0.248 NA
ATOM     56  C   UNL A   1      45.908  32.353  31.118  1.00  0.00     0.031 C 
ATOM     57  C   UNL A   1      40.414  34.604  32.358  1.00  0.00     0.029 A 
ATOM     58  C   UNL A   1      41.436  33.774  31.928  1.00  0.00     0.049 A 
ATOM     59  H   UNL A   1      41.313  31.955  30.866  1.00  0.00     0.167 HD
ATOM     60  C   UNL A   1      43.796  33.088  31.618  1.00  0.00     0.074 A 
ATOM     61  C   UNL A   1      45.223  33.300  31.743  1.00  0.00     0.031 C 
ATOM     62  C   UNL A   1      42.857  33.949  32.083  1.00  0.00     0.034 A 
BRANCH  49  63
ATOM     63  C   UNL A   1      37.052  32.262  30.811  1.00  0.00     0.023 A 
ATOM     64  C   UNL A   1      36.334  31.959  31.985  1.00  0.00     0.012 A 
ATOM     65  C   UNL A   1      36.403  32.935  29.758  1.00  0.00     0.148 A 
ATOM     66  C   UNL A   1      34.985  32.298  32.099  1.00  0.00     0.002 A 
ATOM     67  C   UNL A   1      35.073  33.312  29.898  1.00  0.00     0.091 A 
ATOM     68  F   UNL A   1      37.099  33.197  28.642  1.00  0.00    -0.205 F 
ATOM     69  C   UNL A   1      34.359  32.984  31.062  1.00  0.00     0.022 A 
BRANCH  67  70
ATOM     70  S   UNL A   1      34.199  34.269  28.654  1.00  0.00     0.127 S 
ATOM     71  O   UNL A   1      32.887  34.438  29.280  1.00  0.00    -0.237 OA
ATOM     72  O   UNL A   1      35.004  35.489  28.586  1.00  0.00    -0.237 OA
ATOM     73  O   UNL A   1      34.206  33.462  27.442  1.00  0.00    -0.744 OA
ENDBRANCH  67  70
ENDBRANCH  49  63
BRANCH  50  74
ATOM     74  C   UNL A   1      46.705  29.852  29.821  1.00  0.00     0.023 A 
ATOM     75  C   UNL A   1      47.437  29.235  30.854  1.00  0.00     0.012 A 
ATOM     76  C   UNL A   1      47.364  30.190  28.623  1.00  0.00     0.148 A 
ATOM     77  C   UNL A   1      48.807  29.002  30.714  1.00  0.00     0.002 A 
ATOM     78  C   UNL A   1      48.713  29.900  28.466  1.00  0.00     0.091 A 
ATOM     79  F   UNL A   1      46.655  30.794  27.658  1.00  0.00    -0.205 F 
ATOM     80  C   UNL A   1      49.442  29.327  29.518  1.00  0.00     0.022 A 
BRANCH  78  81
ATOM     81  S   UNL A   1      49.578  30.166  26.915  1.00  0.00     0.127 S 
ATOM     82  O   UNL A   1      50.941  29.773  27.262  1.00  0.00    -0.237 OA
ATOM     83  O   UNL A   1      48.876  29.243  26.023  1.00  0.00    -0.237 OA
ATOM     84  O   UNL A   1      49.387  31.575  26.596  1.00  0.00    -0.744 OA
ENDBRANCH  78  81
ENDBRANCH  50  74
BRANCH  62  85
ATOM     85  C   UNL A   1      43.337  35.177  32.816  1.00  0.00     0.023 A 
ATOM     86  C   UNL A   1      43.552  36.381  32.114  1.00  0.00     0.012 A 
ATOM     87  C   UNL A   1      43.529  35.148  34.212  1.00  0.00     0.148 A 
ATOM     88  C   UNL A   1      43.997  37.522  32.783  1.00  0.00     0.002 A 
ATOM     89  C   UNL A   1      43.917  36.303  34.879  1.00  0.00     0.091 A 
ATOM     90  F   UNL A   1      43.333  33.991  34.860  1.00  0.00    -0.205 F 
ATOM     91  C   UNL A   1      44.168  37.485  34.164  1.00  0.00     0.022 A 
BRANCH  89  92
ATOM     92  S   UNL A   1      44.068  36.379  36.667  1.00  0.00     0.127 S 
ATOM     93  O   UNL A   1      43.816  34.990  37.046  1.00  0.00    -0.237 OA
ATOM     94  O   UNL A   1      45.453  36.817  36.842  1.00  0.00    -0.237 OA
ATOM     95  O   UNL A   1      43.069  37.339  37.115  1.00  0.00    -0.744 OA
ENDBRANCH  89  92
ENDBRANCH  62  85
ENDBRANCH  36  37
ENDBRANCH  29  31
ENDBRANCH  28  29
ENDBRANCH  27  28
ENDBRANCH  26  27
ENDBRANCH  25  26
ENDBRANCH  24  25
ENDBRANCH  23  24
ENDBRANCH  22  23
ENDBRANCH   1  22
TORSDOF 28
ENDMDL
