MODEL 1
REMARK VINA RESULT:     -11.4      0.000      0.000
REMARK SMILES O=C(Cn1c2ccccc2c(=O)c2cc(F)ccc21)OCCOCCOCCOCCOC(=O)c1ccc(-c2c3nc(c(-c4cccc(S(=O)(=O)[O-])c4F)c4ccc([nH]4)c(-c4cccc(S(=O)(=O)[O-])c4F)c4nc(c(-c5cccc(S(=O)(=O)[O-])c5F)c5ccc2[nH]5)C=C4)C=C3)cc1
REMARK SMILES IDX 27 1 26 2 25 3 24 4 23 5 22 6 21 7 20 8 2 9 1 10 3 11 4 12
REMARK SMILES IDX 5 13 19 14 6 15 10 16 13 17 18 18 7 19 9 20 11 21 14 22
REMARK SMILES IDX 17 23 8 24 12 25 15 26 16 27 28 28 29 29 30 30 31 31 32 32
REMARK SMILES IDX 33 33 34 34 35 35 36 36 97 37 37 38 96 39 38 40 39 41 40 42
REMARK SMILES IDX 90 43 41 44 95 45 89 46 91 47 42 48 94 49 88 50 87 51 43 53
REMARK SMILES IDX 75 54 55 55 74 56 56 57 59 58 73 59 92 60 57 61 58 62 72 64
REMARK SMILES IDX 93 65 60 66 44 67 45 68 53 69 46 70 48 71 54 72 47 73 49 74
REMARK SMILES IDX 50 75 51 76 52 77 76 78 77 79 85 80 78 81 80 82 86 83 79 84
REMARK SMILES IDX 81 85 82 86 83 87 84 88 61 89 62 90 70 91 63 92 65 93 71 94
REMARK SMILES IDX 64 95 66 96 67 97 68 98 69 99
REMARK H PARENT 91 52 59 63
REMARK Flexibility Score: inf
ROOT
ATOM      1  C   UNL A   1      33.734  27.188  23.474  1.00  0.00     0.188 C 
ENDROOT
BRANCH   1   2
ATOM      2  O   UNL A   1      33.723  26.845  22.096  1.00  0.00    -0.377 OA
BRANCH   2   3
ATOM      3  C   UNL A   1      32.529  26.199  21.665  1.00  0.00     0.188 C 
BRANCH   3   4
ATOM      4  C   UNL A   1      31.880  25.326  22.746  1.00  0.00     0.188 C 
BRANCH   4   5
ATOM      5  O   UNL A   1      30.558  25.719  23.077  1.00  0.00    -0.376 OA
BRANCH   5   6
ATOM      6  C   UNL A   1      30.140  25.890  24.418  1.00  0.00     0.202 C 
BRANCH   6   7
ATOM      7  C   UNL A   1      30.941  25.261  25.550  1.00  0.00     0.261 C 
BRANCH   7   8
ATOM      8  O   UNL A   1      30.785  23.842  25.763  1.00  0.00    -0.462 OA
BRANCH   8   9
ATOM      9  C   UNL A   1      31.678  22.847  25.862  1.00  0.00     0.326 C 
ATOM     10  O   UNL A   1      32.052  22.507  26.988  1.00  0.00    -0.250 OA
BRANCH   9  11
ATOM     11  C   UNL A   1      32.322  22.203  24.653  1.00  0.00     0.245 C 
BRANCH  11  12
ATOM     12  N   UNL A   1      33.605  21.479  24.788  1.00  0.00    -0.329 N 
ATOM     13  C   UNL A   1      34.816  22.205  24.920  1.00  0.00     0.053 A 
ATOM     14  C   UNL A   1      33.581  20.058  24.645  1.00  0.00     0.053 A 
ATOM     15  C   UNL A   1      34.906  23.608  24.942  1.00  0.00     0.027 A 
ATOM     16  C   UNL A   1      36.017  21.510  25.141  1.00  0.00     0.046 A 
ATOM     17  C   UNL A   1      34.791  19.337  24.670  1.00  0.00     0.049 A 
ATOM     18  C   UNL A   1      32.405  19.284  24.512  1.00  0.00     0.030 A 
ATOM     19  C   UNL A   1      36.059  24.267  25.386  1.00  0.00     0.002 A 
ATOM     20  C   UNL A   1      37.186  22.161  25.562  1.00  0.00     0.014 A 
ATOM     21  C   UNL A   1      36.055  20.052  24.923  1.00  0.00     0.197 A 
ATOM     22  C   UNL A   1      34.839  17.943  24.502  1.00  0.00     0.053 A 
ATOM     23  C   UNL A   1      32.443  17.889  24.385  1.00  0.00     0.041 A 
ATOM     24  C   UNL A   1      37.188  23.540  25.731  1.00  0.00     0.001 A 
ATOM     25  O   UNL A   1      37.117  19.441  24.941  1.00  0.00    -0.288 OA
ATOM     26  C   UNL A   1      33.661  17.235  24.360  1.00  0.00     0.124 A 
ATOM     27  F   UNL A   1      33.695  15.904  24.210  1.00  0.00    -0.207 F 
ENDBRANCH  11  12
ENDBRANCH   9  11
ENDBRANCH   8   9
ENDBRANCH   7   8
ENDBRANCH   6   7
ENDBRANCH   5   6
ENDBRANCH   4   5
ENDBRANCH   3   4
ENDBRANCH   2   3
ENDBRANCH   1   2
BRANCH   1  28
ATOM     28  C   UNL A   1      33.263  28.619  23.823  1.00  0.00     0.188 C 
BRANCH  28  29
ATOM     29  O   UNL A   1      31.889  28.991  23.840  1.00  0.00    -0.376 OA
BRANCH  29  30
ATOM     30  C   UNL A   1      31.248  29.360  25.047  1.00  0.00     0.202 C 
BRANCH  30  31
ATOM     31  C   UNL A   1      31.637  30.661  25.758  1.00  0.00     0.261 C 
BRANCH  31  32
ATOM     32  O   UNL A   1      32.584  30.512  26.818  1.00  0.00    -0.460 OA
BRANCH  32  33
ATOM     33  C   UNL A   1      33.193  31.654  27.221  1.00  0.00     0.338 C 
ATOM     34  O   UNL A   1      32.693  32.763  27.305  1.00  0.00    -0.246 OA
BRANCH  33  35
ATOM     35  C   UNL A   1      34.532  31.311  27.747  1.00  0.00     0.060 A 
ATOM     36  C   UNL A   1      35.466  32.306  28.049  1.00  0.00     0.016 A 
ATOM     37  C   UNL A   1      34.864  29.956  27.898  1.00  0.00     0.016 A 
ATOM     38  C   UNL A   1      36.718  31.943  28.545  1.00  0.00     0.010 A 
ATOM     39  C   UNL A   1      36.121  29.594  28.377  1.00  0.00     0.010 A 
ATOM     40  C   UNL A   1      37.041  30.587  28.739  1.00  0.00    -0.014 A 
BRANCH  40  41
ATOM     41  C   UNL A   1      38.218  30.237  29.564  1.00  0.00     0.031 A 
ATOM     42  C   UNL A   1      38.414  30.747  30.954  1.00  0.00     0.074 A 
ATOM     43  C   UNL A   1      39.139  29.438  28.992  1.00  0.00     0.049 A 
ATOM     44  N   UNL A   1      39.327  30.396  31.823  1.00  0.00    -0.248 NA
ATOM     45  C   UNL A   1      37.487  31.780  31.433  1.00  0.00     0.031 C 
ATOM     46  C   UNL A   1      39.078  28.952  27.611  1.00  0.00     0.029 A 
ATOM     47  N   UNL A   1      40.292  28.894  29.489  1.00  0.00    -0.354 N 
ATOM     48  C   UNL A   1      39.091  31.163  32.955  1.00  0.00     0.074 A 
ATOM     49  C   UNL A   1      37.957  32.014  32.655  1.00  0.00     0.031 C 
ATOM     50  C   UNL A   1      40.134  28.161  27.378  1.00  0.00     0.029 A 
ATOM     51  C   UNL A   1      40.945  28.086  28.589  1.00  0.00     0.049 A 
ATOM     52  H   UNL A   1      40.621  29.064  30.401  1.00  0.00     0.167 HD
ATOM     53  C   UNL A   1      39.751  31.135  34.137  1.00  0.00     0.034 A 
ATOM     54  C   UNL A   1      42.059  27.346  28.727  1.00  0.00     0.034 A 
ATOM     55  C   UNL A   1      40.870  30.274  34.418  1.00  0.00     0.049 A 
ATOM     56  C   UNL A   1      42.748  27.304  30.055  1.00  0.00     0.074 A 
ATOM     57  C   UNL A   1      41.548  30.113  35.614  1.00  0.00     0.029 A 
ATOM     58  N   UNL A   1      41.491  29.448  33.493  1.00  0.00    -0.354 N 
ATOM     59  N   UNL A   1      42.408  27.903  31.171  1.00  0.00    -0.248 NA
ATOM     60  C   UNL A   1      43.948  26.465  30.159  1.00  0.00     0.031 C 
ATOM     61  C   UNL A   1      42.590  29.202  35.408  1.00  0.00     0.029 A 
ATOM     62  C   UNL A   1      42.551  28.785  34.087  1.00  0.00     0.049 A 
ATOM     63  H   UNL A   1      41.215  29.346  32.554  1.00  0.00     0.167 HD
ATOM     64  C   UNL A   1      43.341  27.502  32.116  1.00  0.00     0.074 A 
ATOM     65  C   UNL A   1      44.254  26.597  31.446  1.00  0.00     0.031 C 
ATOM     66  C   UNL A   1      43.434  27.863  33.419  1.00  0.00     0.034 A 
BRANCH  53  67
ATOM     67  C   UNL A   1      39.250  32.010  35.252  1.00  0.00     0.023 A 
ATOM     68  C   UNL A   1      38.332  31.477  36.177  1.00  0.00     0.012 A 
ATOM     69  C   UNL A   1      39.767  33.304  35.455  1.00  0.00     0.148 A 
ATOM     70  C   UNL A   1      37.928  32.219  37.286  1.00  0.00     0.002 A 
ATOM     71  C   UNL A   1      39.379  34.030  36.575  1.00  0.00     0.091 A 
ATOM     72  F   UNL A   1      40.632  33.795  34.556  1.00  0.00    -0.205 F 
ATOM     73  C   UNL A   1      38.458  33.491  37.489  1.00  0.00     0.022 A 
BRANCH  71  74
ATOM     74  S   UNL A   1      40.036  35.658  36.959  1.00  0.00     0.127 S 
ATOM     75  O   UNL A   1      39.386  35.940  38.239  1.00  0.00    -0.237 OA
ATOM     76  O   UNL A   1      41.472  35.397  37.049  1.00  0.00    -0.237 OA
ATOM     77  O   UNL A   1      39.638  36.523  35.858  1.00  0.00    -0.744 OA
ENDBRANCH  71  74
ENDBRANCH  53  67
BRANCH  54  78
ATOM     78  C   UNL A   1      42.501  26.509  27.581  1.00  0.00     0.023 A 
ATOM     79  C   UNL A   1      43.441  27.034  26.676  1.00  0.00     0.012 A 
ATOM     80  C   UNL A   1      42.098  25.164  27.467  1.00  0.00     0.148 A 
ATOM     81  C   UNL A   1      43.975  26.230  25.669  1.00  0.00     0.002 A 
ATOM     82  C   UNL A   1      42.662  24.360  26.485  1.00  0.00     0.091 A 
ATOM     83  F   UNL A   1      41.212  24.692  28.355  1.00  0.00    -0.205 F 
ATOM     84  C   UNL A   1      43.595  24.893  25.580  1.00  0.00     0.022 A 
BRANCH  82  85
ATOM     85  S   UNL A   1      42.320  22.602  26.356  1.00  0.00     0.127 S 
ATOM     86  O   UNL A   1      42.883  22.097  27.607  1.00  0.00    -0.237 OA
ATOM     87  O   UNL A   1      40.859  22.589  26.289  1.00  0.00    -0.237 OA
ATOM     88  O   UNL A   1      42.992  22.153  25.146  1.00  0.00    -0.744 OA
ENDBRANCH  82  85
ENDBRANCH  54  78
BRANCH  66  89
ATOM     89  C   UNL A   1      44.564  27.290  34.228  1.00  0.00     0.023 A 
ATOM     90  C   UNL A   1      45.767  28.015  34.340  1.00  0.00     0.012 A 
ATOM     91  C   UNL A   1      44.385  26.114  34.983  1.00  0.00     0.148 A 
ATOM     92  C   UNL A   1      46.778  27.574  35.190  1.00  0.00     0.002 A 
ATOM     93  C   UNL A   1      45.385  25.700  35.854  1.00  0.00     0.091 A 
ATOM     94  F   UNL A   1      43.233  25.441  34.851  1.00  0.00    -0.205 F 
ATOM     95  C   UNL A   1      46.583  26.427  35.956  1.00  0.00     0.022 A 
BRANCH  93  96
ATOM     96  S   UNL A   1      45.201  24.281  36.939  1.00  0.00     0.127 S 
ATOM     97  O   UNL A   1      46.570  24.091  37.416  1.00  0.00    -0.237 OA
ATOM     98  O   UNL A   1      44.266  24.782  37.946  1.00  0.00    -0.237 OA
ATOM     99  O   UNL A   1      44.682  23.201  36.109  1.00  0.00    -0.744 OA
ENDBRANCH  93  96
ENDBRANCH  66  89
ENDBRANCH  40  41
ENDBRANCH  33  35
ENDBRANCH  32  33
ENDBRANCH  31  32
ENDBRANCH  30  31
ENDBRANCH  29  30
ENDBRANCH  28  29
ENDBRANCH   1  28
TORSDOF 24
ENDMDL
MODEL 2
REMARK VINA RESULT:     -11.1      1.088      2.304
REMARK SMILES O=C(Cn1c2ccccc2c(=O)c2cc(F)ccc21)OCCOCCOCCOCCOC(=O)c1ccc(-c2c3nc(c(-c4cccc(S(=O)(=O)[O-])c4F)c4ccc([nH]4)c(-c4cccc(S(=O)(=O)[O-])c4F)c4nc(c(-c5cccc(S(=O)(=O)[O-])c5F)c5ccc2[nH]5)C=C4)C=C3)cc1
REMARK SMILES IDX 27 1 26 2 25 3 24 4 23 5 22 6 21 7 20 8 2 9 1 10 3 11 4 12
REMARK SMILES IDX 5 13 19 14 6 15 10 16 13 17 18 18 7 19 9 20 11 21 14 22
REMARK SMILES IDX 17 23 8 24 12 25 15 26 16 27 28 28 29 29 30 30 31 31 32 32
REMARK SMILES IDX 33 33 34 34 35 35 36 36 97 37 37 38 96 39 38 40 39 41 40 42
REMARK SMILES IDX 90 43 41 44 95 45 89 46 91 47 42 48 94 49 88 50 87 51 43 53
REMARK SMILES IDX 75 54 55 55 74 56 56 57 59 58 73 59 92 60 57 61 58 62 72 64
REMARK SMILES IDX 93 65 60 66 44 67 45 68 53 69 46 70 48 71 54 72 47 73 49 74
REMARK SMILES IDX 50 75 51 76 52 77 76 78 77 79 85 80 78 81 80 82 86 83 79 84
REMARK SMILES IDX 81 85 82 86 83 87 84 88 61 89 62 90 70 91 63 92 65 93 71 94
REMARK SMILES IDX 64 95 66 96 67 97 68 98 69 99
REMARK H PARENT 91 52 59 63
REMARK Flexibility Score: inf
ROOT
ATOM      1  C   UNL A   1      33.873  27.595  23.315  1.00  0.00     0.188 C 
ENDROOT
BRANCH   1   2
ATOM      2  O   UNL A   1      33.741  27.181  21.963  1.00  0.00    -0.377 OA
BRANCH   2   3
ATOM      3  C   UNL A   1      32.542  26.465  21.686  1.00  0.00     0.188 C 
BRANCH   3   4
ATOM      4  C   UNL A   1      32.130  25.502  22.806  1.00  0.00     0.188 C 
BRANCH   4   5
ATOM      5  O   UNL A   1      31.233  26.072  23.745  1.00  0.00    -0.376 OA
BRANCH   5   6
ATOM      6  C   UNL A   1      31.294  25.762  25.124  1.00  0.00     0.202 C 
BRANCH   6   7
ATOM      7  C   UNL A   1      30.609  24.507  25.652  1.00  0.00     0.261 C 
BRANCH   7   8
ATOM      8  O   UNL A   1      30.634  23.335  24.809  1.00  0.00    -0.462 OA
BRANCH   8   9
ATOM      9  C   UNL A   1      31.597  22.440  24.549  1.00  0.00     0.326 C 
ATOM     10  O   UNL A   1      31.830  22.158  23.370  1.00  0.00    -0.250 OA
BRANCH   9  11
ATOM     11  C   UNL A   1      32.331  21.688  25.638  1.00  0.00     0.245 C 
BRANCH  11  12
ATOM     12  N   UNL A   1      33.652  21.082  25.366  1.00  0.00    -0.329 N 
ATOM     13  C   UNL A   1      33.758  19.683  25.152  1.00  0.00     0.053 A 
ATOM     14  C   UNL A   1      34.800  21.926  25.463  1.00  0.00     0.053 A 
ATOM     15  C   UNL A   1      32.672  18.790  25.170  1.00  0.00     0.027 A 
ATOM     16  C   UNL A   1      35.002  19.131  24.802  1.00  0.00     0.046 A 
ATOM     17  C   UNL A   1      36.086  21.371  25.307  1.00  0.00     0.049 A 
ATOM     18  C   UNL A   1      34.753  23.324  25.673  1.00  0.00     0.030 A 
ATOM     19  C   UNL A   1      32.775  17.495  24.648  1.00  0.00     0.002 A 
ATOM     20  C   UNL A   1      35.121  17.826  24.303  1.00  0.00     0.014 A 
ATOM     21  C   UNL A   1      36.222  19.943  24.967  1.00  0.00     0.197 A 
ATOM     22  C   UNL A   1      37.255  22.140  25.423  1.00  0.00     0.053 A 
ATOM     23  C   UNL A   1      35.916  24.104  25.749  1.00  0.00     0.041 A 
ATOM     24  C   UNL A   1      33.992  17.025  24.180  1.00  0.00     0.001 A 
ATOM     25  O   UNL A   1      37.333  19.443  24.835  1.00  0.00    -0.288 OA
ATOM     26  C   UNL A   1      37.155  23.500  25.645  1.00  0.00     0.124 A 
ATOM     27  F   UNL A   1      38.264  24.245  25.745  1.00  0.00    -0.207 F 
ENDBRANCH  11  12
ENDBRANCH   9  11
ENDBRANCH   8   9
ENDBRANCH   7   8
ENDBRANCH   6   7
ENDBRANCH   5   6
ENDBRANCH   4   5
ENDBRANCH   3   4
ENDBRANCH   2   3
ENDBRANCH   1   2
BRANCH   1  28
ATOM     28  C   UNL A   1      33.337  29.006  23.649  1.00  0.00     0.188 C 
BRANCH  28  29
ATOM     29  O   UNL A   1      31.946  29.301  23.723  1.00  0.00    -0.376 OA
BRANCH  29  30
ATOM     30  C   UNL A   1      31.297  29.446  24.973  1.00  0.00     0.202 C 
BRANCH  30  31
ATOM     31  C   UNL A   1      31.505  30.716  25.806  1.00  0.00     0.261 C 
BRANCH  31  32
ATOM     32  O   UNL A   1      32.431  30.585  26.887  1.00  0.00    -0.460 OA
BRANCH  32  33
ATOM     33  C   UNL A   1      33.070  31.724  27.249  1.00  0.00     0.338 C 
ATOM     34  O   UNL A   1      32.590  32.843  27.325  1.00  0.00    -0.246 OA
BRANCH  33  35
ATOM     35  C   UNL A   1      34.418  31.370  27.743  1.00  0.00     0.060 A 
ATOM     36  C   UNL A   1      35.387  32.352  27.967  1.00  0.00     0.016 A 
ATOM     37  C   UNL A   1      34.722  30.015  27.942  1.00  0.00     0.016 A 
ATOM     38  C   UNL A   1      36.647  31.978  28.435  1.00  0.00     0.010 A 
ATOM     39  C   UNL A   1      35.986  29.641  28.393  1.00  0.00     0.010 A 
ATOM     40  C   UNL A   1      36.942  30.624  28.678  1.00  0.00    -0.014 A 
BRANCH  40  41
ATOM     41  C   UNL A   1      38.140  30.280  29.476  1.00  0.00     0.031 A 
ATOM     42  C   UNL A   1      38.364  30.789  30.862  1.00  0.00     0.074 A 
ATOM     43  C   UNL A   1      39.052  29.486  28.884  1.00  0.00     0.049 A 
ATOM     44  N   UNL A   1      39.298  30.443  31.710  1.00  0.00    -0.248 NA
ATOM     45  C   UNL A   1      37.443  31.818  31.363  1.00  0.00     0.031 C 
ATOM     46  C   UNL A   1      38.963  29.000  27.503  1.00  0.00     0.029 A 
ATOM     47  N   UNL A   1      40.219  28.947  29.354  1.00  0.00    -0.354 N 
ATOM     48  C   UNL A   1      39.083  31.208  32.847  1.00  0.00     0.074 A 
ATOM     49  C   UNL A   1      37.939  32.054  32.573  1.00  0.00     0.031 C 
ATOM     50  C   UNL A   1      40.017  28.215  27.247  1.00  0.00     0.029 A 
ATOM     51  C   UNL A   1      40.855  28.144  28.439  1.00  0.00     0.049 A 
ATOM     52  H   UNL A   1      40.567  29.118  30.258  1.00  0.00     0.167 HD
ATOM     53  C   UNL A   1      39.770  31.183  34.014  1.00  0.00     0.034 A 
ATOM     54  C   UNL A   1      41.975  27.409  28.551  1.00  0.00     0.034 A 
ATOM     55  C   UNL A   1      40.900  30.328  34.270  1.00  0.00     0.049 A 
ATOM     56  C   UNL A   1      42.695  27.370  29.864  1.00  0.00     0.074 A 
ATOM     57  C   UNL A   1      41.605  30.169  35.451  1.00  0.00     0.029 A 
ATOM     58  N   UNL A   1      41.503  29.505  33.331  1.00  0.00    -0.354 N 
ATOM     59  N   UNL A   1      42.377  27.967  30.987  1.00  0.00    -0.248 NA
ATOM     60  C   UNL A   1      43.901  26.537  29.941  1.00  0.00     0.031 C 
ATOM     61  C   UNL A   1      42.647  29.264  35.220  1.00  0.00     0.029 A 
ATOM     62  C   UNL A   1      42.581  28.848  33.900  1.00  0.00     0.049 A 
ATOM     63  H   UNL A   1      41.208  29.402  32.398  1.00  0.00     0.167 HD
ATOM     64  C   UNL A   1      43.333  27.570  31.911  1.00  0.00     0.074 A 
ATOM     65  C   UNL A   1      44.235  26.670  31.220  1.00  0.00     0.031 C 
ATOM     66  C   UNL A   1      43.453  27.930  33.212  1.00  0.00     0.034 A 
BRANCH  53  67
ATOM     67  C   UNL A   1      39.289  32.055  35.141  1.00  0.00     0.023 A 
ATOM     68  C   UNL A   1      38.379  31.523  36.074  1.00  0.00     0.012 A 
ATOM     69  C   UNL A   1      39.819  33.344  35.345  1.00  0.00     0.148 A 
ATOM     70  C   UNL A   1      37.994  32.261  37.193  1.00  0.00     0.002 A 
ATOM     71  C   UNL A   1      39.450  34.066  36.475  1.00  0.00     0.091 A 
ATOM     72  F   UNL A   1      40.676  33.833  34.438  1.00  0.00    -0.205 F 
ATOM     73  C   UNL A   1      38.537  33.528  37.397  1.00  0.00     0.022 A 
BRANCH  71  74
ATOM     74  S   UNL A   1      40.124  35.686  36.861  1.00  0.00     0.127 S 
ATOM     75  O   UNL A   1      39.684  36.467  35.704  1.00  0.00    -0.237 OA
ATOM     76  O   UNL A   1      39.441  36.014  38.112  1.00  0.00    -0.237 OA
ATOM     77  O   UNL A   1      41.564  35.507  36.978  1.00  0.00    -0.744 OA
ENDBRANCH  71  74
ENDBRANCH  53  67
BRANCH  54  78
ATOM     78  C   UNL A   1      42.396  26.575  27.396  1.00  0.00     0.023 A 
ATOM     79  C   UNL A   1      43.279  27.120  26.446  1.00  0.00     0.012 A 
ATOM     80  C   UNL A   1      42.034  25.216  27.311  1.00  0.00     0.148 A 
ATOM     81  C   UNL A   1      43.796  26.324  25.425  1.00  0.00     0.002 A 
ATOM     82  C   UNL A   1      42.582  24.421  26.313  1.00  0.00     0.091 A 
ATOM     83  F   UNL A   1      41.202  24.725  28.240  1.00  0.00    -0.205 F 
ATOM     84  C   UNL A   1      43.457  24.974  25.364  1.00  0.00     0.022 A 
BRANCH  82  85
ATOM     85  S   UNL A   1      42.293  22.652  26.215  1.00  0.00     0.127 S 
ATOM     86  O   UNL A   1      42.961  22.310  24.961  1.00  0.00    -0.237 OA
ATOM     87  O   UNL A   1      42.967  22.174  27.423  1.00  0.00    -0.237 OA
ATOM     88  O   UNL A   1      40.847  22.483  26.216  1.00  0.00    -0.744 OA
ENDBRANCH  82  85
ENDBRANCH  54  78
BRANCH  66  89
ATOM     89  C   UNL A   1      44.603  27.363  33.996  1.00  0.00     0.023 A 
ATOM     90  C   UNL A   1      45.809  28.087  34.069  1.00  0.00     0.012 A 
ATOM     91  C   UNL A   1      44.444  26.193  34.764  1.00  0.00     0.148 A 
ATOM     92  C   UNL A   1      46.843  27.652  34.896  1.00  0.00     0.002 A 
ATOM     93  C   UNL A   1      45.466  25.785  35.612  1.00  0.00     0.091 A 
ATOM     94  F   UNL A   1      43.288  25.520  34.668  1.00  0.00    -0.205 F 
ATOM     95  C   UNL A   1      46.667  26.511  35.676  1.00  0.00     0.022 A 
BRANCH  93  96
ATOM     96  S   UNL A   1      45.310  24.374  36.712  1.00  0.00     0.127 S 
ATOM     97  O   UNL A   1      45.159  23.272  35.764  1.00  0.00    -0.237 OA
ATOM     98  O   UNL A   1      46.587  24.398  37.425  1.00  0.00    -0.237 OA
ATOM     99  O   UNL A   1      44.142  24.637  37.544  1.00  0.00    -0.744 OA
ENDBRANCH  93  96
ENDBRANCH  66  89
ENDBRANCH  40  41
ENDBRANCH  33  35
ENDBRANCH  32  33
ENDBRANCH  31  32
ENDBRANCH  30  31
ENDBRANCH  29  30
ENDBRANCH  28  29
ENDBRANCH   1  28
TORSDOF 24
ENDMDL
MODEL 3
REMARK VINA RESULT:     -10.7      2.152      3.064
REMARK SMILES O=C(Cn1c2ccccc2c(=O)c2cc(F)ccc21)OCCOCCOCCOCCOC(=O)c1ccc(-c2c3nc(c(-c4cccc(S(=O)(=O)[O-])c4F)c4ccc([nH]4)c(-c4cccc(S(=O)(=O)[O-])c4F)c4nc(c(-c5cccc(S(=O)(=O)[O-])c5F)c5ccc2[nH]5)C=C4)C=C3)cc1
REMARK SMILES IDX 27 1 26 2 25 3 24 4 23 5 22 6 21 7 20 8 2 9 1 10 3 11 4 12
REMARK SMILES IDX 5 13 19 14 6 15 10 16 13 17 18 18 7 19 9 20 11 21 14 22
REMARK SMILES IDX 17 23 8 24 12 25 15 26 16 27 28 28 29 29 30 30 31 31 32 32
REMARK SMILES IDX 33 33 34 34 35 35 36 36 97 37 37 38 96 39 38 40 39 41 40 42
REMARK SMILES IDX 90 43 41 44 95 45 89 46 91 47 42 48 94 49 88 50 87 51 43 53
REMARK SMILES IDX 75 54 55 55 74 56 56 57 59 58 73 59 92 60 57 61 58 62 72 64
REMARK SMILES IDX 93 65 60 66 44 67 45 68 53 69 46 70 48 71 54 72 47 73 49 74
REMARK SMILES IDX 50 75 51 76 52 77 76 78 77 79 85 80 78 81 80 82 86 83 79 84
REMARK SMILES IDX 81 85 82 86 83 87 84 88 61 89 62 90 70 91 63 92 65 93 71 94
REMARK SMILES IDX 64 95 66 96 67 97 68 98 69 99
REMARK H PARENT 91 52 59 63
REMARK Flexibility Score: inf
ROOT
ATOM      1  C   UNL A   1      33.392  27.503  23.464  1.00  0.00     0.188 C 
ENDROOT
BRANCH   1   2
ATOM      2  O   UNL A   1      32.851  26.592  22.519  1.00  0.00    -0.377 OA
BRANCH   2   3
ATOM      3  C   UNL A   1      31.703  25.887  22.979  1.00  0.00     0.188 C 
BRANCH   3   4
ATOM      4  C   UNL A   1      31.707  25.629  24.492  1.00  0.00     0.188 C 
BRANCH   4   5
ATOM      5  O   UNL A   1      30.557  26.128  25.156  1.00  0.00    -0.376 OA
BRANCH   5   6
ATOM      6  C   UNL A   1      30.000  25.475  26.281  1.00  0.00     0.202 C 
BRANCH   6   7
ATOM      7  C   UNL A   1      30.046  23.956  26.378  1.00  0.00     0.261 C 
BRANCH   7   8
ATOM      8  O   UNL A   1      31.042  23.378  27.249  1.00  0.00    -0.462 OA
BRANCH   8   9
ATOM      9  C   UNL A   1      32.178  22.714  26.993  1.00  0.00     0.326 C 
ATOM     10  O   UNL A   1      32.901  22.404  27.945  1.00  0.00    -0.250 OA
BRANCH   9  11
ATOM     11  C   UNL A   1      32.658  22.425  25.587  1.00  0.00     0.245 C 
BRANCH  11  12
ATOM     12  N   UNL A   1      33.872  21.610  25.366  1.00  0.00    -0.329 N 
ATOM     13  C   UNL A   1      33.757  20.212  25.153  1.00  0.00     0.053 A 
ATOM     14  C   UNL A   1      35.137  22.256  25.512  1.00  0.00     0.053 A 
ATOM     15  C   UNL A   1      32.540  19.509  25.124  1.00  0.00     0.027 A 
ATOM     16  C   UNL A   1      34.907  19.463  24.852  1.00  0.00     0.046 A 
ATOM     17  C   UNL A   1      36.320  21.498  25.406  1.00  0.00     0.049 A 
ATOM     18  C   UNL A   1      35.311  23.643  25.725  1.00  0.00     0.030 A 
ATOM     19  C   UNL A   1      32.450  18.212  24.603  1.00  0.00     0.002 A 
ATOM     20  C   UNL A   1      34.831  18.154  24.354  1.00  0.00     0.014 A 
ATOM     21  C   UNL A   1      36.235  20.066  25.068  1.00  0.00     0.197 A 
ATOM     22  C   UNL A   1      37.594  22.066  25.572  1.00  0.00     0.053 A 
ATOM     23  C   UNL A   1      36.582  24.223  25.850  1.00  0.00     0.041 A 
ATOM     24  C   UNL A   1      33.592  17.548  24.183  1.00  0.00     0.001 A 
ATOM     25  O   UNL A   1      37.254  19.390  24.979  1.00  0.00    -0.288 OA
ATOM     26  C   UNL A   1      37.709  23.425  25.794  1.00  0.00     0.124 A 
ATOM     27  F   UNL A   1      38.920  23.979  25.941  1.00  0.00    -0.207 F 
ENDBRANCH  11  12
ENDBRANCH   9  11
ENDBRANCH   8   9
ENDBRANCH   7   8
ENDBRANCH   6   7
ENDBRANCH   5   6
ENDBRANCH   4   5
ENDBRANCH   3   4
ENDBRANCH   2   3
ENDBRANCH   1   2
BRANCH   1  28
ATOM     28  C   UNL A   1      32.865  28.956  23.388  1.00  0.00     0.188 C 
BRANCH  28  29
ATOM     29  O   UNL A   1      31.622  29.351  23.957  1.00  0.00    -0.376 OA
BRANCH  29  30
ATOM     30  C   UNL A   1      31.451  29.417  25.361  1.00  0.00     0.202 C 
BRANCH  30  31
ATOM     31  C   UNL A   1      32.036  30.591  26.153  1.00  0.00     0.261 C 
BRANCH  31  32
ATOM     32  O   UNL A   1      33.390  30.419  26.579  1.00  0.00    -0.460 OA
BRANCH  32  33
ATOM     33  C   UNL A   1      33.880  31.399  27.377  1.00  0.00     0.338 C 
ATOM     34  O   UNL A   1      33.274  32.366  27.809  1.00  0.00    -0.246 OA
BRANCH  33  35
ATOM     35  C   UNL A   1      35.235  31.010  27.822  1.00  0.00     0.060 A 
ATOM     36  C   UNL A   1      36.213  31.973  28.087  1.00  0.00     0.016 A 
ATOM     37  C   UNL A   1      35.536  29.644  27.930  1.00  0.00     0.016 A 
ATOM     38  C   UNL A   1      37.480  31.566  28.506  1.00  0.00     0.010 A 
ATOM     39  C   UNL A   1      36.807  29.238  28.331  1.00  0.00     0.010 A 
ATOM     40  C   UNL A   1      37.774  30.199  28.658  1.00  0.00    -0.014 A 
BRANCH  40  41
ATOM     41  C   UNL A   1      38.984  29.801  29.409  1.00  0.00     0.031 A 
ATOM     42  C   UNL A   1      39.312  30.339  30.764  1.00  0.00     0.074 A 
ATOM     43  C   UNL A   1      39.812  28.928  28.803  1.00  0.00     0.049 A 
ATOM     44  N   UNL A   1      40.262  29.958  31.578  1.00  0.00    -0.248 NA
ATOM     45  C   UNL A   1      38.486  31.443  31.271  1.00  0.00     0.031 C 
ATOM     46  C   UNL A   1      39.621  28.406  27.446  1.00  0.00     0.029 A 
ATOM     47  N   UNL A   1      40.963  28.328  29.235  1.00  0.00    -0.354 N 
ATOM     48  C   UNL A   1      40.155  30.773  32.696  1.00  0.00     0.074 A 
ATOM     49  C   UNL A   1      39.056  31.684  32.448  1.00  0.00     0.031 C 
ATOM     50  C   UNL A   1      40.607  27.543  27.167  1.00  0.00     0.029 A 
ATOM     51  C   UNL A   1      41.498  27.455  28.320  1.00  0.00     0.049 A 
ATOM     52  H   UNL A   1      41.367  28.505  30.115  1.00  0.00     0.167 HD
ATOM     53  C   UNL A   1      40.897  30.739  33.829  1.00  0.00     0.034 A 
ATOM     54  C   UNL A   1      42.573  26.650  28.404  1.00  0.00     0.034 A 
ATOM     55  C   UNL A   1      41.980  29.819  34.060  1.00  0.00     0.049 A 
ATOM     56  C   UNL A   1      43.353  26.606  29.682  1.00  0.00     0.074 A 
ATOM     57  C   UNL A   1      42.732  29.652  35.210  1.00  0.00     0.029 A 
ATOM     58  N   UNL A   1      42.480  28.927  33.123  1.00  0.00    -0.354 N 
ATOM     59  N   UNL A   1      43.132  27.259  30.797  1.00  0.00    -0.248 NA
ATOM     60  C   UNL A   1      44.505  25.697  29.730  1.00  0.00     0.031 C 
ATOM     61  C   UNL A   1      43.699  28.672  34.963  1.00  0.00     0.029 A 
ATOM     62  C   UNL A   1      43.540  28.218  33.663  1.00  0.00     0.049 A 
ATOM     63  H   UNL A   1      42.132  28.815  32.209  1.00  0.00     0.167 HD
ATOM     64  C   UNL A   1      44.105  26.829  31.687  1.00  0.00     0.074 A 
ATOM     65  C   UNL A   1      44.911  25.849  30.986  1.00  0.00     0.031 C 
ATOM     66  C   UNL A   1      44.314  27.222  32.967  1.00  0.00     0.034 A 
BRANCH  53  67
ATOM     67  C   UNL A   1      40.532  31.678  34.945  1.00  0.00     0.023 A 
ATOM     68  C   UNL A   1      41.169  32.932  35.018  1.00  0.00     0.012 A 
ATOM     69  C   UNL A   1      39.489  31.376  35.842  1.00  0.00     0.148 A 
ATOM     70  C   UNL A   1      40.780  33.871  35.972  1.00  0.00     0.002 A 
ATOM     71  C   UNL A   1      39.090  32.326  36.775  1.00  0.00     0.091 A 
ATOM     72  F   UNL A   1      38.904  30.172  35.760  1.00  0.00    -0.205 F 
ATOM     73  C   UNL A   1      39.736  33.572  36.843  1.00  0.00     0.022 A 
BRANCH  71  74
ATOM     74  S   UNL A   1      37.725  32.063  37.913  1.00  0.00     0.127 S 
ATOM     75  O   UNL A   1      37.385  30.666  37.644  1.00  0.00    -0.237 OA
ATOM     76  O   UNL A   1      38.357  32.297  39.212  1.00  0.00    -0.237 OA
ATOM     77  O   UNL A   1      36.702  33.032  37.547  1.00  0.00    -0.744 OA
ENDBRANCH  71  74
ENDBRANCH  53  67
BRANCH  54  78
ATOM     78  C   UNL A   1      42.879  25.753  27.260  1.00  0.00     0.023 A 
ATOM     79  C   UNL A   1      43.755  26.203  26.256  1.00  0.00     0.012 A 
ATOM     80  C   UNL A   1      42.417  24.423  27.237  1.00  0.00     0.148 A 
ATOM     81  C   UNL A   1      44.166  25.341  25.240  1.00  0.00     0.002 A 
ATOM     82  C   UNL A   1      42.860  23.559  26.244  1.00  0.00     0.091 A 
ATOM     83  F   UNL A   1      41.595  24.022  28.217  1.00  0.00    -0.205 F 
ATOM     84  C   UNL A   1      43.729  24.018  25.240  1.00  0.00     0.022 A 
BRANCH  82  85
ATOM     85  S   UNL A   1      42.440  21.814  26.218  1.00  0.00     0.127 S 
ATOM     86  O   UNL A   1      43.330  21.309  25.175  1.00  0.00    -0.237 OA
ATOM     87  O   UNL A   1      42.791  21.405  27.578  1.00  0.00    -0.237 OA
ATOM     88  O   UNL A   1      41.020  21.750  25.908  1.00  0.00    -0.744 OA
ENDBRANCH  82  85
ENDBRANCH  54  78
BRANCH  66  89
ATOM     89  C   UNL A   1      45.463  26.605  33.714  1.00  0.00     0.023 A 
ATOM     90  C   UNL A   1      45.253  25.419  34.442  1.00  0.00     0.012 A 
ATOM     91  C   UNL A   1      46.768  27.121  33.581  1.00  0.00     0.148 A 
ATOM     92  C   UNL A   1      46.326  24.754  35.032  1.00  0.00     0.002 A 
ATOM     93  C   UNL A   1      47.837  26.434  34.142  1.00  0.00     0.091 A 
ATOM     94  F   UNL A   1      46.937  28.256  32.888  1.00  0.00    -0.205 F 
ATOM     95  C   UNL A   1      47.617  25.252  34.871  1.00  0.00     0.022 A 
BRANCH  93  96
ATOM     96  S   UNL A   1      49.543  26.950  33.928  1.00  0.00     0.127 S 
ATOM     97  O   UNL A   1      49.557  28.233  34.630  1.00  0.00    -0.237 OA
ATOM     98  O   UNL A   1      50.276  25.878  34.600  1.00  0.00    -0.237 OA
ATOM     99  O   UNL A   1      49.765  27.032  32.490  1.00  0.00    -0.744 OA
ENDBRANCH  93  96
ENDBRANCH  66  89
ENDBRANCH  40  41
ENDBRANCH  33  35
ENDBRANCH  32  33
ENDBRANCH  31  32
ENDBRANCH  30  31
ENDBRANCH  29  30
ENDBRANCH  28  29
ENDBRANCH   1  28
TORSDOF 24
ENDMDL
