MODEL 1
REMARK VINA RESULT:      -8.2      0.000      0.000
REMARK SMILES CC[C@@H](C)c1ccc(NC(=O)[C@@H]2[C@@H](C(=O)OCCOCCOCCOCCOC(=O)c3ccc(-c4c5nc(c(-c6cccc(S(=O)(=O)[O-])c6F)c6ccc([nH]6)c(-c6cccc(S(=O)(=O)[O-])c6F)c6nc(c(-c7cccc(S(=O)(=O)[O-])c7F)c7ccc4[nH]7)C=C6)C=C5)cc3)[C@@H]3C=C[C@H]2C3)cc1
REMARK SMILES IDX 21 1 20 2 19 3 18 4 17 5 16 6 14 7 15 8 13 9 12 10 97 11
REMARK SMILES IDX 94 12 96 13 98 14 95 15 10 16 9 17 11 19 8 20 5 21 6 22
REMARK SMILES IDX 100 23 7 24 99 25 3 26 4 27 2 28 1 29 22 30 23 31 24 32
REMARK SMILES IDX 25 33 26 34 27 35 28 36 29 37 30 38 31 39 32 40 93 41 33 42
REMARK SMILES IDX 92 43 34 44 35 45 36 46 86 47 37 48 91 49 85 50 87 51 38 52
REMARK SMILES IDX 90 53 84 54 83 55 39 57 71 58 51 59 70 60 52 61 55 62 69 63
REMARK SMILES IDX 88 64 53 65 54 66 68 68 89 69 56 70 40 71 41 72 49 73 42 74
REMARK SMILES IDX 44 75 50 76 43 77 45 78 46 79 47 80 48 81 72 82 73 83 81 84
REMARK SMILES IDX 74 85 76 86 82 87 75 88 77 89 78 90 79 91 80 92 57 93 58 94
REMARK SMILES IDX 66 95 59 96 61 97 67 98 60 99 62 100 63 101 64 102 65 103
REMARK H PARENT 9 18 87 56 55 67
REMARK Flexibility Score: inf
ROOT
ATOM      1  C   UNL A   1      41.410  22.003  26.689  1.00  0.00     0.188 C 
ENDROOT
BRANCH   1   2
ATOM      2  C   UNL A   1      41.784  23.375  27.265  1.00  0.00     0.188 C 
BRANCH   2   3
ATOM      3  O   UNL A   1      41.031  24.518  26.903  1.00  0.00    -0.376 OA
BRANCH   3   4
ATOM      4  C   UNL A   1      41.227  25.777  27.540  1.00  0.00     0.202 C 
BRANCH   4   5
ATOM      5  C   UNL A   1      40.441  26.266  28.767  1.00  0.00     0.261 C 
BRANCH   5   6
ATOM      6  O   UNL A   1      41.131  27.191  29.617  1.00  0.00    -0.463 OA
BRANCH   6   7
ATOM      7  C   UNL A   1      40.775  28.481  29.456  1.00  0.00     0.310 C 
ATOM      8  O   UNL A   1      41.260  29.233  28.612  1.00  0.00    -0.252 OA
BRANCH   7   9
ATOM      9  C   UNL A   1      39.578  28.925  30.271  1.00  0.00     0.119 C 
ATOM     10  C   UNL A   1      39.960  30.278  30.934  1.00  0.00     0.100 C 
ATOM     11  C   UNL A   1      39.621  30.039  32.434  1.00  0.00     0.025 C 
ATOM     12  C   UNL A   1      39.059  28.089  31.492  1.00  0.00     0.027 C 
ATOM     13  C   UNL A   1      38.137  29.894  32.623  1.00  0.00    -0.027 C 
ATOM     14  C   UNL A   1      39.996  28.549  32.598  1.00  0.00     0.017 C 
ATOM     15  C   UNL A   1      37.794  28.709  32.090  1.00  0.00    -0.027 C 
BRANCH  10  16
ATOM     16  C   UNL A   1      39.633  31.672  30.339  1.00  0.00     0.228 C 
ATOM     17  N   UNL A   1      38.620  32.095  29.523  1.00  0.00    -0.326 N 
ATOM     18  H   UNL A   1      38.770  33.011  29.197  1.00  0.00     0.169 HD
ATOM     19  O   UNL A   1      40.430  32.585  30.632  1.00  0.00    -0.274 OA
BRANCH  17  20
ATOM     20  C   UNL A   1      37.420  31.555  29.031  1.00  0.00     0.041 A 
ATOM     21  C   UNL A   1      35.056  30.386  27.908  1.00  0.00    -0.045 A 
ATOM     22  C   UNL A   1      36.322  29.997  27.519  1.00  0.00     0.006 A 
ATOM     23  C   UNL A   1      34.985  31.385  28.901  1.00  0.00     0.006 A 
ATOM     24  C   UNL A   1      37.431  30.511  28.156  1.00  0.00     0.026 A 
ATOM     25  C   UNL A   1      36.159  31.985  29.439  1.00  0.00     0.026 A 
BRANCH  21  26
ATOM     26  C   UNL A   1      33.847  29.641  27.347  1.00  0.00     0.016 C 
ATOM     27  C   UNL A   1      34.203  28.248  26.769  1.00  0.00     0.013 C 
BRANCH  26  28
ATOM     28  C   UNL A   1      33.093  30.475  26.295  1.00  0.00     0.004 C 
ATOM     29  C   UNL A   1      31.744  29.867  25.922  1.00  0.00     0.004 C 
ENDBRANCH  26  28
ENDBRANCH  21  26
ENDBRANCH  17  20
ENDBRANCH  10  16
ENDBRANCH   7   9
ENDBRANCH   6   7
ENDBRANCH   5   6
ENDBRANCH   4   5
ENDBRANCH   3   4
ENDBRANCH   2   3
ENDBRANCH   1   2
BRANCH   1  30
ATOM     30  O   UNL A   1      42.009  20.888  27.308  1.00  0.00    -0.377 OA
BRANCH  30  31
ATOM     31  C   UNL A   1      41.602  19.564  27.001  1.00  0.00     0.188 C 
BRANCH  31  32
ATOM     32  C   UNL A   1      42.586  18.557  26.380  1.00  0.00     0.188 C 
BRANCH  32  33
ATOM     33  O   UNL A   1      43.069  18.913  25.096  1.00  0.00    -0.376 OA
BRANCH  33  34
ATOM     34  C   UNL A   1      44.367  19.480  25.003  1.00  0.00     0.202 C 
BRANCH  34  35
ATOM     35  C   UNL A   1      44.467  20.997  24.779  1.00  0.00     0.261 C 
BRANCH  35  36
ATOM     36  O   UNL A   1      45.338  21.727  25.659  1.00  0.00    -0.460 OA
BRANCH  36  37
ATOM     37  C   UNL A   1      46.103  22.710  25.134  1.00  0.00     0.338 C 
ATOM     38  O   UNL A   1      46.760  22.661  24.116  1.00  0.00    -0.246 OA
BRANCH  37  39
ATOM     39  C   UNL A   1      45.844  23.944  25.910  1.00  0.00     0.060 A 
ATOM     40  C   UNL A   1      46.716  24.281  26.955  1.00  0.00     0.016 A 
ATOM     41  C   UNL A   1      44.749  24.758  25.614  1.00  0.00     0.016 A 
ATOM     42  C   UNL A   1      46.468  25.409  27.737  1.00  0.00     0.010 A 
ATOM     43  C   UNL A   1      44.490  25.876  26.413  1.00  0.00     0.010 A 
ATOM     44  C   UNL A   1      45.325  26.185  27.502  1.00  0.00    -0.014 A 
BRANCH  44  45
ATOM     45  C   UNL A   1      44.894  27.184  28.510  1.00  0.00     0.031 A 
ATOM     46  C   UNL A   1      44.940  28.641  28.134  1.00  0.00     0.074 A 
ATOM     47  C   UNL A   1      44.469  26.816  29.731  1.00  0.00     0.049 A 
ATOM     48  N   UNL A   1      44.659  29.694  28.855  1.00  0.00    -0.248 NA
ATOM     49  C   UNL A   1      45.367  28.951  26.758  1.00  0.00     0.031 C 
ATOM     50  C   UNL A   1      44.364  25.440  30.213  1.00  0.00     0.029 A 
ATOM     51  N   UNL A   1      44.073  27.580  30.802  1.00  0.00    -0.354 N 
ATOM     52  C   UNL A   1      44.908  30.790  28.037  1.00  0.00     0.074 A 
ATOM     53  C   UNL A   1      45.369  30.275  26.766  1.00  0.00     0.031 C 
ATOM     54  C   UNL A   1      43.965  25.458  31.497  1.00  0.00     0.029 A 
ATOM     55  C   UNL A   1      43.814  26.846  31.936  1.00  0.00     0.049 A 
ATOM     56  H   UNL A   1      43.984  28.559  30.762  1.00  0.00     0.167 HD
ATOM     57  C   UNL A   1      44.761  32.106  28.313  1.00  0.00     0.034 A 
ATOM     58  C   UNL A   1      43.522  27.250  33.189  1.00  0.00     0.034 A 
ATOM     59  C   UNL A   1      44.291  32.617  29.571  1.00  0.00     0.049 A 
ATOM     60  C   UNL A   1      43.395  28.724  33.481  1.00  0.00     0.074 A 
ATOM     61  C   UNL A   1      44.057  33.932  29.929  1.00  0.00     0.029 A 
ATOM     62  N   UNL A   1      44.004  31.842  30.684  1.00  0.00    -0.354 N 
ATOM     63  N   UNL A   1      43.521  29.743  32.665  1.00  0.00    -0.248 NA
ATOM     64  C   UNL A   1      43.056  29.103  34.861  1.00  0.00     0.031 C 
ATOM     65  C   UNL A   1      43.671  33.956  31.274  1.00  0.00     0.029 A 
ATOM     66  C   UNL A   1      43.615  32.651  31.736  1.00  0.00     0.049 A 
ATOM     67  H   UNL A   1      44.067  30.860  30.718  1.00  0.00     0.167 HD
ATOM     68  C   UNL A   1      43.235  30.876  33.421  1.00  0.00     0.074 A 
ATOM     69  C   UNL A   1      42.914  30.418  34.756  1.00  0.00     0.031 C 
ATOM     70  C   UNL A   1      43.247  32.180  33.047  1.00  0.00     0.034 A 
BRANCH  57  71
ATOM     71  C   UNL A   1      45.115  33.093  27.232  1.00  0.00     0.023 A 
ATOM     72  C   UNL A   1      44.131  33.523  26.319  1.00  0.00     0.012 A 
ATOM     73  C   UNL A   1      46.412  33.637  27.158  1.00  0.00     0.148 A 
ATOM     74  C   UNL A   1      44.441  34.454  25.328  1.00  0.00     0.002 A 
ATOM     75  C   UNL A   1      46.701  34.600  26.200  1.00  0.00     0.091 A 
ATOM     76  F   UNL A   1      47.339  33.197  28.021  1.00  0.00    -0.205 F 
ATOM     77  C   UNL A   1      45.722  35.000  25.277  1.00  0.00     0.022 A 
BRANCH  75  78
ATOM     78  S   UNL A   1      48.294  35.423  26.104  1.00  0.00     0.127 S 
ATOM     79  O   UNL A   1      48.982  34.616  25.098  1.00  0.00    -0.237 OA
ATOM     80  O   UNL A   1      47.919  36.765  25.657  1.00  0.00    -0.237 OA
ATOM     81  O   UNL A   1      48.860  35.363  27.444  1.00  0.00    -0.744 OA
ENDBRANCH  75  78
ENDBRANCH  57  71
BRANCH  58  82
ATOM     82  C   UNL A   1      43.318  26.245  34.271  1.00  0.00     0.023 A 
ATOM     83  C   UNL A   1      42.011  25.892  34.663  1.00  0.00     0.012 A 
ATOM     84  C   UNL A   1      44.414  25.643  34.920  1.00  0.00     0.148 A 
ATOM     85  C   UNL A   1      41.801  24.987  35.704  1.00  0.00     0.002 A 
ATOM     86  C   UNL A   1      44.197  24.700  35.917  1.00  0.00     0.091 A 
ATOM     87  F   UNL A   1      45.649  26.006  34.546  1.00  0.00    -0.205 F 
ATOM     88  C   UNL A   1      42.892  24.384  36.324  1.00  0.00     0.022 A 
BRANCH  86  89
ATOM     89  S   UNL A   1      45.538  23.782  36.682  1.00  0.00     0.127 S 
ATOM     90  O   UNL A   1      45.235  23.940  38.102  1.00  0.00    -0.237 OA
ATOM     91  O   UNL A   1      45.319  22.436  36.149  1.00  0.00    -0.237 OA
ATOM     92  O   UNL A   1      46.764  24.419  36.223  1.00  0.00    -0.744 OA
ENDBRANCH  86  89
ENDBRANCH  58  82
BRANCH  70  93
ATOM     93  C   UNL A   1      42.848  33.213  34.070  1.00  0.00     0.023 A 
ATOM     94  C   UNL A   1      43.834  33.915  34.790  1.00  0.00     0.012 A 
ATOM     95  C   UNL A   1      41.490  33.541  34.259  1.00  0.00     0.148 A 
ATOM     96  C   UNL A   1      43.473  34.901  35.709  1.00  0.00     0.002 A 
ATOM     97  C   UNL A   1      41.141  34.562  35.134  1.00  0.00     0.091 A 
ATOM     98  F   UNL A   1      40.566  32.852  33.575  1.00  0.00    -0.205 F 
ATOM     99  C   UNL A   1      42.130  35.233  35.871  1.00  0.00     0.022 A 
BRANCH  97 100
ATOM    100  S   UNL A   1      39.447  35.126  35.331  1.00  0.00     0.127 S 
ATOM    101  O   UNL A   1      38.897  34.109  36.226  1.00  0.00    -0.237 OA
ATOM    102  O   UNL A   1      39.629  36.442  35.944  1.00  0.00    -0.237 OA
ATOM    103  O   UNL A   1      38.873  35.155  33.993  1.00  0.00    -0.744 OA
ENDBRANCH  97 100
ENDBRANCH  70  93
ENDBRANCH  44  45
ENDBRANCH  37  39
ENDBRANCH  36  37
ENDBRANCH  35  36
ENDBRANCH  34  35
ENDBRANCH  33  34
ENDBRANCH  32  33
ENDBRANCH  31  32
ENDBRANCH  30  31
ENDBRANCH   1  30
TORSDOF 27
ENDMDL
MODEL 2
REMARK VINA RESULT:      -8.1      4.133      6.930
REMARK SMILES CC[C@@H](C)c1ccc(NC(=O)[C@@H]2[C@@H](C(=O)OCCOCCOCCOCCOC(=O)c3ccc(-c4c5nc(c(-c6cccc(S(=O)(=O)[O-])c6F)c6ccc([nH]6)c(-c6cccc(S(=O)(=O)[O-])c6F)c6nc(c(-c7cccc(S(=O)(=O)[O-])c7F)c7ccc4[nH]7)C=C6)C=C5)cc3)[C@@H]3C=C[C@H]2C3)cc1
REMARK SMILES IDX 21 1 20 2 19 3 18 4 17 5 16 6 14 7 15 8 13 9 12 10 97 11
REMARK SMILES IDX 94 12 96 13 98 14 95 15 10 16 9 17 11 19 8 20 5 21 6 22
REMARK SMILES IDX 100 23 7 24 99 25 3 26 4 27 2 28 1 29 22 30 23 31 24 32
REMARK SMILES IDX 25 33 26 34 27 35 28 36 29 37 30 38 31 39 32 40 93 41 33 42
REMARK SMILES IDX 92 43 34 44 35 45 36 46 86 47 37 48 91 49 85 50 87 51 38 52
REMARK SMILES IDX 90 53 84 54 83 55 39 57 71 58 51 59 70 60 52 61 55 62 69 63
REMARK SMILES IDX 88 64 53 65 54 66 68 68 89 69 56 70 40 71 41 72 49 73 42 74
REMARK SMILES IDX 44 75 50 76 43 77 45 78 46 79 47 80 48 81 72 82 73 83 81 84
REMARK SMILES IDX 74 85 76 86 82 87 75 88 77 89 78 90 79 91 80 92 57 93 58 94
REMARK SMILES IDX 66 95 59 96 61 97 67 98 60 99 62 100 63 101 64 102 65 103
REMARK H PARENT 9 18 87 56 55 67
REMARK Flexibility Score: inf
ROOT
ATOM      1  C   UNL A   1      40.945  19.665  26.226  1.00  0.00     0.188 C 
ENDROOT
BRANCH   1   2
ATOM      2  C   UNL A   1      40.438  21.113  26.229  1.00  0.00     0.188 C 
BRANCH   2   3
ATOM      3  O   UNL A   1      39.048  21.372  26.286  1.00  0.00    -0.376 OA
BRANCH   3   4
ATOM      4  C   UNL A   1      38.494  22.601  25.827  1.00  0.00     0.202 C 
BRANCH   4   5
ATOM      5  C   UNL A   1      37.125  22.739  25.141  1.00  0.00     0.261 C 
BRANCH   5   6
ATOM      6  O   UNL A   1      36.255  23.738  25.689  1.00  0.00    -0.463 OA
BRANCH   6   7
ATOM      7  C   UNL A   1      34.996  23.322  25.930  1.00  0.00     0.310 C 
ATOM      8  O   UNL A   1      34.675  22.592  26.867  1.00  0.00    -0.252 OA
BRANCH   7   9
ATOM      9  C   UNL A   1      33.929  23.968  25.071  1.00  0.00     0.119 C 
ATOM     10  C   UNL A   1      32.569  23.351  25.501  1.00  0.00     0.100 C 
ATOM     11  C   UNL A   1      31.952  22.889  24.149  1.00  0.00     0.025 C 
ATOM     12  C   UNL A   1      33.903  23.781  23.514  1.00  0.00     0.027 C 
ATOM     13  C   UNL A   1      31.613  24.076  23.291  1.00  0.00    -0.027 C 
ATOM     14  C   UNL A   1      33.212  22.434  23.379  1.00  0.00     0.017 C 
ATOM     15  C   UNL A   1      32.779  24.599  22.876  1.00  0.00    -0.027 C 
BRANCH  10  16
ATOM     16  C   UNL A   1      31.611  23.977  26.548  1.00  0.00     0.228 C 
ATOM     17  N   UNL A   1      30.850  25.113  26.515  1.00  0.00    -0.326 N 
ATOM     18  H   UNL A   1      30.462  25.320  27.396  1.00  0.00     0.169 HD
ATOM     19  O   UNL A   1      31.511  23.359  27.626  1.00  0.00    -0.274 OA
BRANCH  17  20
ATOM     20  C   UNL A   1      30.480  26.060  25.546  1.00  0.00     0.041 A 
ATOM     21  C   UNL A   1      29.620  27.889  23.513  1.00  0.00    -0.045 A 
ATOM     22  C   UNL A   1      28.902  26.752  23.829  1.00  0.00     0.006 A 
ATOM     23  C   UNL A   1      30.798  28.112  24.256  1.00  0.00     0.006 A 
ATOM     24  C   UNL A   1      29.296  25.954  24.881  1.00  0.00     0.026 A 
ATOM     25  C   UNL A   1      31.240  27.190  25.247  1.00  0.00     0.026 A 
BRANCH  21  26
ATOM     26  C   UNL A   1      29.042  28.872  22.498  1.00  0.00     0.016 C 
ATOM     27  C   UNL A   1      30.051  29.965  22.063  1.00  0.00     0.013 C 
BRANCH  26  28
ATOM     28  C   UNL A   1      27.741  29.523  23.001  1.00  0.00     0.004 C 
ATOM     29  C   UNL A   1      27.944  30.964  23.460  1.00  0.00     0.004 C 
ENDBRANCH  26  28
ENDBRANCH  21  26
ENDBRANCH  17  20
ENDBRANCH  10  16
ENDBRANCH   7   9
ENDBRANCH   6   7
ENDBRANCH   5   6
ENDBRANCH   4   5
ENDBRANCH   3   4
ENDBRANCH   2   3
ENDBRANCH   1   2
BRANCH   1  30
ATOM     30  O   UNL A   1      42.322  19.490  26.461  1.00  0.00    -0.377 OA
BRANCH  30  31
ATOM     31  C   UNL A   1      43.272  19.601  25.413  1.00  0.00     0.188 C 
BRANCH  31  32
ATOM     32  C   UNL A   1      44.280  20.763  25.377  1.00  0.00     0.188 C 
BRANCH  32  33
ATOM     33  O   UNL A   1      43.698  22.051  25.261  1.00  0.00    -0.376 OA
BRANCH  33  34
ATOM     34  C   UNL A   1      44.451  23.069  24.621  1.00  0.00     0.202 C 
BRANCH  34  35
ATOM     35  C   UNL A   1      44.847  24.295  25.458  1.00  0.00     0.261 C 
BRANCH  35  36
ATOM     36  O   UNL A   1      44.207  25.539  25.130  1.00  0.00    -0.460 OA
BRANCH  36  37
ATOM     37  C   UNL A   1      42.937  25.738  25.552  1.00  0.00     0.338 C 
ATOM     38  O   UNL A   1      41.919  25.377  25.002  1.00  0.00    -0.246 OA
BRANCH  37  39
ATOM     39  C   UNL A   1      43.002  26.302  26.919  1.00  0.00     0.060 A 
ATOM     40  C   UNL A   1      42.196  25.742  27.921  1.00  0.00     0.016 A 
ATOM     41  C   UNL A   1      43.846  27.376  27.210  1.00  0.00     0.016 A 
ATOM     42  C   UNL A   1      42.198  26.286  29.205  1.00  0.00     0.010 A 
ATOM     43  C   UNL A   1      43.830  27.933  28.492  1.00  0.00     0.010 A 
ATOM     44  C   UNL A   1      42.977  27.416  29.485  1.00  0.00    -0.014 A 
BRANCH  44  45
ATOM     45  C   UNL A   1      42.748  28.177  30.738  1.00  0.00     0.031 A 
ATOM     46  C   UNL A   1      41.733  29.289  30.719  1.00  0.00     0.074 A 
ATOM     47  C   UNL A   1      43.417  27.894  31.868  1.00  0.00     0.049 A 
ATOM     48  N   UNL A   1      41.394  30.119  31.670  1.00  0.00    -0.248 NA
ATOM     49  C   UNL A   1      41.007  29.496  29.453  1.00  0.00     0.031 C 
ATOM     50  C   UNL A   1      44.413  26.835  32.020  1.00  0.00     0.029 A 
ATOM     51  N   UNL A   1      43.377  28.500  33.101  1.00  0.00    -0.354 N 
ATOM     52  C   UNL A   1      40.445  30.967  31.111  1.00  0.00     0.074 A 
ATOM     53  C   UNL A   1      40.266  30.557  29.735  1.00  0.00     0.031 C 
ATOM     54  C   UNL A   1      44.916  26.887  33.266  1.00  0.00     0.029 A 
ATOM     55  C   UNL A   1      44.300  28.000  33.989  1.00  0.00     0.049 A 
ATOM     56  H   UNL A   1      42.749  29.223  33.326  1.00  0.00     0.167 HD
ATOM     57  C   UNL A   1      39.777  31.992  31.689  1.00  0.00     0.034 A 
ATOM     58  C   UNL A   1      44.630  28.415  35.230  1.00  0.00     0.034 A 
ATOM     59  C   UNL A   1      39.945  32.392  33.058  1.00  0.00     0.049 A 
ATOM     60  C   UNL A   1      43.894  29.580  35.841  1.00  0.00     0.074 A 
ATOM     61  C   UNL A   1      39.274  33.384  33.751  1.00  0.00     0.029 A 
ATOM     62  N   UNL A   1      40.862  31.840  33.938  1.00  0.00    -0.354 N 
ATOM     63  N   UNL A   1      42.917  30.297  35.339  1.00  0.00    -0.248 NA
ATOM     64  C   UNL A   1      44.284  29.975  37.203  1.00  0.00     0.031 C 
ATOM     65  C   UNL A   1      39.817  33.461  35.038  1.00  0.00     0.029 A 
ATOM     66  C   UNL A   1      40.790  32.482  35.161  1.00  0.00     0.049 A 
ATOM     67  H   UNL A   1      41.474  31.099  33.724  1.00  0.00     0.167 HD
ATOM     68  C   UNL A   1      42.550  31.196  36.336  1.00  0.00     0.074 A 
ATOM     69  C   UNL A   1      43.398  30.922  37.478  1.00  0.00     0.031 C 
ATOM     70  C   UNL A   1      41.604  32.167  36.308  1.00  0.00     0.034 A 
BRANCH  57  71
ATOM     71  C   UNL A   1      38.797  32.758  30.839  1.00  0.00     0.023 A 
ATOM     72  C   UNL A   1      39.258  33.746  29.946  1.00  0.00     0.012 A 
ATOM     73  C   UNL A   1      37.422  32.455  30.886  1.00  0.00     0.148 A 
ATOM     74  C   UNL A   1      38.362  34.445  29.137  1.00  0.00     0.002 A 
ATOM     75  C   UNL A   1      36.542  33.121  30.044  1.00  0.00     0.091 A 
ATOM     76  F   UNL A   1      37.002  31.529  31.759  1.00  0.00    -0.205 F 
ATOM     77  C   UNL A   1      37.007  34.124  29.178  1.00  0.00     0.022 A 
BRANCH  75  78
ATOM     78  S   UNL A   1      34.793  32.723  29.961  1.00  0.00     0.127 S 
ATOM     79  O   UNL A   1      34.237  33.956  29.406  1.00  0.00    -0.237 OA
ATOM     80  O   UNL A   1      34.781  31.583  29.045  1.00  0.00    -0.237 OA
ATOM     81  O   UNL A   1      34.384  32.414  31.324  1.00  0.00    -0.744 OA
ENDBRANCH  75  78
ENDBRANCH  57  71
BRANCH  58  82
ATOM     82  C   UNL A   1      45.709  27.719  35.989  1.00  0.00     0.023 A 
ATOM     83  C   UNL A   1      47.050  28.120  35.827  1.00  0.00     0.012 A 
ATOM     84  C   UNL A   1      45.412  26.656  36.865  1.00  0.00     0.148 A 
ATOM     85  C   UNL A   1      48.077  27.451  36.495  1.00  0.00     0.002 A 
ATOM     86  C   UNL A   1      46.433  26.033  37.571  1.00  0.00     0.091 A 
ATOM     87  F   UNL A   1      44.131  26.278  36.990  1.00  0.00    -0.205 F 
ATOM     88  C   UNL A   1      47.768  26.416  37.373  1.00  0.00     0.022 A 
BRANCH  86  89
ATOM     89  S   UNL A   1      46.118  24.777  38.814  1.00  0.00     0.127 S 
ATOM     90  O   UNL A   1      47.466  24.293  39.099  1.00  0.00    -0.237 OA
ATOM     91  O   UNL A   1      45.505  25.565  39.884  1.00  0.00    -0.237 OA
ATOM     92  O   UNL A   1      45.221  23.816  38.186  1.00  0.00    -0.744 OA
ENDBRANCH  86  89
ENDBRANCH  58  82
BRANCH  70  93
ATOM     93  C   UNL A   1      41.383  32.976  37.561  1.00  0.00     0.023 A 
ATOM     94  C   UNL A   1      40.569  32.475  38.595  1.00  0.00     0.012 A 
ATOM     95  C   UNL A   1      42.051  34.205  37.741  1.00  0.00     0.148 A 
ATOM     96  C   UNL A   1      40.393  33.201  39.774  1.00  0.00     0.002 A 
ATOM     97  C   UNL A   1      41.916  34.895  38.939  1.00  0.00     0.091 A 
ATOM     98  F   UNL A   1      42.810  34.672  36.740  1.00  0.00    -0.205 F 
ATOM     99  C   UNL A   1      41.076  34.402  39.951  1.00  0.00     0.022 A 
BRANCH  97 100
ATOM    100  S   UNL A   1      42.835  36.397  39.296  1.00  0.00     0.127 S 
ATOM    101  O   UNL A   1      42.243  36.814  40.566  1.00  0.00    -0.237 OA
ATOM    102  O   UNL A   1      44.208  35.903  39.397  1.00  0.00    -0.237 OA
ATOM    103  O   UNL A   1      42.595  37.293  38.173  1.00  0.00    -0.744 OA
ENDBRANCH  97 100
ENDBRANCH  70  93
ENDBRANCH  44  45
ENDBRANCH  37  39
ENDBRANCH  36  37
ENDBRANCH  35  36
ENDBRANCH  34  35
ENDBRANCH  33  34
ENDBRANCH  32  33
ENDBRANCH  31  32
ENDBRANCH  30  31
ENDBRANCH   1  30
TORSDOF 27
ENDMDL
MODEL 3
REMARK VINA RESULT:      -7.1      5.639     12.564
REMARK SMILES CC[C@@H](C)c1ccc(NC(=O)[C@@H]2[C@@H](C(=O)OCCOCCOCCOCCOC(=O)c3ccc(-c4c5nc(c(-c6cccc(S(=O)(=O)[O-])c6F)c6ccc([nH]6)c(-c6cccc(S(=O)(=O)[O-])c6F)c6nc(c(-c7cccc(S(=O)(=O)[O-])c7F)c7ccc4[nH]7)C=C6)C=C5)cc3)[C@@H]3C=C[C@H]2C3)cc1
REMARK SMILES IDX 21 1 20 2 19 3 18 4 17 5 16 6 14 7 15 8 13 9 12 10 97 11
REMARK SMILES IDX 94 12 96 13 98 14 95 15 10 16 9 17 11 19 8 20 5 21 6 22
REMARK SMILES IDX 100 23 7 24 99 25 3 26 4 27 2 28 1 29 22 30 23 31 24 32
REMARK SMILES IDX 25 33 26 34 27 35 28 36 29 37 30 38 31 39 32 40 93 41 33 42
REMARK SMILES IDX 92 43 34 44 35 45 36 46 86 47 37 48 91 49 85 50 87 51 38 52
REMARK SMILES IDX 90 53 84 54 83 55 39 57 71 58 51 59 70 60 52 61 55 62 69 63
REMARK SMILES IDX 88 64 53 65 54 66 68 68 89 69 56 70 40 71 41 72 49 73 42 74
REMARK SMILES IDX 44 75 50 76 43 77 45 78 46 79 47 80 48 81 72 82 73 83 81 84
REMARK SMILES IDX 74 85 76 86 82 87 75 88 77 89 78 90 79 91 80 92 57 93 58 94
REMARK SMILES IDX 66 95 59 96 61 97 67 98 60 99 62 100 63 101 64 102 65 103
REMARK H PARENT 9 18 87 56 55 67
REMARK Flexibility Score: inf
ROOT
ATOM      1  C   UNL A   1      32.456  30.131  27.400  1.00  0.00     0.188 C 
ENDROOT
BRANCH   1   2
ATOM      2  C   UNL A   1      32.112  29.237  26.202  1.00  0.00     0.188 C 
BRANCH   2   3
ATOM      3  O   UNL A   1      31.503  29.801  25.055  1.00  0.00    -0.376 OA
BRANCH   3   4
ATOM      4  C   UNL A   1      31.264  29.034  23.879  1.00  0.00     0.202 C 
BRANCH   4   5
ATOM      5  C   UNL A   1      30.018  28.164  23.643  1.00  0.00     0.261 C 
BRANCH   5   6
ATOM      6  O   UNL A   1      30.234  26.748  23.687  1.00  0.00    -0.463 OA
BRANCH   6   7
ATOM      7  C   UNL A   1      31.047  26.269  22.725  1.00  0.00     0.310 C 
ATOM      8  O   UNL A   1      31.087  26.700  21.573  1.00  0.00    -0.252 OA
BRANCH   7   9
ATOM      9  C   UNL A   1      32.077  25.263  23.195  1.00  0.00     0.119 C 
ATOM     10  C   UNL A   1      32.321  25.538  24.705  1.00  0.00     0.100 C 
ATOM     11  C   UNL A   1      33.871  25.651  24.793  1.00  0.00     0.025 C 
ATOM     12  C   UNL A   1      33.535  25.249  22.618  1.00  0.00     0.027 C 
ATOM     13  C   UNL A   1      34.514  24.323  24.508  1.00  0.00    -0.027 C 
ATOM     14  C   UNL A   1      34.203  26.334  23.447  1.00  0.00     0.017 C 
ATOM     15  C   UNL A   1      34.348  24.088  23.195  1.00  0.00    -0.027 C 
BRANCH  10  16
ATOM     16  C   UNL A   1      31.590  24.807  25.861  1.00  0.00     0.228 C 
ATOM     17  N   UNL A   1      31.445  23.476  26.145  1.00  0.00    -0.326 N 
ATOM     18  H   UNL A   1      30.797  23.324  26.869  1.00  0.00     0.169 HD
ATOM     19  O   UNL A   1      31.011  25.542  26.685  1.00  0.00    -0.274 OA
BRANCH  17  20
ATOM     20  C   UNL A   1      31.985  22.271  25.666  1.00  0.00     0.041 A 
ATOM     21  C   UNL A   1      33.196  19.820  24.804  1.00  0.00    -0.045 A 
ATOM     22  C   UNL A   1      33.491  20.394  26.024  1.00  0.00     0.006 A 
ATOM     23  C   UNL A   1      32.253  20.498  24.004  1.00  0.00     0.006 A 
ATOM     24  C   UNL A   1      32.811  21.518  26.444  1.00  0.00     0.026 A 
ATOM     25  C   UNL A   1      31.672  21.730  24.420  1.00  0.00     0.026 A 
BRANCH  21  26
ATOM     26  C   UNL A   1      33.795  18.458  24.462  1.00  0.00     0.016 C 
ATOM     27  C   UNL A   1      33.393  17.950  23.053  1.00  0.00     0.013 C 
BRANCH  26  28
ATOM     28  C   UNL A   1      33.459  17.397  25.524  1.00  0.00     0.004 C 
ATOM     29  C   UNL A   1      34.114  16.049  25.236  1.00  0.00     0.004 C 
ENDBRANCH  26  28
ENDBRANCH  21  26
ENDBRANCH  17  20
ENDBRANCH  10  16
ENDBRANCH   7   9
ENDBRANCH   6   7
ENDBRANCH   5   6
ENDBRANCH   4   5
ENDBRANCH   3   4
ENDBRANCH   2   3
ENDBRANCH   1   2
BRANCH   1  30
ATOM     30  O   UNL A   1      33.244  31.265  27.121  1.00  0.00    -0.377 OA
BRANCH  30  31
ATOM     31  C   UNL A   1      34.201  31.747  28.049  1.00  0.00     0.188 C 
BRANCH  31  32
ATOM     32  C   UNL A   1      34.038  33.128  28.708  1.00  0.00     0.188 C 
BRANCH  32  33
ATOM     33  O   UNL A   1      34.342  33.165  30.092  1.00  0.00    -0.376 OA
BRANCH  33  34
ATOM     34  C   UNL A   1      35.224  32.180  30.609  1.00  0.00     0.202 C 
BRANCH  34  35
ATOM     35  C   UNL A   1      36.724  32.510  30.637  1.00  0.00     0.261 C 
BRANCH  35  36
ATOM     36  O   UNL A   1      37.252  33.027  31.870  1.00  0.00    -0.460 OA
BRANCH  36  37
ATOM     37  C   UNL A   1      37.769  34.277  31.872  1.00  0.00     0.338 C 
ATOM     38  O   UNL A   1      37.389  35.224  32.526  1.00  0.00    -0.246 OA
BRANCH  37  39
ATOM     39  C   UNL A   1      39.021  34.246  31.082  1.00  0.00     0.060 A 
ATOM     40  C   UNL A   1      40.205  33.831  31.707  1.00  0.00     0.016 A 
ATOM     41  C   UNL A   1      39.027  34.628  29.739  1.00  0.00     0.016 A 
ATOM     42  C   UNL A   1      41.408  33.841  31.001  1.00  0.00     0.010 A 
ATOM     43  C   UNL A   1      40.238  34.658  29.040  1.00  0.00     0.010 A 
ATOM     44  C   UNL A   1      41.440  34.303  29.679  1.00  0.00    -0.014 A 
BRANCH  44  45
ATOM     45  C   UNL A   1      42.742  34.609  29.038  1.00  0.00     0.031 A 
ATOM     46  C   UNL A   1      43.721  33.483  28.840  1.00  0.00     0.074 A 
ATOM     47  C   UNL A   1      43.055  35.854  28.636  1.00  0.00     0.049 A 
ATOM     48  N   UNL A   1      44.931  33.512  28.348  1.00  0.00    -0.248 NA
ATOM     49  C   UNL A   1      43.274  32.143  29.259  1.00  0.00     0.031 C 
ATOM     50  C   UNL A   1      42.191  37.025  28.758  1.00  0.00     0.029 A 
ATOM     51  N   UNL A   1      44.208  36.340  28.069  1.00  0.00    -0.354 N 
ATOM     52  C   UNL A   1      45.404  32.207  28.431  1.00  0.00     0.074 A 
ATOM     53  C   UNL A   1      44.353  31.411  29.027  1.00  0.00     0.031 C 
ATOM     54  C   UNL A   1      42.858  38.105  28.311  1.00  0.00     0.029 A 
ATOM     55  C   UNL A   1      44.203  37.705  27.899  1.00  0.00     0.049 A 
ATOM     56  H   UNL A   1      44.965  35.768  27.809  1.00  0.00     0.167 HD
ATOM     57  C   UNL A   1      46.602  31.712  28.042  1.00  0.00     0.034 A 
ATOM     58  C   UNL A   1      45.183  38.536  27.490  1.00  0.00     0.034 A 
ATOM     59  C   UNL A   1      47.641  32.500  27.439  1.00  0.00     0.049 A 
ATOM     60  C   UNL A   1      46.521  37.965  27.093  1.00  0.00     0.074 A 
ATOM     61  C   UNL A   1      48.869  32.079  26.961  1.00  0.00     0.029 A 
ATOM     62  N   UNL A   1      47.587  33.872  27.250  1.00  0.00    -0.354 N 
ATOM     63  N   UNL A   1      46.912  36.714  27.068  1.00  0.00    -0.248 NA
ATOM     64  C   UNL A   1      47.544  38.919  26.637  1.00  0.00     0.031 C 
ATOM     65  C   UNL A   1      49.576  33.204  26.524  1.00  0.00     0.029 A 
ATOM     66  C   UNL A   1      48.767  34.318  26.682  1.00  0.00     0.049 A 
ATOM     67  H   UNL A   1      46.821  34.444  27.485  1.00  0.00     0.167 HD
ATOM     68  C   UNL A   1      48.206  36.727  26.556  1.00  0.00     0.074 A 
ATOM     69  C   UNL A   1      48.527  38.109  26.268  1.00  0.00     0.031 C 
ATOM     70  C   UNL A   1      49.056  35.690  26.351  1.00  0.00     0.034 A 
BRANCH  57  71
ATOM     71  C   UNL A   1      46.857  30.243  28.258  1.00  0.00     0.023 A 
ATOM     72  C   UNL A   1      46.536  29.315  27.248  1.00  0.00     0.012 A 
ATOM     73  C   UNL A   1      47.469  29.792  29.444  1.00  0.00     0.148 A 
ATOM     74  C   UNL A   1      46.789  27.955  27.427  1.00  0.00     0.002 A 
ATOM     75  C   UNL A   1      47.763  28.443  29.596  1.00  0.00     0.091 A 
ATOM     76  F   UNL A   1      47.745  30.688  30.402  1.00  0.00    -0.205 F 
ATOM     77  C   UNL A   1      47.413  27.522  28.595  1.00  0.00     0.022 A 
BRANCH  75  78
ATOM     78  S   UNL A   1      48.638  27.798  31.025  1.00  0.00     0.127 S 
ATOM     79  O   UNL A   1      47.725  28.150  32.112  1.00  0.00    -0.237 OA
ATOM     80  O   UNL A   1      48.704  26.368  30.724  1.00  0.00    -0.237 OA
ATOM     81  O   UNL A   1      49.926  28.476  31.049  1.00  0.00    -0.744 OA
ENDBRANCH  75  78
ENDBRANCH  57  71
BRANCH  58  82
ATOM     82  C   UNL A   1      44.939  40.007  27.425  1.00  0.00     0.023 A 
ATOM     83  C   UNL A   1      44.435  40.581  26.241  1.00  0.00     0.012 A 
ATOM     84  C   UNL A   1      45.213  40.838  28.528  1.00  0.00     0.148 A 
ATOM     85  C   UNL A   1      44.243  41.960  26.146  1.00  0.00     0.002 A 
ATOM     86  C   UNL A   1      44.965  42.203  28.446  1.00  0.00     0.091 A 
ATOM     87  F   UNL A   1      45.710  40.274  29.638  1.00  0.00    -0.205 F 
ATOM     88  C   UNL A   1      44.498  42.768  27.250  1.00  0.00     0.022 A 
BRANCH  86  89
ATOM     89  S   UNL A   1      45.145  43.301  29.855  1.00  0.00     0.127 S 
ATOM     90  O   UNL A   1      46.589  43.276  30.070  1.00  0.00    -0.237 OA
ATOM     91  O   UNL A   1      44.621  44.559  29.321  1.00  0.00    -0.237 OA
ATOM     92  O   UNL A   1      44.338  42.716  30.917  1.00  0.00    -0.744 OA
ENDBRANCH  86  89
ENDBRANCH  58  82
BRANCH  70  93
ATOM     93  C   UNL A   1      50.400  35.988  25.735  1.00  0.00     0.023 A 
ATOM     94  C   UNL A   1      50.549  36.013  24.335  1.00  0.00     0.012 A 
ATOM     95  C   UNL A   1      51.500  36.322  26.553  1.00  0.00     0.148 A 
ATOM     96  C   UNL A   1      51.779  36.328  23.758  1.00  0.00     0.002 A 
ATOM     97  C   UNL A   1      52.706  36.688  25.971  1.00  0.00     0.091 A 
ATOM     98  F   UNL A   1      51.342  36.279  27.883  1.00  0.00    -0.205 F 
ATOM     99  C   UNL A   1      52.853  36.678  24.574  1.00  0.00     0.022 A 
BRANCH  97 100
ATOM    100  S   UNL A   1      54.111  37.252  26.938  1.00  0.00     0.127 S 
ATOM    101  O   UNL A   1      55.105  37.511  25.897  1.00  0.00    -0.237 OA
ATOM    102  O   UNL A   1      53.580  38.452  27.585  1.00  0.00    -0.237 OA
ATOM    103  O   UNL A   1      54.434  36.165  27.852  1.00  0.00    -0.744 OA
ENDBRANCH  97 100
ENDBRANCH  70  93
ENDBRANCH  44  45
ENDBRANCH  37  39
ENDBRANCH  36  37
ENDBRANCH  35  36
ENDBRANCH  34  35
ENDBRANCH  33  34
ENDBRANCH  32  33
ENDBRANCH  31  32
ENDBRANCH  30  31
ENDBRANCH   1  30
TORSDOF 27
ENDMDL
