MODEL 1
REMARK VINA RESULT:     -10.7      0.000      0.000
REMARK SMILES O=C(OCCOCCOCCOCCOC(=O)[C@]12COc3ccccc3[C@H]1C[N@H+](CCO)C2)c1ccc(-c2c3nc(c(-c4cccc(S(=O)(=O)[O-])c4F)c4ccc([nH]4)c(-c4cccc(S(=O)(=O)[O-])c4F)c4nc(c(-c5cccc(S(=O)(=O)[O-])c5F)c5ccc2[nH]5)C=C4)C=C3)cc1
REMARK SMILES IDX 9 1 8 2 7 3 6 4 5 5 4 6 3 7 2 8 1 9 34 10 35 11 96 12 36 13
REMARK SMILES IDX 95 14 37 15 38 16 39 17 89 18 40 19 94 20 88 21 90 22 41 23
REMARK SMILES IDX 93 24 87 25 86 26 42 28 74 29 54 30 73 31 55 32 58 33 72 34
REMARK SMILES IDX 91 35 56 36 57 37 71 39 92 40 59 41 43 42 44 43 52 44 45 45
REMARK SMILES IDX 47 46 53 47 46 48 48 49 49 50 50 51 51 52 75 53 76 54 84 55
REMARK SMILES IDX 77 56 79 57 85 58 78 59 80 60 81 61 82 62 83 63 60 64 61 65
REMARK SMILES IDX 69 66 62 67 64 68 70 69 63 70 65 71 66 72 67 73 68 74 10 75
REMARK SMILES IDX 11 76 12 77 13 78 14 79 15 80 16 81 17 82 18 83 19 84 27 85
REMARK SMILES IDX 33 86 20 87 26 88 28 89 29 90 21 91 25 92 22 94 24 95 23 96
REMARK SMILES IDX 30 97 31 98 32 99
REMARK H PARENT 90 27 58 38 29 93 32 100
REMARK Flexibility Score: inf
ROOT
ATOM      1  O   UNL A   1      32.587  27.442  24.962  1.00  0.00    -0.377 OA
ENDROOT
BRANCH   1   2
ATOM      2  C   UNL A   1      32.496  28.824  24.633  1.00  0.00     0.188 C 
BRANCH   2   3
ATOM      3  C   UNL A   1      31.114  29.345  24.338  1.00  0.00     0.188 C 
BRANCH   3   4
ATOM      4  O   UNL A   1      30.892  30.546  25.044  1.00  0.00    -0.376 OA
BRANCH   4   5
ATOM      5  C   UNL A   1      31.782  30.835  26.097  1.00  0.00     0.202 C 
BRANCH   5   6
ATOM      6  C   UNL A   1      31.236  32.060  26.821  1.00  0.00     0.261 C 
BRANCH   6   7
ATOM      7  O   UNL A   1      32.196  33.142  26.868  1.00  0.00    -0.460 OA
BRANCH   7   8
ATOM      8  C   UNL A   1      33.078  33.523  27.826  1.00  0.00     0.338 C 
ATOM      9  O   UNL A   1      32.847  34.597  28.389  1.00  0.00    -0.246 OA
BRANCH   8  10
ATOM     10  C   UNL A   1      34.335  32.794  28.250  1.00  0.00     0.060 A 
ATOM     11  C   UNL A   1      35.550  33.501  28.107  1.00  0.00     0.016 A 
ATOM     12  C   UNL A   1      34.426  31.472  28.698  1.00  0.00     0.016 A 
ATOM     13  C   UNL A   1      36.793  32.909  28.383  1.00  0.00     0.010 A 
ATOM     14  C   UNL A   1      35.662  30.846  28.893  1.00  0.00     0.010 A 
ATOM     15  C   UNL A   1      36.854  31.570  28.780  1.00  0.00    -0.014 A 
BRANCH  15  16
ATOM     16  C   UNL A   1      38.057  31.016  29.442  1.00  0.00     0.031 A 
ATOM     17  C   UNL A   1      38.952  29.990  28.815  1.00  0.00     0.074 A 
ATOM     18  C   UNL A   1      38.225  31.403  30.723  1.00  0.00     0.049 A 
ATOM     19  N   UNL A   1      40.019  29.430  29.325  1.00  0.00    -0.248 NA
ATOM     20  C   UNL A   1      38.622  29.522  27.460  1.00  0.00     0.031 C 
ATOM     21  C   UNL A   1      37.344  32.345  31.430  1.00  0.00     0.029 A 
ATOM     22  N   UNL A   1      39.137  31.033  31.671  1.00  0.00    -0.354 N 
ATOM     23  C   UNL A   1      40.496  28.548  28.360  1.00  0.00     0.074 A 
ATOM     24  C   UNL A   1      39.591  28.637  27.233  1.00  0.00     0.031 C 
ATOM     25  C   UNL A   1      37.738  32.448  32.704  1.00  0.00     0.029 A 
ATOM     26  C   UNL A   1      38.902  31.600  32.901  1.00  0.00     0.049 A 
ATOM     27  H   UNL A   1      39.887  30.422  31.490  1.00  0.00     0.167 HD
ATOM     28  C   UNL A   1      41.599  27.762  28.423  1.00  0.00     0.034 A 
ATOM     29  C   UNL A   1      39.563  31.468  34.064  1.00  0.00     0.034 A 
ATOM     30  C   UNL A   1      42.468  27.694  29.572  1.00  0.00     0.049 A 
ATOM     31  C   UNL A   1      40.793  30.618  34.084  1.00  0.00     0.074 A 
ATOM     32  C   UNL A   1      43.647  26.983  29.716  1.00  0.00     0.029 A 
ATOM     33  N   UNL A   1      42.249  28.350  30.774  1.00  0.00    -0.354 N 
ATOM     34  N   UNL A   1      41.305  29.903  33.114  1.00  0.00    -0.248 NA
ATOM     35  C   UNL A   1      41.565  30.598  35.331  1.00  0.00     0.031 C 
ATOM     36  C   UNL A   1      44.133  27.197  31.008  1.00  0.00     0.029 A 
ATOM     37  C   UNL A   1      43.272  28.064  31.661  1.00  0.00     0.049 A 
ATOM     38  H   UNL A   1      41.478  28.931  30.969  1.00  0.00     0.167 HD
ATOM     39  C   UNL A   1      42.490  29.387  33.612  1.00  0.00     0.074 A 
ATOM     40  C   UNL A   1      42.615  29.867  34.975  1.00  0.00     0.031 C 
ATOM     41  C   UNL A   1      43.393  28.590  32.995  1.00  0.00     0.034 A 
BRANCH  28  42
ATOM     42  C   UNL A   1      42.017  26.964  27.212  1.00  0.00     0.023 A 
ATOM     43  C   UNL A   1      42.622  27.645  26.137  1.00  0.00     0.012 A 
ATOM     44  C   UNL A   1      42.022  25.553  27.224  1.00  0.00     0.148 A 
ATOM     45  C   UNL A   1      43.236  26.940  25.101  1.00  0.00     0.002 A 
ATOM     46  C   UNL A   1      42.656  24.856  26.198  1.00  0.00     0.091 A 
ATOM     47  F   UNL A   1      41.455  24.923  28.262  1.00  0.00    -0.205 F 
ATOM     48  C   UNL A   1      43.263  25.548  25.138  1.00  0.00     0.022 A 
BRANCH  46  49
ATOM     49  S   UNL A   1      42.809  23.065  26.167  1.00  0.00     0.127 S 
ATOM     50  O   UNL A   1      43.049  22.812  24.749  1.00  0.00    -0.237 OA
ATOM     51  O   UNL A   1      43.960  22.838  27.034  1.00  0.00    -0.237 OA
ATOM     52  O   UNL A   1      41.540  22.543  26.674  1.00  0.00    -0.744 OA
ENDBRANCH  46  49
ENDBRANCH  28  42
BRANCH  29  53
ATOM     53  C   UNL A   1      39.141  32.281  35.232  1.00  0.00     0.023 A 
ATOM     54  C   UNL A   1      38.282  31.701  36.183  1.00  0.00     0.012 A 
ATOM     55  C   UNL A   1      39.663  33.568  35.463  1.00  0.00     0.148 A 
ATOM     56  C   UNL A   1      37.932  32.395  37.339  1.00  0.00     0.002 A 
ATOM     57  C   UNL A   1      39.338  34.241  36.634  1.00  0.00     0.091 A 
ATOM     58  F   UNL A   1      40.494  34.089  34.548  1.00  0.00    -0.205 F 
ATOM     59  C   UNL A   1      38.466  33.661  37.569  1.00  0.00     0.022 A 
BRANCH  57  60
ATOM     60  S   UNL A   1      40.052  35.832  37.066  1.00  0.00     0.127 S 
ATOM     61  O   UNL A   1      39.676  36.649  35.918  1.00  0.00    -0.237 OA
ATOM     62  O   UNL A   1      39.350  36.152  38.309  1.00  0.00    -0.237 OA
ATOM     63  O   UNL A   1      41.482  35.591  37.229  1.00  0.00    -0.744 OA
ENDBRANCH  57  60
ENDBRANCH  29  53
BRANCH  41  64
ATOM     64  C   UNL A   1      44.627  28.223  33.765  1.00  0.00     0.023 A 
ATOM     65  C   UNL A   1      45.724  29.104  33.792  1.00  0.00     0.012 A 
ATOM     66  C   UNL A   1      44.654  27.045  34.535  1.00  0.00     0.148 A 
ATOM     67  C   UNL A   1      46.842  28.808  34.569  1.00  0.00     0.002 A 
ATOM     68  C   UNL A   1      45.753  26.776  35.336  1.00  0.00     0.091 A 
ATOM     69  F   UNL A   1      43.598  26.219  34.475  1.00  0.00    -0.205 F 
ATOM     70  C   UNL A   1      46.852  27.652  35.349  1.00  0.00     0.022 A 
BRANCH  68  71
ATOM     71  S   UNL A   1      45.827  25.352  36.425  1.00  0.00     0.127 S 
ATOM     72  O   UNL A   1      47.265  25.233  36.663  1.00  0.00    -0.237 OA
ATOM     73  O   UNL A   1      45.053  25.808  37.579  1.00  0.00    -0.237 OA
ATOM     74  O   UNL A   1      45.228  24.246  35.690  1.00  0.00    -0.744 OA
ENDBRANCH  68  71
ENDBRANCH  41  64
ENDBRANCH  15  16
ENDBRANCH   8  10
ENDBRANCH   7   8
ENDBRANCH   6   7
ENDBRANCH   5   6
ENDBRANCH   4   5
ENDBRANCH   3   4
ENDBRANCH   2   3
ENDBRANCH   1   2
BRANCH   1  75
ATOM     75  C   UNL A   1      31.662  26.867  25.885  1.00  0.00     0.188 C 
BRANCH  75  76
ATOM     76  C   UNL A   1      32.115  25.446  26.208  1.00  0.00     0.188 C 
BRANCH  76  77
ATOM     77  O   UNL A   1      31.297  24.742  27.136  1.00  0.00    -0.376 OA
BRANCH  77  78
ATOM     78  C   UNL A   1      30.317  23.846  26.632  1.00  0.00     0.202 C 
BRANCH  78  79
ATOM     79  C   UNL A   1      30.794  22.406  26.362  1.00  0.00     0.261 C 
BRANCH  79  80
ATOM     80  O   UNL A   1      31.146  22.064  24.989  1.00  0.00    -0.463 OA
BRANCH  80  81
ATOM     81  C   UNL A   1      32.109  21.109  24.706  1.00  0.00     0.322 C 
ATOM     82  O   UNL A   1      31.971  19.936  25.027  1.00  0.00    -0.251 OA
BRANCH  81  83
ATOM     83  C   UNL A   1      33.467  21.789  24.013  1.00  0.00     0.162 C 
ATOM     84  C   UNL A   1      34.221  20.769  24.865  1.00  0.00     0.255 C 
ATOM     85  C   UNL A   1      34.345  23.072  24.434  1.00  0.00     0.105 C 
ATOM     86  C   UNL A   1      32.415  22.688  23.288  1.00  0.00     0.285 C 
ATOM     87  O   UNL A   1      35.599  20.594  24.500  1.00  0.00    -0.492 OA
ATOM     88  C   UNL A   1      35.782  22.901  24.932  1.00  0.00     0.004 A 
ATOM     89  C   UNL A   1      34.426  23.862  23.125  1.00  0.00     0.272 C 
ATOM     90  N   UNL A   1      33.105  23.761  22.539  1.00  0.00    -0.331 N 
ATOM     91  C   UNL A   1      36.318  21.624  25.012  1.00  0.00     0.123 A 
ATOM     92  C   UNL A   1      36.596  23.968  25.333  1.00  0.00     0.008 A 
ATOM     93  H   UNL A   1      33.159  23.526  21.549  1.00  0.00     0.348 HD
ATOM     94  C   UNL A   1      37.564  21.360  25.574  1.00  0.00     0.047 A 
ATOM     95  C   UNL A   1      37.870  23.726  25.870  1.00  0.00     0.001 A 
ATOM     96  C   UNL A   1      38.339  22.422  26.026  1.00  0.00     0.004 A 
BRANCH  90  97
ATOM     97  C   UNL A   1      32.369  25.050  22.519  1.00  0.00     0.290 C 
BRANCH  97  98
ATOM     98  C   UNL A   1      32.026  25.757  21.181  1.00  0.00     0.217 C 
BRANCH  98  99
ATOM     99  O   UNL A   1      33.164  25.934  20.340  1.00  0.00    -0.391 OA
ATOM    100  H   UNL A   1      33.840  25.279  20.571  1.00  0.00     0.210 HD
ENDBRANCH  98  99
ENDBRANCH  97  98
ENDBRANCH  90  97
ENDBRANCH  81  83
ENDBRANCH  80  81
ENDBRANCH  79  80
ENDBRANCH  78  79
ENDBRANCH  77  78
ENDBRANCH  76  77
ENDBRANCH  75  76
ENDBRANCH   1  75
TORSDOF 26
ENDMDL
MODEL 2
REMARK VINA RESULT:     -10.1      1.206      7.376
REMARK SMILES O=C(OCCOCCOCCOCCOC(=O)[C@]12COc3ccccc3[C@H]1C[N@H+](CCO)C2)c1ccc(-c2c3nc(c(-c4cccc(S(=O)(=O)[O-])c4F)c4ccc([nH]4)c(-c4cccc(S(=O)(=O)[O-])c4F)c4nc(c(-c5cccc(S(=O)(=O)[O-])c5F)c5ccc2[nH]5)C=C4)C=C3)cc1
REMARK SMILES IDX 9 1 8 2 7 3 6 4 5 5 4 6 3 7 2 8 1 9 34 10 35 11 96 12 36 13
REMARK SMILES IDX 95 14 37 15 38 16 39 17 89 18 40 19 94 20 88 21 90 22 41 23
REMARK SMILES IDX 93 24 87 25 86 26 42 28 74 29 54 30 73 31 55 32 58 33 72 34
REMARK SMILES IDX 91 35 56 36 57 37 71 39 92 40 59 41 43 42 44 43 52 44 45 45
REMARK SMILES IDX 47 46 53 47 46 48 48 49 49 50 50 51 51 52 75 53 76 54 84 55
REMARK SMILES IDX 77 56 79 57 85 58 78 59 80 60 81 61 82 62 83 63 60 64 61 65
REMARK SMILES IDX 69 66 62 67 64 68 70 69 63 70 65 71 66 72 67 73 68 74 10 75
REMARK SMILES IDX 11 76 12 77 13 78 14 79 15 80 16 81 17 82 18 83 19 84 27 85
REMARK SMILES IDX 33 86 20 87 26 88 28 89 29 90 21 91 25 92 22 94 24 95 23 96
REMARK SMILES IDX 30 97 31 98 32 99
REMARK H PARENT 90 27 58 38 29 93 32 100
REMARK Flexibility Score: inf
ROOT
ATOM      1  O   UNL A   1      32.555  27.321  24.900  1.00  0.00    -0.377 OA
ENDROOT
BRANCH   1   2
ATOM      2  C   UNL A   1      32.536  28.729  24.694  1.00  0.00     0.188 C 
BRANCH   2   3
ATOM      3  C   UNL A   1      31.199  29.331  24.351  1.00  0.00     0.188 C 
BRANCH   3   4
ATOM      4  O   UNL A   1      30.996  30.510  25.098  1.00  0.00    -0.376 OA
BRANCH   4   5
ATOM      5  C   UNL A   1      31.881  30.741  26.170  1.00  0.00     0.202 C 
BRANCH   5   6
ATOM      6  C   UNL A   1      31.402  32.000  26.883  1.00  0.00     0.261 C 
BRANCH   6   7
ATOM      7  O   UNL A   1      32.424  33.024  26.932  1.00  0.00    -0.460 OA
BRANCH   7   8
ATOM      8  C   UNL A   1      33.220  33.456  27.943  1.00  0.00     0.338 C 
ATOM      9  O   UNL A   1      32.923  34.541  28.449  1.00  0.00    -0.246 OA
BRANCH   8  10
ATOM     10  C   UNL A   1      34.455  32.769  28.487  1.00  0.00     0.060 A 
ATOM     11  C   UNL A   1      35.665  33.495  28.403  1.00  0.00     0.016 A 
ATOM     12  C   UNL A   1      34.535  31.469  28.994  1.00  0.00     0.016 A 
ATOM     13  C   UNL A   1      36.894  32.939  28.794  1.00  0.00     0.010 A 
ATOM     14  C   UNL A   1      35.765  30.876  29.305  1.00  0.00     0.010 A 
ATOM     15  C   UNL A   1      36.948  31.619  29.249  1.00  0.00    -0.014 A 
BRANCH  15  16
ATOM     16  C   UNL A   1      38.109  31.116  30.020  1.00  0.00     0.031 A 
ATOM     17  C   UNL A   1      38.470  31.604  31.390  1.00  0.00     0.074 A 
ATOM     18  C   UNL A   1      38.913  30.272  29.342  1.00  0.00     0.049 A 
ATOM     19  N   UNL A   1      39.480  31.239  32.137  1.00  0.00    -0.248 NA
ATOM     20  C   UNL A   1      37.612  32.627  32.006  1.00  0.00     0.031 C 
ATOM     21  C   UNL A   1      38.666  29.809  27.968  1.00  0.00     0.029 A 
ATOM     22  N   UNL A   1      40.106  29.693  29.673  1.00  0.00    -0.354 N 
ATOM     23  C   UNL A   1      39.383  31.975  33.313  1.00  0.00     0.074 A 
ATOM     24  C   UNL A   1      38.218  32.824  33.176  1.00  0.00     0.031 C 
ATOM     25  C   UNL A   1      39.692  29.052  27.564  1.00  0.00     0.029 A 
ATOM     26  C   UNL A   1      40.656  28.959  28.649  1.00  0.00     0.049 A 
ATOM     27  H   UNL A   1      40.529  29.793  30.556  1.00  0.00     0.167 HD
ATOM     28  C   UNL A   1      40.192  31.919  34.400  1.00  0.00     0.034 A 
ATOM     29  C   UNL A   1      41.806  28.266  28.590  1.00  0.00     0.034 A 
ATOM     30  C   UNL A   1      41.352  31.067  34.490  1.00  0.00     0.049 A 
ATOM     31  C   UNL A   1      42.654  28.201  29.821  1.00  0.00     0.074 A 
ATOM     32  C   UNL A   1      42.200  30.883  35.569  1.00  0.00     0.029 A 
ATOM     33  N   UNL A   1      41.833  30.268  33.464  1.00  0.00    -0.354 N 
ATOM     34  N   UNL A   1      42.466  28.797  30.972  1.00  0.00    -0.248 NA
ATOM     35  C   UNL A   1      43.835  27.333  29.768  1.00  0.00     0.031 C 
ATOM     36  C   UNL A   1      43.200  29.984  35.191  1.00  0.00     0.029 A 
ATOM     37  C   UNL A   1      42.961  29.585  33.886  1.00  0.00     0.049 A 
ATOM     38  H   UNL A   1      41.432  30.197  32.568  1.00  0.00     0.167 HD
ATOM     39  C   UNL A   1      43.474  28.336  31.802  1.00  0.00     0.074 A 
ATOM     40  C   UNL A   1      44.275  27.417  31.017  1.00  0.00     0.031 C 
ATOM     41  C   UNL A   1      43.712  28.645  33.098  1.00  0.00     0.034 A 
BRANCH  28  42
ATOM     42  C   UNL A   1      39.841  32.716  35.633  1.00  0.00     0.023 A 
ATOM     43  C   UNL A   1      40.240  34.066  35.695  1.00  0.00     0.012 A 
ATOM     44  C   UNL A   1      38.947  32.216  36.604  1.00  0.00     0.148 A 
ATOM     45  C   UNL A   1      39.749  34.910  36.691  1.00  0.00     0.002 A 
ATOM     46  C   UNL A   1      38.445  33.069  37.583  1.00  0.00     0.091 A 
ATOM     47  F   UNL A   1      38.568  30.933  36.521  1.00  0.00    -0.205 F 
ATOM     48  C   UNL A   1      38.844  34.416  37.627  1.00  0.00     0.022 A 
BRANCH  46  49
ATOM     49  S   UNL A   1      37.227  32.563  38.805  1.00  0.00     0.127 S 
ATOM     50  O   UNL A   1      37.570  33.419  39.938  1.00  0.00    -0.237 OA
ATOM     51  O   UNL A   1      35.969  32.896  38.144  1.00  0.00    -0.237 OA
ATOM     52  O   UNL A   1      37.450  31.135  39.029  1.00  0.00    -0.744 OA
ENDBRANCH  46  49
ENDBRANCH  28  42
BRANCH  29  53
ATOM     53  C   UNL A   1      42.114  27.476  27.372  1.00  0.00     0.023 A 
ATOM     54  C   UNL A   1      42.483  28.160  26.199  1.00  0.00     0.012 A 
ATOM     55  C   UNL A   1      42.150  26.069  27.395  1.00  0.00     0.148 A 
ATOM     56  C   UNL A   1      42.867  27.457  25.060  1.00  0.00     0.002 A 
ATOM     57  C   UNL A   1      42.566  25.374  26.266  1.00  0.00     0.091 A 
ATOM     58  F   UNL A   1      41.810  25.444  28.531  1.00  0.00    -0.205 F 
ATOM     59  C   UNL A   1      42.916  26.065  25.095  1.00  0.00     0.022 A 
BRANCH  57  60
ATOM     60  S   UNL A   1      42.757  23.588  26.244  1.00  0.00     0.127 S 
ATOM     61  O   UNL A   1      43.837  23.392  27.203  1.00  0.00    -0.237 OA
ATOM     62  O   UNL A   1      41.441  23.136  26.692  1.00  0.00    -0.237 OA
ATOM     63  O   UNL A   1      43.071  23.243  24.860  1.00  0.00    -0.744 OA
ENDBRANCH  57  60
ENDBRANCH  29  53
BRANCH  41  64
ATOM     64  C   UNL A   1      44.856  27.948  33.773  1.00  0.00     0.023 A 
ATOM     65  C   UNL A   1      46.137  28.529  33.759  1.00  0.00     0.012 A 
ATOM     66  C   UNL A   1      44.630  26.763  34.500  1.00  0.00     0.148 A 
ATOM     67  C   UNL A   1      47.187  27.929  34.451  1.00  0.00     0.002 A 
ATOM     68  C   UNL A   1      45.671  26.193  35.219  1.00  0.00     0.091 A 
ATOM     69  F   UNL A   1      43.401  26.228  34.482  1.00  0.00    -0.205 F 
ATOM     70  C   UNL A   1      46.952  26.771  35.190  1.00  0.00     0.022 A 
BRANCH  68  71
ATOM     71  S   UNL A   1      45.447  24.744  36.253  1.00  0.00     0.127 S 
ATOM     72  O   UNL A   1      46.322  25.048  37.384  1.00  0.00    -0.237 OA
ATOM     73  O   UNL A   1      44.017  24.800  36.555  1.00  0.00    -0.237 OA
ATOM     74  O   UNL A   1      45.854  23.602  35.446  1.00  0.00    -0.744 OA
ENDBRANCH  68  71
ENDBRANCH  41  64
ENDBRANCH  15  16
ENDBRANCH   8  10
ENDBRANCH   7   8
ENDBRANCH   6   7
ENDBRANCH   5   6
ENDBRANCH   4   5
ENDBRANCH   3   4
ENDBRANCH   2   3
ENDBRANCH   1   2
BRANCH   1  75
ATOM     75  C   UNL A   1      31.456  26.682  25.551  1.00  0.00     0.188 C 
BRANCH  75  76
ATOM     76  C   UNL A   1      31.879  25.270  25.950  1.00  0.00     0.188 C 
BRANCH  76  77
ATOM     77  O   UNL A   1      31.126  24.684  27.005  1.00  0.00    -0.376 OA
BRANCH  77  78
ATOM     78  C   UNL A   1      30.289  23.576  26.707  1.00  0.00     0.202 C 
BRANCH  78  79
ATOM     79  C   UNL A   1      31.008  22.238  26.443  1.00  0.00     0.261 C 
BRANCH  79  80
ATOM     80  O   UNL A   1      31.286  21.890  25.055  1.00  0.00    -0.463 OA
BRANCH  80  81
ATOM     81  C   UNL A   1      32.220  20.921  24.727  1.00  0.00     0.322 C 
ATOM     82  O   UNL A   1      32.061  19.743  25.017  1.00  0.00    -0.251 OA
BRANCH  81  83
ATOM     83  C   UNL A   1      33.580  21.590  24.024  1.00  0.00     0.162 C 
ATOM     84  C   UNL A   1      34.334  20.628  24.942  1.00  0.00     0.255 C 
ATOM     85  C   UNL A   1      34.428  22.908  24.395  1.00  0.00     0.105 C 
ATOM     86  C   UNL A   1      32.527  22.430  23.234  1.00  0.00     0.285 C 
ATOM     87  O   UNL A   1      35.723  20.460  24.613  1.00  0.00    -0.492 OA
ATOM     88  C   UNL A   1      35.857  22.789  24.928  1.00  0.00     0.004 A 
ATOM     89  C   UNL A   1      34.520  23.631  23.049  1.00  0.00     0.272 C 
ATOM     90  N   UNL A   1      33.213  23.476  22.444  1.00  0.00    -0.331 N 
ATOM     91  C   UNL A   1      36.413  21.528  25.084  1.00  0.00     0.123 A 
ATOM     92  C   UNL A   1      36.645  23.890  25.288  1.00  0.00     0.008 A 
ATOM     93  H   UNL A   1      33.291  23.192  21.469  1.00  0.00     0.348 HD
ATOM     94  C   UNL A   1      37.652  21.316  25.683  1.00  0.00     0.047 A 
ATOM     95  C   UNL A   1      37.912  23.699  25.861  1.00  0.00     0.001 A 
ATOM     96  C   UNL A   1      38.400  22.413  26.093  1.00  0.00     0.004 A 
BRANCH  90  97
ATOM     97  C   UNL A   1      32.455  24.749  22.344  1.00  0.00     0.290 C 
BRANCH  97  98
ATOM     98  C   UNL A   1      32.506  25.612  21.055  1.00  0.00     0.217 C 
BRANCH  98  99
ATOM     99  O   UNL A   1      33.302  26.786  21.205  1.00  0.00    -0.391 OA
ATOM    100  H   UNL A   1      32.977  27.475  20.606  1.00  0.00     0.210 HD
ENDBRANCH  98  99
ENDBRANCH  97  98
ENDBRANCH  90  97
ENDBRANCH  81  83
ENDBRANCH  80  81
ENDBRANCH  79  80
ENDBRANCH  78  79
ENDBRANCH  77  78
ENDBRANCH  76  77
ENDBRANCH  75  76
ENDBRANCH   1  75
TORSDOF 26
ENDMDL
MODEL 3
REMARK VINA RESULT:     -10.1      1.124      2.334
REMARK SMILES O=C(OCCOCCOCCOCCOC(=O)[C@]12COc3ccccc3[C@H]1C[N@H+](CCO)C2)c1ccc(-c2c3nc(c(-c4cccc(S(=O)(=O)[O-])c4F)c4ccc([nH]4)c(-c4cccc(S(=O)(=O)[O-])c4F)c4nc(c(-c5cccc(S(=O)(=O)[O-])c5F)c5ccc2[nH]5)C=C4)C=C3)cc1
REMARK SMILES IDX 9 1 8 2 7 3 6 4 5 5 4 6 3 7 2 8 1 9 34 10 35 11 96 12 36 13
REMARK SMILES IDX 95 14 37 15 38 16 39 17 89 18 40 19 94 20 88 21 90 22 41 23
REMARK SMILES IDX 93 24 87 25 86 26 42 28 74 29 54 30 73 31 55 32 58 33 72 34
REMARK SMILES IDX 91 35 56 36 57 37 71 39 92 40 59 41 43 42 44 43 52 44 45 45
REMARK SMILES IDX 47 46 53 47 46 48 48 49 49 50 50 51 51 52 75 53 76 54 84 55
REMARK SMILES IDX 77 56 79 57 85 58 78 59 80 60 81 61 82 62 83 63 60 64 61 65
REMARK SMILES IDX 69 66 62 67 64 68 70 69 63 70 65 71 66 72 67 73 68 74 10 75
REMARK SMILES IDX 11 76 12 77 13 78 14 79 15 80 16 81 17 82 18 83 19 84 27 85
REMARK SMILES IDX 33 86 20 87 26 88 28 89 29 90 21 91 25 92 22 94 24 95 23 96
REMARK SMILES IDX 30 97 31 98 32 99
REMARK H PARENT 90 27 58 38 29 93 32 100
REMARK Flexibility Score: inf
ROOT
ATOM      1  O   UNL A   1      33.478  27.710  26.335  1.00  0.00    -0.377 OA
ENDROOT
BRANCH   1   2
ATOM      2  C   UNL A   1      33.154  29.061  26.026  1.00  0.00     0.188 C 
BRANCH   2   3
ATOM      3  C   UNL A   1      31.813  29.290  25.379  1.00  0.00     0.188 C 
BRANCH   3   4
ATOM      4  O   UNL A   1      31.344  30.584  25.686  1.00  0.00    -0.376 OA
BRANCH   4   5
ATOM      5  C   UNL A   1      32.168  31.376  26.511  1.00  0.00     0.202 C 
BRANCH   5   6
ATOM      6  C   UNL A   1      31.387  32.643  26.838  1.00  0.00     0.261 C 
BRANCH   6   7
ATOM      7  O   UNL A   1      32.257  33.766  27.115  1.00  0.00    -0.460 OA
BRANCH   7   8
ATOM      8  C   UNL A   1      33.104  34.018  28.145  1.00  0.00     0.338 C 
ATOM      9  O   UNL A   1      32.888  35.045  28.794  1.00  0.00    -0.246 OA
BRANCH   8  10
ATOM     10  C   UNL A   1      34.307  33.197  28.557  1.00  0.00     0.060 A 
ATOM     11  C   UNL A   1      35.573  33.794  28.358  1.00  0.00     0.016 A 
ATOM     12  C   UNL A   1      34.299  31.886  29.045  1.00  0.00     0.016 A 
ATOM     13  C   UNL A   1      36.769  33.105  28.619  1.00  0.00     0.010 A 
ATOM     14  C   UNL A   1      35.484  31.162  29.226  1.00  0.00     0.010 A 
ATOM     15  C   UNL A   1      36.728  31.779  29.056  1.00  0.00    -0.014 A 
BRANCH  15  16
ATOM     16  C   UNL A   1      37.900  31.144  29.702  1.00  0.00     0.031 A 
ATOM     17  C   UNL A   1      38.718  30.063  29.062  1.00  0.00     0.074 A 
ATOM     18  C   UNL A   1      38.108  31.514  30.982  1.00  0.00     0.049 A 
ATOM     19  N   UNL A   1      39.751  29.432  29.557  1.00  0.00    -0.248 NA
ATOM     20  C   UNL A   1      38.341  29.623  27.710  1.00  0.00     0.031 C 
ATOM     21  C   UNL A   1      37.300  32.510  31.703  1.00  0.00     0.029 A 
ATOM     22  N   UNL A   1      39.005  31.081  31.918  1.00  0.00    -0.354 N 
ATOM     23  C   UNL A   1      40.157  28.524  28.584  1.00  0.00     0.074 A 
ATOM     24  C   UNL A   1      39.247  28.676  27.468  1.00  0.00     0.031 C 
ATOM     25  C   UNL A   1      37.714  32.582  32.973  1.00  0.00     0.029 A 
ATOM     26  C   UNL A   1      38.822  31.657  33.153  1.00  0.00     0.049 A 
ATOM     27  H   UNL A   1      39.710  30.422  31.727  1.00  0.00     0.167 HD
ATOM     28  C   UNL A   1      41.206  27.666  28.632  1.00  0.00     0.034 A 
ATOM     29  C   UNL A   1      39.487  31.478  34.307  1.00  0.00     0.034 A 
ATOM     30  C   UNL A   1      42.082  27.536  29.770  1.00  0.00     0.049 A 
ATOM     31  C   UNL A   1      40.658  30.549  34.310  1.00  0.00     0.074 A 
ATOM     32  C   UNL A   1      43.213  26.748  29.898  1.00  0.00     0.029 A 
ATOM     33  N   UNL A   1      41.921  28.201  30.977  1.00  0.00    -0.354 N 
ATOM     34  N   UNL A   1      41.110  29.804  33.332  1.00  0.00    -0.248 NA
ATOM     35  C   UNL A   1      41.442  30.472  35.548  1.00  0.00     0.031 C 
ATOM     36  C   UNL A   1      43.727  26.925  31.185  1.00  0.00     0.029 A 
ATOM     37  C   UNL A   1      42.934  27.845  31.850  1.00  0.00     0.049 A 
ATOM     38  H   UNL A   1      41.193  28.831  31.182  1.00  0.00     0.167 HD
ATOM     39  C   UNL A   1      42.263  29.209  33.814  1.00  0.00     0.074 A 
ATOM     40  C   UNL A   1      42.436  29.675  35.177  1.00  0.00     0.031 C 
ATOM     41  C   UNL A   1      43.105  28.357  33.184  1.00  0.00     0.034 A 
BRANCH  28  42
ATOM     42  C   UNL A   1      41.556  26.846  27.414  1.00  0.00     0.023 A 
ATOM     43  C   UNL A   1      42.268  27.469  26.369  1.00  0.00     0.012 A 
ATOM     44  C   UNL A   1      41.390  25.445  27.395  1.00  0.00     0.148 A 
ATOM     45  C   UNL A   1      42.818  26.715  25.333  1.00  0.00     0.002 A 
ATOM     46  C   UNL A   1      41.961  24.696  26.369  1.00  0.00     0.091 A 
ATOM     47  F   UNL A   1      40.722  24.869  28.405  1.00  0.00    -0.205 F 
ATOM     48  C   UNL A   1      42.676  25.330  25.339  1.00  0.00     0.022 A 
BRANCH  46  49
ATOM     49  S   UNL A   1      41.896  22.901  26.301  1.00  0.00     0.127 S 
ATOM     50  O   UNL A   1      42.608  22.625  25.056  1.00  0.00    -0.237 OA
ATOM     51  O   UNL A   1      42.611  22.520  27.514  1.00  0.00    -0.237 OA
ATOM     52  O   UNL A   1      40.476  22.549  26.283  1.00  0.00    -0.744 OA
ENDBRANCH  46  49
ENDBRANCH  28  42
BRANCH  29  53
ATOM     53  C   UNL A   1      39.133  32.313  35.483  1.00  0.00     0.023 A 
ATOM     54  C   UNL A   1      38.305  31.761  36.478  1.00  0.00     0.012 A 
ATOM     55  C   UNL A   1      39.691  33.591  35.674  1.00  0.00     0.148 A 
ATOM     56  C   UNL A   1      38.021  32.476  37.640  1.00  0.00     0.002 A 
ATOM     57  C   UNL A   1      39.431  34.285  36.850  1.00  0.00     0.091 A 
ATOM     58  F   UNL A   1      40.490  34.085  34.717  1.00  0.00    -0.205 F 
ATOM     59  C   UNL A   1      38.590  33.733  37.830  1.00  0.00     0.022 A 
BRANCH  57  60
ATOM     60  S   UNL A   1      40.195  35.866  37.230  1.00  0.00     0.127 S 
ATOM     61  O   UNL A   1      39.656  36.146  38.556  1.00  0.00    -0.237 OA
ATOM     62  O   UNL A   1      41.618  35.531  37.199  1.00  0.00    -0.237 OA
ATOM     63  O   UNL A   1      39.768  36.774  36.170  1.00  0.00    -0.744 OA
ENDBRANCH  57  60
ENDBRANCH  29  53
BRANCH  41  64
ATOM     64  C   UNL A   1      44.320  27.906  33.938  1.00  0.00     0.023 A 
ATOM     65  C   UNL A   1      45.492  28.684  33.908  1.00  0.00     0.012 A 
ATOM     66  C   UNL A   1      44.262  26.757  34.750  1.00  0.00     0.148 A 
ATOM     67  C   UNL A   1      46.599  28.315  34.669  1.00  0.00     0.002 A 
ATOM     68  C   UNL A   1      45.353  26.417  35.534  1.00  0.00     0.091 A 
ATOM     69  F   UNL A   1      43.135  26.029  34.744  1.00  0.00    -0.205 F 
ATOM     70  C   UNL A   1      46.526  27.191  35.491  1.00  0.00     0.022 A 
BRANCH  68  71
ATOM     71  S   UNL A   1      45.328  25.030  36.673  1.00  0.00     0.127 S 
ATOM     72  O   UNL A   1      45.578  23.904  35.775  1.00  0.00    -0.237 OA
ATOM     73  O   UNL A   1      46.435  25.352  37.573  1.00  0.00    -0.237 OA
ATOM     74  O   UNL A   1      44.012  25.042  37.299  1.00  0.00    -0.744 OA
ENDBRANCH  68  71
ENDBRANCH  41  64
ENDBRANCH  15  16
ENDBRANCH   8  10
ENDBRANCH   7   8
ENDBRANCH   6   7
ENDBRANCH   5   6
ENDBRANCH   4   5
ENDBRANCH   3   4
ENDBRANCH   2   3
ENDBRANCH   1   2
BRANCH   1  75
ATOM     75  C   UNL A   1      32.436  26.749  26.507  1.00  0.00     0.188 C 
BRANCH  75  76
ATOM     76  C   UNL A   1      32.959  25.380  26.080  1.00  0.00     0.188 C 
BRANCH  76  77
ATOM     77  O   UNL A   1      32.197  24.268  26.536  1.00  0.00    -0.376 OA
BRANCH  77  78
ATOM     78  C   UNL A   1      30.838  24.167  26.134  1.00  0.00     0.202 C 
BRANCH  78  79
ATOM     79  C   UNL A   1      30.532  24.573  24.679  1.00  0.00     0.261 C 
BRANCH  79  80
ATOM     80  O   UNL A   1      30.930  23.645  23.628  1.00  0.00    -0.463 OA
BRANCH  80  81
ATOM     81  C   UNL A   1      32.067  23.861  22.865  1.00  0.00     0.322 C 
ATOM     82  O   UNL A   1      32.184  24.841  22.141  1.00  0.00    -0.251 OA
BRANCH  81  83
ATOM     83  C   UNL A   1      33.140  22.587  22.983  1.00  0.00     0.162 C 
ATOM     84  C   UNL A   1      31.929  21.738  22.598  1.00  0.00     0.255 C 
ATOM     85  C   UNL A   1      33.600  21.700  24.245  1.00  0.00     0.105 C 
ATOM     86  C   UNL A   1      34.151  23.721  23.350  1.00  0.00     0.285 C 
ATOM     87  O   UNL A   1      32.250  20.395  22.198  1.00  0.00    -0.492 OA
ATOM     88  C   UNL A   1      33.222  20.220  24.335  1.00  0.00     0.004 A 
ATOM     89  C   UNL A   1      35.127  21.758  24.152  1.00  0.00     0.272 C 
ATOM     90  N   UNL A   1      35.434  23.125  23.784  1.00  0.00    -0.331 N 
ATOM     91  C   UNL A   1      32.479  19.653  23.309  1.00  0.00     0.123 A 
ATOM     92  C   UNL A   1      33.571  19.394  25.411  1.00  0.00     0.008 A 
ATOM     93  H   UNL A   1      36.116  23.158  23.027  1.00  0.00     0.348 HD
ATOM     94  C   UNL A   1      31.978  18.356  23.366  1.00  0.00     0.047 A 
ATOM     95  C   UNL A   1      33.106  18.071  25.470  1.00  0.00     0.001 A 
ATOM     96  C   UNL A   1      32.279  17.563  24.467  1.00  0.00     0.004 A 
BRANCH  90  97
ATOM     97  C   UNL A   1      36.116  23.885  24.861  1.00  0.00     0.290 C 
BRANCH  97  98
ATOM     98  C   UNL A   1      36.424  23.229  26.233  1.00  0.00     0.217 C 
BRANCH  98  99
ATOM     99  O   UNL A   1      35.260  23.063  27.041  1.00  0.00    -0.391 OA
ATOM    100  H   UNL A   1      35.056  23.899  27.488  1.00  0.00     0.210 HD
ENDBRANCH  98  99
ENDBRANCH  97  98
ENDBRANCH  90  97
ENDBRANCH  81  83
ENDBRANCH  80  81
ENDBRANCH  79  80
ENDBRANCH  78  79
ENDBRANCH  77  78
ENDBRANCH  76  77
ENDBRANCH  75  76
ENDBRANCH   1  75
TORSDOF 26
ENDMDL
