MODEL 1
REMARK VINA RESULT:      -9.6      0.000      0.000
REMARK SMILES O=C(OCCOCCOCCOCCOC(=O)c1ccc(S(=O)(=O)N[C@@H]2CC[N@@H+]3CCC[C@H]23)cc1)c1ccc(-c2c3nc(c(-c4cccc(S(=O)(=O)[O-])c4F)c4ccc([nH]4)c(-c4cccc(S(=O)(=O)[O-])c4F)c4nc(c(-c5cccc(S(=O)(=O)[O-])c5F)c5ccc2[nH]5)C=C4)C=C3)cc1
REMARK SMILES IDX 9 1 8 2 7 3 6 4 5 5 4 6 3 7 2 8 1 9 36 10 37 11 98 12 38 13
REMARK SMILES IDX 97 14 39 15 40 16 41 17 91 18 42 19 96 20 90 21 92 22 43 23
REMARK SMILES IDX 95 24 89 25 88 26 44 28 76 29 56 30 75 31 57 32 60 33 74 34
REMARK SMILES IDX 93 35 58 36 59 37 73 39 94 40 61 41 45 42 46 43 54 44 47 45
REMARK SMILES IDX 49 46 55 47 48 48 50 49 51 50 52 51 53 52 77 53 78 54 86 55
REMARK SMILES IDX 79 56 81 57 87 58 80 59 82 60 83 61 84 62 85 63 62 64 63 65
REMARK SMILES IDX 71 66 64 67 66 68 72 69 65 70 67 71 68 72 69 73 70 74 10 75
REMARK SMILES IDX 11 76 12 77 13 78 14 79 15 80 16 81 17 82 18 83 19 84 35 85
REMARK SMILES IDX 20 86 34 87 21 88 22 89 23 90 24 91 25 92 26 94 27 95 33 96
REMARK SMILES IDX 28 97 29 98 32 99 30 100 31 102
REMARK H PARENT 92 27 60 38 25 93 29 101
REMARK Flexibility Score: inf
ROOT
ATOM      1  O   UNL A   1      42.237  18.896  27.681  1.00  0.00    -0.377 OA
ENDROOT
BRANCH   1   2
ATOM      2  C   UNL A   1      43.151  18.145  26.876  1.00  0.00     0.188 C 
BRANCH   2   3
ATOM      3  C   UNL A   1      43.367  18.706  25.468  1.00  0.00     0.188 C 
BRANCH   3   4
ATOM      4  O   UNL A   1      44.761  18.912  25.242  1.00  0.00    -0.376 OA
BRANCH   4   5
ATOM      5  C   UNL A   1      45.100  19.932  24.308  1.00  0.00     0.202 C 
BRANCH   5   6
ATOM      6  C   UNL A   1      45.671  21.210  24.929  1.00  0.00     0.261 C 
BRANCH   6   7
ATOM      7  O   UNL A   1      44.686  21.967  25.655  1.00  0.00    -0.460 OA
BRANCH   7   8
ATOM      8  C   UNL A   1      43.889  22.950  25.155  1.00  0.00     0.338 C 
ATOM      9  O   UNL A   1      43.303  22.767  24.090  1.00  0.00    -0.246 OA
BRANCH   8  10
ATOM     10  C   UNL A   1      43.655  24.225  25.891  1.00  0.00     0.060 A 
ATOM     11  C   UNL A   1      43.285  25.413  25.267  1.00  0.00     0.016 A 
ATOM     12  C   UNL A   1      43.761  24.217  27.287  1.00  0.00     0.016 A 
ATOM     13  C   UNL A   1      43.212  26.604  25.967  1.00  0.00     0.010 A 
ATOM     14  C   UNL A   1      43.584  25.399  28.018  1.00  0.00     0.010 A 
ATOM     15  C   UNL A   1      43.366  26.612  27.350  1.00  0.00    -0.014 A 
BRANCH  15  16
ATOM     16  C   UNL A   1      43.413  27.925  28.030  1.00  0.00     0.031 A 
ATOM     17  C   UNL A   1      44.713  28.675  28.051  1.00  0.00     0.074 A 
ATOM     18  C   UNL A   1      42.276  28.486  28.486  1.00  0.00     0.049 A 
ATOM     19  N   UNL A   1      44.995  29.821  28.609  1.00  0.00    -0.248 NA
ATOM     20  C   UNL A   1      45.849  28.058  27.343  1.00  0.00     0.031 C 
ATOM     21  C   UNL A   1      40.948  27.866  28.432  1.00  0.00     0.029 A 
ATOM     22  N   UNL A   1      42.044  29.712  29.054  1.00  0.00    -0.354 N 
ATOM     23  C   UNL A   1      46.347  30.030  28.372  1.00  0.00     0.074 A 
ATOM     24  C   UNL A   1      46.833  28.900  27.616  1.00  0.00     0.031 C 
ATOM     25  C   UNL A   1      40.039  28.727  28.914  1.00  0.00     0.029 A 
ATOM     26  C   UNL A   1      40.725  29.925  29.383  1.00  0.00     0.049 A 
ATOM     27  H   UNL A   1      42.753  30.376  29.212  1.00  0.00     0.167 HD
ATOM     28  C   UNL A   1      47.114  31.080  28.747  1.00  0.00     0.034 A 
ATOM     29  C   UNL A   1      40.145  30.959  30.022  1.00  0.00     0.034 A 
ATOM     30  C   UNL A   1      46.601  32.211  29.466  1.00  0.00     0.049 A 
ATOM     31  C   UNL A   1      41.025  32.105  30.445  1.00  0.00     0.074 A 
ATOM     32  C   UNL A   1      47.286  33.304  29.961  1.00  0.00     0.029 A 
ATOM     33  N   UNL A   1      45.262  32.396  29.778  1.00  0.00    -0.354 N 
ATOM     34  N   UNL A   1      42.309  32.280  30.231  1.00  0.00    -0.248 NA
ATOM     35  C   UNL A   1      40.383  33.198  31.186  1.00  0.00     0.031 C 
ATOM     36  C   UNL A   1      46.357  34.150  30.580  1.00  0.00     0.029 A 
ATOM     37  C   UNL A   1      45.093  33.591  30.452  1.00  0.00     0.049 A 
ATOM     38  H   UNL A   1      44.538  31.768  29.553  1.00  0.00     0.167 HD
ATOM     39  C   UNL A   1      42.628  33.502  30.805  1.00  0.00     0.074 A 
ATOM     40  C   UNL A   1      41.392  34.045  31.335  1.00  0.00     0.031 C 
ATOM     41  C   UNL A   1      43.833  34.113  30.919  1.00  0.00     0.034 A 
BRANCH  28  42
ATOM     42  C   UNL A   1      48.573  31.027  28.384  1.00  0.00     0.023 A 
ATOM     43  C   UNL A   1      49.454  30.229  29.141  1.00  0.00     0.012 A 
ATOM     44  C   UNL A   1      49.076  31.789  27.312  1.00  0.00     0.148 A 
ATOM     45  C   UNL A   1      50.820  30.218  28.860  1.00  0.00     0.002 A 
ATOM     46  C   UNL A   1      50.432  31.745  27.015  1.00  0.00     0.091 A 
ATOM     47  F   UNL A   1      48.224  32.561  26.623  1.00  0.00    -0.205 F 
ATOM     48  C   UNL A   1      51.308  30.971  27.794  1.00  0.00     0.022 A 
BRANCH  46  49
ATOM     49  S   UNL A   1      51.155  32.645  25.639  1.00  0.00     0.127 S 
ATOM     50  O   UNL A   1      52.279  33.322  26.286  1.00  0.00    -0.237 OA
ATOM     51  O   UNL A   1      51.537  31.562  24.732  1.00  0.00    -0.237 OA
ATOM     52  O   UNL A   1      50.108  33.522  25.135  1.00  0.00    -0.744 OA
ENDBRANCH  46  49
ENDBRANCH  28  42
BRANCH  29  53
ATOM     53  C   UNL A   1      38.679  30.950  30.307  1.00  0.00     0.023 A 
ATOM     54  C   UNL A   1      38.171  30.174  31.366  1.00  0.00     0.012 A 
ATOM     55  C   UNL A   1      37.783  31.723  29.542  1.00  0.00     0.148 A 
ATOM     56  C   UNL A   1      36.801  30.149  31.640  1.00  0.00     0.002 A 
ATOM     57  C   UNL A   1      36.429  31.745  29.860  1.00  0.00     0.091 A 
ATOM     58  F   UNL A   1      38.269  32.433  28.512  1.00  0.00    -0.205 F 
ATOM     59  C   UNL A   1      35.932  30.945  30.898  1.00  0.00     0.022 A 
BRANCH  57  60
ATOM     60  S   UNL A   1      35.287  32.864  29.040  1.00  0.00     0.127 S 
ATOM     61  O   UNL A   1      34.051  32.630  29.782  1.00  0.00    -0.237 OA
ATOM     62  O   UNL A   1      35.907  34.169  29.274  1.00  0.00    -0.237 OA
ATOM     63  O   UNL A   1      35.287  32.451  27.643  1.00  0.00    -0.744 OA
ENDBRANCH  57  60
ENDBRANCH  29  53
BRANCH  41  64
ATOM     64  C   UNL A   1      43.864  35.435  31.630  1.00  0.00     0.023 A 
ATOM     65  C   UNL A   1      43.950  35.464  33.037  1.00  0.00     0.012 A 
ATOM     66  C   UNL A   1      43.885  36.640  30.905  1.00  0.00     0.148 A 
ATOM     67  C   UNL A   1      44.026  36.679  33.713  1.00  0.00     0.002 A 
ATOM     68  C   UNL A   1      44.010  37.846  31.584  1.00  0.00     0.091 A 
ATOM     69  F   UNL A   1      43.777  36.588  29.570  1.00  0.00    -0.205 F 
ATOM     70  C   UNL A   1      44.070  37.867  32.987  1.00  0.00     0.022 A 
BRANCH  68  71
ATOM     71  S   UNL A   1      44.172  39.408  30.717  1.00  0.00     0.127 S 
ATOM     72  O   UNL A   1      43.065  39.339  29.765  1.00  0.00    -0.237 OA
ATOM     73  O   UNL A   1      43.990  40.385  31.793  1.00  0.00    -0.237 OA
ATOM     74  O   UNL A   1      45.508  39.400  30.135  1.00  0.00    -0.744 OA
ENDBRANCH  68  71
ENDBRANCH  41  64
ENDBRANCH  15  16
ENDBRANCH   8  10
ENDBRANCH   7   8
ENDBRANCH   6   7
ENDBRANCH   5   6
ENDBRANCH   4   5
ENDBRANCH   3   4
ENDBRANCH   2   3
ENDBRANCH   1   2
BRANCH   1  75
ATOM     75  C   UNL A   1      42.014  20.243  27.273  1.00  0.00     0.188 C 
BRANCH  75  76
ATOM     76  C   UNL A   1      40.721  20.580  26.502  1.00  0.00     0.188 C 
BRANCH  76  77
ATOM     77  O   UNL A   1      39.834  21.467  27.171  1.00  0.00    -0.376 OA
BRANCH  77  78
ATOM     78  C   UNL A   1      39.165  22.402  26.321  1.00  0.00     0.202 C 
BRANCH  78  79
ATOM     79  C   UNL A   1      38.176  21.736  25.358  1.00  0.00     0.261 C 
BRANCH  79  80
ATOM     80  O   UNL A   1      36.807  22.119  25.572  1.00  0.00    -0.460 OA
BRANCH  80  81
ATOM     81  C   UNL A   1      35.852  21.388  24.961  1.00  0.00     0.338 C 
ATOM     82  O   UNL A   1      35.772  20.175  24.901  1.00  0.00    -0.246 OA
BRANCH  81  83
ATOM     83  C   UNL A   1      34.765  22.320  24.572  1.00  0.00     0.060 A 
ATOM     84  C   UNL A   1      35.067  23.330  23.645  1.00  0.00     0.017 A 
ATOM     85  C   UNL A   1      33.440  22.105  24.980  1.00  0.00     0.017 A 
ATOM     86  C   UNL A   1      34.043  24.110  23.109  1.00  0.00     0.022 A 
ATOM     87  C   UNL A   1      32.413  22.887  24.448  1.00  0.00     0.022 A 
ATOM     88  C   UNL A   1      32.725  23.888  23.520  1.00  0.00     0.082 A 
BRANCH  88  89
ATOM     89  S   UNL A   1      31.459  25.015  22.992  1.00  0.00     0.241 S 
ATOM     90  O   UNL A   1      31.872  25.607  21.741  1.00  0.00    -0.207 OA
ATOM     91  O   UNL A   1      30.178  24.364  23.149  1.00  0.00    -0.207 OA
BRANCH  89  92
ATOM     92  N   UNL A   1      31.528  26.213  24.156  1.00  0.00    -0.202 NA
ATOM     93  H   UNL A   1      32.122  25.855  24.906  1.00  0.00     0.141 HD
BRANCH  92  94
ATOM     94  C   UNL A   1      32.029  27.552  23.834  1.00  0.00     0.133 C 
ATOM     95  C   UNL A   1      33.551  27.529  23.679  1.00  0.00     0.087 C 
ATOM     96  C   UNL A   1      31.738  28.626  24.887  1.00  0.00     0.202 C 
ATOM     97  C   UNL A   1      34.074  28.465  24.754  1.00  0.00     0.264 C 
ATOM     98  N   UNL A   1      32.983  29.422  24.948  1.00  0.00    -0.331 N 
ATOM     99  C   UNL A   1      31.490  28.164  26.316  1.00  0.00     0.072 C 
ATOM    100  C   UNL A   1      33.012  30.056  26.266  1.00  0.00     0.262 C 
ATOM    101  H   UNL A   1      33.055  30.156  24.243  1.00  0.00     0.348 HD
ATOM    102  C   UNL A   1      32.093  29.257  27.181  1.00  0.00     0.068 C 
ENDBRANCH  92  94
ENDBRANCH  89  92
ENDBRANCH  88  89
ENDBRANCH  81  83
ENDBRANCH  80  81
ENDBRANCH  79  80
ENDBRANCH  78  79
ENDBRANCH  77  78
ENDBRANCH  76  77
ENDBRANCH  75  76
ENDBRANCH   1  75
TORSDOF 26
ENDMDL
MODEL 2
REMARK VINA RESULT:      -9.6      4.664      5.564
REMARK SMILES O=C(OCCOCCOCCOCCOC(=O)c1ccc(S(=O)(=O)N[C@@H]2CC[N@@H+]3CCC[C@H]23)cc1)c1ccc(-c2c3nc(c(-c4cccc(S(=O)(=O)[O-])c4F)c4ccc([nH]4)c(-c4cccc(S(=O)(=O)[O-])c4F)c4nc(c(-c5cccc(S(=O)(=O)[O-])c5F)c5ccc2[nH]5)C=C4)C=C3)cc1
REMARK SMILES IDX 9 1 8 2 7 3 6 4 5 5 4 6 3 7 2 8 1 9 36 10 37 11 98 12 38 13
REMARK SMILES IDX 97 14 39 15 40 16 41 17 91 18 42 19 96 20 90 21 92 22 43 23
REMARK SMILES IDX 95 24 89 25 88 26 44 28 76 29 56 30 75 31 57 32 60 33 74 34
REMARK SMILES IDX 93 35 58 36 59 37 73 39 94 40 61 41 45 42 46 43 54 44 47 45
REMARK SMILES IDX 49 46 55 47 48 48 50 49 51 50 52 51 53 52 77 53 78 54 86 55
REMARK SMILES IDX 79 56 81 57 87 58 80 59 82 60 83 61 84 62 85 63 62 64 63 65
REMARK SMILES IDX 71 66 64 67 66 68 72 69 65 70 67 71 68 72 69 73 70 74 10 75
REMARK SMILES IDX 11 76 12 77 13 78 14 79 15 80 16 81 17 82 18 83 19 84 35 85
REMARK SMILES IDX 20 86 34 87 21 88 22 89 23 90 24 91 25 92 26 94 27 95 33 96
REMARK SMILES IDX 28 97 29 98 32 99 30 100 31 102
REMARK H PARENT 92 27 60 38 25 93 29 101
REMARK Flexibility Score: inf
ROOT
ATOM      1  O   UNL A   1      42.501  18.804  27.338  1.00  0.00    -0.377 OA
ENDROOT
BRANCH   1   2
ATOM      2  C   UNL A   1      43.206  18.160  26.272  1.00  0.00     0.188 C 
BRANCH   2   3
ATOM      3  C   UNL A   1      43.664  19.101  25.154  1.00  0.00     0.188 C 
BRANCH   3   4
ATOM      4  O   UNL A   1      45.057  19.379  25.301  1.00  0.00    -0.376 OA
BRANCH   4   5
ATOM      5  C   UNL A   1      45.531  20.557  24.658  1.00  0.00     0.202 C 
BRANCH   5   6
ATOM      6  C   UNL A   1      45.753  21.754  25.587  1.00  0.00     0.261 C 
BRANCH   6   7
ATOM      7  O   UNL A   1      44.537  22.467  25.878  1.00  0.00    -0.460 OA
BRANCH   7   8
ATOM      8  C   UNL A   1      44.243  23.747  25.523  1.00  0.00     0.338 C 
ATOM      9  O   UNL A   1      44.537  24.142  24.397  1.00  0.00    -0.246 OA
BRANCH   8  10
ATOM     10  C   UNL A   1      43.517  24.672  26.439  1.00  0.00     0.060 A 
ATOM     11  C   UNL A   1      43.675  26.055  26.416  1.00  0.00     0.016 A 
ATOM     12  C   UNL A   1      42.589  24.128  27.336  1.00  0.00     0.016 A 
ATOM     13  C   UNL A   1      43.089  26.865  27.371  1.00  0.00     0.010 A 
ATOM     14  C   UNL A   1      41.909  24.955  28.240  1.00  0.00     0.010 A 
ATOM     15  C   UNL A   1      42.203  26.325  28.298  1.00  0.00    -0.014 A 
BRANCH  15  16
ATOM     16  C   UNL A   1      41.712  27.208  29.378  1.00  0.00     0.031 A 
ATOM     17  C   UNL A   1      42.576  27.410  30.588  1.00  0.00     0.074 A 
ATOM     18  C   UNL A   1      40.582  27.921  29.201  1.00  0.00     0.049 A 
ATOM     19  N   UNL A   1      42.340  28.112  31.663  1.00  0.00    -0.248 NA
ATOM     20  C   UNL A   1      43.889  26.739  30.588  1.00  0.00     0.031 C 
ATOM     21  C   UNL A   1      39.718  27.854  28.017  1.00  0.00     0.029 A 
ATOM     22  N   UNL A   1      39.982  28.864  29.993  1.00  0.00    -0.354 N 
ATOM     23  C   UNL A   1      43.441  27.917  32.487  1.00  0.00     0.074 A 
ATOM     24  C   UNL A   1      44.351  27.038  31.791  1.00  0.00     0.031 C 
ATOM     25  C   UNL A   1      38.720  28.741  28.148  1.00  0.00     0.029 A 
ATOM     26  C   UNL A   1      38.826  29.382  29.453  1.00  0.00     0.049 A 
ATOM     27  H   UNL A   1      40.341  29.144  30.866  1.00  0.00     0.167 HD
ATOM     28  C   UNL A   1      43.675  28.435  33.715  1.00  0.00     0.034 A 
ATOM     29  C   UNL A   1      37.938  30.252  29.973  1.00  0.00     0.034 A 
ATOM     30  C   UNL A   1      42.773  29.337  34.372  1.00  0.00     0.049 A 
ATOM     31  C   UNL A   1      38.213  30.797  31.348  1.00  0.00     0.074 A 
ATOM     32  C   UNL A   1      42.861  29.878  35.640  1.00  0.00     0.029 A 
ATOM     33  N   UNL A   1      41.617  29.844  33.795  1.00  0.00    -0.354 N 
ATOM     34  N   UNL A   1      39.250  30.588  32.125  1.00  0.00    -0.248 NA
ATOM     35  C   UNL A   1      37.207  31.702  31.917  1.00  0.00     0.031 C 
ATOM     36  C   UNL A   1      41.751  30.710  35.832  1.00  0.00     0.029 A 
ATOM     37  C   UNL A   1      40.983  30.700  34.676  1.00  0.00     0.049 A 
ATOM     38  H   UNL A   1      41.294  29.625  32.891  1.00  0.00     0.167 HD
ATOM     39  C   UNL A   1      39.026  31.338  33.271  1.00  0.00     0.074 A 
ATOM     40  C   UNL A   1      37.775  32.042  33.065  1.00  0.00     0.031 C 
ATOM     41  C   UNL A   1      39.763  31.417  34.407  1.00  0.00     0.034 A 
BRANCH  28  42
ATOM     42  C   UNL A   1      44.946  28.021  34.403  1.00  0.00     0.023 A 
ATOM     43  C   UNL A   1      46.113  28.797  34.246  1.00  0.00     0.012 A 
ATOM     44  C   UNL A   1      44.994  26.849  35.182  1.00  0.00     0.148 A 
ATOM     45  C   UNL A   1      47.317  28.394  34.823  1.00  0.00     0.002 A 
ATOM     46  C   UNL A   1      46.189  26.472  35.783  1.00  0.00     0.091 A 
ATOM     47  F   UNL A   1      43.881  26.113  35.295  1.00  0.00    -0.205 F 
ATOM     48  C   UNL A   1      47.353  27.236  35.596  1.00  0.00     0.022 A 
BRANCH  46  49
ATOM     49  S   UNL A   1      46.334  25.021  36.831  1.00  0.00     0.127 S 
ATOM     50  O   UNL A   1      46.002  23.947  35.895  1.00  0.00    -0.237 OA
ATOM     51  O   UNL A   1      47.741  25.070  37.229  1.00  0.00    -0.237 OA
ATOM     52  O   UNL A   1      45.385  25.212  37.919  1.00  0.00    -0.744 OA
ENDBRANCH  46  49
ENDBRANCH  28  42
BRANCH  29  53
ATOM     53  C   UNL A   1      36.720  30.641  29.203  1.00  0.00     0.023 A 
ATOM     54  C   UNL A   1      35.891  29.650  28.643  1.00  0.00     0.012 A 
ATOM     55  C   UNL A   1      36.364  31.995  29.038  1.00  0.00     0.148 A 
ATOM     56  C   UNL A   1      34.752  29.999  27.914  1.00  0.00     0.002 A 
ATOM     57  C   UNL A   1      35.194  32.335  28.367  1.00  0.00     0.091 A 
ATOM     58  F   UNL A   1      37.175  32.936  29.544  1.00  0.00    -0.205 F 
ATOM     59  C   UNL A   1      34.395  31.339  27.788  1.00  0.00     0.022 A 
BRANCH  57  60
ATOM     60  S   UNL A   1      34.602  34.030  28.304  1.00  0.00     0.127 S 
ATOM     61  O   UNL A   1      35.193  34.510  27.058  1.00  0.00    -0.237 OA
ATOM     62  O   UNL A   1      33.149  33.852  28.267  1.00  0.00    -0.237 OA
ATOM     63  O   UNL A   1      35.090  34.648  29.529  1.00  0.00    -0.744 OA
ENDBRANCH  57  60
ENDBRANCH  29  53
BRANCH  41  64
ATOM     64  C   UNL A   1      39.237  32.303  35.500  1.00  0.00     0.023 A 
ATOM     65  C   UNL A   1      38.324  31.781  36.438  1.00  0.00     0.012 A 
ATOM     66  C   UNL A   1      39.703  33.623  35.641  1.00  0.00     0.148 A 
ATOM     67  C   UNL A   1      37.861  32.572  37.486  1.00  0.00     0.002 A 
ATOM     68  C   UNL A   1      39.273  34.390  36.716  1.00  0.00     0.091 A 
ATOM     69  F   UNL A   1      40.552  34.106  34.722  1.00  0.00    -0.205 F 
ATOM     70  C   UNL A   1      38.345  33.870  37.633  1.00  0.00     0.022 A 
BRANCH  68  71
ATOM     71  S   UNL A   1      39.924  36.033  37.028  1.00  0.00     0.127 S 
ATOM     72  O   UNL A   1      41.308  35.740  37.398  1.00  0.00    -0.237 OA
ATOM     73  O   UNL A   1      39.765  36.686  35.728  1.00  0.00    -0.237 OA
ATOM     74  O   UNL A   1      39.092  36.593  38.085  1.00  0.00    -0.744 OA
ENDBRANCH  68  71
ENDBRANCH  41  64
ENDBRANCH  15  16
ENDBRANCH   8  10
ENDBRANCH   7   8
ENDBRANCH   6   7
ENDBRANCH   5   6
ENDBRANCH   4   5
ENDBRANCH   3   4
ENDBRANCH   2   3
ENDBRANCH   1   2
BRANCH   1  75
ATOM     75  C   UNL A   1      42.169  20.174  27.123  1.00  0.00     0.188 C 
BRANCH  75  76
ATOM     76  C   UNL A   1      40.684  20.562  26.970  1.00  0.00     0.188 C 
BRANCH  76  77
ATOM     77  O   UNL A   1      40.430  21.625  26.061  1.00  0.00    -0.376 OA
BRANCH  77  78
ATOM     78  C   UNL A   1      39.277  22.414  26.365  1.00  0.00     0.202 C 
BRANCH  78  79
ATOM     79  C   UNL A   1      37.965  21.756  25.923  1.00  0.00     0.261 C 
BRANCH  79  80
ATOM     80  O   UNL A   1      36.857  22.667  25.839  1.00  0.00    -0.460 OA
BRANCH  80  81
ATOM     81  C   UNL A   1      35.628  22.138  25.658  1.00  0.00     0.338 C 
ATOM     82  O   UNL A   1      35.310  20.966  25.719  1.00  0.00    -0.246 OA
BRANCH  81  83
ATOM     83  C   UNL A   1      34.667  23.266  25.609  1.00  0.00     0.060 A 
ATOM     84  C   UNL A   1      34.699  24.108  24.486  1.00  0.00     0.017 A 
ATOM     85  C   UNL A   1      33.645  23.396  26.562  1.00  0.00     0.017 A 
ATOM     86  C   UNL A   1      33.700  25.064  24.305  1.00  0.00     0.022 A 
ATOM     87  C   UNL A   1      32.646  24.354  26.385  1.00  0.00     0.022 A 
ATOM     88  C   UNL A   1      32.685  25.186  25.259  1.00  0.00     0.082 A 
BRANCH  88  89
ATOM     89  S   UNL A   1      31.539  26.534  25.129  1.00  0.00     0.241 S 
ATOM     90  O   UNL A   1      30.200  26.003  25.229  1.00  0.00    -0.207 OA
ATOM     91  O   UNL A   1      32.005  27.609  25.975  1.00  0.00    -0.207 OA
BRANCH  89  92
ATOM     92  N   UNL A   1      31.755  27.045  23.551  1.00  0.00    -0.202 NA
ATOM     93  H   UNL A   1      31.003  26.624  23.004  1.00  0.00     0.141 HD
BRANCH  92  94
ATOM     94  C   UNL A   1      31.765  28.472  23.213  1.00  0.00     0.133 C 
ATOM     95  C   UNL A   1      32.004  29.315  24.468  1.00  0.00     0.087 C 
ATOM     96  C   UNL A   1      30.466  29.004  22.600  1.00  0.00     0.202 C 
ATOM     97  C   UNL A   1      30.763  30.177  24.609  1.00  0.00     0.264 C 
ATOM     98  N   UNL A   1      30.281  30.326  23.235  1.00  0.00    -0.331 N 
ATOM     99  C   UNL A   1      29.183  28.238  22.891  1.00  0.00     0.072 C 
ATOM    100  C   UNL A   1      28.851  30.629  23.166  1.00  0.00     0.262 C 
ATOM    101  H   UNL A   1      30.786  31.090  22.786  1.00  0.00     0.348 HD
ATOM    102  C   UNL A   1      28.111  29.310  22.980  1.00  0.00     0.068 C 
ENDBRANCH  92  94
ENDBRANCH  89  92
ENDBRANCH  88  89
ENDBRANCH  81  83
ENDBRANCH  80  81
ENDBRANCH  79  80
ENDBRANCH  78  79
ENDBRANCH  77  78
ENDBRANCH  76  77
ENDBRANCH  75  76
ENDBRANCH   1  75
TORSDOF 26
ENDMDL
MODEL 3
REMARK VINA RESULT:      -9.3      1.697      2.088
REMARK SMILES O=C(OCCOCCOCCOCCOC(=O)c1ccc(S(=O)(=O)N[C@@H]2CC[N@@H+]3CCC[C@H]23)cc1)c1ccc(-c2c3nc(c(-c4cccc(S(=O)(=O)[O-])c4F)c4ccc([nH]4)c(-c4cccc(S(=O)(=O)[O-])c4F)c4nc(c(-c5cccc(S(=O)(=O)[O-])c5F)c5ccc2[nH]5)C=C4)C=C3)cc1
REMARK SMILES IDX 9 1 8 2 7 3 6 4 5 5 4 6 3 7 2 8 1 9 36 10 37 11 98 12 38 13
REMARK SMILES IDX 97 14 39 15 40 16 41 17 91 18 42 19 96 20 90 21 92 22 43 23
REMARK SMILES IDX 95 24 89 25 88 26 44 28 76 29 56 30 75 31 57 32 60 33 74 34
REMARK SMILES IDX 93 35 58 36 59 37 73 39 94 40 61 41 45 42 46 43 54 44 47 45
REMARK SMILES IDX 49 46 55 47 48 48 50 49 51 50 52 51 53 52 77 53 78 54 86 55
REMARK SMILES IDX 79 56 81 57 87 58 80 59 82 60 83 61 84 62 85 63 62 64 63 65
REMARK SMILES IDX 71 66 64 67 66 68 72 69 65 70 67 71 68 72 69 73 70 74 10 75
REMARK SMILES IDX 11 76 12 77 13 78 14 79 15 80 16 81 17 82 18 83 19 84 35 85
REMARK SMILES IDX 20 86 34 87 21 88 22 89 23 90 24 91 25 92 26 94 27 95 33 96
REMARK SMILES IDX 28 97 29 98 32 99 30 100 31 102
REMARK H PARENT 92 27 60 38 25 93 29 101
REMARK Flexibility Score: inf
ROOT
ATOM      1  O   UNL A   1      42.330  18.797  27.688  1.00  0.00    -0.377 OA
ENDROOT
BRANCH   1   2
ATOM      2  C   UNL A   1      43.043  18.101  26.661  1.00  0.00     0.188 C 
BRANCH   2   3
ATOM      3  C   UNL A   1      43.412  18.961  25.450  1.00  0.00     0.188 C 
BRANCH   3   4
ATOM      4  O   UNL A   1      44.826  19.162  25.417  1.00  0.00    -0.376 OA
BRANCH   4   5
ATOM      5  C   UNL A   1      45.315  20.001  24.376  1.00  0.00     0.202 C 
BRANCH   5   6
ATOM      6  C   UNL A   1      45.858  21.355  24.841  1.00  0.00     0.261 C 
BRANCH   6   7
ATOM      7  O   UNL A   1      44.943  22.058  25.700  1.00  0.00    -0.460 OA
BRANCH   7   8
ATOM      8  C   UNL A   1      43.980  22.937  25.313  1.00  0.00     0.338 C 
ATOM      9  O   UNL A   1      43.246  22.649  24.371  1.00  0.00    -0.246 OA
BRANCH   8  10
ATOM     10  C   UNL A   1      43.745  24.218  26.037  1.00  0.00     0.060 A 
ATOM     11  C   UNL A   1      43.323  25.387  25.409  1.00  0.00     0.016 A 
ATOM     12  C   UNL A   1      43.907  24.237  27.428  1.00  0.00     0.016 A 
ATOM     13  C   UNL A   1      43.249  26.588  26.092  1.00  0.00     0.010 A 
ATOM     14  C   UNL A   1      43.732  25.427  28.146  1.00  0.00     0.010 A 
ATOM     15  C   UNL A   1      43.458  26.624  27.467  1.00  0.00    -0.014 A 
BRANCH  15  16
ATOM     16  C   UNL A   1      43.501  27.948  28.124  1.00  0.00     0.031 A 
ATOM     17  C   UNL A   1      44.786  28.725  28.089  1.00  0.00     0.074 A 
ATOM     18  C   UNL A   1      42.369  28.494  28.609  1.00  0.00     0.049 A 
ATOM     19  N   UNL A   1      45.063  29.885  28.617  1.00  0.00    -0.248 NA
ATOM     20  C   UNL A   1      45.910  28.118  27.352  1.00  0.00     0.031 C 
ATOM     21  C   UNL A   1      41.053  27.848  28.610  1.00  0.00     0.029 A 
ATOM     22  N   UNL A   1      42.131  29.725  29.163  1.00  0.00    -0.354 N 
ATOM     23  C   UNL A   1      46.402  30.117  28.331  1.00  0.00     0.074 A 
ATOM     24  C   UNL A   1      46.885  28.984  27.578  1.00  0.00     0.031 C 
ATOM     25  C   UNL A   1      40.143  28.699  29.107  1.00  0.00     0.029 A 
ATOM     26  C   UNL A   1      40.820  29.918  29.533  1.00  0.00     0.049 A 
ATOM     27  H   UNL A   1      42.832  30.406  29.286  1.00  0.00     0.167 HD
ATOM     28  C   UNL A   1      47.160  31.188  28.662  1.00  0.00     0.034 A 
ATOM     29  C   UNL A   1      40.240  30.952  30.174  1.00  0.00     0.034 A 
ATOM     30  C   UNL A   1      46.648  32.321  29.379  1.00  0.00     0.049 A 
ATOM     31  C   UNL A   1      41.111  32.121  30.547  1.00  0.00     0.074 A 
ATOM     32  C   UNL A   1      47.326  33.436  29.833  1.00  0.00     0.029 A 
ATOM     33  N   UNL A   1      45.316  32.485  29.733  1.00  0.00    -0.354 N 
ATOM     34  N   UNL A   1      42.383  32.318  30.288  1.00  0.00    -0.248 NA
ATOM     35  C   UNL A   1      40.472  33.214  31.292  1.00  0.00     0.031 C 
ATOM     36  C   UNL A   1      46.402  34.273  30.469  1.00  0.00     0.029 A 
ATOM     37  C   UNL A   1      45.146  33.688  30.393  1.00  0.00     0.049 A 
ATOM     38  H   UNL A   1      44.598  31.839  29.544  1.00  0.00     0.167 HD
ATOM     39  C   UNL A   1      42.696  33.557  30.830  1.00  0.00     0.074 A 
ATOM     40  C   UNL A   1      41.468  34.084  31.392  1.00  0.00     0.031 C 
ATOM     41  C   UNL A   1      43.892  34.192  30.893  1.00  0.00     0.034 A 
BRANCH  28  42
ATOM     42  C   UNL A   1      48.606  31.157  28.252  1.00  0.00     0.023 A 
ATOM     43  C   UNL A   1      49.025  31.870  27.110  1.00  0.00     0.012 A 
ATOM     44  C   UNL A   1      49.545  30.401  28.979  1.00  0.00     0.148 A 
ATOM     45  C   UNL A   1      50.349  31.801  26.677  1.00  0.00     0.002 A 
ATOM     46  C   UNL A   1      50.870  30.366  28.562  1.00  0.00     0.091 A 
ATOM     47  F   UNL A   1      49.118  29.710  30.045  1.00  0.00    -0.205 F 
ATOM     48  C   UNL A   1      51.272  31.054  27.406  1.00  0.00     0.022 A 
BRANCH  46  49
ATOM     49  S   UNL A   1      52.145  29.467  29.453  1.00  0.00     0.127 S 
ATOM     50  O   UNL A   1      53.221  30.457  29.506  1.00  0.00    -0.237 OA
ATOM     51  O   UNL A   1      51.494  29.206  30.737  1.00  0.00    -0.237 OA
ATOM     52  O   UNL A   1      52.431  28.280  28.660  1.00  0.00    -0.744 OA
ENDBRANCH  46  49
ENDBRANCH  28  42
BRANCH  29  53
ATOM     53  C   UNL A   1      38.786  30.918  30.508  1.00  0.00     0.023 A 
ATOM     54  C   UNL A   1      38.329  30.150  31.595  1.00  0.00     0.012 A 
ATOM     55  C   UNL A   1      37.849  31.662  29.762  1.00  0.00     0.148 A 
ATOM     56  C   UNL A   1      36.969  30.102  31.916  1.00  0.00     0.002 A 
ATOM     57  C   UNL A   1      36.507  31.663  30.125  1.00  0.00     0.091 A 
ATOM     58  F   UNL A   1      38.286  32.365  28.706  1.00  0.00    -0.205 F 
ATOM     59  C   UNL A   1      36.061  30.869  31.191  1.00  0.00     0.022 A 
BRANCH  57  60
ATOM     60  S   UNL A   1      35.315  32.746  29.328  1.00  0.00     0.127 S 
ATOM     61  O   UNL A   1      34.147  32.597  30.191  1.00  0.00    -0.237 OA
ATOM     62  O   UNL A   1      35.977  34.050  29.408  1.00  0.00    -0.237 OA
ATOM     63  O   UNL A   1      35.184  32.233  27.971  1.00  0.00    -0.744 OA
ENDBRANCH  57  60
ENDBRANCH  29  53
BRANCH  41  64
ATOM     64  C   UNL A   1      43.920  35.527  31.581  1.00  0.00     0.023 A 
ATOM     65  C   UNL A   1      44.064  35.583  32.982  1.00  0.00     0.012 A 
ATOM     66  C   UNL A   1      43.880  36.720  30.836  1.00  0.00     0.148 A 
ATOM     67  C   UNL A   1      44.138  36.811  33.634  1.00  0.00     0.002 A 
ATOM     68  C   UNL A   1      44.003  37.940  31.490  1.00  0.00     0.091 A 
ATOM     69  F   UNL A   1      43.717  36.642  29.507  1.00  0.00    -0.205 F 
ATOM     70  C   UNL A   1      44.122  37.987  32.888  1.00  0.00     0.022 A 
BRANCH  68  71
ATOM     71  S   UNL A   1      44.089  39.491  30.591  1.00  0.00     0.127 S 
ATOM     72  O   UNL A   1      45.362  40.036  31.057  1.00  0.00    -0.237 OA
ATOM     73  O   UNL A   1      44.089  39.045  29.196  1.00  0.00    -0.237 OA
ATOM     74  O   UNL A   1      42.901  40.239  30.980  1.00  0.00    -0.744 OA
ENDBRANCH  68  71
ENDBRANCH  41  64
ENDBRANCH  15  16
ENDBRANCH   8  10
ENDBRANCH   7   8
ENDBRANCH   6   7
ENDBRANCH   5   6
ENDBRANCH   4   5
ENDBRANCH   3   4
ENDBRANCH   2   3
ENDBRANCH   1   2
BRANCH   1  75
ATOM     75  C   UNL A   1      42.227  20.209  27.524  1.00  0.00     0.188 C 
BRANCH  75  76
ATOM     76  C   UNL A   1      40.848  20.820  27.201  1.00  0.00     0.188 C 
BRANCH  76  77
ATOM     77  O   UNL A   1      40.879  22.157  26.719  1.00  0.00    -0.376 OA
BRANCH  77  78
ATOM     78  C   UNL A   1      39.625  22.842  26.765  1.00  0.00     0.202 C 
BRANCH  78  79
ATOM     79  C   UNL A   1      38.553  22.192  25.882  1.00  0.00     0.261 C 
BRANCH  79  80
ATOM     80  O   UNL A   1      37.450  23.060  25.571  1.00  0.00    -0.460 OA
BRANCH  80  81
ATOM     81  C   UNL A   1      36.700  22.753  24.492  1.00  0.00     0.338 C 
ATOM     82  O   UNL A   1      37.083  22.306  23.427  1.00  0.00    -0.246 OA
BRANCH  81  83
ATOM     83  C   UNL A   1      35.279  22.824  24.909  1.00  0.00     0.060 A 
ATOM     84  C   UNL A   1      34.931  23.760  25.896  1.00  0.00     0.017 A 
ATOM     85  C   UNL A   1      34.282  22.108  24.230  1.00  0.00     0.017 A 
ATOM     86  C   UNL A   1      33.588  23.996  26.189  1.00  0.00     0.022 A 
ATOM     87  C   UNL A   1      32.937  22.339  24.522  1.00  0.00     0.022 A 
ATOM     88  C   UNL A   1      32.601  23.278  25.506  1.00  0.00     0.082 A 
BRANCH  88  89
ATOM     89  S   UNL A   1      30.911  23.433  26.025  1.00  0.00     0.241 S 
ATOM     90  O   UNL A   1      30.281  22.138  25.911  1.00  0.00    -0.207 OA
ATOM     91  O   UNL A   1      30.881  24.197  27.251  1.00  0.00    -0.207 OA
BRANCH  89  92
ATOM     92  N   UNL A   1      30.253  24.411  24.839  1.00  0.00    -0.202 NA
ATOM     93  H   UNL A   1      29.334  24.026  24.621  1.00  0.00     0.141 HD
BRANCH  92  94
ATOM     94  C   UNL A   1      30.058  25.846  25.065  1.00  0.00     0.133 C 
ATOM     95  C   UNL A   1      28.849  26.351  24.274  1.00  0.00     0.087 C 
ATOM     96  C   UNL A   1      31.230  26.736  24.639  1.00  0.00     0.202 C 
ATOM     97  C   UNL A   1      29.405  27.392  23.320  1.00  0.00     0.264 C 
ATOM     98  N   UNL A   1      30.585  27.911  24.014  1.00  0.00    -0.331 N 
ATOM     99  C   UNL A   1      32.180  26.193  23.581  1.00  0.00     0.072 C 
ATOM    100  C   UNL A   1      31.568  28.495  23.101  1.00  0.00     0.262 C 
ATOM    101  H   UNL A   1      30.293  28.637  24.668  1.00  0.00     0.348 HD
ATOM    102  C   UNL A   1      32.590  27.413  22.774  1.00  0.00     0.068 C 
ENDBRANCH  92  94
ENDBRANCH  89  92
ENDBRANCH  88  89
ENDBRANCH  81  83
ENDBRANCH  80  81
ENDBRANCH  79  80
ENDBRANCH  78  79
ENDBRANCH  77  78
ENDBRANCH  76  77
ENDBRANCH  75  76
ENDBRANCH   1  75
TORSDOF 26
ENDMDL
