MODEL 1
REMARK VINA RESULT:      -9.8      0.000      0.000
REMARK SMILES COc1ccc(C2=NN(C(=O)CCC(=O)OCCOCCOCCOCCOC(=O)c3ccc(-c4c5nc(c(-c6cccc(S(=O)(=O)[O-])c6F)c6ccc([nH]6)c(-c6cccc(S(=O)(=O)[O-])c6F)c6nc(c(-c7cccc(S(=O)(=O)[O-])c7F)c7ccc4[nH]7)C=C6)C=C5)cc3)[C@H](c3ccc(Cl)cc3Cl)C2)cc1
REMARK SMILES IDX 21 1 20 2 19 3 18 4 17 5 16 6 14 7 15 8 13 9 12 10 10 11
REMARK SMILES IDX 11 12 9 13 7 14 8 15 103 16 94 17 6 18 3 19 4 20 105 21 5 22
REMARK SMILES IDX 104 23 2 24 1 25 95 26 96 27 101 28 97 29 100 30 102 31
REMARK SMILES IDX 98 32 99 33 22 34 23 35 24 36 25 37 26 38 27 39 28 40 29 41
REMARK SMILES IDX 30 42 31 43 32 44 93 45 33 46 92 47 34 48 35 49 36 50 86 51
REMARK SMILES IDX 37 52 91 53 85 54 87 55 38 56 90 57 84 58 83 59 39 61 71 62
REMARK SMILES IDX 51 63 70 64 52 65 55 66 69 67 88 68 53 69 54 70 68 72 89 73
REMARK SMILES IDX 56 74 40 75 41 76 49 77 42 78 44 79 50 80 43 81 45 82 46 83
REMARK SMILES IDX 47 84 48 85 72 86 73 87 81 88 74 89 76 90 82 91 75 92 77 93
REMARK SMILES IDX 78 94 79 95 80 96 57 97 58 98 66 99 59 100 61 101 67 102
REMARK SMILES IDX 60 103 62 104 63 105 64 106 65 107
REMARK H PARENT 87 60 55 71
REMARK Flexibility Score: inf
ROOT
ATOM      1  C   UNL A   1      42.028  34.342  30.104  1.00  0.00     0.188 C 
ENDROOT
BRANCH   1   2
ATOM      2  C   UNL A   1      43.193  35.923  30.001  1.00  0.00     0.188 C 
BRANCH   2   3
ATOM      3  O   UNL A   1      44.793  36.120  29.930  1.00  0.00    -0.376 OA
BRANCH   3   4
ATOM      4  C   UNL A   1      45.873  35.080  29.580  1.00  0.00     0.202 C 
BRANCH   4   5
ATOM      5  C   UNL A   1      46.489  34.083  30.645  1.00  0.00     0.261 C 
BRANCH   5   6
ATOM      6  O   UNL A   1      47.287  33.053  30.052  1.00  0.00    -0.463 OA
BRANCH   6   7
ATOM      7  C   UNL A   1      48.599  33.166  30.331  1.00  0.00     0.306 C 
ATOM      8  O   UNL A   1      49.037  33.738  31.324  1.00  0.00    -0.252 OA
BRANCH   7   9
ATOM      9  C   UNL A   1      49.515  32.408  29.399  1.00  0.00     0.132 C 
BRANCH   9  10
ATOM     10  C   UNL A   1      50.351  31.184  29.776  1.00  0.00     0.114 C 
BRANCH  10  11
ATOM     11  C   UNL A   1      49.788  29.998  30.538  1.00  0.00     0.243 C 
ATOM     12  O   UNL A   1      49.044  30.369  31.471  1.00  0.00    -0.273 OA
BRANCH  11  13
ATOM     13  N   UNL A   1      49.924  28.626  30.223  1.00  0.00    -0.225 N 
ATOM     14  C   UNL A   1      49.117  27.376  28.683  1.00  0.00     0.071 C 
ATOM     15  N   UNL A   1      49.636  28.519  28.913  1.00  0.00    -0.174 NA
ATOM     16  C   UNL A   1      48.959  26.415  29.849  1.00  0.00     0.091 C 
ATOM     17  C   UNL A   1      50.103  26.947  30.809  1.00  0.00     0.149 C 
BRANCH  14  18
ATOM     18  C   UNL A   1      48.750  27.139  27.305  1.00  0.00    -0.002 A 
ATOM     19  C   UNL A   1      48.141  25.805  25.052  1.00  0.00     0.118 A 
ATOM     20  C   UNL A   1      47.107  26.071  25.927  1.00  0.00     0.047 A 
ATOM     21  C   UNL A   1      49.452  26.287  25.246  1.00  0.00     0.047 A 
ATOM     22  C   UNL A   1      47.419  26.724  27.087  1.00  0.00     0.014 A 
ATOM     23  C   UNL A   1      49.767  26.983  26.388  1.00  0.00     0.014 A 
BRANCH  19  24
ATOM     24  O   UNL A   1      47.755  25.063  23.988  1.00  0.00    -0.497 OA
ATOM     25  C   UNL A   1      46.763  24.139  24.363  1.00  0.00     0.278 C 
ENDBRANCH  19  24
ENDBRANCH  14  18
BRANCH  17  26
ATOM     26  C   UNL A   1      51.679  26.033  31.567  1.00  0.00    -0.004 A 
ATOM     27  C   UNL A   1      52.926  26.643  30.812  1.00  0.00     0.009 A 
ATOM     28  C   UNL A   1      52.305  24.973  32.882  1.00  0.00     0.047 A 
ATOM     29  C   UNL A   1      54.829  26.356  30.918  1.00  0.00     0.021 A 
ATOM     30  C   UNL A   1      54.030  24.563  33.148  1.00  0.00     0.041 A 
ATOM     31  Cl  UNL A   1      51.557  24.468  34.399  1.00  0.00    -0.084 Cl
ATOM     32  C   UNL A   1      55.339  25.230  32.189  1.00  0.00     0.042 A 
ATOM     33  Cl  UNL A   1      56.960  24.838  32.552  1.00  0.00    -0.084 Cl
ENDBRANCH  17  26
ENDBRANCH  11  13
ENDBRANCH  10  11
ENDBRANCH   9  10
ENDBRANCH   7   9
ENDBRANCH   6   7
ENDBRANCH   5   6
ENDBRANCH   4   5
ENDBRANCH   3   4
ENDBRANCH   2   3
ENDBRANCH   1   2
BRANCH   1  34
ATOM     34  O   UNL A   1      40.423  34.089  30.916  1.00  0.00    -0.377 OA
BRANCH  34  35
ATOM     35  C   UNL A   1      38.787  34.790  31.217  1.00  0.00     0.188 C 
BRANCH  35  36
ATOM     36  C   UNL A   1      37.428  34.733  32.656  1.00  0.00     0.188 C 
BRANCH  36  37
ATOM     37  O   UNL A   1      35.807  35.582  32.487  1.00  0.00    -0.376 OA
BRANCH  37  38
ATOM     38  C   UNL A   1      34.355  34.568  31.856  1.00  0.00     0.202 C 
BRANCH  38  39
ATOM     39  C   UNL A   1      33.637  35.195  29.879  1.00  0.00     0.261 C 
BRANCH  39  40
ATOM     40  O   UNL A   1      33.800  34.098  28.431  1.00  0.00    -0.460 OA
BRANCH  40  41
ATOM     41  C   UNL A   1      33.898  32.721  28.165  1.00  0.00     0.338 C 
ATOM     42  O   UNL A   1      33.105  32.122  27.447  1.00  0.00    -0.246 OA
BRANCH  41  43
ATOM     43  C   UNL A   1      35.256  31.985  28.548  1.00  0.00     0.060 A 
ATOM     44  C   UNL A   1      35.285  30.572  28.737  1.00  0.00     0.016 A 
ATOM     45  C   UNL A   1      36.514  32.592  28.645  1.00  0.00     0.016 A 
ATOM     46  C   UNL A   1      36.480  29.786  28.842  1.00  0.00     0.010 A 
ATOM     47  C   UNL A   1      37.715  31.810  28.875  1.00  0.00     0.010 A 
ATOM     48  C   UNL A   1      37.731  30.386  28.958  1.00  0.00    -0.014 A 
BRANCH  48  49
ATOM     49  C   UNL A   1      38.926  29.588  29.511  1.00  0.00     0.031 A 
ATOM     50  C   UNL A   1      39.518  30.120  30.807  1.00  0.00     0.074 A 
ATOM     51  C   UNL A   1      39.420  28.382  29.097  1.00  0.00     0.049 A 
ATOM     52  N   UNL A   1      40.499  29.645  31.531  1.00  0.00    -0.248 NA
ATOM     53  C   UNL A   1      38.841  31.279  31.416  1.00  0.00     0.031 C 
ATOM     54  C   UNL A   1      38.799  27.478  28.135  1.00  0.00     0.029 A 
ATOM     55  N   UNL A   1      40.602  27.701  29.407  1.00  0.00    -0.354 N 
ATOM     56  C   UNL A   1      40.528  30.415  32.687  1.00  0.00     0.074 A 
ATOM     57  C   UNL A   1      39.508  31.429  32.550  1.00  0.00     0.031 C 
ATOM     58  C   UNL A   1      39.660  26.485  27.809  1.00  0.00     0.029 A 
ATOM     59  C   UNL A   1      40.915  26.663  28.524  1.00  0.00     0.049 A 
ATOM     60  H   UNL A   1      41.166  27.933  30.181  1.00  0.00     0.167 HD
ATOM     61  C   UNL A   1      41.303  30.263  33.786  1.00  0.00     0.034 A 
ATOM     62  C   UNL A   1      42.078  25.985  28.298  1.00  0.00     0.034 A 
ATOM     63  C   UNL A   1      42.326  29.260  33.908  1.00  0.00     0.049 A 
ATOM     64  C   UNL A   1      43.116  26.078  29.374  1.00  0.00     0.074 A 
ATOM     65  C   UNL A   1      43.131  28.983  34.999  1.00  0.00     0.029 A 
ATOM     66  N   UNL A   1      42.720  28.406  32.891  1.00  0.00    -0.354 N 
ATOM     67  N   UNL A   1      43.107  26.809  30.458  1.00  0.00    -0.248 NA
ATOM     68  C   UNL A   1      44.225  25.118  29.287  1.00  0.00     0.031 C 
ATOM     69  C   UNL A   1      44.076  28.030  34.607  1.00  0.00     0.029 A 
ATOM     70  C   UNL A   1      43.802  27.648  33.305  1.00  0.00     0.049 A 
ATOM     71  H   UNL A   1      42.296  28.348  32.004  1.00  0.00     0.167 HD
ATOM     72  C   UNL A   1      44.138  26.318  31.241  1.00  0.00     0.074 A 
ATOM     73  C   UNL A   1      44.785  25.269  30.476  1.00  0.00     0.031 C 
ATOM     74  C   UNL A   1      44.466  26.649  32.511  1.00  0.00     0.034 A 
BRANCH  61  75
ATOM     75  C   UNL A   1      41.102  31.225  34.928  1.00  0.00     0.023 A 
ATOM     76  C   UNL A   1      42.141  32.083  35.344  1.00  0.00     0.012 A 
ATOM     77  C   UNL A   1      39.847  31.305  35.561  1.00  0.00     0.148 A 
ATOM     78  C   UNL A   1      41.943  32.977  36.399  1.00  0.00     0.002 A 
ATOM     79  C   UNL A   1      39.642  32.232  36.573  1.00  0.00     0.091 A 
ATOM     80  F   UNL A   1      38.880  30.465  35.166  1.00  0.00    -0.205 F 
ATOM     81  C   UNL A   1      40.692  33.059  37.004  1.00  0.00     0.022 A 
BRANCH  79  82
ATOM     82  S   UNL A   1      38.043  32.465  37.354  1.00  0.00     0.127 S 
ATOM     83  O   UNL A   1      37.916  31.236  38.136  1.00  0.00    -0.237 OA
ATOM     84  O   UNL A   1      38.265  33.673  38.150  1.00  0.00    -0.237 OA
ATOM     85  O   UNL A   1      37.081  32.616  36.272  1.00  0.00    -0.744 OA
ENDBRANCH  79  82
ENDBRANCH  61  75
BRANCH  62  86
ATOM     86  C   UNL A   1      42.376  25.087  27.110  1.00  0.00     0.023 A 
ATOM     87  C   UNL A   1      43.237  25.495  26.078  1.00  0.00     0.012 A 
ATOM     88  C   UNL A   1      41.778  23.799  26.992  1.00  0.00     0.148 A 
ATOM     89  C   UNL A   1      43.587  24.615  25.040  1.00  0.00     0.002 A 
ATOM     90  C   UNL A   1      42.240  22.880  26.038  1.00  0.00     0.091 A 
ATOM     91  F   UNL A   1      40.817  23.462  27.864  1.00  0.00    -0.205 F 
ATOM     92  C   UNL A   1      43.140  23.296  25.052  1.00  0.00     0.022 A 
BRANCH  90  93
ATOM     93  S   UNL A   1      42.082  21.072  26.227  1.00  0.00     0.127 S 
ATOM     94  O   UNL A   1      42.978  20.560  25.196  1.00  0.00    -0.237 OA
ATOM     95  O   UNL A   1      42.557  20.896  27.603  1.00  0.00    -0.237 OA
ATOM     96  O   UNL A   1      40.673  20.762  26.037  1.00  0.00    -0.744 OA
ENDBRANCH  90  93
ENDBRANCH  62  86
BRANCH  74  97
ATOM     97  C   UNL A   1      45.540  25.818  33.152  1.00  0.00     0.023 A 
ATOM     98  C   UNL A   1      46.881  26.245  33.138  1.00  0.00     0.012 A 
ATOM     99  C   UNL A   1      45.207  24.574  33.722  1.00  0.00     0.148 A 
ATOM    100  C   UNL A   1      47.889  25.406  33.609  1.00  0.00     0.002 A 
ATOM    101  C   UNL A   1      46.207  23.779  34.259  1.00  0.00     0.091 A 
ATOM    102  F   UNL A   1      43.927  24.177  33.698  1.00  0.00    -0.205 F 
ATOM    103  C   UNL A   1      47.550  24.179  34.176  1.00  0.00     0.022 A 
BRANCH 101 104
ATOM    104  S   UNL A   1      45.852  22.240  35.107  1.00  0.00     0.127 S 
ATOM    105  O   UNL A   1      46.374  21.252  34.164  1.00  0.00    -0.237 OA
ATOM    106  O   UNL A   1      46.632  22.384  36.336  1.00  0.00    -0.237 OA
ATOM    107  O   UNL A   1      44.409  22.208  35.307  1.00  0.00    -0.744 OA
ENDBRANCH 101 104
ENDBRANCH  74  97
ENDBRANCH  48  49
ENDBRANCH  41  43
ENDBRANCH  40  41
ENDBRANCH  39  40
ENDBRANCH  38  39
ENDBRANCH  37  38
ENDBRANCH  36  37
ENDBRANCH  35  36
ENDBRANCH  34  35
ENDBRANCH   1  34
TORSDOF 29
ENDMDL
MODEL 2
REMARK VINA RESULT:      -9.6      4.286     12.154
REMARK SMILES COc1ccc(C2=NN(C(=O)CCC(=O)OCCOCCOCCOCCOC(=O)c3ccc(-c4c5nc(c(-c6cccc(S(=O)(=O)[O-])c6F)c6ccc([nH]6)c(-c6cccc(S(=O)(=O)[O-])c6F)c6nc(c(-c7cccc(S(=O)(=O)[O-])c7F)c7ccc4[nH]7)C=C6)C=C5)cc3)[C@H](c3ccc(Cl)cc3Cl)C2)cc1
REMARK SMILES IDX 21 1 20 2 19 3 18 4 17 5 16 6 14 7 15 8 13 9 12 10 10 11
REMARK SMILES IDX 11 12 9 13 7 14 8 15 103 16 94 17 6 18 3 19 4 20 105 21 5 22
REMARK SMILES IDX 104 23 2 24 1 25 95 26 96 27 101 28 97 29 100 30 102 31
REMARK SMILES IDX 98 32 99 33 22 34 23 35 24 36 25 37 26 38 27 39 28 40 29 41
REMARK SMILES IDX 30 42 31 43 32 44 93 45 33 46 92 47 34 48 35 49 36 50 86 51
REMARK SMILES IDX 37 52 91 53 85 54 87 55 38 56 90 57 84 58 83 59 39 61 71 62
REMARK SMILES IDX 51 63 70 64 52 65 55 66 69 67 88 68 53 69 54 70 68 72 89 73
REMARK SMILES IDX 56 74 40 75 41 76 49 77 42 78 44 79 50 80 43 81 45 82 46 83
REMARK SMILES IDX 47 84 48 85 72 86 73 87 81 88 74 89 76 90 82 91 75 92 77 93
REMARK SMILES IDX 78 94 79 95 80 96 57 97 58 98 66 99 59 100 61 101 67 102
REMARK SMILES IDX 60 103 62 104 63 105 64 106 65 107
REMARK H PARENT 87 60 55 71
REMARK Flexibility Score: inf
ROOT
ATOM      1  C   UNL A   1      58.191  25.195  25.265  1.00  0.00     0.188 C 
ENDROOT
BRANCH   1   2
ATOM      2  C   UNL A   1      56.536  24.184  25.590  1.00  0.00     0.188 C 
BRANCH   2   3
ATOM      3  O   UNL A   1      55.010  24.366  25.098  1.00  0.00    -0.376 OA
BRANCH   3   4
ATOM      4  C   UNL A   1      53.957  25.375  25.590  1.00  0.00     0.202 C 
BRANCH   4   5
ATOM      5  C   UNL A   1      53.733  25.713  27.120  1.00  0.00     0.261 C 
BRANCH   5   6
ATOM      6  O   UNL A   1      53.380  27.082  27.346  1.00  0.00    -0.463 OA
BRANCH   6   7
ATOM      7  C   UNL A   1      52.342  27.234  28.189  1.00  0.00     0.306 C 
ATOM      8  O   UNL A   1      52.183  28.219  28.903  1.00  0.00    -0.252 OA
BRANCH   7   9
ATOM      9  C   UNL A   1      51.286  26.156  28.100  1.00  0.00     0.132 C 
BRANCH   9  10
ATOM     10  C   UNL A   1      49.790  26.393  27.888  1.00  0.00     0.114 C 
BRANCH  10  11
ATOM     11  C   UNL A   1      48.833  25.304  27.441  1.00  0.00     0.243 C 
ATOM     12  O   UNL A   1      49.334  24.169  27.589  1.00  0.00    -0.273 OA
BRANCH  11  13
ATOM     13  N   UNL A   1      47.488  25.452  27.030  1.00  0.00    -0.225 N 
ATOM     14  C   UNL A   1      46.014  24.094  26.276  1.00  0.00     0.071 C 
ATOM     15  N   UNL A   1      46.928  24.235  27.156  1.00  0.00    -0.174 NA
ATOM     16  C   UNL A   1      45.737  25.257  25.339  1.00  0.00     0.091 C 
ATOM     17  C   UNL A   1      46.251  26.464  26.230  1.00  0.00     0.149 C 
BRANCH  14  18
ATOM     18  C   UNL A   1      45.338  22.815  26.299  1.00  0.00    -0.002 A 
ATOM     19  C   UNL A   1      43.807  20.760  25.491  1.00  0.00     0.118 A 
ATOM     20  C   UNL A   1      45.133  20.748  25.107  1.00  0.00     0.047 A 
ATOM     21  C   UNL A   1      43.268  21.734  26.356  1.00  0.00     0.047 A 
ATOM     22  C   UNL A   1      45.907  21.807  25.492  1.00  0.00     0.014 A 
ATOM     23  C   UNL A   1      44.050  22.780  26.785  1.00  0.00     0.014 A 
BRANCH  19  24
ATOM     24  O   UNL A   1      43.098  19.729  24.973  1.00  0.00    -0.497 OA
ATOM     25  C   UNL A   1      43.431  18.526  25.620  1.00  0.00     0.278 C 
ENDBRANCH  19  24
ENDBRANCH  14  18
BRANCH  17  26
ATOM     26  C   UNL A   1      45.314  28.071  26.886  1.00  0.00    -0.004 A 
ATOM     27  C   UNL A   1      46.109  29.298  26.287  1.00  0.00     0.009 A 
ATOM     28  C   UNL A   1      43.835  28.719  27.686  1.00  0.00     0.047 A 
ATOM     29  C   UNL A   1      45.898  31.212  26.393  1.00  0.00     0.021 A 
ATOM     30  C   UNL A   1      43.454  30.458  27.903  1.00  0.00     0.041 A 
ATOM     31  Cl  UNL A   1      42.285  27.946  28.028  1.00  0.00    -0.084 Cl
ATOM     32  C   UNL A   1      44.458  31.752  27.274  1.00  0.00     0.042 A 
ATOM     33  Cl  UNL A   1      43.987  33.381  27.468  1.00  0.00    -0.084 Cl
ENDBRANCH  17  26
ENDBRANCH  11  13
ENDBRANCH  10  11
ENDBRANCH   9  10
ENDBRANCH   7   9
ENDBRANCH   6   7
ENDBRANCH   5   6
ENDBRANCH   4   5
ENDBRANCH   3   4
ENDBRANCH   2   3
ENDBRANCH   1   2
BRANCH   1  34
ATOM     34  O   UNL A   1      58.586  26.487  24.052  1.00  0.00    -0.377 OA
BRANCH  34  35
ATOM     35  C   UNL A   1      58.105  27.248  22.487  1.00  0.00     0.188 C 
BRANCH  35  36
ATOM     36  C   UNL A   1      56.868  28.674  21.888  1.00  0.00     0.188 C 
BRANCH  36  37
ATOM     37  O   UNL A   1      55.683  29.472  23.044  1.00  0.00    -0.376 OA
BRANCH  37  38
ATOM     38  C   UNL A   1      55.276  28.563  24.639  1.00  0.00     0.202 C 
BRANCH  38  39
ATOM     39  C   UNL A   1      55.248  29.861  26.408  1.00  0.00     0.261 C 
BRANCH  39  40
ATOM     40  O   UNL A   1      53.673  30.474  27.095  1.00  0.00    -0.460 OA
BRANCH  40  41
ATOM     41  C   UNL A   1      52.977  31.691  27.199  1.00  0.00     0.338 C 
ATOM     42  O   UNL A   1      53.266  32.683  26.541  1.00  0.00    -0.246 OA
BRANCH  41  43
ATOM     43  C   UNL A   1      51.577  31.684  27.956  1.00  0.00     0.060 A 
ATOM     44  C   UNL A   1      50.356  31.705  27.220  1.00  0.00     0.016 A 
ATOM     45  C   UNL A   1      51.399  31.569  29.340  1.00  0.00     0.016 A 
ATOM     46  C   UNL A   1      49.059  31.459  27.782  1.00  0.00     0.010 A 
ATOM     47  C   UNL A   1      50.075  31.444  29.923  1.00  0.00     0.010 A 
ATOM     48  C   UNL A   1      48.875  31.363  29.158  1.00  0.00    -0.014 A 
BRANCH  48  49
ATOM     49  C   UNL A   1      47.473  31.551  29.768  1.00  0.00     0.031 A 
ATOM     50  C   UNL A   1      46.712  30.267  30.055  1.00  0.00     0.074 A 
ATOM     51  C   UNL A   1      46.888  32.693  30.240  1.00  0.00     0.049 A 
ATOM     52  N   UNL A   1      45.534  30.100  30.599  1.00  0.00    -0.248 NA
ATOM     53  C   UNL A   1      47.424  29.003  29.790  1.00  0.00     0.031 C 
ATOM     54  C   UNL A   1      47.543  33.981  30.443  1.00  0.00     0.029 A 
ATOM     55  N   UNL A   1      45.570  32.981  30.614  1.00  0.00    -0.354 N 
ATOM     56  C   UNL A   1      45.384  28.730  30.775  1.00  0.00     0.074 A 
ATOM     57  C   UNL A   1      46.563  28.099  30.230  1.00  0.00     0.031 C 
ATOM     58  C   UNL A   1      46.621  34.933  30.720  1.00  0.00     0.029 A 
ATOM     59  C   UNL A   1      45.288  34.347  30.713  1.00  0.00     0.049 A 
ATOM     60  H   UNL A   1      44.899  32.282  30.790  1.00  0.00     0.167 HD
ATOM     61  C   UNL A   1      44.376  28.060  31.381  1.00  0.00     0.034 A 
ATOM     62  C   UNL A   1      44.106  35.028  30.747  1.00  0.00     0.034 A 
ATOM     63  C   UNL A   1      43.200  28.696  31.909  1.00  0.00     0.049 A 
ATOM     64  C   UNL A   1      42.890  34.223  31.091  1.00  0.00     0.074 A 
ATOM     65  C   UNL A   1      42.144  28.118  32.591  1.00  0.00     0.029 A 
ATOM     66  N   UNL A   1      42.898  30.041  31.768  1.00  0.00    -0.354 N 
ATOM     67  N   UNL A   1      42.786  32.931  31.260  1.00  0.00    -0.248 NA
ATOM     68  C   UNL A   1      41.683  34.989  31.431  1.00  0.00     0.031 C 
ATOM     69  C   UNL A   1      41.161  29.096  32.775  1.00  0.00     0.029 A 
ATOM     70  C   UNL A   1      41.642  30.300  32.290  1.00  0.00     0.049 A 
ATOM     71  H   UNL A   1      43.488  30.713  31.356  1.00  0.00     0.167 HD
ATOM     72  C   UNL A   1      41.544  32.735  31.839  1.00  0.00     0.074 A 
ATOM     73  C   UNL A   1      40.913  34.037  31.933  1.00  0.00     0.031 C 
ATOM     74  C   UNL A   1      41.009  31.591  32.325  1.00  0.00     0.034 A 
BRANCH  61  75
ATOM     75  C   UNL A   1      44.483  26.561  31.471  1.00  0.00     0.023 A 
ATOM     76  C   UNL A   1      44.169  25.744  30.365  1.00  0.00     0.012 A 
ATOM     77  C   UNL A   1      44.945  25.963  32.660  1.00  0.00     0.148 A 
ATOM     78  C   UNL A   1      44.277  24.355  30.456  1.00  0.00     0.002 A 
ATOM     79  C   UNL A   1      45.100  24.586  32.725  1.00  0.00     0.091 A 
ATOM     80  F   UNL A   1      45.215  26.755  33.706  1.00  0.00    -0.205 F 
ATOM     81  C   UNL A   1      44.754  23.778  31.631  1.00  0.00     0.022 A 
BRANCH  79  82
ATOM     82  S   UNL A   1      45.782  23.763  34.167  1.00  0.00     0.127 S 
ATOM     83  O   UNL A   1      44.960  24.320  35.240  1.00  0.00    -0.237 OA
ATOM     84  O   UNL A   1      45.520  22.355  33.866  1.00  0.00    -0.237 OA
ATOM     85  O   UNL A   1      47.191  24.125  34.212  1.00  0.00    -0.744 OA
ENDBRANCH  79  82
ENDBRANCH  61  75
BRANCH  62  86
ATOM     86  C   UNL A   1      43.926  36.524  30.555  1.00  0.00     0.023 A 
ATOM     87  C   UNL A   1      44.144  37.431  31.604  1.00  0.00     0.012 A 
ATOM     88  C   UNL A   1      43.511  37.061  29.302  1.00  0.00     0.148 A 
ATOM     89  C   UNL A   1      44.077  38.817  31.386  1.00  0.00     0.002 A 
ATOM     90  C   UNL A   1      43.587  38.440  29.054  1.00  0.00     0.091 A 
ATOM     91  F   UNL A   1      43.121  36.209  28.342  1.00  0.00    -0.205 F 
ATOM     92  C   UNL A   1      43.859  39.320  30.106  1.00  0.00     0.022 A 
BRANCH  90  93
ATOM     93  S   UNL A   1      43.766  39.152  27.383  1.00  0.00     0.127 S 
ATOM     94  O   UNL A   1      44.178  40.523  27.660  1.00  0.00    -0.237 OA
ATOM     95  O   UNL A   1      44.814  38.290  26.828  1.00  0.00    -0.237 OA
ATOM     96  O   UNL A   1      42.470  39.010  26.737  1.00  0.00    -0.744 OA
ENDBRANCH  90  93
ENDBRANCH  62  86
BRANCH  74  97
ATOM     97  C   UNL A   1      39.700  31.731  33.048  1.00  0.00     0.023 A 
ATOM     98  C   UNL A   1      38.481  31.573  32.361  1.00  0.00     0.012 A 
ATOM     99  C   UNL A   1      39.694  32.078  34.412  1.00  0.00     0.148 A 
ATOM    100  C   UNL A   1      37.275  31.842  33.003  1.00  0.00     0.002 A 
ATOM    101  C   UNL A   1      38.486  32.267  35.064  1.00  0.00     0.091 A 
ATOM    102  F   UNL A   1      40.867  32.250  35.037  1.00  0.00    -0.205 F 
ATOM    103  C   UNL A   1      37.278  32.180  34.355  1.00  0.00     0.022 A 
BRANCH 101 104
ATOM    104  S   UNL A   1      38.391  32.593  36.824  1.00  0.00     0.127 S 
ATOM    105  O   UNL A   1      38.338  34.054  36.855  1.00  0.00    -0.237 OA
ATOM    106  O   UNL A   1      37.140  31.928  37.189  1.00  0.00    -0.237 OA
ATOM    107  O   UNL A   1      39.585  32.002  37.414  1.00  0.00    -0.744 OA
ENDBRANCH 101 104
ENDBRANCH  74  97
ENDBRANCH  48  49
ENDBRANCH  41  43
ENDBRANCH  40  41
ENDBRANCH  39  40
ENDBRANCH  38  39
ENDBRANCH  37  38
ENDBRANCH  36  37
ENDBRANCH  35  36
ENDBRANCH  34  35
ENDBRANCH   1  34
TORSDOF 29
ENDMDL
MODEL 3
REMARK VINA RESULT:      -9.5      6.183     13.260
REMARK SMILES COc1ccc(C2=NN(C(=O)CCC(=O)OCCOCCOCCOCCOC(=O)c3ccc(-c4c5nc(c(-c6cccc(S(=O)(=O)[O-])c6F)c6ccc([nH]6)c(-c6cccc(S(=O)(=O)[O-])c6F)c6nc(c(-c7cccc(S(=O)(=O)[O-])c7F)c7ccc4[nH]7)C=C6)C=C5)cc3)[C@H](c3ccc(Cl)cc3Cl)C2)cc1
REMARK SMILES IDX 21 1 20 2 19 3 18 4 17 5 16 6 14 7 15 8 13 9 12 10 10 11
REMARK SMILES IDX 11 12 9 13 7 14 8 15 103 16 94 17 6 18 3 19 4 20 105 21 5 22
REMARK SMILES IDX 104 23 2 24 1 25 95 26 96 27 101 28 97 29 100 30 102 31
REMARK SMILES IDX 98 32 99 33 22 34 23 35 24 36 25 37 26 38 27 39 28 40 29 41
REMARK SMILES IDX 30 42 31 43 32 44 93 45 33 46 92 47 34 48 35 49 36 50 86 51
REMARK SMILES IDX 37 52 91 53 85 54 87 55 38 56 90 57 84 58 83 59 39 61 71 62
REMARK SMILES IDX 51 63 70 64 52 65 55 66 69 67 88 68 53 69 54 70 68 72 89 73
REMARK SMILES IDX 56 74 40 75 41 76 49 77 42 78 44 79 50 80 43 81 45 82 46 83
REMARK SMILES IDX 47 84 48 85 72 86 73 87 81 88 74 89 76 90 82 91 75 92 77 93
REMARK SMILES IDX 78 94 79 95 80 96 57 97 58 98 66 99 59 100 61 101 67 102
REMARK SMILES IDX 60 103 62 104 63 105 64 106 65 107
REMARK H PARENT 87 60 55 71
REMARK Flexibility Score: inf
ROOT
ATOM      1  C   UNL A   1      38.990  29.320  27.990  1.00  0.00     0.188 C 
ENDROOT
BRANCH   1   2
ATOM      2  C   UNL A   1      37.839  30.869  28.367  1.00  0.00     0.188 C 
BRANCH   2   3
ATOM      3  O   UNL A   1      38.136  32.381  28.847  1.00  0.00    -0.376 OA
BRANCH   3   4
ATOM      4  C   UNL A   1      37.140  33.441  29.353  1.00  0.00     0.202 C 
BRANCH   4   5
ATOM      5  C   UNL A   1      35.797  33.796  28.594  1.00  0.00     0.261 C 
BRANCH   5   6
ATOM      6  O   UNL A   1      34.637  33.227  29.211  1.00  0.00    -0.463 OA
BRANCH   6   7
ATOM      7  C   UNL A   1      34.547  31.893  29.050  1.00  0.00     0.306 C 
ATOM      8  O   UNL A   1      35.049  31.080  29.819  1.00  0.00    -0.252 OA
BRANCH   7   9
ATOM      9  C   UNL A   1      33.653  31.447  27.917  1.00  0.00     0.132 C 
BRANCH   9  10
ATOM     10  C   UNL A   1      34.104  30.653  26.689  1.00  0.00     0.114 C 
BRANCH  10  11
ATOM     11  C   UNL A   1      34.245  29.142  26.685  1.00  0.00     0.243 C 
ATOM     12  O   UNL A   1      35.195  28.772  27.406  1.00  0.00    -0.273 OA
BRANCH  11  13
ATOM     13  N   UNL A   1      33.380  28.197  26.087  1.00  0.00    -0.225 N 
ATOM     14  C   UNL A   1      31.423  28.319  25.228  1.00  0.00     0.071 C 
ATOM     15  N   UNL A   1      32.555  28.903  25.292  1.00  0.00    -0.174 NA
ATOM     16  C   UNL A   1      31.245  27.016  25.988  1.00  0.00     0.091 C 
ATOM     17  C   UNL A   1      32.751  26.524  26.057  1.00  0.00     0.149 C 
BRANCH  14  18
ATOM     18  C   UNL A   1      30.437  28.988  24.408  1.00  0.00    -0.002 A 
ATOM     19  C   UNL A   1      29.394  30.435  22.397  1.00  0.00     0.118 A 
ATOM     20  C   UNL A   1      29.555  29.081  22.183  1.00  0.00     0.047 A 
ATOM     21  C   UNL A   1      29.655  31.051  23.638  1.00  0.00     0.047 A 
ATOM     22  C   UNL A   1      30.112  28.348  23.193  1.00  0.00     0.014 A 
ATOM     23  C   UNL A   1      30.174  30.314  24.676  1.00  0.00     0.014 A 
BRANCH  19  24
ATOM     24  O   UNL A   1      28.938  31.092  21.305  1.00  0.00    -0.497 OA
ATOM     25  C   UNL A   1      28.637  32.429  21.621  1.00  0.00     0.278 C 
ENDBRANCH  19  24
ENDBRANCH  14  18
BRANCH  17  26
ATOM     26  C   UNL A   1      33.596  24.866  25.403  1.00  0.00    -0.004 A 
ATOM     27  C   UNL A   1      35.102  24.944  25.875  1.00  0.00     0.009 A 
ATOM     28  C   UNL A   1      33.333  23.230  24.695  1.00  0.00     0.047 A 
ATOM     29  C   UNL A   1      36.625  23.776  25.696  1.00  0.00     0.021 A 
ATOM     30  C   UNL A   1      34.610  22.001  24.426  1.00  0.00     0.041 A 
ATOM     31  Cl  UNL A   1      31.852  22.284  24.518  1.00  0.00    -0.084 Cl
ATOM     32  C   UNL A   1      36.282  22.224  24.909  1.00  0.00     0.042 A 
ATOM     33  Cl  UNL A   1      37.421  20.975  24.676  1.00  0.00    -0.084 Cl
ENDBRANCH  17  26
ENDBRANCH  11  13
ENDBRANCH  10  11
ENDBRANCH   9  10
ENDBRANCH   7   9
ENDBRANCH   6   7
ENDBRANCH   5   6
ENDBRANCH   4   5
ENDBRANCH   3   4
ENDBRANCH   2   3
ENDBRANCH   1   2
BRANCH   1  34
ATOM     34  O   UNL A   1      40.630  28.865  28.623  1.00  0.00    -0.377 OA
BRANCH  34  35
ATOM     35  C   UNL A   1      41.695  27.500  29.136  1.00  0.00     0.188 C 
BRANCH  35  36
ATOM     36  C   UNL A   1      43.088  27.185  30.507  1.00  0.00     0.188 C 
BRANCH  36  37
ATOM     37  O   UNL A   1      43.191  28.205  32.032  1.00  0.00    -0.376 OA
BRANCH  37  38
ATOM     38  C   UNL A   1      42.292  27.579  33.561  1.00  0.00     0.202 C 
BRANCH  38  39
ATOM     39  C   UNL A   1      40.106  27.701  33.407  1.00  0.00     0.261 C 
BRANCH  39  40
ATOM     40  O   UNL A   1      39.249  29.308  33.504  1.00  0.00    -0.460 OA
BRANCH  40  41
ATOM     41  C   UNL A   1      39.568  30.674  33.416  1.00  0.00     0.338 C 
ATOM     42  O   UNL A   1      39.126  31.515  34.189  1.00  0.00    -0.246 OA
BRANCH  41  43
ATOM     43  C   UNL A   1      40.789  31.091  32.483  1.00  0.00     0.060 A 
ATOM     44  C   UNL A   1      42.037  31.477  33.053  1.00  0.00     0.016 A 
ATOM     45  C   UNL A   1      40.801  31.040  31.084  1.00  0.00     0.016 A 
ATOM     46  C   UNL A   1      43.258  31.635  32.317  1.00  0.00     0.010 A 
ATOM     47  C   UNL A   1      42.008  31.321  30.328  1.00  0.00     0.010 A 
ATOM     48  C   UNL A   1      43.272  31.603  30.926  1.00  0.00    -0.014 A 
BRANCH  48  49
ATOM     49  C   UNL A   1      44.456  32.206  30.148  1.00  0.00     0.031 A 
ATOM     50  C   UNL A   1      44.225  33.603  29.592  1.00  0.00     0.074 A 
ATOM     51  C   UNL A   1      45.735  31.737  30.030  1.00  0.00     0.049 A 
ATOM     52  N   UNL A   1      45.041  34.381  28.931  1.00  0.00    -0.248 NA
ATOM     53  C   UNL A   1      42.938  34.241  29.922  1.00  0.00     0.031 C 
ATOM     54  C   UNL A   1      46.323  30.633  30.781  1.00  0.00     0.029 A 
ATOM     55  N   UNL A   1      46.792  32.109  29.193  1.00  0.00    -0.354 N 
ATOM     56  C   UNL A   1      44.388  35.601  28.803  1.00  0.00     0.074 A 
ATOM     57  C   UNL A   1      43.083  35.449  29.402  1.00  0.00     0.031 C 
ATOM     58  C   UNL A   1      47.531  30.310  30.262  1.00  0.00     0.029 A 
ATOM     59  C   UNL A   1      47.828  31.171  29.126  1.00  0.00     0.049 A 
ATOM     60  H   UNL A   1      46.806  32.957  28.692  1.00  0.00     0.167 HD
ATOM     61  C   UNL A   1      44.851  36.759  28.277  1.00  0.00     0.034 A 
ATOM     62  C   UNL A   1      48.848  31.010  28.234  1.00  0.00     0.034 A 
ATOM     63  C   UNL A   1      46.147  36.896  27.670  1.00  0.00     0.049 A 
ATOM     64  C   UNL A   1      49.170  32.196  27.377  1.00  0.00     0.074 A 
ATOM     65  C   UNL A   1      46.738  38.037  27.155  1.00  0.00     0.029 A 
ATOM     66  N   UNL A   1      47.031  35.852  27.447  1.00  0.00    -0.354 N 
ATOM     67  N   UNL A   1      48.536  33.337  27.289  1.00  0.00    -0.248 NA
ATOM     68  C   UNL A   1      50.443  32.140  26.647  1.00  0.00     0.031 C 
ATOM     69  C   UNL A   1      47.934  37.663  26.535  1.00  0.00     0.029 A 
ATOM     70  C   UNL A   1      48.132  36.309  26.743  1.00  0.00     0.049 A 
ATOM     71  H   UNL A   1      46.895  34.923  27.744  1.00  0.00     0.167 HD
ATOM     72  C   UNL A   1      49.388  34.177  26.592  1.00  0.00     0.074 A 
ATOM     73  C   UNL A   1      50.553  33.392  26.233  1.00  0.00     0.031 C 
ATOM     74  C   UNL A   1      49.254  35.501  26.347  1.00  0.00     0.034 A 
BRANCH  61  75
ATOM     75  C   UNL A   1      43.938  37.956  28.299  1.00  0.00     0.023 A 
ATOM     76  C   UNL A   1      43.026  38.192  27.249  1.00  0.00     0.012 A 
ATOM     77  C   UNL A   1      43.960  38.831  29.402  1.00  0.00     0.148 A 
ATOM     78  C   UNL A   1      42.179  39.302  27.281  1.00  0.00     0.002 A 
ATOM     79  C   UNL A   1      43.079  39.902  29.452  1.00  0.00     0.091 A 
ATOM     80  F   UNL A   1      44.850  38.602  30.377  1.00  0.00    -0.205 F 
ATOM     81  C   UNL A   1      42.197  40.148  28.387  1.00  0.00     0.022 A 
BRANCH  79  82
ATOM     82  S   UNL A   1      42.975  40.996  30.870  1.00  0.00     0.127 S 
ATOM     83  O   UNL A   1      42.841  40.042  31.970  1.00  0.00    -0.237 OA
ATOM     84  O   UNL A   1      44.264  41.687  30.817  1.00  0.00    -0.237 OA
ATOM     85  O   UNL A   1      41.817  41.848  30.642  1.00  0.00    -0.744 OA
ENDBRANCH  79  82
ENDBRANCH  61  75
BRANCH  62  86
ATOM     86  C   UNL A   1      49.732  29.782  28.093  1.00  0.00     0.023 A 
ATOM     87  C   UNL A   1      50.917  29.641  28.833  1.00  0.00     0.012 A 
ATOM     88  C   UNL A   1      49.397  28.734  27.189  1.00  0.00     0.148 A 
ATOM     89  C   UNL A   1      51.669  28.457  28.773  1.00  0.00     0.002 A 
ATOM     90  C   UNL A   1      50.069  27.502  27.240  1.00  0.00     0.091 A 
ATOM     91  F   UNL A   1      48.375  28.926  26.342  1.00  0.00    -0.205 F 
ATOM     92  C   UNL A   1      51.216  27.371  28.028  1.00  0.00     0.022 A 
BRANCH  90  93
ATOM     93  S   UNL A   1      49.328  25.931  26.682  1.00  0.00     0.127 S 
ATOM     94  O   UNL A   1      49.275  26.097  25.234  1.00  0.00    -0.237 OA
ATOM     95  O   UNL A   1      50.327  24.970  27.159  1.00  0.00    -0.237 OA
ATOM     96  O   UNL A   1      48.037  25.829  27.345  1.00  0.00    -0.744 OA
ENDBRANCH  90  93
ENDBRANCH  62  86
BRANCH  74  97
ATOM     97  C   UNL A   1      50.433  36.174  25.705  1.00  0.00     0.023 A 
ATOM     98  C   UNL A   1      50.594  36.158  24.306  1.00  0.00     0.012 A 
ATOM     99  C   UNL A   1      51.414  36.778  26.515  1.00  0.00     0.148 A 
ATOM    100  C   UNL A   1      51.758  36.660  23.729  1.00  0.00     0.002 A 
ATOM    101  C   UNL A   1      52.532  37.346  25.926  1.00  0.00     0.091 A 
ATOM    102  F   UNL A   1      51.252  36.756  27.845  1.00  0.00    -0.205 F 
ATOM    103  C   UNL A   1      52.721  37.261  24.538  1.00  0.00     0.022 A 
BRANCH 101 104
ATOM    104  S   UNL A   1      53.764  38.236  26.876  1.00  0.00     0.127 S 
ATOM    105  O   UNL A   1      53.555  37.695  28.219  1.00  0.00    -0.237 OA
ATOM    106  O   UNL A   1      55.008  37.810  26.234  1.00  0.00    -0.237 OA
ATOM    107  O   UNL A   1      53.456  39.650  26.721  1.00  0.00    -0.744 OA
ENDBRANCH 101 104
ENDBRANCH  74  97
ENDBRANCH  48  49
ENDBRANCH  41  43
ENDBRANCH  40  41
ENDBRANCH  39  40
ENDBRANCH  38  39
ENDBRANCH  37  38
ENDBRANCH  36  37
ENDBRANCH  35  36
ENDBRANCH  34  35
ENDBRANCH   1  34
TORSDOF 29
ENDMDL
