MODEL 1
REMARK VINA RESULT:      -8.0      0.000      0.000
REMARK SMILES O=C(C[N@@H+]1CCC[C@@H]1C(=O)OCCOCCOCCOCCOC(=O)c1ccc(-c2c3nc(c(-c4cccc(S(=O)(=O)[O-])c4F)c4ccc([nH]4)c(-c4cccc(S(=O)(=O)[O-])c4F)c4nc(c(-c5cccc(S(=O)(=O)[O-])c5F)c5ccc2[nH]5)C=C4)C=C3)cc1)NCc1ccc(Cl)cc1
REMARK SMILES IDX 16 1 15 2 14 3 13 4 12 5 11 6 9 7 10 8 8 9 4 10 5 11 6 13
REMARK SMILES IDX 7 14 3 15 2 16 1 17 89 18 90 20 91 21 92 22 97 23 93 24
REMARK SMILES IDX 96 25 94 26 95 27 17 28 18 29 19 30 20 31 21 32 22 33 23 34
REMARK SMILES IDX 24 35 25 36 26 37 27 38 88 39 28 40 87 41 29 42 30 43 31 44
REMARK SMILES IDX 81 45 32 46 86 47 80 48 82 49 33 50 85 51 79 52 78 53 34 55
REMARK SMILES IDX 66 56 46 57 65 58 47 59 50 60 64 61 83 62 48 63 49 64 63 66
REMARK SMILES IDX 84 67 51 68 35 69 36 70 44 71 37 72 39 73 45 74 38 75 40 76
REMARK SMILES IDX 41 77 42 78 43 79 67 80 68 81 76 82 69 83 71 84 77 85 70 86
REMARK SMILES IDX 72 87 73 88 74 89 75 90 52 91 53 92 61 93 54 94 56 95 62 96
REMARK SMILES IDX 55 97 57 98 58 99 59 100 60 101
REMARK H PARENT 4 12 89 19 82 54 50 65
REMARK Flexibility Score: inf
ROOT
ATOM      1  C   UNL A   1      37.487  29.408  27.686  1.00  0.00     0.188 C 
ENDROOT
BRANCH   1   2
ATOM      2  C   UNL A   1      36.436  29.840  28.725  1.00  0.00     0.188 C 
BRANCH   2   3
ATOM      3  O   UNL A   1      35.089  29.774  28.297  1.00  0.00    -0.376 OA
BRANCH   3   4
ATOM      4  C   UNL A   1      34.796  29.491  26.936  1.00  0.00     0.202 C 
BRANCH   4   5
ATOM      5  C   UNL A   1      33.648  28.554  26.566  1.00  0.00     0.261 C 
BRANCH   5   6
ATOM      6  O   UNL A   1      33.721  27.928  25.287  1.00  0.00    -0.459 OA
BRANCH   6   7
ATOM      7  C   UNL A   1      32.901  28.363  24.302  1.00  0.00     0.365 C 
ATOM      8  O   UNL A   1      33.205  29.170  23.432  1.00  0.00    -0.245 OA
BRANCH   7   9
ATOM      9  C   UNL A   1      31.489  27.920  24.571  1.00  0.00     0.295 C 
ATOM     10  N   UNL A   1      31.247  26.496  24.142  1.00  0.00    -0.315 N 
ATOM     11  C   UNL A   1      29.809  26.549  23.758  1.00  0.00     0.263 C 
ATOM     12  H   UNL A   1      31.517  25.850  24.885  1.00  0.00     0.349 HD
ATOM     13  C   UNL A   1      29.616  27.888  23.062  1.00  0.00     0.068 C 
ATOM     14  C   UNL A   1      30.416  28.826  23.936  1.00  0.00     0.083 C 
BRANCH  10  15
ATOM     15  C   UNL A   1      32.045  26.017  22.958  1.00  0.00     0.364 C 
BRANCH  15  16
ATOM     16  C   UNL A   1      33.372  25.224  23.221  1.00  0.00     0.275 C 
ATOM     17  O   UNL A   1      34.193  25.021  22.326  1.00  0.00    -0.268 OA
ATOM     18  N   UNL A   1      33.670  24.912  24.530  1.00  0.00    -0.347 N 
ATOM     19  H   UNL A   1      32.911  24.723  25.127  1.00  0.00     0.164 HD
BRANCH  18  20
ATOM     20  C   UNL A   1      35.007  24.838  25.114  1.00  0.00     0.151 C 
BRANCH  20  21
ATOM     21  C   UNL A   1      35.598  23.425  25.090  1.00  0.00    -0.029 A 
ATOM     22  C   UNL A   1      34.762  22.296  24.999  1.00  0.00     0.007 A 
ATOM     23  C   UNL A   1      36.990  23.204  25.146  1.00  0.00     0.007 A 
ATOM     24  C   UNL A   1      35.295  20.997  24.944  1.00  0.00     0.021 A 
ATOM     25  C   UNL A   1      37.522  21.904  25.086  1.00  0.00     0.021 A 
ATOM     26  C   UNL A   1      36.673  20.806  24.986  1.00  0.00     0.041 A 
ATOM     27  Cl  UNL A   1      37.332  19.220  24.910  1.00  0.00    -0.084 Cl
ENDBRANCH  20  21
ENDBRANCH  18  20
ENDBRANCH  15  16
ENDBRANCH  10  15
ENDBRANCH   7   9
ENDBRANCH   6   7
ENDBRANCH   5   6
ENDBRANCH   4   5
ENDBRANCH   3   4
ENDBRANCH   2   3
ENDBRANCH   1   2
BRANCH   1  28
ATOM     28  O   UNL A   1      38.782  29.162  28.193  1.00  0.00    -0.377 OA
BRANCH  28  29
ATOM     29  C   UNL A   1      39.375  30.048  29.140  1.00  0.00     0.188 C 
BRANCH  29  30
ATOM     30  C   UNL A   1      40.195  29.533  30.334  1.00  0.00     0.188 C 
BRANCH  30  31
ATOM     31  O   UNL A   1      39.913  28.184  30.675  1.00  0.00    -0.376 OA
BRANCH  31  32
ATOM     32  C   UNL A   1      38.564  27.873  30.977  1.00  0.00     0.202 C 
BRANCH  32  33
ATOM     33  C   UNL A   1      38.261  27.479  32.433  1.00  0.00     0.261 C 
BRANCH  33  34
ATOM     34  O   UNL A   1      37.580  28.445  33.258  1.00  0.00    -0.460 OA
BRANCH  34  35
ATOM     35  C   UNL A   1      37.169  29.608  32.692  1.00  0.00     0.338 C 
ATOM     36  O   UNL A   1      36.158  29.776  32.059  1.00  0.00    -0.246 OA
BRANCH  35  37
ATOM     37  C   UNL A   1      38.056  30.713  33.172  1.00  0.00     0.060 A 
ATOM     38  C   UNL A   1      39.284  30.368  33.755  1.00  0.00     0.016 A 
ATOM     39  C   UNL A   1      37.704  32.061  33.047  1.00  0.00     0.016 A 
ATOM     40  C   UNL A   1      40.117  31.356  34.290  1.00  0.00     0.010 A 
ATOM     41  C   UNL A   1      38.533  33.051  33.599  1.00  0.00     0.010 A 
ATOM     42  C   UNL A   1      39.718  32.699  34.271  1.00  0.00    -0.014 A 
BRANCH  42  43
ATOM     43  C   UNL A   1      40.378  33.660  35.198  1.00  0.00     0.031 A 
ATOM     44  C   UNL A   1      39.942  33.650  36.641  1.00  0.00     0.074 A 
ATOM     45  C   UNL A   1      41.360  34.496  34.812  1.00  0.00     0.049 A 
ATOM     46  N   UNL A   1      40.346  34.389  37.642  1.00  0.00    -0.248 NA
ATOM     47  C   UNL A   1      38.909  32.664  37.003  1.00  0.00     0.031 C 
ATOM     48  C   UNL A   1      41.910  34.596  33.463  1.00  0.00     0.029 A 
ATOM     49  N   UNL A   1      42.055  35.441  35.532  1.00  0.00    -0.354 N 
ATOM     50  C   UNL A   1      39.593  33.985  38.737  1.00  0.00     0.074 A 
ATOM     51  C   UNL A   1      38.709  32.936  38.282  1.00  0.00     0.031 C 
ATOM     52  C   UNL A   1      42.836  35.572  33.444  1.00  0.00     0.029 A 
ATOM     53  C   UNL A   1      42.926  36.184  34.772  1.00  0.00     0.049 A 
ATOM     54  H   UNL A   1      41.939  35.571  36.501  1.00  0.00     0.167 HD
ATOM     55  C   UNL A   1      39.634  34.434  40.014  1.00  0.00     0.034 A 
ATOM     56  C   UNL A   1      43.685  37.253  35.100  1.00  0.00     0.034 A 
ATOM     57  C   UNL A   1      40.517  35.462  40.486  1.00  0.00     0.049 A 
ATOM     58  C   UNL A   1      43.686  37.765  36.522  1.00  0.00     0.074 A 
ATOM     59  C   UNL A   1      40.657  35.951  41.773  1.00  0.00     0.029 A 
ATOM     60  N   UNL A   1      41.395  36.177  39.689  1.00  0.00    -0.354 N 
ATOM     61  N   UNL A   1      43.050  37.301  37.570  1.00  0.00    -0.248 NA
ATOM     62  C   UNL A   1      44.531  38.936  36.809  1.00  0.00     0.031 C 
ATOM     63  C   UNL A   1      41.592  36.990  41.747  1.00  0.00     0.029 A 
ATOM     64  C   UNL A   1      42.064  37.122  40.451  1.00  0.00     0.049 A 
ATOM     65  H   UNL A   1      41.526  36.036  38.723  1.00  0.00     0.167 HD
ATOM     66  C   UNL A   1      43.438  38.103  38.642  1.00  0.00     0.074 A 
ATOM     67  C   UNL A   1      44.384  39.067  38.120  1.00  0.00     0.031 C 
ATOM     68  C   UNL A   1      43.036  38.052  39.937  1.00  0.00     0.034 A 
BRANCH  55  69
ATOM     69  C   UNL A   1      38.674  33.810  40.991  1.00  0.00     0.023 A 
ATOM     70  C   UNL A   1      37.449  34.443  41.280  1.00  0.00     0.012 A 
ATOM     71  C   UNL A   1      38.986  32.585  41.611  1.00  0.00     0.148 A 
ATOM     72  C   UNL A   1      36.565  33.885  42.204  1.00  0.00     0.002 A 
ATOM     73  C   UNL A   1      38.080  32.012  42.493  1.00  0.00     0.091 A 
ATOM     74  F   UNL A   1      40.170  32.016  41.344  1.00  0.00    -0.205 F 
ATOM     75  C   UNL A   1      36.876  32.666  42.802  1.00  0.00     0.022 A 
BRANCH  73  76
ATOM     76  S   UNL A   1      38.361  30.410  43.255  1.00  0.00     0.127 S 
ATOM     77  O   UNL A   1      38.549  29.556  42.084  1.00  0.00    -0.237 OA
ATOM     78  O   UNL A   1      39.575  30.650  44.037  1.00  0.00    -0.237 OA
ATOM     79  O   UNL A   1      37.174  30.133  44.051  1.00  0.00    -0.744 OA
ENDBRANCH  73  76
ENDBRANCH  55  69
BRANCH  56  80
ATOM     80  C   UNL A   1      44.512  37.925  34.057  1.00  0.00     0.023 A 
ATOM     81  C   UNL A   1      45.809  37.453  33.772  1.00  0.00     0.012 A 
ATOM     82  C   UNL A   1      44.012  39.030  33.341  1.00  0.00     0.148 A 
ATOM     83  C   UNL A   1      46.600  38.086  32.811  1.00  0.00     0.002 A 
ATOM     84  C   UNL A   1      44.781  39.618  32.345  1.00  0.00     0.091 A 
ATOM     85  F   UNL A   1      42.786  39.479  33.645  1.00  0.00    -0.205 F 
ATOM     86  C   UNL A   1      46.082  39.159  32.089  1.00  0.00     0.022 A 
BRANCH  84  87
ATOM     87  S   UNL A   1      44.147  40.915  31.277  1.00  0.00     0.127 S 
ATOM     88  O   UNL A   1      44.195  42.080  32.158  1.00  0.00    -0.237 OA
ATOM     89  O   UNL A   1      45.131  40.917  30.194  1.00  0.00    -0.237 OA
ATOM     90  O   UNL A   1      42.815  40.483  30.877  1.00  0.00    -0.744 OA
ENDBRANCH  84  87
ENDBRANCH  56  80
BRANCH  68  91
ATOM     91  C   UNL A   1      43.627  39.050  40.904  1.00  0.00     0.023 A 
ATOM     92  C   UNL A   1      44.845  38.765  41.552  1.00  0.00     0.012 A 
ATOM     93  C   UNL A   1      43.017  40.305  41.105  1.00  0.00     0.148 A 
ATOM     94  C   UNL A   1      45.430  39.697  42.409  1.00  0.00     0.002 A 
ATOM     95  C   UNL A   1      43.632  41.249  41.922  1.00  0.00     0.091 A 
ATOM     96  F   UNL A   1      41.851  40.556  40.493  1.00  0.00    -0.205 F 
ATOM     97  C   UNL A   1      44.831  40.943  42.584  1.00  0.00     0.022 A 
BRANCH  95  98
ATOM     98  S   UNL A   1      42.985  42.914  42.127  1.00  0.00     0.127 S 
ATOM     99  O   UNL A   1      43.955  43.498  43.052  1.00  0.00    -0.237 OA
ATOM    100  O   UNL A   1      43.048  43.443  40.764  1.00  0.00    -0.237 OA
ATOM    101  O   UNL A   1      41.635  42.758  42.652  1.00  0.00    -0.744 OA
ENDBRANCH  95  98
ENDBRANCH  68  91
ENDBRANCH  42  43
ENDBRANCH  35  37
ENDBRANCH  34  35
ENDBRANCH  33  34
ENDBRANCH  32  33
ENDBRANCH  31  32
ENDBRANCH  30  31
ENDBRANCH  29  30
ENDBRANCH  28  29
ENDBRANCH   1  28
TORSDOF 27
ENDMDL
MODEL 2
REMARK VINA RESULT:      -7.9      3.990      8.334
REMARK SMILES O=C(C[N@@H+]1CCC[C@@H]1C(=O)OCCOCCOCCOCCOC(=O)c1ccc(-c2c3nc(c(-c4cccc(S(=O)(=O)[O-])c4F)c4ccc([nH]4)c(-c4cccc(S(=O)(=O)[O-])c4F)c4nc(c(-c5cccc(S(=O)(=O)[O-])c5F)c5ccc2[nH]5)C=C4)C=C3)cc1)NCc1ccc(Cl)cc1
REMARK SMILES IDX 16 1 15 2 14 3 13 4 12 5 11 6 9 7 10 8 8 9 4 10 5 11 6 13
REMARK SMILES IDX 7 14 3 15 2 16 1 17 89 18 90 20 91 21 92 22 97 23 93 24
REMARK SMILES IDX 96 25 94 26 95 27 17 28 18 29 19 30 20 31 21 32 22 33 23 34
REMARK SMILES IDX 24 35 25 36 26 37 27 38 88 39 28 40 87 41 29 42 30 43 31 44
REMARK SMILES IDX 81 45 32 46 86 47 80 48 82 49 33 50 85 51 79 52 78 53 34 55
REMARK SMILES IDX 66 56 46 57 65 58 47 59 50 60 64 61 83 62 48 63 49 64 63 66
REMARK SMILES IDX 84 67 51 68 35 69 36 70 44 71 37 72 39 73 45 74 38 75 40 76
REMARK SMILES IDX 41 77 42 78 43 79 67 80 68 81 76 82 69 83 71 84 77 85 70 86
REMARK SMILES IDX 72 87 73 88 74 89 75 90 52 91 53 92 61 93 54 94 56 95 62 96
REMARK SMILES IDX 55 97 57 98 58 99 59 100 60 101
REMARK H PARENT 4 12 89 19 82 54 50 65
REMARK Flexibility Score: inf
ROOT
ATOM      1  C   UNL A   1      37.732  29.475  28.791  1.00  0.00     0.188 C 
ENDROOT
BRANCH   1   2
ATOM      2  C   UNL A   1      36.337  29.600  29.428  1.00  0.00     0.188 C 
BRANCH   2   3
ATOM      3  O   UNL A   1      35.280  29.897  28.535  1.00  0.00    -0.376 OA
BRANCH   3   4
ATOM      4  C   UNL A   1      35.110  29.115  27.361  1.00  0.00     0.202 C 
BRANCH   4   5
ATOM      5  C   UNL A   1      34.148  29.560  26.262  1.00  0.00     0.261 C 
BRANCH   5   6
ATOM      6  O   UNL A   1      33.045  28.698  25.990  1.00  0.00    -0.459 OA
BRANCH   6   7
ATOM      7  C   UNL A   1      32.664  28.515  24.705  1.00  0.00     0.365 C 
ATOM      8  O   UNL A   1      33.411  28.549  23.734  1.00  0.00    -0.245 OA
BRANCH   7   9
ATOM      9  C   UNL A   1      31.164  28.520  24.604  1.00  0.00     0.295 C 
ATOM     10  N   UNL A   1      30.577  27.144  24.774  1.00  0.00    -0.315 N 
ATOM     11  C   UNL A   1      29.366  27.235  23.910  1.00  0.00     0.263 C 
ATOM     12  H   UNL A   1      30.439  26.935  25.763  1.00  0.00     0.349 HD
ATOM     13  C   UNL A   1      29.789  28.038  22.689  1.00  0.00     0.068 C 
ATOM     14  C   UNL A   1      30.626  29.139  23.299  1.00  0.00     0.083 C 
BRANCH  10  15
ATOM     15  C   UNL A   1      31.426  25.997  24.292  1.00  0.00     0.364 C 
BRANCH  15  16
ATOM     16  C   UNL A   1      30.788  24.565  24.236  1.00  0.00     0.275 C 
ATOM     17  O   UNL A   1      30.558  24.000  23.167  1.00  0.00    -0.268 OA
ATOM     18  N   UNL A   1      30.656  23.889  25.430  1.00  0.00    -0.347 N 
ATOM     19  H   UNL A   1      30.470  24.430  26.231  1.00  0.00     0.164 HD
BRANCH  18  20
ATOM     20  C   UNL A   1      30.769  22.444  25.617  1.00  0.00     0.151 C 
BRANCH  20  21
ATOM     21  C   UNL A   1      32.209  21.933  25.508  1.00  0.00    -0.029 A 
ATOM     22  C   UNL A   1      32.487  20.679  24.932  1.00  0.00     0.007 A 
ATOM     23  C   UNL A   1      33.302  22.696  25.967  1.00  0.00     0.007 A 
ATOM     24  C   UNL A   1      33.806  20.214  24.798  1.00  0.00     0.021 A 
ATOM     25  C   UNL A   1      34.622  22.233  25.828  1.00  0.00     0.021 A 
ATOM     26  C   UNL A   1      34.868  20.994  25.245  1.00  0.00     0.041 A 
ATOM     27  Cl  UNL A   1      36.486  20.436  25.076  1.00  0.00    -0.084 Cl
ENDBRANCH  20  21
ENDBRANCH  18  20
ENDBRANCH  15  16
ENDBRANCH  10  15
ENDBRANCH   7   9
ENDBRANCH   6   7
ENDBRANCH   5   6
ENDBRANCH   4   5
ENDBRANCH   3   4
ENDBRANCH   2   3
ENDBRANCH   1   2
BRANCH   1  28
ATOM     28  O   UNL A   1      38.571  30.603  28.931  1.00  0.00    -0.377 OA
BRANCH  28  29
ATOM     29  C   UNL A   1      38.133  31.753  29.649  1.00  0.00     0.188 C 
BRANCH  29  30
ATOM     30  C   UNL A   1      37.962  33.122  28.970  1.00  0.00     0.188 C 
BRANCH  30  31
ATOM     31  O   UNL A   1      37.130  34.014  29.695  1.00  0.00    -0.376 OA
BRANCH  31  32
ATOM     32  C   UNL A   1      35.839  34.256  29.162  1.00  0.00     0.202 C 
BRANCH  32  33
ATOM     33  C   UNL A   1      34.848  33.080  29.206  1.00  0.00     0.261 C 
BRANCH  33  34
ATOM     34  O   UNL A   1      34.117  32.869  30.430  1.00  0.00    -0.460 OA
BRANCH  34  35
ATOM     35  C   UNL A   1      33.938  33.920  31.270  1.00  0.00     0.338 C 
ATOM     36  O   UNL A   1      33.099  34.779  31.169  1.00  0.00    -0.246 OA
BRANCH  35  37
ATOM     37  C   UNL A   1      34.800  33.721  32.476  1.00  0.00     0.060 A 
ATOM     38  C   UNL A   1      34.906  34.777  33.393  1.00  0.00     0.016 A 
ATOM     39  C   UNL A   1      35.483  32.525  32.716  1.00  0.00     0.016 A 
ATOM     40  C   UNL A   1      35.757  34.674  34.498  1.00  0.00     0.010 A 
ATOM     41  C   UNL A   1      36.351  32.428  33.816  1.00  0.00     0.010 A 
ATOM     42  C   UNL A   1      36.533  33.522  34.683  1.00  0.00    -0.014 A 
BRANCH  42  43
ATOM     43  C   UNL A   1      37.720  33.589  35.580  1.00  0.00     0.031 A 
ATOM     44  C   UNL A   1      39.048  33.937  34.957  1.00  0.00     0.074 A 
ATOM     45  C   UNL A   1      37.647  33.393  36.910  1.00  0.00     0.049 A 
ATOM     46  N   UNL A   1      40.228  34.046  35.510  1.00  0.00    -0.248 NA
ATOM     47  C   UNL A   1      39.038  34.201  33.507  1.00  0.00     0.031 C 
ATOM     48  C   UNL A   1      36.432  33.083  37.658  1.00  0.00     0.029 A 
ATOM     49  N   UNL A   1      38.639  33.406  37.863  1.00  0.00    -0.354 N 
ATOM     50  C   UNL A   1      41.102  34.354  34.475  1.00  0.00     0.074 A 
ATOM     51  C   UNL A   1      40.320  34.414  33.261  1.00  0.00     0.031 C 
ATOM     52  C   UNL A   1      36.755  32.905  38.952  1.00  0.00     0.029 A 
ATOM     53  C   UNL A   1      38.201  33.060  39.120  1.00  0.00     0.049 A 
ATOM     54  H   UNL A   1      39.573  33.642  37.665  1.00  0.00     0.167 HD
ATOM     55  C   UNL A   1      42.437  34.576  34.523  1.00  0.00     0.034 A 
ATOM     56  C   UNL A   1      38.890  32.862  40.265  1.00  0.00     0.034 A 
ATOM     57  C   UNL A   1      43.226  34.537  35.721  1.00  0.00     0.049 A 
ATOM     58  C   UNL A   1      40.386  33.076  40.289  1.00  0.00     0.074 A 
ATOM     59  C   UNL A   1      44.578  34.792  35.870  1.00  0.00     0.029 A 
ATOM     60  N   UNL A   1      42.742  34.200  36.975  1.00  0.00    -0.354 N 
ATOM     61  N   UNL A   1      41.181  33.474  39.326  1.00  0.00    -0.248 NA
ATOM     62  C   UNL A   1      41.075  32.838  41.569  1.00  0.00     0.031 C 
ATOM     63  C   UNL A   1      44.920  34.570  37.207  1.00  0.00     0.029 A 
ATOM     64  C   UNL A   1      43.773  34.216  37.900  1.00  0.00     0.049 A 
ATOM     65  H   UNL A   1      41.804  33.982  37.179  1.00  0.00     0.167 HD
ATOM     66  C   UNL A   1      42.454  33.559  39.887  1.00  0.00     0.074 A 
ATOM     67  C   UNL A   1      42.319  33.195  41.282  1.00  0.00     0.031 C 
ATOM     68  C   UNL A   1      43.628  33.894  39.296  1.00  0.00     0.034 A 
BRANCH  55  69
ATOM     69  C   UNL A   1      43.129  34.874  33.220  1.00  0.00     0.023 A 
ATOM     70  C   UNL A   1      43.313  36.208  32.805  1.00  0.00     0.012 A 
ATOM     71  C   UNL A   1      43.611  33.824  32.414  1.00  0.00     0.148 A 
ATOM     72  C   UNL A   1      43.930  36.492  31.587  1.00  0.00     0.002 A 
ATOM     73  C   UNL A   1      44.266  34.117  31.226  1.00  0.00     0.091 A 
ATOM     74  F   UNL A   1      43.399  32.562  32.813  1.00  0.00    -0.205 F 
ATOM     75  C   UNL A   1      44.415  35.448  30.804  1.00  0.00     0.022 A 
BRANCH  73  76
ATOM     76  S   UNL A   1      44.989  32.842  30.187  1.00  0.00     0.127 S 
ATOM     77  O   UNL A   1      45.849  32.139  31.138  1.00  0.00    -0.237 OA
ATOM     78  O   UNL A   1      43.810  32.089  29.758  1.00  0.00    -0.237 OA
ATOM     79  O   UNL A   1      45.681  33.544  29.116  1.00  0.00    -0.744 OA
ENDBRANCH  73  76
ENDBRANCH  55  69
BRANCH  56  80
ATOM     80  C   UNL A   1      38.172  32.427  41.498  1.00  0.00     0.023 A 
ATOM     81  C   UNL A   1      38.156  31.067  41.864  1.00  0.00     0.012 A 
ATOM     82  C   UNL A   1      37.508  33.364  42.314  1.00  0.00     0.148 A 
ATOM     83  C   UNL A   1      37.470  30.646  43.005  1.00  0.00     0.002 A 
ATOM     84  C   UNL A   1      36.879  32.947  43.480  1.00  0.00     0.091 A 
ATOM     85  F   UNL A   1      37.514  34.650  41.936  1.00  0.00    -0.205 F 
ATOM     86  C   UNL A   1      36.844  31.586  43.820  1.00  0.00     0.022 A 
BRANCH  84  87
ATOM     87  S   UNL A   1      36.163  34.101  44.655  1.00  0.00     0.127 S 
ATOM     88  O   UNL A   1      37.219  35.104  44.773  1.00  0.00    -0.237 OA
ATOM     89  O   UNL A   1      34.965  34.546  43.941  1.00  0.00    -0.237 OA
ATOM     90  O   UNL A   1      35.891  33.326  45.858  1.00  0.00    -0.744 OA
ENDBRANCH  84  87
ENDBRANCH  56  80
BRANCH  68  91
ATOM     91  C   UNL A   1      44.873  33.912  40.150  1.00  0.00     0.023 A 
ATOM     92  C   UNL A   1      45.252  35.094  40.817  1.00  0.00     0.012 A 
ATOM     93  C   UNL A   1      45.621  32.735  40.357  1.00  0.00     0.148 A 
ATOM     94  C   UNL A   1      46.371  35.113  41.650  1.00  0.00     0.002 A 
ATOM     95  C   UNL A   1      46.705  32.749  41.229  1.00  0.00     0.091 A 
ATOM     96  F   UNL A   1      45.257  31.621  39.704  1.00  0.00    -0.205 F 
ATOM     97  C   UNL A   1      47.089  33.939  41.866  1.00  0.00     0.022 A 
BRANCH  95  98
ATOM     98  S   UNL A   1      47.627  31.263  41.644  1.00  0.00     0.127 S 
ATOM     99  O   UNL A   1      46.568  30.383  42.136  1.00  0.00    -0.237 OA
ATOM    100  O   UNL A   1      48.190  30.873  40.350  1.00  0.00    -0.237 OA
ATOM    101  O   UNL A   1      48.615  31.667  42.635  1.00  0.00    -0.744 OA
ENDBRANCH  95  98
ENDBRANCH  68  91
ENDBRANCH  42  43
ENDBRANCH  35  37
ENDBRANCH  34  35
ENDBRANCH  33  34
ENDBRANCH  32  33
ENDBRANCH  31  32
ENDBRANCH  30  31
ENDBRANCH  29  30
ENDBRANCH  28  29
ENDBRANCH   1  28
TORSDOF 27
ENDMDL
MODEL 3
REMARK VINA RESULT:      -7.9      8.017     13.187
REMARK SMILES O=C(C[N@@H+]1CCC[C@@H]1C(=O)OCCOCCOCCOCCOC(=O)c1ccc(-c2c3nc(c(-c4cccc(S(=O)(=O)[O-])c4F)c4ccc([nH]4)c(-c4cccc(S(=O)(=O)[O-])c4F)c4nc(c(-c5cccc(S(=O)(=O)[O-])c5F)c5ccc2[nH]5)C=C4)C=C3)cc1)NCc1ccc(Cl)cc1
REMARK SMILES IDX 16 1 15 2 14 3 13 4 12 5 11 6 9 7 10 8 8 9 4 10 5 11 6 13
REMARK SMILES IDX 7 14 3 15 2 16 1 17 89 18 90 20 91 21 92 22 97 23 93 24
REMARK SMILES IDX 96 25 94 26 95 27 17 28 18 29 19 30 20 31 21 32 22 33 23 34
REMARK SMILES IDX 24 35 25 36 26 37 27 38 88 39 28 40 87 41 29 42 30 43 31 44
REMARK SMILES IDX 81 45 32 46 86 47 80 48 82 49 33 50 85 51 79 52 78 53 34 55
REMARK SMILES IDX 66 56 46 57 65 58 47 59 50 60 64 61 83 62 48 63 49 64 63 66
REMARK SMILES IDX 84 67 51 68 35 69 36 70 44 71 37 72 39 73 45 74 38 75 40 76
REMARK SMILES IDX 41 77 42 78 43 79 67 80 68 81 76 82 69 83 71 84 77 85 70 86
REMARK SMILES IDX 72 87 73 88 74 89 75 90 52 91 53 92 61 93 54 94 56 95 62 96
REMARK SMILES IDX 55 97 57 98 58 99 59 100 60 101
REMARK H PARENT 4 12 89 19 82 54 50 65
REMARK Flexibility Score: inf
ROOT
ATOM      1  C   UNL A   1      34.834  35.480  33.161  1.00  0.00     0.188 C 
ENDROOT
BRANCH   1   2
ATOM      2  C   UNL A   1      34.448  34.799  31.836  1.00  0.00     0.188 C 
BRANCH   2   3
ATOM      3  O   UNL A   1      33.980  33.468  31.945  1.00  0.00    -0.376 OA
BRANCH   3   4
ATOM      4  C   UNL A   1      34.720  32.410  31.351  1.00  0.00     0.202 C 
BRANCH   4   5
ATOM      5  C   UNL A   1      35.943  31.825  32.055  1.00  0.00     0.261 C 
BRANCH   5   6
ATOM      6  O   UNL A   1      36.994  31.347  31.218  1.00  0.00    -0.459 OA
BRANCH   6   7
ATOM      7  C   UNL A   1      37.227  30.015  31.165  1.00  0.00     0.365 C 
ATOM      8  O   UNL A   1      36.697  29.174  31.881  1.00  0.00    -0.245 OA
BRANCH   7   9
ATOM      9  C   UNL A   1      38.412  29.732  30.284  1.00  0.00     0.295 C 
ATOM     10  N   UNL A   1      38.072  29.832  28.820  1.00  0.00    -0.315 N 
ATOM     11  C   UNL A   1      39.004  28.827  28.236  1.00  0.00     0.263 C 
ATOM     12  H   UNL A   1      38.153  30.797  28.501  1.00  0.00     0.349 HD
ATOM     13  C   UNL A   1      39.028  27.665  29.218  1.00  0.00     0.068 C 
ATOM     14  C   UNL A   1      39.083  28.371  30.554  1.00  0.00     0.083 C 
BRANCH  10  15
ATOM     15  C   UNL A   1      36.663  29.458  28.442  1.00  0.00     0.364 C 
BRANCH  15  16
ATOM     16  C   UNL A   1      35.654  30.605  28.085  1.00  0.00     0.275 C 
ATOM     17  O   UNL A   1      36.029  31.663  27.579  1.00  0.00    -0.268 OA
ATOM     18  N   UNL A   1      34.311  30.318  28.199  1.00  0.00    -0.347 N 
ATOM     19  H   UNL A   1      34.046  29.697  28.915  1.00  0.00     0.164 HD
BRANCH  18  20
ATOM     20  C   UNL A   1      33.244  30.850  27.354  1.00  0.00     0.151 C 
BRANCH  20  21
ATOM     21  C   UNL A   1      32.613  29.792  26.442  1.00  0.00    -0.029 A 
ATOM     22  C   UNL A   1      32.986  28.438  26.544  1.00  0.00     0.007 A 
ATOM     23  C   UNL A   1      31.636  30.129  25.484  1.00  0.00     0.007 A 
ATOM     24  C   UNL A   1      32.391  27.455  25.736  1.00  0.00     0.021 A 
ATOM     25  C   UNL A   1      31.037  29.144  24.678  1.00  0.00     0.021 A 
ATOM     26  C   UNL A   1      31.418  27.812  24.808  1.00  0.00     0.041 A 
ATOM     27  Cl  UNL A   1      30.679  26.612  23.821  1.00  0.00    -0.084 Cl
ENDBRANCH  20  21
ENDBRANCH  18  20
ENDBRANCH  15  16
ENDBRANCH  10  15
ENDBRANCH   7   9
ENDBRANCH   6   7
ENDBRANCH   5   6
ENDBRANCH   4   5
ENDBRANCH   3   4
ENDBRANCH   2   3
ENDBRANCH   1   2
BRANCH   1  28
ATOM     28  O   UNL A   1      36.190  35.363  33.537  1.00  0.00    -0.377 OA
BRANCH  28  29
ATOM     29  C   UNL A   1      36.639  34.257  34.316  1.00  0.00     0.188 C 
BRANCH  29  30
ATOM     30  C   UNL A   1      35.942  33.846  35.624  1.00  0.00     0.188 C 
BRANCH  30  31
ATOM     31  O   UNL A   1      36.818  33.251  36.569  1.00  0.00    -0.376 OA
BRANCH  31  32
ATOM     32  C   UNL A   1      38.141  33.758  36.619  1.00  0.00     0.202 C 
BRANCH  32  33
ATOM     33  C   UNL A   1      39.264  32.724  36.802  1.00  0.00     0.261 C 
BRANCH  33  34
ATOM     34  O   UNL A   1      39.680  31.977  35.641  1.00  0.00    -0.460 OA
BRANCH  34  35
ATOM     35  C   UNL A   1      39.927  30.649  35.776  1.00  0.00     0.338 C 
ATOM     36  O   UNL A   1      39.136  29.807  36.117  1.00  0.00    -0.246 OA
BRANCH  35  37
ATOM     37  C   UNL A   1      41.281  30.355  35.212  1.00  0.00     0.060 A 
ATOM     38  C   UNL A   1      41.922  31.361  34.476  1.00  0.00     0.016 A 
ATOM     39  C   UNL A   1      41.918  29.125  35.404  1.00  0.00     0.016 A 
ATOM     40  C   UNL A   1      43.154  31.115  33.861  1.00  0.00     0.010 A 
ATOM     41  C   UNL A   1      43.147  28.872  34.773  1.00  0.00     0.010 A 
ATOM     42  C   UNL A   1      43.746  29.848  33.955  1.00  0.00    -0.014 A 
BRANCH  42  43
ATOM     43  C   UNL A   1      44.800  29.471  32.972  1.00  0.00     0.031 A 
ATOM     44  C   UNL A   1      44.351  28.889  31.655  1.00  0.00     0.074 A 
ATOM     45  C   UNL A   1      46.113  29.662  33.195  1.00  0.00     0.049 A 
ATOM     46  N   UNL A   1      45.062  28.469  30.641  1.00  0.00    -0.248 NA
ATOM     47  C   UNL A   1      42.896  28.769  31.458  1.00  0.00     0.031 C 
ATOM     48  C   UNL A   1      46.695  30.243  34.401  1.00  0.00     0.029 A 
ATOM     49  N   UNL A   1      47.199  29.360  32.405  1.00  0.00    -0.354 N 
ATOM     50  C   UNL A   1      44.146  28.004  29.706  1.00  0.00     0.074 A 
ATOM     51  C   UNL A   1      42.829  28.192  30.270  1.00  0.00     0.031 C 
ATOM     52  C   UNL A   1      48.036  30.227  34.286  1.00  0.00     0.029 A 
ATOM     53  C   UNL A   1      48.408  29.611  33.011  1.00  0.00     0.049 A 
ATOM     54  H   UNL A   1      47.118  29.000  31.493  1.00  0.00     0.167 HD
ATOM     55  C   UNL A   1      44.372  27.475  28.480  1.00  0.00     0.034 A 
ATOM     56  C   UNL A   1      49.667  29.346  32.598  1.00  0.00     0.034 A 
ATOM     57  C   UNL A   1      45.672  27.297  27.898  1.00  0.00     0.049 A 
ATOM     58  C   UNL A   1      49.897  28.717  31.244  1.00  0.00     0.074 A 
ATOM     59  C   UNL A   1      45.993  26.808  26.644  1.00  0.00     0.029 A 
ATOM     60  N   UNL A   1      46.869  27.579  28.536  1.00  0.00    -0.354 N 
ATOM     61  N   UNL A   1      49.023  28.384  30.325  1.00  0.00    -0.248 NA
ATOM     62  C   UNL A   1      51.294  28.451  30.859  1.00  0.00     0.031 C 
ATOM     63  C   UNL A   1      47.386  26.756  26.539  1.00  0.00     0.029 A 
ATOM     64  C   UNL A   1      47.933  27.251  27.712  1.00  0.00     0.049 A 
ATOM     65  H   UNL A   1      46.952  27.957  29.441  1.00  0.00     0.167 HD
ATOM     66  C   UNL A   1      49.761  27.897  29.248  1.00  0.00     0.074 A 
ATOM     67  C   UNL A   1      51.157  28.001  29.619  1.00  0.00     0.031 C 
ATOM     68  C   UNL A   1      49.321  27.395  28.067  1.00  0.00     0.034 A 
BRANCH  55  69
ATOM     69  C   UNL A   1      43.168  27.037  27.690  1.00  0.00     0.023 A 
ATOM     70  C   UNL A   1      42.495  27.956  26.860  1.00  0.00     0.012 A 
ATOM     71  C   UNL A   1      42.714  25.706  27.763  1.00  0.00     0.148 A 
ATOM     72  C   UNL A   1      41.363  27.565  26.144  1.00  0.00     0.002 A 
ATOM     73  C   UNL A   1      41.615  25.313  27.012  1.00  0.00     0.091 A 
ATOM     74  F   UNL A   1      43.351  24.857  28.583  1.00  0.00    -0.205 F 
ATOM     75  C   UNL A   1      40.930  26.243  26.212  1.00  0.00     0.022 A 
BRANCH  73  76
ATOM     76  S   UNL A   1      41.030  23.616  26.979  1.00  0.00     0.127 S 
ATOM     77  O   UNL A   1      39.649  23.789  26.530  1.00  0.00    -0.237 OA
ATOM     78  O   UNL A   1      41.920  23.002  25.992  1.00  0.00    -0.237 OA
ATOM     79  O   UNL A   1      41.191  23.111  28.335  1.00  0.00    -0.744 OA
ENDBRANCH  73  76
ENDBRANCH  55  69
BRANCH  56  80
ATOM     80  C   UNL A   1      50.823  29.670  33.484  1.00  0.00     0.023 A 
ATOM     81  C   UNL A   1      51.284  28.723  34.418  1.00  0.00     0.012 A 
ATOM     82  C   UNL A   1      51.470  30.919  33.396  1.00  0.00     0.148 A 
ATOM     83  C   UNL A   1      52.352  29.023  35.267  1.00  0.00     0.002 A 
ATOM     84  C   UNL A   1      52.570  31.188  34.200  1.00  0.00     0.091 A 
ATOM     85  F   UNL A   1      51.001  31.815  32.518  1.00  0.00    -0.205 F 
ATOM     86  C   UNL A   1      53.003  30.248  35.149  1.00  0.00     0.022 A 
BRANCH  84  87
ATOM     87  S   UNL A   1      53.549  32.683  34.025  1.00  0.00     0.127 S 
ATOM     88  O   UNL A   1      52.590  33.717  34.407  1.00  0.00    -0.237 OA
ATOM     89  O   UNL A   1      54.624  32.450  34.990  1.00  0.00    -0.237 OA
ATOM     90  O   UNL A   1      53.985  32.711  32.635  1.00  0.00    -0.744 OA
ENDBRANCH  84  87
ENDBRANCH  56  80
BRANCH  68  91
ATOM     91  C   UNL A   1      50.350  26.937  27.062  1.00  0.00     0.023 A 
ATOM     92  C   UNL A   1      50.809  25.605  27.083  1.00  0.00     0.012 A 
ATOM     93  C   UNL A   1      50.799  27.803  26.044  1.00  0.00     0.148 A 
ATOM     94  C   UNL A   1      51.722  25.152  26.130  1.00  0.00     0.002 A 
ATOM     95  C   UNL A   1      51.669  27.330  25.067  1.00  0.00     0.091 A 
ATOM     96  F   UNL A   1      50.364  29.072  26.045  1.00  0.00    -0.205 F 
ATOM     97  C   UNL A   1      52.141  26.009  25.116  1.00  0.00     0.022 A 
BRANCH  95  98
ATOM     98  S   UNL A   1      52.185  28.333  23.668  1.00  0.00     0.127 S 
ATOM     99  O   UNL A   1      53.078  29.299  24.308  1.00  0.00    -0.237 OA
ATOM    100  O   UNL A   1      52.858  27.355  22.813  1.00  0.00    -0.237 OA
ATOM    101  O   UNL A   1      50.964  28.891  23.102  1.00  0.00    -0.744 OA
ENDBRANCH  95  98
ENDBRANCH  68  91
ENDBRANCH  42  43
ENDBRANCH  35  37
ENDBRANCH  34  35
ENDBRANCH  33  34
ENDBRANCH  32  33
ENDBRANCH  31  32
ENDBRANCH  30  31
ENDBRANCH  29  30
ENDBRANCH  28  29
ENDBRANCH   1  28
TORSDOF 27
ENDMDL
