MODEL 1
REMARK VINA RESULT:      -8.9      0.000      0.000
REMARK SMILES N#CCNC(=O)Cn1ccc(C(=O)OCCOCCOCCOCCOC(=O)c2ccc(-c3c4nc(c(-c5cccc(S(=O)(=O)[O-])c5F)c5ccc([nH]5)c(-c5cccc(S(=O)(=O)[O-])c5F)c5nc(c(-c6cccc(S(=O)(=O)[O-])c6F)c6ccc3[nH]6)C=C5)C=C4)cc2)c1
REMARK SMILES IDX 19 1 18 2 17 3 16 4 15 5 14 6 12 7 13 8 11 9 8 10 9 11 92 12
REMARK SMILES IDX 10 13 7 14 5 15 4 16 6 18 3 19 2 20 1 21 20 22 21 23 22 24
REMARK SMILES IDX 23 25 24 26 25 27 26 28 27 29 28 30 29 31 30 32 91 33 31 34
REMARK SMILES IDX 90 35 32 36 33 37 34 38 84 39 35 40 89 41 83 42 85 43 36 44
REMARK SMILES IDX 88 45 82 46 81 47 37 49 69 50 49 51 68 52 50 53 53 54 67 55
REMARK SMILES IDX 86 56 51 57 52 58 66 60 87 61 54 62 38 63 39 64 47 65 40 66
REMARK SMILES IDX 42 67 48 68 41 69 43 70 44 71 45 72 46 73 70 74 71 75 79 76
REMARK SMILES IDX 72 77 74 78 80 79 73 80 75 81 76 82 77 83 78 84 55 85 56 86
REMARK SMILES IDX 64 87 57 88 59 89 65 90 58 91 60 92 61 93 62 94 63 95
REMARK H PARENT 4 17 85 48 53 59
REMARK Flexibility Score: inf
ROOT
ATOM      1  C   UNL A   1      36.217  22.490  24.809  1.00  0.00     0.188 C 
ENDROOT
BRANCH   1   2
ATOM      2  C   UNL A   1      35.452  22.807  23.503  1.00  0.00     0.188 C 
BRANCH   2   3
ATOM      3  O   UNL A   1      34.105  23.278  23.481  1.00  0.00    -0.376 OA
BRANCH   3   4
ATOM      4  C   UNL A   1      33.456  23.665  22.283  1.00  0.00     0.202 C 
BRANCH   4   5
ATOM      5  C   UNL A   1      32.710  25.006  22.175  1.00  0.00     0.261 C 
BRANCH   5   6
ATOM      6  O   UNL A   1      33.337  26.020  21.392  1.00  0.00    -0.460 OA
BRANCH   6   7
ATOM      7  C   UNL A   1      33.720  27.123  22.079  1.00  0.00     0.339 C 
ATOM      8  O   UNL A   1      34.301  28.094  21.585  1.00  0.00    -0.246 OA
BRANCH   7   9
ATOM      9  C   UNL A   1      33.249  27.115  23.457  1.00  0.00     0.077 A 
ATOM     10  N   UNL A   1      31.970  26.968  25.288  1.00  0.00    -0.344 N 
ATOM     11  C   UNL A   1      33.213  27.368  25.708  1.00  0.00     0.087 A 
ATOM     12  C   UNL A   1      31.971  26.837  23.922  1.00  0.00     0.101 A 
ATOM     13  C   UNL A   1      34.019  27.475  24.600  1.00  0.00     0.035 A 
BRANCH  10  14
ATOM     14  C   UNL A   1      30.881  26.589  26.177  1.00  0.00     0.221 C 
BRANCH  14  15
ATOM     15  C   UNL A   1      29.886  25.627  25.573  1.00  0.00     0.240 C 
ATOM     16  N   UNL A   1      30.023  24.282  25.737  1.00  0.00    -0.341 N 
ATOM     17  H   UNL A   1      29.373  23.736  25.238  1.00  0.00     0.164 HD
ATOM     18  O   UNL A   1      28.979  26.037  24.849  1.00  0.00    -0.273 OA
BRANCH  16  19
ATOM     19  C   UNL A   1      30.977  23.528  26.531  1.00  0.00     0.236 C 
BRANCH  19  20
ATOM     20  C   UNL A   1      31.356  22.230  25.837  1.00  0.00     0.084 C 
ATOM     21  N   UNL A   1      31.670  21.154  25.262  1.00  0.00    -0.196 NA
ENDBRANCH  19  20
ENDBRANCH  16  19
ENDBRANCH  14  15
ENDBRANCH  10  14
ENDBRANCH   7   9
ENDBRANCH   6   7
ENDBRANCH   5   6
ENDBRANCH   4   5
ENDBRANCH   3   4
ENDBRANCH   2   3
ENDBRANCH   1   2
BRANCH   1  22
ATOM     22  O   UNL A   1      36.329  21.106  25.105  1.00  0.00    -0.377 OA
BRANCH  22  23
ATOM     23  C   UNL A   1      37.664  20.613  25.191  1.00  0.00     0.188 C 
BRANCH  23  24
ATOM     24  C   UNL A   1      38.772  21.653  25.494  1.00  0.00     0.188 C 
BRANCH  24  25
ATOM     25  O   UNL A   1      39.349  21.541  26.791  1.00  0.00    -0.376 OA
BRANCH  25  26
ATOM     26  C   UNL A   1      40.448  20.679  27.038  1.00  0.00     0.202 C 
BRANCH  26  27
ATOM     27  C   UNL A   1      41.492  20.549  25.929  1.00  0.00     0.261 C 
BRANCH  27  28
ATOM     28  O   UNL A   1      42.023  21.788  25.499  1.00  0.00    -0.460 OA
BRANCH  28  29
ATOM     29  C   UNL A   1      43.332  21.926  25.755  1.00  0.00     0.338 C 
ATOM     30  O   UNL A   1      44.195  21.058  25.789  1.00  0.00    -0.246 OA
BRANCH  29  31
ATOM     31  C   UNL A   1      43.594  23.299  26.129  1.00  0.00     0.060 A 
ATOM     32  C   UNL A   1      44.924  23.585  26.443  1.00  0.00     0.016 A 
ATOM     33  C   UNL A   1      42.497  23.962  26.685  1.00  0.00     0.016 A 
ATOM     34  C   UNL A   1      45.150  24.381  27.535  1.00  0.00     0.010 A 
ATOM     35  C   UNL A   1      42.722  24.688  27.819  1.00  0.00     0.010 A 
ATOM     36  C   UNL A   1      44.040  24.851  28.251  1.00  0.00    -0.014 A 
BRANCH  36  37
ATOM     37  C   UNL A   1      44.301  25.708  29.397  1.00  0.00     0.031 A 
ATOM     38  C   UNL A   1      44.584  27.130  28.863  1.00  0.00     0.074 A 
ATOM     39  C   UNL A   1      44.320  25.056  30.603  1.00  0.00     0.049 A 
ATOM     40  N   UNL A   1      45.430  28.020  29.278  1.00  0.00    -0.248 NA
ATOM     41  C   UNL A   1      43.956  27.576  27.576  1.00  0.00     0.031 C 
ATOM     42  C   UNL A   1      43.962  23.628  30.834  1.00  0.00     0.029 A 
ATOM     43  N   UNL A   1      44.644  25.438  31.883  1.00  0.00    -0.354 N 
ATOM     44  C   UNL A   1      45.222  29.183  28.497  1.00  0.00     0.074 A 
ATOM     45  C   UNL A   1      44.460  28.791  27.361  1.00  0.00     0.031 C 
ATOM     46  C   UNL A   1      44.186  23.265  32.120  1.00  0.00     0.029 A 
ATOM     47  C   UNL A   1      44.680  24.409  32.863  1.00  0.00     0.049 A 
ATOM     48  H   UNL A   1      44.840  26.376  32.108  1.00  0.00     0.167 HD
ATOM     49  C   UNL A   1      45.535  30.434  28.942  1.00  0.00     0.034 A 
ATOM     50  C   UNL A   1      45.133  24.489  34.158  1.00  0.00     0.034 A 
ATOM     51  C   UNL A   1      46.088  30.329  30.252  1.00  0.00     0.049 A 
ATOM     52  C   UNL A   1      45.411  25.920  34.348  1.00  0.00     0.074 A 
ATOM     53  C   UNL A   1      47.301  29.867  30.692  1.00  0.00     0.029 A 
ATOM     54  N   UNL A   1      45.167  30.287  31.274  1.00  0.00    -0.354 N 
ATOM     55  N   UNL A   1      44.500  26.842  34.445  1.00  0.00    -0.248 NA
ATOM     56  C   UNL A   1      46.803  26.376  34.256  1.00  0.00     0.031 C 
ATOM     57  C   UNL A   1      46.946  29.106  31.823  1.00  0.00     0.029 A 
ATOM     58  C   UNL A   1      45.618  29.368  32.186  1.00  0.00     0.049 A 
ATOM     59  H   UNL A   1      44.341  30.819  31.340  1.00  0.00     0.167 HD
ATOM     60  C   UNL A   1      45.189  27.960  34.049  1.00  0.00     0.074 A 
ATOM     61  C   UNL A   1      46.590  27.686  34.290  1.00  0.00     0.031 C 
ATOM     62  C   UNL A   1      44.668  28.781  33.098  1.00  0.00     0.034 A 
BRANCH  49  63
ATOM     63  C   UNL A   1      45.185  31.820  28.472  1.00  0.00     0.023 A 
ATOM     64  C   UNL A   1      44.481  32.614  29.422  1.00  0.00     0.012 A 
ATOM     65  C   UNL A   1      45.210  32.270  27.142  1.00  0.00     0.148 A 
ATOM     66  C   UNL A   1      43.720  33.718  29.053  1.00  0.00     0.002 A 
ATOM     67  C   UNL A   1      44.487  33.412  26.785  1.00  0.00     0.091 A 
ATOM     68  F   UNL A   1      45.855  31.557  26.214  1.00  0.00    -0.205 F 
ATOM     69  C   UNL A   1      43.710  34.107  27.726  1.00  0.00     0.022 A 
BRANCH  67  70
ATOM     70  S   UNL A   1      44.458  34.073  25.115  1.00  0.00     0.127 S 
ATOM     71  O   UNL A   1      43.507  35.174  25.240  1.00  0.00    -0.237 OA
ATOM     72  O   UNL A   1      45.850  34.492  24.937  1.00  0.00    -0.237 OA
ATOM     73  O   UNL A   1      44.056  32.968  24.256  1.00  0.00    -0.744 OA
ENDBRANCH  67  70
ENDBRANCH  49  63
BRANCH  50  74
ATOM     74  C   UNL A   1      45.524  23.568  35.300  1.00  0.00     0.023 A 
ATOM     75  C   UNL A   1      45.526  23.925  36.654  1.00  0.00     0.012 A 
ATOM     76  C   UNL A   1      45.836  22.195  35.026  1.00  0.00     0.148 A 
ATOM     77  C   UNL A   1      45.721  22.953  37.665  1.00  0.00     0.002 A 
ATOM     78  C   UNL A   1      45.888  21.221  36.016  1.00  0.00     0.091 A 
ATOM     79  F   UNL A   1      46.132  21.817  33.780  1.00  0.00    -0.205 F 
ATOM     80  C   UNL A   1      45.848  21.599  37.352  1.00  0.00     0.022 A 
BRANCH  78  81
ATOM     81  S   UNL A   1      45.846  19.458  35.620  1.00  0.00     0.127 S 
ATOM     82  O   UNL A   1      45.914  18.837  36.940  1.00  0.00    -0.237 OA
ATOM     83  O   UNL A   1      44.550  19.341  34.952  1.00  0.00    -0.237 OA
ATOM     84  O   UNL A   1      46.993  19.202  34.757  1.00  0.00    -0.744 OA
ENDBRANCH  78  81
ENDBRANCH  50  74
BRANCH  62  85
ATOM     85  C   UNL A   1      43.142  28.748  32.969  1.00  0.00     0.023 A 
ATOM     86  C   UNL A   1      42.627  28.155  31.799  1.00  0.00     0.012 A 
ATOM     87  C   UNL A   1      42.202  29.339  33.852  1.00  0.00     0.148 A 
ATOM     88  C   UNL A   1      41.261  28.154  31.507  1.00  0.00     0.002 A 
ATOM     89  C   UNL A   1      40.831  29.357  33.549  1.00  0.00     0.091 A 
ATOM     90  F   UNL A   1      42.638  29.875  34.988  1.00  0.00    -0.205 F 
ATOM     91  C   UNL A   1      40.362  28.757  32.377  1.00  0.00     0.022 A 
BRANCH  89  92
ATOM     92  S   UNL A   1      39.578  30.186  34.557  1.00  0.00     0.127 S 
ATOM     93  O   UNL A   1      39.859  29.673  35.901  1.00  0.00    -0.237 OA
ATOM     94  O   UNL A   1      39.915  31.595  34.378  1.00  0.00    -0.237 OA
ATOM     95  O   UNL A   1      38.284  29.776  34.025  1.00  0.00    -0.744 OA
ENDBRANCH  89  92
ENDBRANCH  62  85
ENDBRANCH  36  37
ENDBRANCH  29  31
ENDBRANCH  28  29
ENDBRANCH  27  28
ENDBRANCH  26  27
ENDBRANCH  25  26
ENDBRANCH  24  25
ENDBRANCH  23  24
ENDBRANCH  22  23
ENDBRANCH   1  22
TORSDOF 27
ENDMDL
MODEL 2
REMARK VINA RESULT:      -8.8      3.910      6.566
REMARK SMILES N#CCNC(=O)Cn1ccc(C(=O)OCCOCCOCCOCCOC(=O)c2ccc(-c3c4nc(c(-c5cccc(S(=O)(=O)[O-])c5F)c5ccc([nH]5)c(-c5cccc(S(=O)(=O)[O-])c5F)c5nc(c(-c6cccc(S(=O)(=O)[O-])c6F)c6ccc3[nH]6)C=C5)C=C4)cc2)c1
REMARK SMILES IDX 19 1 18 2 17 3 16 4 15 5 14 6 12 7 13 8 11 9 8 10 9 11 92 12
REMARK SMILES IDX 10 13 7 14 5 15 4 16 6 18 3 19 2 20 1 21 20 22 21 23 22 24
REMARK SMILES IDX 23 25 24 26 25 27 26 28 27 29 28 30 29 31 30 32 91 33 31 34
REMARK SMILES IDX 90 35 32 36 33 37 34 38 84 39 35 40 89 41 83 42 85 43 36 44
REMARK SMILES IDX 88 45 82 46 81 47 37 49 69 50 49 51 68 52 50 53 53 54 67 55
REMARK SMILES IDX 86 56 51 57 52 58 66 60 87 61 54 62 38 63 39 64 47 65 40 66
REMARK SMILES IDX 42 67 48 68 41 69 43 70 44 71 45 72 46 73 70 74 71 75 79 76
REMARK SMILES IDX 72 77 74 78 80 79 73 80 75 81 76 82 77 83 78 84 55 85 56 86
REMARK SMILES IDX 64 87 57 88 59 89 65 90 58 91 60 92 61 93 62 94 63 95
REMARK H PARENT 4 17 85 48 53 59
REMARK Flexibility Score: inf
ROOT
ATOM      1  C   UNL A   1      37.268  22.847  24.898  1.00  0.00     0.188 C 
ENDROOT
BRANCH   1   2
ATOM      2  C   UNL A   1      36.483  22.327  23.673  1.00  0.00     0.188 C 
BRANCH   2   3
ATOM      3  O   UNL A   1      35.447  23.072  23.034  1.00  0.00    -0.376 OA
BRANCH   3   4
ATOM      4  C   UNL A   1      34.080  22.719  23.142  1.00  0.00     0.202 C 
BRANCH   4   5
ATOM      5  C   UNL A   1      33.042  23.704  23.706  1.00  0.00     0.261 C 
BRANCH   5   6
ATOM      6  O   UNL A   1      31.706  23.218  23.826  1.00  0.00    -0.460 OA
BRANCH   6   7
ATOM      7  C   UNL A   1      31.007  23.708  24.877  1.00  0.00     0.339 C 
ATOM      8  O   UNL A   1      30.751  23.080  25.908  1.00  0.00    -0.246 OA
BRANCH   7   9
ATOM      9  C   UNL A   1      30.696  25.124  24.730  1.00  0.00     0.077 A 
ATOM     10  N   UNL A   1      29.970  27.093  23.952  1.00  0.00    -0.344 N 
ATOM     11  C   UNL A   1      30.647  27.356  25.114  1.00  0.00     0.087 A 
ATOM     12  C   UNL A   1      30.015  25.746  23.693  1.00  0.00     0.101 A 
ATOM     13  C   UNL A   1      31.113  26.162  25.611  1.00  0.00     0.035 A 
BRANCH  10  14
ATOM     14  C   UNL A   1      29.193  28.075  23.209  1.00  0.00     0.221 C 
BRANCH  14  15
ATOM     15  C   UNL A   1      30.020  29.125  22.504  1.00  0.00     0.240 C 
ATOM     16  N   UNL A   1      29.771  30.451  22.684  1.00  0.00    -0.341 N 
ATOM     17  H   UNL A   1      30.308  31.054  22.120  1.00  0.00     0.164 HD
ATOM     18  O   UNL A   1      30.880  28.799  21.686  1.00  0.00    -0.273 OA
BRANCH  16  19
ATOM     19  C   UNL A   1      28.838  31.116  23.579  1.00  0.00     0.236 C 
BRANCH  19  20
ATOM     20  C   UNL A   1      28.618  32.560  23.158  1.00  0.00     0.084 C 
ATOM     21  N   UNL A   1      28.436  33.757  22.810  1.00  0.00    -0.196 NA
ENDBRANCH  19  20
ENDBRANCH  16  19
ENDBRANCH  14  15
ENDBRANCH  10  14
ENDBRANCH   7   9
ENDBRANCH   6   7
ENDBRANCH   5   6
ENDBRANCH   4   5
ENDBRANCH   3   4
ENDBRANCH   2   3
ENDBRANCH   1   2
BRANCH   1  22
ATOM     22  O   UNL A   1      37.755  21.830  25.761  1.00  0.00    -0.377 OA
BRANCH  22  23
ATOM     23  C   UNL A   1      39.175  21.731  25.836  1.00  0.00     0.188 C 
BRANCH  23  24
ATOM     24  C   UNL A   1      39.874  22.568  26.937  1.00  0.00     0.188 C 
BRANCH  24  25
ATOM     25  O   UNL A   1      41.253  22.264  27.125  1.00  0.00    -0.376 OA
BRANCH  25  26
ATOM     26  C   UNL A   1      42.158  22.237  26.033  1.00  0.00     0.202 C 
BRANCH  26  27
ATOM     27  C   UNL A   1      42.771  20.884  25.671  1.00  0.00     0.261 C 
BRANCH  27  28
ATOM     28  O   UNL A   1      44.177  20.921  25.510  1.00  0.00    -0.460 OA
BRANCH  28  29
ATOM     29  C   UNL A   1      44.587  21.812  24.596  1.00  0.00     0.338 C 
ATOM     30  O   UNL A   1      44.386  21.809  23.388  1.00  0.00    -0.246 OA
BRANCH  29  31
ATOM     31  C   UNL A   1      45.454  22.777  25.238  1.00  0.00     0.060 A 
ATOM     32  C   UNL A   1      45.713  22.534  26.588  1.00  0.00     0.016 A 
ATOM     33  C   UNL A   1      45.424  24.048  24.661  1.00  0.00     0.016 A 
ATOM     34  C   UNL A   1      45.688  23.613  27.432  1.00  0.00     0.010 A 
ATOM     35  C   UNL A   1      45.319  25.111  25.512  1.00  0.00     0.010 A 
ATOM     36  C   UNL A   1      45.410  24.873  26.885  1.00  0.00    -0.014 A 
BRANCH  36  37
ATOM     37  C   UNL A   1      45.405  26.008  27.795  1.00  0.00     0.031 A 
ATOM     38  C   UNL A   1      43.963  26.562  27.844  1.00  0.00     0.074 A 
ATOM     39  C   UNL A   1      46.638  26.346  28.290  1.00  0.00     0.049 A 
ATOM     40  N   UNL A   1      43.546  27.787  27.917  1.00  0.00    -0.248 NA
ATOM     41  C   UNL A   1      42.806  25.637  27.611  1.00  0.00     0.031 C 
ATOM     42  C   UNL A   1      47.902  25.582  28.095  1.00  0.00     0.029 A 
ATOM     43  N   UNL A   1      47.099  27.392  29.053  1.00  0.00    -0.354 N 
ATOM     44  C   UNL A   1      42.135  27.737  28.024  1.00  0.00     0.074 A 
ATOM     45  C   UNL A   1      41.734  26.428  27.636  1.00  0.00     0.031 C 
ATOM     46  C   UNL A   1      48.963  26.237  28.624  1.00  0.00     0.029 A 
ATOM     47  C   UNL A   1      48.507  27.470  29.240  1.00  0.00     0.049 A 
ATOM     48  H   UNL A   1      46.486  28.054  29.448  1.00  0.00     0.167 HD
ATOM     49  C   UNL A   1      41.405  28.729  28.611  1.00  0.00     0.034 A 
ATOM     50  C   UNL A   1      49.230  28.492  29.806  1.00  0.00     0.034 A 
ATOM     51  C   UNL A   1      42.295  29.755  29.045  1.00  0.00     0.049 A 
ATOM     52  C   UNL A   1      48.205  29.408  30.324  1.00  0.00     0.074 A 
ATOM     53  C   UNL A   1      43.012  30.692  28.348  1.00  0.00     0.029 A 
ATOM     54  N   UNL A   1      42.860  29.554  30.284  1.00  0.00    -0.354 N 
ATOM     55  N   UNL A   1      47.451  29.163  31.355  1.00  0.00    -0.248 NA
ATOM     56  C   UNL A   1      47.880  30.606  29.541  1.00  0.00     0.031 C 
ATOM     57  C   UNL A   1      44.262  30.664  28.995  1.00  0.00     0.029 A 
ATOM     58  C   UNL A   1      44.168  29.956  30.201  1.00  0.00     0.049 A 
ATOM     59  H   UNL A   1      42.410  29.191  31.081  1.00  0.00     0.167 HD
ATOM     60  C   UNL A   1      46.364  29.962  31.103  1.00  0.00     0.074 A 
ATOM     61  C   UNL A   1      46.826  31.022  30.232  1.00  0.00     0.031 C 
ATOM     62  C   UNL A   1      45.108  29.445  31.167  1.00  0.00     0.034 A 
BRANCH  49  63
ATOM     63  C   UNL A   1      39.986  28.823  29.100  1.00  0.00     0.023 A 
ATOM     64  C   UNL A   1      39.051  29.301  28.138  1.00  0.00     0.012 A 
ATOM     65  C   UNL A   1      39.572  28.783  30.442  1.00  0.00     0.148 A 
ATOM     66  C   UNL A   1      37.824  29.847  28.498  1.00  0.00     0.002 A 
ATOM     67  C   UNL A   1      38.315  29.283  30.792  1.00  0.00     0.091 A 
ATOM     68  F   UNL A   1      40.416  28.344  31.381  1.00  0.00    -0.205 F 
ATOM     69  C   UNL A   1      37.463  29.853  29.832  1.00  0.00     0.022 A 
BRANCH  67  70
ATOM     70  S   UNL A   1      37.690  29.273  32.477  1.00  0.00     0.127 S 
ATOM     71  O   UNL A   1      38.586  30.219  33.139  1.00  0.00    -0.237 OA
ATOM     72  O   UNL A   1      36.323  29.765  32.289  1.00  0.00    -0.237 OA
ATOM     73  O   UNL A   1      37.768  27.890  32.923  1.00  0.00    -0.744 OA
ENDBRANCH  67  70
ENDBRANCH  49  63
BRANCH  50  74
ATOM     74  C   UNL A   1      50.670  28.963  29.908  1.00  0.00     0.023 A 
ATOM     75  C   UNL A   1      51.491  29.278  28.818  1.00  0.00     0.012 A 
ATOM     76  C   UNL A   1      51.245  29.205  31.199  1.00  0.00     0.148 A 
ATOM     77  C   UNL A   1      52.754  29.888  29.007  1.00  0.00     0.002 A 
ATOM     78  C   UNL A   1      52.418  29.929  31.380  1.00  0.00     0.091 A 
ATOM     79  F   UNL A   1      50.670  28.690  32.290  1.00  0.00    -0.205 F 
ATOM     80  C   UNL A   1      53.194  30.262  30.278  1.00  0.00     0.022 A 
BRANCH  78  81
ATOM     81  S   UNL A   1      52.888  30.591  32.995  1.00  0.00     0.127 S 
ATOM     82  O   UNL A   1      54.279  30.985  32.781  1.00  0.00    -0.237 OA
ATOM     83  O   UNL A   1      51.949  31.705  33.137  1.00  0.00    -0.237 OA
ATOM     84  O   UNL A   1      52.692  29.513  33.956  1.00  0.00    -0.744 OA
ENDBRANCH  78  81
ENDBRANCH  50  74
BRANCH  62  85
ATOM     85  C   UNL A   1      44.950  28.216  32.069  1.00  0.00     0.023 A 
ATOM     86  C   UNL A   1      44.797  26.977  31.413  1.00  0.00     0.012 A 
ATOM     87  C   UNL A   1      44.841  28.208  33.483  1.00  0.00     0.148 A 
ATOM     88  C   UNL A   1      44.539  25.795  32.113  1.00  0.00     0.002 A 
ATOM     89  C   UNL A   1      44.562  27.025  34.184  1.00  0.00     0.091 A 
ATOM     90  F   UNL A   1      45.019  29.347  34.146  1.00  0.00    -0.205 F 
ATOM     91  C   UNL A   1      44.417  25.817  33.496  1.00  0.00     0.022 A 
BRANCH  89  92
ATOM     92  S   UNL A   1      44.294  26.941  35.972  1.00  0.00     0.127 S 
ATOM     93  O   UNL A   1      44.270  25.498  36.224  1.00  0.00    -0.237 OA
ATOM     94  O   UNL A   1      45.478  27.616  36.496  1.00  0.00    -0.237 OA
ATOM     95  O   UNL A   1      43.024  27.609  36.230  1.00  0.00    -0.744 OA
ENDBRANCH  89  92
ENDBRANCH  62  85
ENDBRANCH  36  37
ENDBRANCH  29  31
ENDBRANCH  28  29
ENDBRANCH  27  28
ENDBRANCH  26  27
ENDBRANCH  25  26
ENDBRANCH  24  25
ENDBRANCH  23  24
ENDBRANCH  22  23
ENDBRANCH   1  22
TORSDOF 27
ENDMDL
MODEL 3
REMARK VINA RESULT:      -8.2      5.662     12.348
REMARK SMILES N#CCNC(=O)Cn1ccc(C(=O)OCCOCCOCCOCCOC(=O)c2ccc(-c3c4nc(c(-c5cccc(S(=O)(=O)[O-])c5F)c5ccc([nH]5)c(-c5cccc(S(=O)(=O)[O-])c5F)c5nc(c(-c6cccc(S(=O)(=O)[O-])c6F)c6ccc3[nH]6)C=C5)C=C4)cc2)c1
REMARK SMILES IDX 19 1 18 2 17 3 16 4 15 5 14 6 12 7 13 8 11 9 8 10 9 11 92 12
REMARK SMILES IDX 10 13 7 14 5 15 4 16 6 18 3 19 2 20 1 21 20 22 21 23 22 24
REMARK SMILES IDX 23 25 24 26 25 27 26 28 27 29 28 30 29 31 30 32 91 33 31 34
REMARK SMILES IDX 90 35 32 36 33 37 34 38 84 39 35 40 89 41 83 42 85 43 36 44
REMARK SMILES IDX 88 45 82 46 81 47 37 49 69 50 49 51 68 52 50 53 53 54 67 55
REMARK SMILES IDX 86 56 51 57 52 58 66 60 87 61 54 62 38 63 39 64 47 65 40 66
REMARK SMILES IDX 42 67 48 68 41 69 43 70 44 71 45 72 46 73 70 74 71 75 79 76
REMARK SMILES IDX 72 77 74 78 80 79 73 80 75 81 76 82 77 83 78 84 55 85 56 86
REMARK SMILES IDX 64 87 57 88 59 89 65 90 58 91 60 92 61 93 62 94 63 95
REMARK H PARENT 4 17 85 48 53 59
REMARK Flexibility Score: inf
ROOT
ATOM      1  C   UNL A   1      37.528  33.578  32.677  1.00  0.00     0.188 C 
ENDROOT
BRANCH   1   2
ATOM      2  C   UNL A   1      38.350  34.320  33.757  1.00  0.00     0.188 C 
BRANCH   2   3
ATOM      3  O   UNL A   1      38.645  33.761  35.036  1.00  0.00    -0.376 OA
BRANCH   3   4
ATOM      4  C   UNL A   1      39.365  32.551  35.188  1.00  0.00     0.202 C 
BRANCH   4   5
ATOM      5  C   UNL A   1      40.244  32.294  36.423  1.00  0.00     0.261 C 
BRANCH   5   6
ATOM      6  O   UNL A   1      39.576  32.266  37.683  1.00  0.00    -0.460 OA
BRANCH   6   7
ATOM      7  C   UNL A   1      40.110  33.067  38.636  1.00  0.00     0.339 C 
ATOM      8  O   UNL A   1      41.178  33.675  38.529  1.00  0.00    -0.246 OA
BRANCH   7   9
ATOM      9  C   UNL A   1      39.217  33.255  39.772  1.00  0.00     0.077 A 
ATOM     10  N   UNL A   1      37.403  33.522  41.055  1.00  0.00    -0.344 N 
ATOM     11  C   UNL A   1      38.490  33.656  41.879  1.00  0.00     0.087 A 
ATOM     12  C   UNL A   1      37.830  33.306  39.769  1.00  0.00     0.101 A 
ATOM     13  C   UNL A   1      39.622  33.505  41.114  1.00  0.00     0.035 A 
BRANCH  10  14
ATOM     14  C   UNL A   1      36.023  33.459  41.514  1.00  0.00     0.221 C 
BRANCH  14  15
ATOM     15  C   UNL A   1      35.425  32.072  41.512  1.00  0.00     0.240 C 
ATOM     16  N   UNL A   1      35.262  31.376  42.671  1.00  0.00    -0.341 N 
ATOM     17  H   UNL A   1      34.942  30.451  42.558  1.00  0.00     0.164 HD
ATOM     18  O   UNL A   1      35.153  31.509  40.451  1.00  0.00    -0.273 OA
BRANCH  16  19
ATOM     19  C   UNL A   1      35.487  31.785  44.047  1.00  0.00     0.236 C 
BRANCH  19  20
ATOM     20  C   UNL A   1      35.974  30.616  44.888  1.00  0.00     0.084 C 
ATOM     21  N   UNL A   1      36.377  29.647  45.585  1.00  0.00    -0.196 NA
ENDBRANCH  19  20
ENDBRANCH  16  19
ENDBRANCH  14  15
ENDBRANCH  10  14
ENDBRANCH   7   9
ENDBRANCH   6   7
ENDBRANCH   5   6
ENDBRANCH   4   5
ENDBRANCH   3   4
ENDBRANCH   2   3
ENDBRANCH   1   2
BRANCH   1  22
ATOM     22  O   UNL A   1      36.823  32.442  33.152  1.00  0.00    -0.377 OA
BRANCH  22  23
ATOM     23  C   UNL A   1      35.440  32.401  32.807  1.00  0.00     0.188 C 
BRANCH  23  24
ATOM     24  C   UNL A   1      34.921  33.528  31.879  1.00  0.00     0.188 C 
BRANCH  24  25
ATOM     25  O   UNL A   1      35.005  33.234  30.487  1.00  0.00    -0.376 OA
BRANCH  25  26
ATOM     26  C   UNL A   1      35.554  32.011  30.024  1.00  0.00     0.202 C 
BRANCH  26  27
ATOM     27  C   UNL A   1      34.935  31.403  28.765  1.00  0.00     0.261 C 
BRANCH  27  28
ATOM     28  O   UNL A   1      35.776  30.474  28.108  1.00  0.00    -0.460 OA
BRANCH  28  29
ATOM     29  C   UNL A   1      37.082  30.707  28.299  1.00  0.00     0.338 C 
ATOM     30  O   UNL A   1      37.642  31.779  28.495  1.00  0.00    -0.246 OA
BRANCH  29  31
ATOM     31  C   UNL A   1      37.811  29.471  28.114  1.00  0.00     0.060 A 
ATOM     32  C   UNL A   1      37.994  28.711  29.272  1.00  0.00     0.016 A 
ATOM     33  C   UNL A   1      38.700  29.485  27.037  1.00  0.00     0.016 A 
ATOM     34  C   UNL A   1      39.228  28.150  29.460  1.00  0.00     0.010 A 
ATOM     35  C   UNL A   1      39.953  28.992  27.262  1.00  0.00     0.010 A 
ATOM     36  C   UNL A   1      40.211  28.370  28.486  1.00  0.00    -0.014 A 
BRANCH  36  37
ATOM     37  C   UNL A   1      41.510  27.751  28.697  1.00  0.00     0.031 A 
ATOM     38  C   UNL A   1      41.402  26.274  28.254  1.00  0.00     0.074 A 
ATOM     39  C   UNL A   1      42.439  28.565  29.292  1.00  0.00     0.049 A 
ATOM     40  N   UNL A   1      41.934  25.212  28.770  1.00  0.00    -0.248 NA
ATOM     41  C   UNL A   1      40.428  25.894  27.179  1.00  0.00     0.031 C 
ATOM     42  C   UNL A   1      42.273  30.016  29.588  1.00  0.00     0.029 A 
ATOM     43  N   UNL A   1      43.709  28.359  29.778  1.00  0.00    -0.354 N 
ATOM     44  C   UNL A   1      41.591  24.127  27.927  1.00  0.00     0.074 A 
ATOM     45  C   UNL A   1      40.522  24.567  27.097  1.00  0.00     0.031 C 
ATOM     46  C   UNL A   1      43.335  30.505  30.275  1.00  0.00     0.029 A 
ATOM     47  C   UNL A   1      44.307  29.446  30.472  1.00  0.00     0.049 A 
ATOM     48  H   UNL A   1      44.178  27.503  29.651  1.00  0.00     0.167 HD
ATOM     49  C   UNL A   1      42.345  22.993  27.841  1.00  0.00     0.034 A 
ATOM     50  C   UNL A   1      45.478  29.448  31.191  1.00  0.00     0.034 A 
ATOM     51  C   UNL A   1      43.457  23.116  28.725  1.00  0.00     0.049 A 
ATOM     52  C   UNL A   1      46.053  28.120  30.938  1.00  0.00     0.074 A 
ATOM     53  C   UNL A   1      43.541  23.071  30.092  1.00  0.00     0.029 A 
ATOM     54  N   UNL A   1      44.546  23.778  28.206  1.00  0.00    -0.354 N 
ATOM     55  N   UNL A   1      46.568  27.744  29.805  1.00  0.00    -0.248 NA
ATOM     56  C   UNL A   1      45.891  27.084  31.965  1.00  0.00     0.031 C 
ATOM     57  C   UNL A   1      44.424  24.130  30.379  1.00  0.00     0.029 A 
ATOM     58  C   UNL A   1      45.050  24.570  29.205  1.00  0.00     0.049 A 
ATOM     59  H   UNL A   1      44.899  23.697  27.291  1.00  0.00     0.167 HD
ATOM     60  C   UNL A   1      46.433  26.380  29.875  1.00  0.00     0.074 A 
ATOM     61  C   UNL A   1      46.359  26.046  31.282  1.00  0.00     0.031 C 
ATOM     62  C   UNL A   1      45.873  25.697  28.841  1.00  0.00     0.034 A 
BRANCH  49  63
ATOM     63  C   UNL A   1      42.384  21.844  26.871  1.00  0.00     0.023 A 
ATOM     64  C   UNL A   1      41.319  20.909  27.007  1.00  0.00     0.012 A 
ATOM     65  C   UNL A   1      43.489  21.459  26.093  1.00  0.00     0.148 A 
ATOM     66  C   UNL A   1      41.401  19.609  26.520  1.00  0.00     0.002 A 
ATOM     67  C   UNL A   1      43.543  20.169  25.560  1.00  0.00     0.091 A 
ATOM     68  F   UNL A   1      44.515  22.302  25.939  1.00  0.00    -0.205 F 
ATOM     69  C   UNL A   1      42.525  19.233  25.809  1.00  0.00     0.022 A 
BRANCH  67  70
ATOM     70  S   UNL A   1      44.906  19.581  24.548  1.00  0.00     0.127 S 
ATOM     71  O   UNL A   1      45.002  18.180  24.951  1.00  0.00    -0.237 OA
ATOM     72  O   UNL A   1      44.382  19.788  23.196  1.00  0.00    -0.237 OA
ATOM     73  O   UNL A   1      46.043  20.428  24.881  1.00  0.00    -0.744 OA
ENDBRANCH  67  70
ENDBRANCH  49  63
BRANCH  50  74
ATOM     74  C   UNL A   1      46.207  30.318  32.201  1.00  0.00     0.023 A 
ATOM     75  C   UNL A   1      47.574  30.619  32.162  1.00  0.00     0.012 A 
ATOM     76  C   UNL A   1      45.463  30.972  33.238  1.00  0.00     0.148 A 
ATOM     77  C   UNL A   1      48.134  31.586  33.031  1.00  0.00     0.002 A 
ATOM     78  C   UNL A   1      45.981  32.018  33.993  1.00  0.00     0.091 A 
ATOM     79  F   UNL A   1      44.231  30.553  33.539  1.00  0.00    -0.205 F 
ATOM     80  C   UNL A   1      47.333  32.323  33.906  1.00  0.00     0.022 A 
BRANCH  78  81
ATOM     81  S   UNL A   1      44.917  33.105  34.969  1.00  0.00     0.127 S 
ATOM     82  O   UNL A   1      43.606  32.892  34.361  1.00  0.00    -0.237 OA
ATOM     83  O   UNL A   1      45.072  32.537  36.309  1.00  0.00    -0.237 OA
ATOM     84  O   UNL A   1      45.455  34.452  34.822  1.00  0.00    -0.744 OA
ENDBRANCH  78  81
ENDBRANCH  50  74
BRANCH  62  85
ATOM     85  C   UNL A   1      45.978  26.377  27.473  1.00  0.00     0.023 A 
ATOM     86  C   UNL A   1      44.817  27.028  27.008  1.00  0.00     0.012 A 
ATOM     87  C   UNL A   1      47.084  26.334  26.585  1.00  0.00     0.148 A 
ATOM     88  C   UNL A   1      44.744  27.595  25.734  1.00  0.00     0.002 A 
ATOM     89  C   UNL A   1      47.004  26.885  25.297  1.00  0.00     0.091 A 
ATOM     90  F   UNL A   1      48.214  25.765  26.995  1.00  0.00    -0.205 F 
ATOM     91  C   UNL A   1      45.834  27.522  24.876  1.00  0.00     0.022 A 
BRANCH  89  92
ATOM     92  S   UNL A   1      48.321  26.777  24.061  1.00  0.00     0.127 S 
ATOM     93  O   UNL A   1      48.003  27.885  23.157  1.00  0.00    -0.237 OA
ATOM     94  O   UNL A   1      49.522  26.992  24.864  1.00  0.00    -0.237 OA
ATOM     95  O   UNL A   1      48.204  25.459  23.448  1.00  0.00    -0.744 OA
ENDBRANCH  89  92
ENDBRANCH  62  85
ENDBRANCH  36  37
ENDBRANCH  29  31
ENDBRANCH  28  29
ENDBRANCH  27  28
ENDBRANCH  26  27
ENDBRANCH  25  26
ENDBRANCH  24  25
ENDBRANCH  23  24
ENDBRANCH  22  23
ENDBRANCH   1  22
TORSDOF 27
ENDMDL
