MODEL 1
REMARK VINA RESULT:      -9.9      0.000      0.000
REMARK SMILES O=C(Cc1ccc(F)c(F)c1)NC1(C(=O)OCCOCCOCCOCCOC(=O)c2ccc(-c3c4nc(c(-c5cccc(S(=O)(=O)[O-])c5F)c5ccc([nH]5)c(-c5cccc(S(=O)(=O)[O-])c5F)c5nc(c(-c6cccc(S(=O)(=O)[O-])c6F)c6ccc3[nH]6)C=C5)C=C4)cc2)CCCC1
REMARK SMILES IDX 22 1 21 2 20 3 19 4 18 5 17 6 16 7 14 8 15 9 13 10 94 11
REMARK SMILES IDX 97 12 95 13 96 14 12 15 1 16 2 17 3 19 4 20 5 21 11 22 6 23
REMARK SMILES IDX 9 24 7 25 10 26 8 27 23 28 24 29 25 30 26 31 27 32 28 33
REMARK SMILES IDX 29 34 30 35 31 36 32 37 93 38 33 39 92 40 34 41 35 42 36 43
REMARK SMILES IDX 86 44 37 45 91 46 85 47 87 48 38 49 90 50 84 51 83 52 39 54
REMARK SMILES IDX 71 55 51 56 70 57 52 58 55 59 69 60 88 61 53 62 54 63 68 65
REMARK SMILES IDX 89 66 56 67 40 68 41 69 49 70 42 71 44 72 50 73 43 74 45 75
REMARK SMILES IDX 46 76 47 77 48 78 72 79 73 80 81 81 74 82 76 83 82 84 75 85
REMARK SMILES IDX 77 86 78 87 79 88 80 89 57 90 58 91 66 92 59 93 61 94 67 95
REMARK SMILES IDX 60 96 62 97 63 98 64 99 65 100
REMARK H PARENT 12 18 87 53 55 64
REMARK Flexibility Score: inf
ROOT
ATOM      1  O   UNL A   1      36.300  32.419  28.855  1.00  0.00    -0.377 OA
ENDROOT
BRANCH   1   2
ATOM      2  C   UNL A   1      35.462  31.288  28.806  1.00  0.00     0.188 C 
BRANCH   2   3
ATOM      3  C   UNL A   1      34.475  31.245  27.637  1.00  0.00     0.188 C 
BRANCH   3   4
ATOM      4  O   UNL A   1      33.912  30.029  27.206  1.00  0.00    -0.376 OA
BRANCH   4   5
ATOM      5  C   UNL A   1      32.520  29.851  27.019  1.00  0.00     0.202 C 
BRANCH   5   6
ATOM      6  C   UNL A   1      31.837  29.242  25.779  1.00  0.00     0.261 C 
BRANCH   6   7
ATOM      7  O   UNL A   1      31.856  27.819  25.615  1.00  0.00    -0.461 OA
BRANCH   7   8
ATOM      8  C   UNL A   1      32.519  27.388  24.515  1.00  0.00     0.331 C 
ATOM      9  O   UNL A   1      33.737  27.491  24.396  1.00  0.00    -0.249 OA
BRANCH   8  10
ATOM     10  C   UNL A   1      31.608  26.696  23.454  1.00  0.00     0.138 C 
ATOM     11  C   UNL A   1      31.612  27.550  22.179  1.00  0.00     0.040 C 
ATOM     12  C   UNL A   1      30.086  26.623  23.718  1.00  0.00     0.040 C 
ATOM     13  C   UNL A   1      30.545  28.619  22.436  1.00  0.00     0.003 C 
ATOM     14  C   UNL A   1      29.491  27.960  23.307  1.00  0.00     0.003 C 
BRANCH  10  15
ATOM     15  N   UNL A   1      32.128  25.310  23.289  1.00  0.00    -0.340 N 
ATOM     16  O   UNL A   1      33.747  25.741  21.715  1.00  0.00    -0.275 OA
ATOM     17  C   UNL A   1      33.217  24.970  22.510  1.00  0.00     0.225 C 
ATOM     18  H   UNL A   1      31.664  24.585  23.768  1.00  0.00     0.164 HD
BRANCH  17  19
ATOM     19  C   UNL A   1      33.670  23.518  22.612  1.00  0.00     0.135 C 
BRANCH  19  20
ATOM     20  C   UNL A   1      34.026  22.983  23.988  1.00  0.00    -0.036 A 
ATOM     21  C   UNL A   1      34.525  23.822  24.997  1.00  0.00     0.007 A 
ATOM     22  C   UNL A   1      33.751  21.642  24.320  1.00  0.00     0.046 A 
ATOM     23  C   UNL A   1      34.757  23.337  26.292  1.00  0.00     0.043 A 
ATOM     24  C   UNL A   1      33.966  21.171  25.617  1.00  0.00     0.159 A 
ATOM     25  C   UNL A   1      34.471  22.013  26.596  1.00  0.00     0.158 A 
ATOM     26  F   UNL A   1      33.649  19.903  25.920  1.00  0.00    -0.204 F 
ATOM     27  F   UNL A   1      34.666  21.565  27.845  1.00  0.00    -0.204 F 
ENDBRANCH  19  20
ENDBRANCH  17  19
ENDBRANCH  10  15
ENDBRANCH   8  10
ENDBRANCH   7   8
ENDBRANCH   6   7
ENDBRANCH   5   6
ENDBRANCH   4   5
ENDBRANCH   3   4
ENDBRANCH   2   3
ENDBRANCH   1   2
BRANCH   1  28
ATOM     28  C   UNL A   1      35.722  33.672  29.202  1.00  0.00     0.188 C 
BRANCH  28  29
ATOM     29  C   UNL A   1      34.703  33.753  30.357  1.00  0.00     0.188 C 
BRANCH  29  30
ATOM     30  O   UNL A   1      34.998  34.735  31.342  1.00  0.00    -0.376 OA
BRANCH  30  31
ATOM     31  C   UNL A   1      34.375  34.642  32.616  1.00  0.00     0.202 C 
BRANCH  31  32
ATOM     32  C   UNL A   1      35.222  34.173  33.810  1.00  0.00     0.261 C 
BRANCH  32  33
ATOM     33  O   UNL A   1      35.590  32.786  33.840  1.00  0.00    -0.460 OA
BRANCH  33  34
ATOM     34  C   UNL A   1      36.747  32.452  34.453  1.00  0.00     0.338 C 
ATOM     35  O   UNL A   1      37.042  32.643  35.613  1.00  0.00    -0.246 OA
BRANCH  34  36
ATOM     36  C   UNL A   1      37.528  31.615  33.514  1.00  0.00     0.060 A 
ATOM     37  C   UNL A   1      38.414  30.664  34.037  1.00  0.00     0.016 A 
ATOM     38  C   UNL A   1      37.399  31.783  32.133  1.00  0.00     0.016 A 
ATOM     39  C   UNL A   1      39.227  29.924  33.181  1.00  0.00     0.010 A 
ATOM     40  C   UNL A   1      38.229  31.055  31.278  1.00  0.00     0.010 A 
ATOM     41  C   UNL A   1      39.183  30.165  31.802  1.00  0.00    -0.014 A 
BRANCH  41  42
ATOM     42  C   UNL A   1      40.298  29.689  30.949  1.00  0.00     0.031 A 
ATOM     43  C   UNL A   1      41.545  30.531  30.888  1.00  0.00     0.074 A 
ATOM     44  C   UNL A   1      40.224  28.537  30.261  1.00  0.00     0.049 A 
ATOM     45  N   UNL A   1      42.635  30.353  30.190  1.00  0.00    -0.248 NA
ATOM     46  C   UNL A   1      41.560  31.743  31.725  1.00  0.00     0.031 C 
ATOM     47  C   UNL A   1      39.083  27.624  30.258  1.00  0.00     0.029 A 
ATOM     48  N   UNL A   1      41.129  27.951  29.412  1.00  0.00    -0.354 N 
ATOM     49  C   UNL A   1      43.449  31.444  30.476  1.00  0.00     0.074 A 
ATOM     50  C   UNL A   1      42.721  32.287  31.397  1.00  0.00     0.031 C 
ATOM     51  C   UNL A   1      39.345  26.604  29.421  1.00  0.00     0.029 A 
ATOM     52  C   UNL A   1      40.658  26.809  28.811  1.00  0.00     0.049 A 
ATOM     53  H   UNL A   1      42.028  28.317  29.249  1.00  0.00     0.167 HD
ATOM     54  C   UNL A   1      44.695  31.716  30.024  1.00  0.00     0.034 A 
ATOM     55  C   UNL A   1      41.216  26.034  27.858  1.00  0.00     0.034 A 
ATOM     56  C   UNL A   1      45.420  30.871  29.116  1.00  0.00     0.049 A 
ATOM     57  C   UNL A   1      42.593  26.376  27.343  1.00  0.00     0.074 A 
ATOM     58  C   UNL A   1      46.700  31.040  28.621  1.00  0.00     0.029 A 
ATOM     59  N   UNL A   1      44.924  29.705  28.555  1.00  0.00    -0.354 N 
ATOM     60  N   UNL A   1      43.386  27.363  27.688  1.00  0.00    -0.248 NA
ATOM     61  C   UNL A   1      43.166  25.475  26.332  1.00  0.00     0.031 C 
ATOM     62  C   UNL A   1      46.964  29.996  27.729  1.00  0.00     0.029 A 
ATOM     63  C   UNL A   1      45.868  29.148  27.711  1.00  0.00     0.049 A 
ATOM     64  H   UNL A   1      44.032  29.329  28.730  1.00  0.00     0.167 HD
ATOM     65  C   UNL A   1      44.568  27.169  26.980  1.00  0.00     0.074 A 
ATOM     66  C   UNL A   1      44.389  25.967  26.193  1.00  0.00     0.031 C 
ATOM     67  C   UNL A   1      45.698  27.920  26.977  1.00  0.00     0.034 A 
BRANCH  54  68
ATOM     68  C   UNL A   1      45.351  32.982  30.508  1.00  0.00     0.023 A 
ATOM     69  C   UNL A   1      45.924  33.034  31.795  1.00  0.00     0.012 A 
ATOM     70  C   UNL A   1      45.430  34.113  29.672  1.00  0.00     0.148 A 
ATOM     71  C   UNL A   1      46.531  34.201  32.257  1.00  0.00     0.002 A 
ATOM     72  C   UNL A   1      46.081  35.256  30.120  1.00  0.00     0.091 A 
ATOM     73  F   UNL A   1      44.857  34.054  28.461  1.00  0.00    -0.205 F 
ATOM     74  C   UNL A   1      46.618  35.307  31.416  1.00  0.00     0.022 A 
BRANCH  72  75
ATOM     75  S   UNL A   1      46.319  36.702  29.083  1.00  0.00     0.127 S 
ATOM     76  O   UNL A   1      44.938  37.107  28.820  1.00  0.00    -0.237 OA
ATOM     77  O   UNL A   1      47.058  37.598  29.973  1.00  0.00    -0.237 OA
ATOM     78  O   UNL A   1      47.066  36.247  27.919  1.00  0.00    -0.744 OA
ENDBRANCH  72  75
ENDBRANCH  54  68
BRANCH  55  79
ATOM     79  C   UNL A   1      40.489  24.839  27.343  1.00  0.00     0.023 A 
ATOM     80  C   UNL A   1      39.253  25.002  26.689  1.00  0.00     0.012 A 
ATOM     81  C   UNL A   1      41.016  23.543  27.505  1.00  0.00     0.148 A 
ATOM     82  C   UNL A   1      38.536  23.893  26.237  1.00  0.00     0.002 A 
ATOM     83  C   UNL A   1      40.325  22.448  27.002  1.00  0.00     0.091 A 
ATOM     84  F   UNL A   1      42.187  23.410  28.142  1.00  0.00    -0.205 F 
ATOM     85  C   UNL A   1      39.076  22.618  26.386  1.00  0.00     0.022 A 
BRANCH  83  86
ATOM     86  S   UNL A   1      40.997  20.783  27.039  1.00  0.00     0.127 S 
ATOM     87  O   UNL A   1      40.815  20.418  28.441  1.00  0.00    -0.237 OA
ATOM     88  O   UNL A   1      40.117  20.086  26.100  1.00  0.00    -0.237 OA
ATOM     89  O   UNL A   1      42.379  20.904  26.594  1.00  0.00    -0.744 OA
ENDBRANCH  83  86
ENDBRANCH  55  79
BRANCH  67  90
ATOM     90  C   UNL A   1      46.868  27.429  26.162  1.00  0.00     0.023 A 
ATOM     91  C   UNL A   1      46.954  27.720  24.787  1.00  0.00     0.012 A 
ATOM     92  C   UNL A   1      47.921  26.729  26.788  1.00  0.00     0.148 A 
ATOM     93  C   UNL A   1      48.048  27.284  24.039  1.00  0.00     0.002 A 
ATOM     94  C   UNL A   1      49.033  26.349  26.048  1.00  0.00     0.091 A 
ATOM     95  F   UNL A   1      47.814  26.447  28.094  1.00  0.00    -0.205 F 
ATOM     96  C   UNL A   1      49.092  26.610  24.670  1.00  0.00     0.022 A 
BRANCH  94  97
ATOM     97  S   UNL A   1      50.468  25.572  26.800  1.00  0.00     0.127 S 
ATOM     98  O   UNL A   1      49.884  24.358  27.369  1.00  0.00    -0.237 OA
ATOM     99  O   UNL A   1      51.339  25.347  25.647  1.00  0.00    -0.237 OA
ATOM    100  O   UNL A   1      50.983  26.531  27.769  1.00  0.00    -0.744 OA
ENDBRANCH  94  97
ENDBRANCH  67  90
ENDBRANCH  41  42
ENDBRANCH  34  36
ENDBRANCH  33  34
ENDBRANCH  32  33
ENDBRANCH  31  32
ENDBRANCH  30  31
ENDBRANCH  29  30
ENDBRANCH  28  29
ENDBRANCH   1  28
TORSDOF 26
ENDMDL
MODEL 2
REMARK VINA RESULT:      -9.5      5.239      8.339
REMARK SMILES O=C(Cc1ccc(F)c(F)c1)NC1(C(=O)OCCOCCOCCOCCOC(=O)c2ccc(-c3c4nc(c(-c5cccc(S(=O)(=O)[O-])c5F)c5ccc([nH]5)c(-c5cccc(S(=O)(=O)[O-])c5F)c5nc(c(-c6cccc(S(=O)(=O)[O-])c6F)c6ccc3[nH]6)C=C5)C=C4)cc2)CCCC1
REMARK SMILES IDX 22 1 21 2 20 3 19 4 18 5 17 6 16 7 14 8 15 9 13 10 94 11
REMARK SMILES IDX 97 12 95 13 96 14 12 15 1 16 2 17 3 19 4 20 5 21 11 22 6 23
REMARK SMILES IDX 9 24 7 25 10 26 8 27 23 28 24 29 25 30 26 31 27 32 28 33
REMARK SMILES IDX 29 34 30 35 31 36 32 37 93 38 33 39 92 40 34 41 35 42 36 43
REMARK SMILES IDX 86 44 37 45 91 46 85 47 87 48 38 49 90 50 84 51 83 52 39 54
REMARK SMILES IDX 71 55 51 56 70 57 52 58 55 59 69 60 88 61 53 62 54 63 68 65
REMARK SMILES IDX 89 66 56 67 40 68 41 69 49 70 42 71 44 72 50 73 43 74 45 75
REMARK SMILES IDX 46 76 47 77 48 78 72 79 73 80 81 81 74 82 76 83 82 84 75 85
REMARK SMILES IDX 77 86 78 87 79 88 80 89 57 90 58 91 66 92 59 93 61 94 67 95
REMARK SMILES IDX 60 96 62 97 63 98 64 99 65 100
REMARK H PARENT 12 18 87 53 55 64
REMARK Flexibility Score: inf
ROOT
ATOM      1  O   UNL A   1      34.110  29.028  27.639  1.00  0.00    -0.377 OA
ENDROOT
BRANCH   1   2
ATOM      2  C   UNL A   1      33.141  28.814  26.640  1.00  0.00     0.188 C 
BRANCH   2   3
ATOM      3  C   UNL A   1      33.675  28.728  25.208  1.00  0.00     0.188 C 
BRANCH   3   4
ATOM      4  O   UNL A   1      33.368  27.629  24.383  1.00  0.00    -0.376 OA
BRANCH   4   5
ATOM      5  C   UNL A   1      33.594  27.633  22.985  1.00  0.00     0.202 C 
BRANCH   5   6
ATOM      6  C   UNL A   1      33.523  26.412  22.047  1.00  0.00     0.261 C 
BRANCH   6   7
ATOM      7  O   UNL A   1      34.186  25.204  22.442  1.00  0.00    -0.461 OA
BRANCH   7   8
ATOM      8  C   UNL A   1      33.390  24.109  22.472  1.00  0.00     0.331 C 
ATOM      9  O   UNL A   1      33.119  23.462  21.464  1.00  0.00    -0.249 OA
BRANCH   8  10
ATOM     10  C   UNL A   1      32.909  23.711  23.901  1.00  0.00     0.138 C 
ATOM     11  C   UNL A   1      34.144  23.494  24.786  1.00  0.00     0.040 C 
ATOM     12  C   UNL A   1      32.205  22.347  24.094  1.00  0.00     0.040 C 
ATOM     13  C   UNL A   1      34.568  22.050  24.499  1.00  0.00     0.003 C 
ATOM     14  C   UNL A   1      33.289  21.288  24.201  1.00  0.00     0.003 C 
BRANCH  10  15
ATOM     15  N   UNL A   1      31.987  24.789  24.353  1.00  0.00    -0.340 N 
ATOM     16  O   UNL A   1      30.223  24.336  22.949  1.00  0.00    -0.275 OA
ATOM     17  C   UNL A   1      30.688  24.945  23.909  1.00  0.00     0.225 C 
ATOM     18  H   UNL A   1      32.325  25.436  25.015  1.00  0.00     0.164 HD
BRANCH  17  19
ATOM     19  C   UNL A   1      29.874  26.019  24.622  1.00  0.00     0.135 C 
BRANCH  19  20
ATOM     20  C   UNL A   1      29.280  27.134  23.779  1.00  0.00    -0.036 A 
ATOM     21  C   UNL A   1      27.897  27.375  23.748  1.00  0.00     0.007 A 
ATOM     22  C   UNL A   1      30.123  28.031  23.095  1.00  0.00     0.046 A 
ATOM     23  C   UNL A   1      27.370  28.468  23.045  1.00  0.00     0.043 A 
ATOM     24  C   UNL A   1      29.592  29.128  22.413  1.00  0.00     0.159 A 
ATOM     25  C   UNL A   1      28.222  29.343  22.384  1.00  0.00     0.158 A 
ATOM     26  F   UNL A   1      30.420  29.996  21.812  1.00  0.00    -0.204 F 
ATOM     27  F   UNL A   1      27.712  30.402  21.742  1.00  0.00    -0.204 F 
ENDBRANCH  19  20
ENDBRANCH  17  19
ENDBRANCH  10  15
ENDBRANCH   8  10
ENDBRANCH   7   8
ENDBRANCH   6   7
ENDBRANCH   5   6
ENDBRANCH   4   5
ENDBRANCH   3   4
ENDBRANCH   2   3
ENDBRANCH   1   2
BRANCH   1  28
ATOM     28  C   UNL A   1      34.805  30.269  27.650  1.00  0.00     0.188 C 
BRANCH  28  29
ATOM     29  C   UNL A   1      34.020  31.586  27.825  1.00  0.00     0.188 C 
BRANCH  29  30
ATOM     30  O   UNL A   1      34.666  32.560  28.634  1.00  0.00    -0.376 OA
BRANCH  30  31
ATOM     31  C   UNL A   1      34.798  33.886  28.142  1.00  0.00     0.202 C 
BRANCH  31  32
ATOM     32  C   UNL A   1      33.909  34.983  28.752  1.00  0.00     0.261 C 
BRANCH  32  33
ATOM     33  O   UNL A   1      33.062  34.599  29.844  1.00  0.00    -0.460 OA
BRANCH  33  34
ATOM     34  C   UNL A   1      33.151  35.306  30.993  1.00  0.00     0.338 C 
ATOM     35  O   UNL A   1      32.400  36.178  31.375  1.00  0.00    -0.246 OA
BRANCH  34  36
ATOM     36  C   UNL A   1      34.213  34.689  31.818  1.00  0.00     0.060 A 
ATOM     37  C   UNL A   1      35.269  35.493  32.268  1.00  0.00     0.016 A 
ATOM     38  C   UNL A   1      34.176  33.327  32.128  1.00  0.00     0.016 A 
ATOM     39  C   UNL A   1      36.329  34.923  32.970  1.00  0.00     0.010 A 
ATOM     40  C   UNL A   1      35.248  32.754  32.815  1.00  0.00     0.010 A 
ATOM     41  C   UNL A   1      36.352  33.540  33.189  1.00  0.00    -0.014 A 
BRANCH  41  42
ATOM     42  C   UNL A   1      37.630  32.889  33.566  1.00  0.00     0.031 A 
ATOM     43  C   UNL A   1      38.170  33.149  34.948  1.00  0.00     0.074 A 
ATOM     44  C   UNL A   1      38.287  32.075  32.723  1.00  0.00     0.049 A 
ATOM     45  N   UNL A   1      39.278  32.732  35.499  1.00  0.00    -0.248 NA
ATOM     46  C   UNL A   1      37.348  34.002  35.824  1.00  0.00     0.031 C 
ATOM     47  C   UNL A   1      37.855  31.725  31.372  1.00  0.00     0.029 A 
ATOM     48  N   UNL A   1      39.478  31.410  32.881  1.00  0.00    -0.354 N 
ATOM     49  C   UNL A   1      39.304  33.297  36.769  1.00  0.00     0.074 A 
ATOM     50  C   UNL A   1      38.110  34.100  36.901  1.00  0.00     0.031 C 
ATOM     51  C   UNL A   1      38.785  30.932  30.810  1.00  0.00     0.029 A 
ATOM     52  C   UNL A   1      39.887  30.741  31.752  1.00  0.00     0.049 A 
ATOM     53  H   UNL A   1      39.990  31.414  33.721  1.00  0.00     0.167 HD
ATOM     54  C   UNL A   1      40.231  33.153  37.745  1.00  0.00     0.034 A 
ATOM     55  C   UNL A   1      41.032  30.074  31.504  1.00  0.00     0.034 A 
ATOM     56  C   UNL A   1      41.413  32.346  37.614  1.00  0.00     0.049 A 
ATOM     57  C   UNL A   1      42.068  29.956  32.595  1.00  0.00     0.074 A 
ATOM     58  C   UNL A   1      42.399  32.109  38.554  1.00  0.00     0.029 A 
ATOM     59  N   UNL A   1      41.776  31.657  36.469  1.00  0.00    -0.354 N 
ATOM     60  N   UNL A   1      42.037  30.423  33.820  1.00  0.00    -0.248 NA
ATOM     61  C   UNL A   1      43.280  29.185  32.279  1.00  0.00     0.031 C 
ATOM     62  C   UNL A   1      43.380  31.306  37.962  1.00  0.00     0.029 A 
ATOM     63  C   UNL A   1      42.976  31.000  36.672  1.00  0.00     0.049 A 
ATOM     64  H   UNL A   1      41.257  31.638  35.632  1.00  0.00     0.167 HD
ATOM     65  C   UNL A   1      43.196  29.958  34.435  1.00  0.00     0.074 A 
ATOM     66  C   UNL A   1      43.902  29.167  33.449  1.00  0.00     0.031 C 
ATOM     67  C   UNL A   1      43.639  30.169  35.700  1.00  0.00     0.034 A 
BRANCH  54  68
ATOM     68  C   UNL A   1      40.000  33.887  39.040  1.00  0.00     0.023 A 
ATOM     69  C   UNL A   1      40.725  35.062  39.324  1.00  0.00     0.012 A 
ATOM     70  C   UNL A   1      39.039  33.429  39.961  1.00  0.00     0.148 A 
ATOM     71  C   UNL A   1      40.524  35.749  40.521  1.00  0.00     0.002 A 
ATOM     72  C   UNL A   1      38.808  34.146  41.128  1.00  0.00     0.091 A 
ATOM     73  F   UNL A   1      38.378  32.295  39.685  1.00  0.00    -0.205 F 
ATOM     74  C   UNL A   1      39.559  35.297  41.417  1.00  0.00     0.022 A 
BRANCH  72  75
ATOM     75  S   UNL A   1      37.530  33.693  42.305  1.00  0.00     0.127 S 
ATOM     76  O   UNL A   1      37.746  32.252  42.434  1.00  0.00    -0.237 OA
ATOM     77  O   UNL A   1      37.908  34.474  43.484  1.00  0.00    -0.237 OA
ATOM     78  O   UNL A   1      36.265  34.080  41.698  1.00  0.00    -0.744 OA
ENDBRANCH  72  75
ENDBRANCH  54  68
BRANCH  55  79
ATOM     79  C   UNL A   1      41.256  29.440  30.174  1.00  0.00     0.023 A 
ATOM     80  C   UNL A   1      42.007  30.118  29.194  1.00  0.00     0.012 A 
ATOM     81  C   UNL A   1      40.724  28.171  29.875  1.00  0.00     0.148 A 
ATOM     82  C   UNL A   1      42.193  29.560  27.928  1.00  0.00     0.002 A 
ATOM     83  C   UNL A   1      40.961  27.596  28.633  1.00  0.00     0.091 A 
ATOM     84  F   UNL A   1      40.001  27.549  30.817  1.00  0.00    -0.205 F 
ATOM     85  C   UNL A   1      41.677  28.296  27.651  1.00  0.00     0.022 A 
BRANCH  83  86
ATOM     86  S   UNL A   1      40.441  25.925  28.229  1.00  0.00     0.127 S 
ATOM     87  O   UNL A   1      39.201  25.805  28.991  1.00  0.00    -0.237 OA
ATOM     88  O   UNL A   1      40.268  26.010  26.778  1.00  0.00    -0.237 OA
ATOM     89  O   UNL A   1      41.530  25.057  28.657  1.00  0.00    -0.744 OA
ENDBRANCH  83  86
ENDBRANCH  55  79
BRANCH  67  90
ATOM     90  C   UNL A   1      44.907  29.474  36.128  1.00  0.00     0.023 A 
ATOM     91  C   UNL A   1      46.156  30.107  35.980  1.00  0.00     0.012 A 
ATOM     92  C   UNL A   1      44.844  28.206  36.744  1.00  0.00     0.148 A 
ATOM     93  C   UNL A   1      47.326  29.472  36.397  1.00  0.00     0.002 A 
ATOM     94  C   UNL A   1      46.007  27.606  37.209  1.00  0.00     0.091 A 
ATOM     95  F   UNL A   1      43.649  27.612  36.863  1.00  0.00    -0.205 F 
ATOM     96  C   UNL A   1      47.251  28.229  37.021  1.00  0.00     0.022 A 
BRANCH  94  97
ATOM     97  S   UNL A   1      45.991  26.056  38.118  1.00  0.00     0.127 S 
ATOM     98  O   UNL A   1      46.145  25.079  37.041  1.00  0.00    -0.237 OA
ATOM     99  O   UNL A   1      47.159  26.195  38.987  1.00  0.00    -0.237 OA
ATOM    100  O   UNL A   1      44.716  26.015  38.821  1.00  0.00    -0.744 OA
ENDBRANCH  94  97
ENDBRANCH  67  90
ENDBRANCH  41  42
ENDBRANCH  34  36
ENDBRANCH  33  34
ENDBRANCH  32  33
ENDBRANCH  31  32
ENDBRANCH  30  31
ENDBRANCH  29  30
ENDBRANCH  28  29
ENDBRANCH   1  28
TORSDOF 26
ENDMDL
MODEL 3
REMARK VINA RESULT:      -9.2      3.727      5.386
REMARK SMILES O=C(Cc1ccc(F)c(F)c1)NC1(C(=O)OCCOCCOCCOCCOC(=O)c2ccc(-c3c4nc(c(-c5cccc(S(=O)(=O)[O-])c5F)c5ccc([nH]5)c(-c5cccc(S(=O)(=O)[O-])c5F)c5nc(c(-c6cccc(S(=O)(=O)[O-])c6F)c6ccc3[nH]6)C=C5)C=C4)cc2)CCCC1
REMARK SMILES IDX 22 1 21 2 20 3 19 4 18 5 17 6 16 7 14 8 15 9 13 10 94 11
REMARK SMILES IDX 97 12 95 13 96 14 12 15 1 16 2 17 3 19 4 20 5 21 11 22 6 23
REMARK SMILES IDX 9 24 7 25 10 26 8 27 23 28 24 29 25 30 26 31 27 32 28 33
REMARK SMILES IDX 29 34 30 35 31 36 32 37 93 38 33 39 92 40 34 41 35 42 36 43
REMARK SMILES IDX 86 44 37 45 91 46 85 47 87 48 38 49 90 50 84 51 83 52 39 54
REMARK SMILES IDX 71 55 51 56 70 57 52 58 55 59 69 60 88 61 53 62 54 63 68 65
REMARK SMILES IDX 89 66 56 67 40 68 41 69 49 70 42 71 44 72 50 73 43 74 45 75
REMARK SMILES IDX 46 76 47 77 48 78 72 79 73 80 81 81 74 82 76 83 82 84 75 85
REMARK SMILES IDX 77 86 78 87 79 88 80 89 57 90 58 91 66 92 59 93 61 94 67 95
REMARK SMILES IDX 60 96 62 97 63 98 64 99 65 100
REMARK H PARENT 12 18 87 53 55 64
REMARK Flexibility Score: inf
ROOT
ATOM      1  O   UNL A   1      34.580  28.953  27.715  1.00  0.00    -0.377 OA
ENDROOT
BRANCH   1   2
ATOM      2  C   UNL A   1      33.702  28.282  26.842  1.00  0.00     0.188 C 
BRANCH   2   3
ATOM      3  C   UNL A   1      33.989  28.460  25.349  1.00  0.00     0.188 C 
BRANCH   3   4
ATOM      4  O   UNL A   1      34.020  27.354  24.479  1.00  0.00    -0.376 OA
BRANCH   4   5
ATOM      5  C   UNL A   1      33.702  27.452  23.102  1.00  0.00     0.202 C 
BRANCH   5   6
ATOM      6  C   UNL A   1      33.564  26.278  22.112  1.00  0.00     0.261 C 
BRANCH   6   7
ATOM      7  O   UNL A   1      34.232  25.046  22.413  1.00  0.00    -0.461 OA
BRANCH   7   8
ATOM      8  C   UNL A   1      33.406  23.987  22.592  1.00  0.00     0.331 C 
ATOM      9  O   UNL A   1      32.941  23.347  21.653  1.00  0.00    -0.249 OA
BRANCH   8  10
ATOM     10  C   UNL A   1      33.158  23.620  24.087  1.00  0.00     0.138 C 
ATOM     11  C   UNL A   1      34.505  23.639  24.823  1.00  0.00     0.040 C 
ATOM     12  C   UNL A   1      32.692  22.185  24.431  1.00  0.00     0.040 C 
ATOM     13  C   UNL A   1      35.104  22.255  24.555  1.00  0.00     0.003 C 
ATOM     14  C   UNL A   1      33.927  21.301  24.454  1.00  0.00     0.003 C 
BRANCH  10  15
ATOM     15  N   UNL A   1      32.144  24.583  24.598  1.00  0.00    -0.340 N 
ATOM     16  O   UNL A   1      30.367  23.924  23.296  1.00  0.00    -0.275 OA
ATOM     17  C   UNL A   1      30.812  24.585  24.230  1.00  0.00     0.225 C 
ATOM     18  H   UNL A   1      32.441  25.266  25.242  1.00  0.00     0.164 HD
BRANCH  17  19
ATOM     19  C   UNL A   1      29.921  25.557  24.995  1.00  0.00     0.135 C 
BRANCH  19  20
ATOM     20  C   UNL A   1      29.702  26.936  24.398  1.00  0.00    -0.036 A 
ATOM     21  C   UNL A   1      30.689  27.933  24.468  1.00  0.00     0.007 A 
ATOM     22  C   UNL A   1      28.538  27.210  23.654  1.00  0.00     0.046 A 
ATOM     23  C   UNL A   1      30.514  29.168  23.828  1.00  0.00     0.043 A 
ATOM     24  C   UNL A   1      28.380  28.435  23.003  1.00  0.00     0.159 A 
ATOM     25  C   UNL A   1      29.361  29.411  23.093  1.00  0.00     0.158 A 
ATOM     26  F   UNL A   1      27.286  28.651  22.258  1.00  0.00    -0.204 F 
ATOM     27  F   UNL A   1      29.217  30.582  22.459  1.00  0.00    -0.204 F 
ENDBRANCH  19  20
ENDBRANCH  17  19
ENDBRANCH  10  15
ENDBRANCH   8  10
ENDBRANCH   7   8
ENDBRANCH   6   7
ENDBRANCH   5   6
ENDBRANCH   4   5
ENDBRANCH   3   4
ENDBRANCH   2   3
ENDBRANCH   1   2
BRANCH   1  28
ATOM     28  C   UNL A   1      35.070  30.231  27.328  1.00  0.00     0.188 C 
BRANCH  28  29
ATOM     29  C   UNL A   1      34.202  31.486  27.556  1.00  0.00     0.188 C 
BRANCH  29  30
ATOM     30  O   UNL A   1      34.930  32.702  27.662  1.00  0.00    -0.376 OA
BRANCH  30  31
ATOM     31  C   UNL A   1      34.362  33.786  28.383  1.00  0.00     0.202 C 
BRANCH  31  32
ATOM     32  C   UNL A   1      34.334  33.707  29.919  1.00  0.00     0.261 C 
BRANCH  32  33
ATOM     33  O   UNL A   1      34.468  32.404  30.504  1.00  0.00    -0.460 OA
BRANCH  33  34
ATOM     34  C   UNL A   1      35.184  32.294  31.645  1.00  0.00     0.338 C 
ATOM     35  O   UNL A   1      34.849  32.647  32.756  1.00  0.00    -0.246 OA
BRANCH  34  36
ATOM     36  C   UNL A   1      36.378  31.471  31.349  1.00  0.00     0.060 A 
ATOM     37  C   UNL A   1      36.566  30.277  32.057  1.00  0.00     0.016 A 
ATOM     38  C   UNL A   1      37.311  31.885  30.395  1.00  0.00     0.016 A 
ATOM     39  C   UNL A   1      37.724  29.527  31.865  1.00  0.00     0.010 A 
ATOM     40  C   UNL A   1      38.481  31.143  30.218  1.00  0.00     0.010 A 
ATOM     41  C   UNL A   1      38.715  29.993  30.992  1.00  0.00    -0.014 A 
BRANCH  41  42
ATOM     42  C   UNL A   1      40.083  29.430  31.085  1.00  0.00     0.031 A 
ATOM     43  C   UNL A   1      41.012  30.008  32.121  1.00  0.00     0.074 A 
ATOM     44  C   UNL A   1      40.492  28.424  30.293  1.00  0.00     0.049 A 
ATOM     45  N   UNL A   1      42.261  29.717  32.372  1.00  0.00    -0.248 NA
ATOM     46  C   UNL A   1      40.456  31.063  32.985  1.00  0.00     0.031 C 
ATOM     47  C   UNL A   1      39.680  27.765  29.272  1.00  0.00     0.029 A 
ATOM     48  N   UNL A   1      41.710  27.796  30.215  1.00  0.00    -0.354 N 
ATOM     49  C   UNL A   1      42.648  30.573  33.397  1.00  0.00     0.074 A 
ATOM     50  C   UNL A   1      41.509  31.405  33.709  1.00  0.00     0.031 C 
ATOM     51  C   UNL A   1      40.434  26.842  28.648  1.00  0.00     0.029 A 
ATOM     52  C   UNL A   1      41.785  26.866  29.206  1.00  0.00     0.049 A 
ATOM     53  H   UNL A   1      42.458  27.995  30.824  1.00  0.00     0.167 HD
ATOM     54  C   UNL A   1      43.841  30.653  34.031  1.00  0.00     0.034 A 
ATOM     55  C   UNL A   1      42.833  26.138  28.771  1.00  0.00     0.034 A 
ATOM     56  C   UNL A   1      44.969  29.817  33.726  1.00  0.00     0.049 A 
ATOM     57  C   UNL A   1      44.163  26.269  29.472  1.00  0.00     0.074 A 
ATOM     58  C   UNL A   1      46.213  29.797  34.330  1.00  0.00     0.029 A 
ATOM     59  N   UNL A   1      44.996  28.864  32.720  1.00  0.00    -0.354 N 
ATOM     60  N   UNL A   1      44.490  27.020  30.496  1.00  0.00    -0.248 NA
ATOM     61  C   UNL A   1      45.260  25.423  28.977  1.00  0.00     0.031 C 
ATOM     62  C   UNL A   1      47.006  28.857  33.663  1.00  0.00     0.029 A 
ATOM     63  C   UNL A   1      46.237  28.255  32.680  1.00  0.00     0.049 A 
ATOM     64  H   UNL A   1      44.244  28.652  32.122  1.00  0.00     0.167 HD
ATOM     65  C   UNL A   1      45.809  26.697  30.801  1.00  0.00     0.074 A 
ATOM     66  C   UNL A   1      46.217  25.678  29.858  1.00  0.00     0.031 C 
ATOM     67  C   UNL A   1      46.612  27.201  31.772  1.00  0.00     0.034 A 
BRANCH  54  68
ATOM     68  C   UNL A   1      43.983  31.683  35.121  1.00  0.00     0.023 A 
ATOM     69  C   UNL A   1      44.359  33.003  34.800  1.00  0.00     0.012 A 
ATOM     70  C   UNL A   1      43.711  31.350  36.462  1.00  0.00     0.148 A 
ATOM     71  C   UNL A   1      44.499  33.965  35.799  1.00  0.00     0.002 A 
ATOM     72  C   UNL A   1      43.803  32.326  37.446  1.00  0.00     0.091 A 
ATOM     73  F   UNL A   1      43.380  30.083  36.752  1.00  0.00    -0.205 F 
ATOM     74  C   UNL A   1      44.210  33.629  37.120  1.00  0.00     0.022 A 
BRANCH  72  75
ATOM     75  S   UNL A   1      43.372  32.014  39.160  1.00  0.00     0.127 S 
ATOM     76  O   UNL A   1      41.924  31.827  39.072  1.00  0.00    -0.237 OA
ATOM     77  O   UNL A   1      44.128  30.795  39.449  1.00  0.00    -0.237 OA
ATOM     78  O   UNL A   1      43.803  33.189  39.906  1.00  0.00    -0.744 OA
ENDBRANCH  72  75
ENDBRANCH  54  68
BRANCH  55  79
ATOM     79  C   UNL A   1      42.667  25.196  27.628  1.00  0.00     0.023 A 
ATOM     80  C   UNL A   1      43.082  25.582  26.338  1.00  0.00     0.012 A 
ATOM     81  C   UNL A   1      42.097  23.922  27.814  1.00  0.00     0.148 A 
ATOM     82  C   UNL A   1      42.897  24.732  25.248  1.00  0.00     0.002 A 
ATOM     83  C   UNL A   1      41.968  23.058  26.733  1.00  0.00     0.091 A 
ATOM     84  F   UNL A   1      41.697  23.579  29.046  1.00  0.00    -0.205 F 
ATOM     85  C   UNL A   1      42.348  23.467  25.447  1.00  0.00     0.022 A 
BRANCH  83  86
ATOM     86  S   UNL A   1      41.387  21.368  26.914  1.00  0.00     0.127 S 
ATOM     87  O   UNL A   1      40.856  21.379  28.275  1.00  0.00    -0.237 OA
ATOM     88  O   UNL A   1      40.376  21.287  25.859  1.00  0.00    -0.237 OA
ATOM     89  O   UNL A   1      42.553  20.522  26.699  1.00  0.00    -0.744 OA
ENDBRANCH  83  86
ENDBRANCH  55  79
BRANCH  67  90
ATOM     90  C   UNL A   1      47.989  26.608  31.925  1.00  0.00     0.023 A 
ATOM     91  C   UNL A   1      48.207  25.515  32.787  1.00  0.00     0.012 A 
ATOM     92  C   UNL A   1      49.062  27.103  31.154  1.00  0.00     0.148 A 
ATOM     93  C   UNL A   1      49.478  24.953  32.911  1.00  0.00     0.002 A 
ATOM     94  C   UNL A   1      50.310  26.501  31.240  1.00  0.00     0.091 A 
ATOM     95  F   UNL A   1      48.840  28.153  30.351  1.00  0.00    -0.205 F 
ATOM     96  C   UNL A   1      50.525  25.437  32.129  1.00  0.00     0.022 A 
BRANCH  94  97
ATOM     97  S   UNL A   1      51.687  26.990  30.194  1.00  0.00     0.127 S 
ATOM     98  O   UNL A   1      51.935  28.357  30.650  1.00  0.00    -0.237 OA
ATOM     99  O   UNL A   1      52.720  26.025  30.570  1.00  0.00    -0.237 OA
ATOM    100  O   UNL A   1      51.214  26.865  28.822  1.00  0.00    -0.744 OA
ENDBRANCH  94  97
ENDBRANCH  67  90
ENDBRANCH  41  42
ENDBRANCH  34  36
ENDBRANCH  33  34
ENDBRANCH  32  33
ENDBRANCH  31  32
ENDBRANCH  30  31
ENDBRANCH  29  30
ENDBRANCH  28  29
ENDBRANCH   1  28
TORSDOF 26
ENDMDL
