MODEL 1
REMARK VINA RESULT:      -8.8      0.000      0.000
REMARK SMILES Cc1cc(F)ccc1S(=O)(=O)N[C@@H](Cc1c[nH]c2ccccc12)C(=O)OCCOCCOCCOCCOC(=O)c1ccc(-c2c3nc(c(-c4cccc(S(=O)(=O)[O-])c4F)c4ccc([nH]4)c(-c4cccc(S(=O)(=O)[O-])c4F)c4nc(c(-c5cccc(S(=O)(=O)[O-])c5F)c5ccc2[nH]5)C=C4)C=C3)cc1
REMARK SMILES IDX 32 1 31 2 30 3 29 4 28 5 27 6 26 7 24 8 25 9 13 10 12 11
REMARK SMILES IDX 9 13 10 14 11 15 8 16 1 17 2 18 3 19 4 20 7 21 5 22 6 23
REMARK SMILES IDX 14 24 15 25 16 26 23 27 17 28 18 29 22 30 19 32 21 33 20 34
REMARK SMILES IDX 33 35 34 36 35 37 36 38 37 39 38 40 39 41 40 42 41 43 42 44
REMARK SMILES IDX 103 45 43 46 102 47 44 48 45 49 46 50 96 51 47 52 101 53
REMARK SMILES IDX 95 54 97 55 48 56 100 57 94 58 93 59 49 61 81 62 61 63 80 64
REMARK SMILES IDX 62 65 65 66 79 67 98 68 63 69 64 70 78 72 99 73 66 74 50 75
REMARK SMILES IDX 51 76 59 77 52 78 54 79 60 80 53 81 55 82 56 83 57 84 58 85
REMARK SMILES IDX 82 86 83 87 91 88 84 89 86 90 92 91 85 92 87 93 88 94 89 95
REMARK SMILES IDX 90 96 67 97 68 98 76 99 69 100 71 101 77 102 70 103 72 104
REMARK SMILES IDX 73 105 74 106 75 107
REMARK H PARENT 12 12 17 31 97 60 65 71
REMARK Flexibility Score: inf
ROOT
ATOM      1  O   UNL A   1      35.585  33.723  28.548  1.00  0.00    -0.377 OA
ENDROOT
BRANCH   1   2
ATOM      2  C   UNL A   1      35.063  32.675  29.338  1.00  0.00     0.188 C 
BRANCH   2   3
ATOM      3  C   UNL A   1      35.394  31.260  28.814  1.00  0.00     0.188 C 
BRANCH   3   4
ATOM      4  O   UNL A   1      35.125  30.888  27.469  1.00  0.00    -0.376 OA
BRANCH   4   5
ATOM      5  C   UNL A   1      33.879  30.285  27.158  1.00  0.00     0.202 C 
BRANCH   5   6
ATOM      6  C   UNL A   1      33.808  29.050  26.244  1.00  0.00     0.261 C 
BRANCH   6   7
ATOM      7  O   UNL A   1      33.283  27.838  26.815  1.00  0.00    -0.462 OA
BRANCH   7   8
ATOM      8  C   UNL A   1      32.274  27.217  26.143  1.00  0.00     0.324 C 
ATOM      9  O   UNL A   1      31.221  27.760  25.822  1.00  0.00    -0.250 OA
BRANCH   8  10
ATOM     10  C   UNL A   1      32.561  25.734  25.873  1.00  0.00     0.184 C 
BRANCH  10  11
ATOM     11  N   UNL A   1      31.969  25.248  24.604  1.00  0.00    -0.196 NA
ATOM     12  H   UNL A   1      31.444  26.036  24.222  1.00  0.00     0.142 HD
BRANCH  11  13
ATOM     13  S   UNL A   1      30.949  23.929  24.507  1.00  0.00     0.241 S 
ATOM     14  O   UNL A   1      30.151  24.088  23.311  1.00  0.00    -0.207 OA
ATOM     15  O   UNL A   1      30.342  23.801  25.812  1.00  0.00    -0.207 OA
BRANCH  13  16
ATOM     16  C   UNL A   1      31.869  22.408  24.272  1.00  0.00     0.085 A 
ATOM     17  C   UNL A   1      33.180  23.092  22.180  1.00  0.00     0.046 C 
ATOM     18  C   UNL A   1      32.773  22.126  23.237  1.00  0.00    -0.028 A 
ATOM     19  C   UNL A   1      33.354  20.842  23.175  1.00  0.00     0.044 A 
ATOM     20  C   UNL A   1      33.100  19.895  24.160  1.00  0.00     0.123 A 
ATOM     21  C   UNL A   1      31.647  21.439  25.274  1.00  0.00     0.025 A 
ATOM     22  F   UNL A   1      33.681  18.692  24.084  1.00  0.00    -0.207 F 
ATOM     23  C   UNL A   1      32.266  20.190  25.223  1.00  0.00     0.040 A 
ENDBRANCH  13  16
ENDBRANCH  11  13
ENDBRANCH  10  11
BRANCH  10  24
ATOM     24  C   UNL A   1      34.077  25.530  25.998  1.00  0.00     0.069 C 
BRANCH  24  25
ATOM     25  C   UNL A   1      34.554  24.124  26.247  1.00  0.00    -0.020 A 
ATOM     26  C   UNL A   1      34.154  23.265  27.255  1.00  0.00     0.087 A 
ATOM     27  C   UNL A   1      35.433  23.364  25.403  1.00  0.00     0.003 A 
ATOM     28  N   UNL A   1      34.817  22.073  27.112  1.00  0.00    -0.361 N 
ATOM     29  C   UNL A   1      35.574  22.097  25.969  1.00  0.00     0.046 A 
ATOM     30  C   UNL A   1      36.097  23.624  24.188  1.00  0.00     0.010 A 
ATOM     31  H   UNL A   1      34.757  21.314  27.737  1.00  0.00     0.166 HD
ATOM     32  C   UNL A   1      36.348  21.084  25.394  1.00  0.00     0.026 A 
ATOM     33  C   UNL A   1      36.867  22.620  23.589  1.00  0.00     0.001 A 
ATOM     34  C   UNL A   1      36.988  21.369  24.186  1.00  0.00     0.002 A 
ENDBRANCH  24  25
ENDBRANCH  10  24
ENDBRANCH   8  10
ENDBRANCH   7   8
ENDBRANCH   6   7
ENDBRANCH   5   6
ENDBRANCH   4   5
ENDBRANCH   3   4
ENDBRANCH   2   3
ENDBRANCH   1   2
BRANCH   1  35
ATOM     35  C   UNL A   1      34.743  34.865  28.467  1.00  0.00     0.188 C 
BRANCH  35  36
ATOM     36  C   UNL A   1      33.226  34.582  28.465  1.00  0.00     0.188 C 
BRANCH  36  37
ATOM     37  O   UNL A   1      32.554  35.036  29.639  1.00  0.00    -0.376 OA
BRANCH  37  38
ATOM     38  C   UNL A   1      33.165  36.047  30.426  1.00  0.00     0.202 C 
BRANCH  38  39
ATOM     39  C   UNL A   1      33.434  35.729  31.907  1.00  0.00     0.261 C 
BRANCH  39  40
ATOM     40  O   UNL A   1      34.687  35.100  32.207  1.00  0.00    -0.460 OA
BRANCH  40  41
ATOM     41  C   UNL A   1      34.659  33.879  32.782  1.00  0.00     0.338 C 
ATOM     42  O   UNL A   1      33.766  33.053  32.700  1.00  0.00    -0.246 OA
BRANCH  41  43
ATOM     43  C   UNL A   1      36.000  33.620  33.348  1.00  0.00     0.060 A 
ATOM     44  C   UNL A   1      36.231  32.402  34.002  1.00  0.00     0.016 A 
ATOM     45  C   UNL A   1      37.029  34.555  33.211  1.00  0.00     0.016 A 
ATOM     46  C   UNL A   1      37.481  32.131  34.555  1.00  0.00     0.010 A 
ATOM     47  C   UNL A   1      38.273  34.294  33.791  1.00  0.00     0.010 A 
ATOM     48  C   UNL A   1      38.492  33.098  34.498  1.00  0.00    -0.014 A 
BRANCH  48  49
ATOM     49  C   UNL A   1      39.688  32.958  35.361  1.00  0.00     0.031 A 
ATOM     50  C   UNL A   1      40.587  31.773  35.132  1.00  0.00     0.074 A 
ATOM     51  C   UNL A   1      39.977  33.856  36.320  1.00  0.00     0.049 A 
ATOM     52  N   UNL A   1      41.662  31.411  35.779  1.00  0.00    -0.248 NA
ATOM     53  C   UNL A   1      40.222  30.875  34.022  1.00  0.00     0.031 C 
ATOM     54  C   UNL A   1      39.195  35.053  36.623  1.00  0.00     0.029 A 
ATOM     55  N   UNL A   1      41.001  33.880  37.234  1.00  0.00    -0.354 N 
ATOM     56  C   UNL A   1      42.080  30.228  35.182  1.00  0.00     0.074 A 
ATOM     57  C   UNL A   1      41.142  29.930  34.123  1.00  0.00     0.031 C 
ATOM     58  C   UNL A   1      39.752  35.679  37.675  1.00  0.00     0.029 A 
ATOM     59  C   UNL A   1      40.908  34.911  38.137  1.00  0.00     0.049 A 
ATOM     60  H   UNL A   1      41.733  33.220  37.241  1.00  0.00     0.167 HD
ATOM     61  C   UNL A   1      43.154  29.461  35.482  1.00  0.00     0.034 A 
ATOM     62  C   UNL A   1      41.653  35.184  39.228  1.00  0.00     0.034 A 
ATOM     63  C   UNL A   1      44.092  29.766  36.526  1.00  0.00     0.049 A 
ATOM     64  C   UNL A   1      42.822  34.290  39.563  1.00  0.00     0.074 A 
ATOM     65  C   UNL A   1      45.239  29.077  36.878  1.00  0.00     0.029 A 
ATOM     66  N   UNL A   1      43.982  30.835  37.400  1.00  0.00    -0.354 N 
ATOM     67  N   UNL A   1      43.272  33.239  38.920  1.00  0.00    -0.248 NA
ATOM     68  C   UNL A   1      43.606  34.637  40.759  1.00  0.00     0.031 C 
ATOM     69  C   UNL A   1      45.800  29.706  37.991  1.00  0.00     0.029 A 
ATOM     70  C   UNL A   1      45.030  30.815  38.302  1.00  0.00     0.049 A 
ATOM     71  H   UNL A   1      43.265  31.509  37.382  1.00  0.00     0.167 HD
ATOM     72  C   UNL A   1      44.413  32.830  39.604  1.00  0.00     0.074 A 
ATOM     73  C   UNL A   1      44.594  33.756  40.702  1.00  0.00     0.031 C 
ATOM     74  C   UNL A   1      45.231  31.778  39.355  1.00  0.00     0.034 A 
BRANCH  61  75
ATOM     75  C   UNL A   1      43.376  28.215  34.667  1.00  0.00     0.023 A 
ATOM     76  C   UNL A   1      43.965  28.306  33.389  1.00  0.00     0.012 A 
ATOM     77  C   UNL A   1      43.059  26.950  35.196  1.00  0.00     0.148 A 
ATOM     78  C   UNL A   1      44.210  27.155  32.641  1.00  0.00     0.002 A 
ATOM     79  C   UNL A   1      43.351  25.806  34.465  1.00  0.00     0.091 A 
ATOM     80  F   UNL A   1      42.477  26.891  36.403  1.00  0.00    -0.205 F 
ATOM     81  C   UNL A   1      43.915  25.907  33.182  1.00  0.00     0.022 A 
BRANCH  79  82
ATOM     82  S   UNL A   1      43.085  24.151  35.108  1.00  0.00     0.127 S 
ATOM     83  O   UNL A   1      41.678  24.211  35.502  1.00  0.00    -0.237 OA
ATOM     84  O   UNL A   1      43.355  23.321  33.934  1.00  0.00    -0.237 OA
ATOM     85  O   UNL A   1      44.030  23.985  36.203  1.00  0.00    -0.744 OA
ENDBRANCH  79  82
ENDBRANCH  61  75
BRANCH  62  86
ATOM     86  C   UNL A   1      41.335  36.363  40.083  1.00  0.00     0.023 A 
ATOM     87  C   UNL A   1      40.478  36.212  41.192  1.00  0.00     0.012 A 
ATOM     88  C   UNL A   1      41.867  37.635  39.798  1.00  0.00     0.148 A 
ATOM     89  C   UNL A   1      40.125  37.313  41.973  1.00  0.00     0.002 A 
ATOM     90  C   UNL A   1      41.564  38.714  40.620  1.00  0.00     0.091 A 
ATOM     91  F   UNL A   1      42.665  37.766  38.728  1.00  0.00    -0.205 F 
ATOM     92  C   UNL A   1      40.675  38.561  41.694  1.00  0.00     0.022 A 
BRANCH  90  93
ATOM     93  S   UNL A   1      42.347  40.318  40.426  1.00  0.00     0.127 S 
ATOM     94  O   UNL A   1      43.122  40.128  39.203  1.00  0.00    -0.237 OA
ATOM     95  O   UNL A   1      41.187  41.201  40.296  1.00  0.00    -0.237 OA
ATOM     96  O   UNL A   1      43.120  40.531  41.643  1.00  0.00    -0.744 OA
ENDBRANCH  90  93
ENDBRANCH  62  86
BRANCH  74  97
ATOM     97  C   UNL A   1      46.437  31.595  40.241  1.00  0.00     0.023 A 
ATOM     98  C   UNL A   1      47.637  32.276  39.955  1.00  0.00     0.012 A 
ATOM     99  C   UNL A   1      46.351  30.804  41.405  1.00  0.00     0.148 A 
ATOM    100  C   UNL A   1      48.743  32.144  40.796  1.00  0.00     0.002 A 
ATOM    101  C   UNL A   1      47.438  30.721  42.265  1.00  0.00     0.091 A 
ATOM    102  F   UNL A   1      45.205  30.153  41.651  1.00  0.00    -0.205 F 
ATOM    103  C   UNL A   1      48.640  31.378  41.955  1.00  0.00     0.022 A 
BRANCH 101 104
ATOM    104  S   UNL A   1      47.365  29.843  43.831  1.00  0.00     0.127 S 
ATOM    105  O   UNL A   1      47.161  28.464  43.389  1.00  0.00    -0.237 OA
ATOM    106  O   UNL A   1      48.686  30.114  44.400  1.00  0.00    -0.237 OA
ATOM    107  O   UNL A   1      46.255  30.430  44.570  1.00  0.00    -0.744 OA
ENDBRANCH 101 104
ENDBRANCH  74  97
ENDBRANCH  48  49
ENDBRANCH  41  43
ENDBRANCH  40  41
ENDBRANCH  39  40
ENDBRANCH  38  39
ENDBRANCH  37  38
ENDBRANCH  36  37
ENDBRANCH  35  36
ENDBRANCH   1  35
TORSDOF 28
ENDMDL
MODEL 2
REMARK VINA RESULT:      -8.7     10.892     17.053
REMARK SMILES Cc1cc(F)ccc1S(=O)(=O)N[C@@H](Cc1c[nH]c2ccccc12)C(=O)OCCOCCOCCOCCOC(=O)c1ccc(-c2c3nc(c(-c4cccc(S(=O)(=O)[O-])c4F)c4ccc([nH]4)c(-c4cccc(S(=O)(=O)[O-])c4F)c4nc(c(-c5cccc(S(=O)(=O)[O-])c5F)c5ccc2[nH]5)C=C4)C=C3)cc1
REMARK SMILES IDX 32 1 31 2 30 3 29 4 28 5 27 6 26 7 24 8 25 9 13 10 12 11
REMARK SMILES IDX 9 13 10 14 11 15 8 16 1 17 2 18 3 19 4 20 7 21 5 22 6 23
REMARK SMILES IDX 14 24 15 25 16 26 23 27 17 28 18 29 22 30 19 32 21 33 20 34
REMARK SMILES IDX 33 35 34 36 35 37 36 38 37 39 38 40 39 41 40 42 41 43 42 44
REMARK SMILES IDX 103 45 43 46 102 47 44 48 45 49 46 50 96 51 47 52 101 53
REMARK SMILES IDX 95 54 97 55 48 56 100 57 94 58 93 59 49 61 81 62 61 63 80 64
REMARK SMILES IDX 62 65 65 66 79 67 98 68 63 69 64 70 78 72 99 73 66 74 50 75
REMARK SMILES IDX 51 76 59 77 52 78 54 79 60 80 53 81 55 82 56 83 57 84 58 85
REMARK SMILES IDX 82 86 83 87 91 88 84 89 86 90 92 91 85 92 87 93 88 94 89 95
REMARK SMILES IDX 90 96 67 97 68 98 76 99 69 100 71 101 77 102 70 103 72 104
REMARK SMILES IDX 73 105 74 106 75 107
REMARK H PARENT 12 12 17 31 97 60 65 71
REMARK Flexibility Score: inf
ROOT
ATOM      1  O   UNL A   1      42.942  37.715  27.940  1.00  0.00    -0.377 OA
ENDROOT
BRANCH   1   2
ATOM      2  C   UNL A   1      41.911  38.284  27.160  1.00  0.00     0.188 C 
BRANCH   2   3
ATOM      3  C   UNL A   1      42.181  39.737  26.712  1.00  0.00     0.188 C 
BRANCH   3   4
ATOM      4  O   UNL A   1      41.411  40.349  25.687  1.00  0.00    -0.376 OA
BRANCH   4   5
ATOM      5  C   UNL A   1      41.857  41.576  25.132  1.00  0.00     0.202 C 
BRANCH   5   6
ATOM      6  C   UNL A   1      41.417  42.010  23.723  1.00  0.00     0.261 C 
BRANCH   6   7
ATOM      7  O   UNL A   1      42.390  41.909  22.669  1.00  0.00    -0.462 OA
BRANCH   7   8
ATOM      8  C   UNL A   1      42.312  42.818  21.658  1.00  0.00     0.324 C 
ATOM      9  O   UNL A   1      41.263  43.189  21.141  1.00  0.00    -0.250 OA
BRANCH   8  10
ATOM     10  C   UNL A   1      43.689  43.300  21.182  1.00  0.00     0.184 C 
BRANCH  10  11
ATOM     11  N   UNL A   1      44.788  42.374  21.545  1.00  0.00    -0.196 NA
ATOM     12  H   UNL A   1      44.355  41.454  21.645  1.00  0.00     0.142 HD
BRANCH  11  13
ATOM     13  S   UNL A   1      45.754  42.571  22.894  1.00  0.00     0.241 S 
ATOM     14  O   UNL A   1      46.161  41.254  23.330  1.00  0.00    -0.207 OA
ATOM     15  O   UNL A   1      45.036  43.471  23.767  1.00  0.00    -0.207 OA
BRANCH  13  16
ATOM     16  C   UNL A   1      47.273  43.434  22.487  1.00  0.00     0.085 A 
ATOM     17  C   UNL A   1      47.537  42.596  20.081  1.00  0.00     0.046 C 
ATOM     18  C   UNL A   1      47.981  43.361  21.277  1.00  0.00    -0.028 A 
ATOM     19  C   UNL A   1      49.200  44.060  21.163  1.00  0.00     0.044 A 
ATOM     20  C   UNL A   1      49.661  44.867  22.196  1.00  0.00     0.123 A 
ATOM     21  C   UNL A   1      47.748  44.280  23.512  1.00  0.00     0.025 A 
ATOM     22  F   UNL A   1      50.813  45.533  22.051  1.00  0.00    -0.207 F 
ATOM     23  C   UNL A   1      48.933  45.000  23.365  1.00  0.00     0.040 A 
ENDBRANCH  13  16
ENDBRANCH  11  13
ENDBRANCH  10  11
BRANCH  10  24
ATOM     24  C   UNL A   1      43.575  43.608  19.682  1.00  0.00     0.069 C 
BRANCH  24  25
ATOM     25  C   UNL A   1      44.579  44.572  19.109  1.00  0.00    -0.020 A 
ATOM     26  C   UNL A   1      44.885  44.774  17.774  1.00  0.00     0.087 A 
ATOM     27  C   UNL A   1      45.328  45.554  19.841  1.00  0.00     0.003 A 
ATOM     28  N   UNL A   1      45.840  45.753  17.681  1.00  0.00    -0.361 N 
ATOM     29  C   UNL A   1      46.099  46.269  18.925  1.00  0.00     0.046 A 
ATOM     30  C   UNL A   1      45.395  45.928  21.198  1.00  0.00     0.010 A 
ATOM     31  H   UNL A   1      46.275  46.042  16.846  1.00  0.00     0.166 HD
ATOM     32  C   UNL A   1      46.938  47.326  19.292  1.00  0.00     0.026 A 
ATOM     33  C   UNL A   1      46.219  46.990  21.585  1.00  0.00     0.001 A 
ATOM     34  C   UNL A   1      46.979  47.677  20.643  1.00  0.00     0.002 A 
ENDBRANCH  24  25
ENDBRANCH  10  24
ENDBRANCH   8  10
ENDBRANCH   7   8
ENDBRANCH   6   7
ENDBRANCH   5   6
ENDBRANCH   4   5
ENDBRANCH   3   4
ENDBRANCH   2   3
ENDBRANCH   1   2
BRANCH   1  35
ATOM     35  C   UNL A   1      44.112  37.383  27.205  1.00  0.00     0.188 C 
BRANCH  35  36
ATOM     36  C   UNL A   1      45.388  38.165  27.584  1.00  0.00     0.188 C 
BRANCH  36  37
ATOM     37  O   UNL A   1      46.520  37.845  26.776  1.00  0.00    -0.376 OA
BRANCH  37  38
ATOM     38  C   UNL A   1      47.808  38.246  27.218  1.00  0.00     0.202 C 
BRANCH  38  39
ATOM     39  C   UNL A   1      48.281  37.731  28.588  1.00  0.00     0.261 C 
BRANCH  39  40
ATOM     40  O   UNL A   1      48.271  36.310  28.774  1.00  0.00    -0.460 OA
BRANCH  40  41
ATOM     41  C   UNL A   1      47.918  35.834  29.986  1.00  0.00     0.338 C 
ATOM     42  O   UNL A   1      48.230  36.295  31.071  1.00  0.00    -0.246 OA
BRANCH  41  43
ATOM     43  C   UNL A   1      46.898  34.785  29.777  1.00  0.00     0.060 A 
ATOM     44  C   UNL A   1      46.636  33.883  30.818  1.00  0.00     0.016 A 
ATOM     45  C   UNL A   1      46.184  34.707  28.578  1.00  0.00     0.016 A 
ATOM     46  C   UNL A   1      45.686  32.877  30.648  1.00  0.00     0.010 A 
ATOM     47  C   UNL A   1      45.254  33.681  28.399  1.00  0.00     0.010 A 
ATOM     48  C   UNL A   1      45.029  32.739  29.419  1.00  0.00    -0.014 A 
BRANCH  48  49
ATOM     49  C   UNL A   1      44.286  31.492  29.124  1.00  0.00     0.031 A 
ATOM     50  C   UNL A   1      44.979  30.435  28.308  1.00  0.00     0.074 A 
ATOM     51  C   UNL A   1      43.031  31.295  29.568  1.00  0.00     0.049 A 
ATOM     52  N   UNL A   1      44.528  29.284  27.886  1.00  0.00    -0.248 NA
ATOM     53  C   UNL A   1      46.372  30.715  27.916  1.00  0.00     0.031 C 
ATOM     54  C   UNL A   1      42.264  32.235  30.382  1.00  0.00     0.029 A 
ATOM     55  N   UNL A   1      42.176  30.240  29.370  1.00  0.00    -0.354 N 
ATOM     56  C   UNL A   1      45.563  28.721  27.150  1.00  0.00     0.074 A 
ATOM     57  C   UNL A   1      46.665  29.656  27.179  1.00  0.00     0.031 C 
ATOM     58  C   UNL A   1      41.035  31.727  30.587  1.00  0.00     0.029 A 
ATOM     59  C   UNL A   1      40.921  30.443  29.894  1.00  0.00     0.049 A 
ATOM     60  H   UNL A   1      42.436  29.416  28.897  1.00  0.00     0.167 HD
ATOM     61  C   UNL A   1      45.597  27.528  26.513  1.00  0.00     0.034 A 
ATOM     62  C   UNL A   1      39.805  29.693  29.799  1.00  0.00     0.034 A 
ATOM     63  C   UNL A   1      44.506  26.594  26.496  1.00  0.00     0.049 A 
ATOM     64  C   UNL A   1      39.860  28.384  29.049  1.00  0.00     0.074 A 
ATOM     65  C   UNL A   1      44.459  25.338  25.919  1.00  0.00     0.029 A 
ATOM     66  N   UNL A   1      43.263  26.821  27.065  1.00  0.00    -0.354 N 
ATOM     67  N   UNL A   1      40.880  27.812  28.455  1.00  0.00    -0.248 NA
ATOM     68  C   UNL A   1      38.615  27.602  28.982  1.00  0.00     0.031 C 
ATOM     69  C   UNL A   1      43.174  24.822  26.102  1.00  0.00     0.029 A 
ATOM     70  C   UNL A   1      42.436  25.737  26.837  1.00  0.00     0.049 A 
ATOM     71  H   UNL A   1      43.007  27.634  27.557  1.00  0.00     0.167 HD
ATOM     72  C   UNL A   1      40.413  26.587  27.986  1.00  0.00     0.074 A 
ATOM     73  C   UNL A   1      39.023  26.494  28.379  1.00  0.00     0.031 C 
ATOM     74  C   UNL A   1      41.070  25.631  27.284  1.00  0.00     0.034 A 
BRANCH  61  75
ATOM     75  C   UNL A   1      46.860  27.160  25.781  1.00  0.00     0.023 A 
ATOM     76  C   UNL A   1      46.989  27.457  24.408  1.00  0.00     0.012 A 
ATOM     77  C   UNL A   1      47.940  26.578  26.469  1.00  0.00     0.148 A 
ATOM     78  C   UNL A   1      48.168  27.154  23.728  1.00  0.00     0.002 A 
ATOM     79  C   UNL A   1      49.129  26.325  25.796  1.00  0.00     0.091 A 
ATOM     80  F   UNL A   1      47.785  26.282  27.768  1.00  0.00    -0.205 F 
ATOM     81  C   UNL A   1      49.240  26.601  24.423  1.00  0.00     0.022 A 
BRANCH  79  82
ATOM     82  S   UNL A   1      50.593  25.690  26.619  1.00  0.00     0.127 S 
ATOM     83  O   UNL A   1      50.871  26.752  27.585  1.00  0.00    -0.237 OA
ATOM     84  O   UNL A   1      50.096  24.446  27.207  1.00  0.00    -0.237 OA
ATOM     85  O   UNL A   1      51.598  25.516  25.580  1.00  0.00    -0.744 OA
ENDBRANCH  79  82
ENDBRANCH  61  75
BRANCH  62  86
ATOM     86  C   UNL A   1      38.537  30.144  30.439  1.00  0.00     0.023 A 
ATOM     87  C   UNL A   1      38.242  29.751  31.760  1.00  0.00     0.012 A 
ATOM     88  C   UNL A   1      37.616  30.950  29.744  1.00  0.00     0.148 A 
ATOM     89  C   UNL A   1      37.036  30.118  32.359  1.00  0.00     0.002 A 
ATOM     90  C   UNL A   1      36.447  31.367  30.370  1.00  0.00     0.091 A 
ATOM     91  F   UNL A   1      37.902  31.300  28.481  1.00  0.00    -0.205 F 
ATOM     92  C   UNL A   1      36.143  30.932  31.669  1.00  0.00     0.022 A 
BRANCH  90  93
ATOM     93  S   UNL A   1      35.318  32.541  29.613  1.00  0.00     0.127 S 
ATOM     94  O   UNL A   1      34.358  32.769  30.690  1.00  0.00    -0.237 OA
ATOM     95  O   UNL A   1      36.208  33.666  29.327  1.00  0.00    -0.237 OA
ATOM     96  O   UNL A   1      34.797  31.879  28.425  1.00  0.00    -0.744 OA
ENDBRANCH  90  93
ENDBRANCH  62  86
BRANCH  74  97
ATOM     97  C   UNL A   1      40.324  24.367  26.943  1.00  0.00     0.023 A 
ATOM     98  C   UNL A   1      39.059  24.434  26.327  1.00  0.00     0.012 A 
ATOM     99  C   UNL A   1      40.919  23.108  27.164  1.00  0.00     0.148 A 
ATOM    100  C   UNL A   1      38.383  23.267  25.969  1.00  0.00     0.002 A 
ATOM    101  C   UNL A   1      40.264  21.953  26.757  1.00  0.00     0.091 A 
ATOM    102  F   UNL A   1      42.117  23.065  27.765  1.00  0.00    -0.205 F 
ATOM    103  C   UNL A   1      38.989  22.030  26.172  1.00  0.00     0.022 A 
BRANCH 101 104
ATOM    104  S   UNL A   1      41.011  20.324  26.884  1.00  0.00     0.127 S 
ATOM    105  O   UNL A   1      40.151  19.534  26.004  1.00  0.00    -0.237 OA
ATOM    106  O   UNL A   1      42.360  20.561  26.367  1.00  0.00    -0.237 OA
ATOM    107  O   UNL A   1      40.957  19.965  28.294  1.00  0.00    -0.744 OA
ENDBRANCH 101 104
ENDBRANCH  74  97
ENDBRANCH  48  49
ENDBRANCH  41  43
ENDBRANCH  40  41
ENDBRANCH  39  40
ENDBRANCH  38  39
ENDBRANCH  37  38
ENDBRANCH  36  37
ENDBRANCH  35  36
ENDBRANCH   1  35
TORSDOF 28
ENDMDL
MODEL 3
REMARK VINA RESULT:      -8.5      7.626      9.745
REMARK SMILES Cc1cc(F)ccc1S(=O)(=O)N[C@@H](Cc1c[nH]c2ccccc12)C(=O)OCCOCCOCCOCCOC(=O)c1ccc(-c2c3nc(c(-c4cccc(S(=O)(=O)[O-])c4F)c4ccc([nH]4)c(-c4cccc(S(=O)(=O)[O-])c4F)c4nc(c(-c5cccc(S(=O)(=O)[O-])c5F)c5ccc2[nH]5)C=C4)C=C3)cc1
REMARK SMILES IDX 32 1 31 2 30 3 29 4 28 5 27 6 26 7 24 8 25 9 13 10 12 11
REMARK SMILES IDX 9 13 10 14 11 15 8 16 1 17 2 18 3 19 4 20 7 21 5 22 6 23
REMARK SMILES IDX 14 24 15 25 16 26 23 27 17 28 18 29 22 30 19 32 21 33 20 34
REMARK SMILES IDX 33 35 34 36 35 37 36 38 37 39 38 40 39 41 40 42 41 43 42 44
REMARK SMILES IDX 103 45 43 46 102 47 44 48 45 49 46 50 96 51 47 52 101 53
REMARK SMILES IDX 95 54 97 55 48 56 100 57 94 58 93 59 49 61 81 62 61 63 80 64
REMARK SMILES IDX 62 65 65 66 79 67 98 68 63 69 64 70 78 72 99 73 66 74 50 75
REMARK SMILES IDX 51 76 59 77 52 78 54 79 60 80 53 81 55 82 56 83 57 84 58 85
REMARK SMILES IDX 82 86 83 87 91 88 84 89 86 90 92 91 85 92 87 93 88 94 89 95
REMARK SMILES IDX 90 96 67 97 68 98 76 99 69 100 71 101 77 102 70 103 72 104
REMARK SMILES IDX 73 105 74 106 75 107
REMARK H PARENT 12 12 17 31 97 60 65 71
REMARK Flexibility Score: inf
ROOT
ATOM      1  O   UNL A   1      36.661  33.604  29.527  1.00  0.00    -0.377 OA
ENDROOT
BRANCH   1   2
ATOM      2  C   UNL A   1      37.110  32.558  28.690  1.00  0.00     0.188 C 
BRANCH   2   3
ATOM      3  C   UNL A   1      35.979  31.792  27.969  1.00  0.00     0.188 C 
BRANCH   3   4
ATOM      4  O   UNL A   1      34.640  32.267  27.981  1.00  0.00    -0.376 OA
BRANCH   4   5
ATOM      5  C   UNL A   1      33.592  31.382  27.618  1.00  0.00     0.202 C 
BRANCH   5   6
ATOM      6  C   UNL A   1      33.900  29.963  27.110  1.00  0.00     0.261 C 
BRANCH   6   7
ATOM      7  O   UNL A   1      32.840  29.259  26.440  1.00  0.00    -0.462 OA
BRANCH   7   8
ATOM      8  C   UNL A   1      33.099  28.779  25.192  1.00  0.00     0.324 C 
ATOM      9  O   UNL A   1      33.731  29.388  24.335  1.00  0.00    -0.250 OA
BRANCH   8  10
ATOM     10  C   UNL A   1      32.467  27.404  24.938  1.00  0.00     0.184 C 
BRANCH  10  11
ATOM     11  N   UNL A   1      32.405  27.048  23.501  1.00  0.00    -0.196 NA
ATOM     12  H   UNL A   1      32.790  27.849  22.999  1.00  0.00     0.142 HD
BRANCH  11  13
ATOM     13  S   UNL A   1      30.989  26.650  22.708  1.00  0.00     0.241 S 
ATOM     14  O   UNL A   1      30.355  25.592  23.462  1.00  0.00    -0.207 OA
ATOM     15  O   UNL A   1      31.349  26.480  21.318  1.00  0.00    -0.207 OA
BRANCH  13  16
ATOM     16  C   UNL A   1      29.827  28.015  22.722  1.00  0.00     0.085 A 
ATOM     17  C   UNL A   1      27.857  26.808  23.829  1.00  0.00     0.046 C 
ATOM     18  C   UNL A   1      28.504  27.986  23.188  1.00  0.00    -0.028 A 
ATOM     19  C   UNL A   1      27.712  29.145  23.055  1.00  0.00     0.044 A 
ATOM     20  C   UNL A   1      28.248  30.321  22.542  1.00  0.00     0.123 A 
ATOM     21  C   UNL A   1      30.356  29.228  22.229  1.00  0.00     0.025 A 
ATOM     22  F   UNL A   1      27.476  31.410  22.445  1.00  0.00    -0.207 F 
ATOM     23  C   UNL A   1      29.572  30.378  22.147  1.00  0.00     0.040 A 
ENDBRANCH  13  16
ENDBRANCH  11  13
ENDBRANCH  10  11
BRANCH  10  24
ATOM     24  C   UNL A   1      33.204  26.389  25.824  1.00  0.00     0.069 C 
BRANCH  24  25
ATOM     25  C   UNL A   1      32.563  25.036  25.983  1.00  0.00    -0.020 A 
ATOM     26  C   UNL A   1      31.504  24.698  26.807  1.00  0.00     0.087 A 
ATOM     27  C   UNL A   1      32.857  23.861  25.212  1.00  0.00     0.003 A 
ATOM     28  N   UNL A   1      31.217  23.368  26.638  1.00  0.00    -0.361 N 
ATOM     29  C   UNL A   1      32.005  22.846  25.644  1.00  0.00     0.046 A 
ATOM     30  C   UNL A   1      33.748  23.575  24.158  1.00  0.00     0.010 A 
ATOM     31  H   UNL A   1      30.546  22.864  27.153  1.00  0.00     0.166 HD
ATOM     32  C   UNL A   1      32.001  21.562  25.089  1.00  0.00     0.026 A 
ATOM     33  C   UNL A   1      33.753  22.300  23.582  1.00  0.00     0.001 A 
ATOM     34  C   UNL A   1      32.891  21.310  24.042  1.00  0.00     0.002 A 
ENDBRANCH  24  25
ENDBRANCH  10  24
ENDBRANCH   8  10
ENDBRANCH   7   8
ENDBRANCH   6   7
ENDBRANCH   5   6
ENDBRANCH   4   5
ENDBRANCH   3   4
ENDBRANCH   2   3
ENDBRANCH   1   2
BRANCH   1  35
ATOM     35  C   UNL A   1      36.882  33.375  30.913  1.00  0.00     0.188 C 
BRANCH  35  36
ATOM     36  C   UNL A   1      35.640  32.967  31.732  1.00  0.00     0.188 C 
BRANCH  36  37
ATOM     37  O   UNL A   1      35.701  31.638  32.246  1.00  0.00    -0.376 OA
BRANCH  37  38
ATOM     38  C   UNL A   1      36.969  31.010  32.364  1.00  0.00     0.202 C 
BRANCH  38  39
ATOM     39  C   UNL A   1      36.996  29.474  32.451  1.00  0.00     0.261 C 
BRANCH  39  40
ATOM     40  O   UNL A   1      38.115  28.820  31.838  1.00  0.00    -0.460 OA
BRANCH  40  41
ATOM     41  C   UNL A   1      39.280  28.795  32.517  1.00  0.00     0.338 C 
ATOM     42  O   UNL A   1      39.603  28.005  33.388  1.00  0.00    -0.246 OA
BRANCH  41  43
ATOM     43  C   UNL A   1      40.198  29.755  31.868  1.00  0.00     0.060 A 
ATOM     44  C   UNL A   1      40.138  29.908  30.475  1.00  0.00     0.016 A 
ATOM     45  C   UNL A   1      41.090  30.519  32.625  1.00  0.00     0.016 A 
ATOM     46  C   UNL A   1      40.997  30.798  29.832  1.00  0.00     0.010 A 
ATOM     47  C   UNL A   1      41.970  31.389  31.976  1.00  0.00     0.010 A 
ATOM     48  C   UNL A   1      41.952  31.503  30.574  1.00  0.00    -0.014 A 
BRANCH  48  49
ATOM     49  C   UNL A   1      43.069  32.179  29.873  1.00  0.00     0.031 A 
ATOM     50  C   UNL A   1      44.314  31.380  29.597  1.00  0.00     0.074 A 
ATOM     51  C   UNL A   1      42.985  33.464  29.484  1.00  0.00     0.049 A 
ATOM     52  N   UNL A   1      45.433  31.755  29.040  1.00  0.00    -0.248 NA
ATOM     53  C   UNL A   1      44.291  29.965  30.008  1.00  0.00     0.031 C 
ATOM     54  C   UNL A   1      41.827  34.333  29.676  1.00  0.00     0.029 A 
ATOM     55  N   UNL A   1      43.912  34.266  28.866  1.00  0.00    -0.354 N 
ATOM     56  C   UNL A   1      46.260  30.637  29.065  1.00  0.00     0.074 A 
ATOM     57  C   UNL A   1      45.515  29.571  29.696  1.00  0.00     0.031 C 
ATOM     58  C   UNL A   1      42.125  35.561  29.213  1.00  0.00     0.029 A 
ATOM     59  C   UNL A   1      43.503  35.570  28.722  1.00  0.00     0.049 A 
ATOM     60  H   UNL A   1      44.788  33.937  28.555  1.00  0.00     0.167 HD
ATOM     61  C   UNL A   1      47.523  30.508  28.598  1.00  0.00     0.034 A 
ATOM     62  C   UNL A   1      44.175  36.650  28.274  1.00  0.00     0.034 A 
ATOM     63  C   UNL A   1      48.256  31.565  27.960  1.00  0.00     0.049 A 
ATOM     64  C   UNL A   1      45.597  36.485  27.795  1.00  0.00     0.074 A 
ATOM     65  C   UNL A   1      49.524  31.520  27.410  1.00  0.00     0.029 A 
ATOM     66  N   UNL A   1      47.797  32.863  27.804  1.00  0.00    -0.354 N 
ATOM     67  N   UNL A   1      46.325  35.397  27.720  1.00  0.00    -0.248 NA
ATOM     68  C   UNL A   1      46.281  37.694  27.309  1.00  0.00     0.031 C 
ATOM     69  C   UNL A   1      49.849  32.802  26.958  1.00  0.00     0.029 A 
ATOM     70  C   UNL A   1      48.764  33.633  27.183  1.00  0.00     0.049 A 
ATOM     71  H   UNL A   1      46.914  33.189  28.093  1.00  0.00     0.167 HD
ATOM     72  C   UNL A   1      47.530  35.780  27.139  1.00  0.00     0.074 A 
ATOM     73  C   UNL A   1      47.428  37.199  26.867  1.00  0.00     0.031 C 
ATOM     74  C   UNL A   1      48.626  35.031  26.865  1.00  0.00     0.034 A 
BRANCH  61  75
ATOM     75  C   UNL A   1      48.195  29.171  28.757  1.00  0.00     0.023 A 
ATOM     76  C   UNL A   1      48.999  28.917  29.887  1.00  0.00     0.012 A 
ATOM     77  C   UNL A   1      47.977  28.146  27.818  1.00  0.00     0.148 A 
ATOM     78  C   UNL A   1      49.597  27.670  30.064  1.00  0.00     0.002 A 
ATOM     79  C   UNL A   1      48.536  26.891  28.026  1.00  0.00     0.091 A 
ATOM     80  F   UNL A   1      47.229  28.418  26.739  1.00  0.00    -0.205 F 
ATOM     81  C   UNL A   1      49.355  26.655  29.142  1.00  0.00     0.022 A 
BRANCH  79  82
ATOM     82  S   UNL A   1      48.218  25.497  26.940  1.00  0.00     0.127 S 
ATOM     83  O   UNL A   1      48.439  26.092  25.623  1.00  0.00    -0.237 OA
ATOM     84  O   UNL A   1      49.246  24.544  27.359  1.00  0.00    -0.237 OA
ATOM     85  O   UNL A   1      46.850  25.077  27.211  1.00  0.00    -0.744 OA
ENDBRANCH  79  82
ENDBRANCH  61  75
BRANCH  62  86
ATOM     86  C   UNL A   1      43.516  37.986  28.238  1.00  0.00     0.023 A 
ATOM     87  C   UNL A   1      42.923  38.442  27.044  1.00  0.00     0.012 A 
ATOM     88  C   UNL A   1      43.483  38.813  29.377  1.00  0.00     0.148 A 
ATOM     89  C   UNL A   1      42.347  39.712  26.974  1.00  0.00     0.002 A 
ATOM     90  C   UNL A   1      42.850  40.050  29.319  1.00  0.00     0.091 A 
ATOM     91  F   UNL A   1      44.069  38.373  30.500  1.00  0.00    -0.205 F 
ATOM     92  C   UNL A   1      42.303  40.511  28.113  1.00  0.00     0.022 A 
BRANCH  90  93
ATOM     93  S   UNL A   1      42.610  41.075  30.774  1.00  0.00     0.127 S 
ATOM     94  O   UNL A   1      43.705  42.033  30.649  1.00  0.00    -0.237 OA
ATOM     95  O   UNL A   1      41.275  41.623  30.533  1.00  0.00    -0.237 OA
ATOM     96  O   UNL A   1      42.683  40.170  31.913  1.00  0.00    -0.744 OA
ENDBRANCH  90  93
ENDBRANCH  62  86
BRANCH  74  97
ATOM     97  C   UNL A   1      49.789  35.704  26.181  1.00  0.00     0.023 A 
ATOM     98  C   UNL A   1      49.943  35.609  24.784  1.00  0.00     0.012 A 
ATOM     99  C   UNL A   1      50.687  36.499  26.923  1.00  0.00     0.148 A 
ATOM    100  C   UNL A   1      50.993  36.266  24.141  1.00  0.00     0.002 A 
ATOM    101  C   UNL A   1      51.697  37.193  26.269  1.00  0.00     0.091 A 
ATOM    102  F   UNL A   1      50.533  36.565  28.253  1.00  0.00    -0.205 F 
ATOM    103  C   UNL A   1      51.861  37.065  24.880  1.00  0.00     0.022 A 
BRANCH 101 104
ATOM    104  S   UNL A   1      52.798  38.327  27.123  1.00  0.00     0.127 S 
ATOM    105  O   UNL A   1      51.933  39.491  27.316  1.00  0.00    -0.237 OA
ATOM    106  O   UNL A   1      53.112  37.590  28.348  1.00  0.00    -0.237 OA
ATOM    107  O   UNL A   1      53.932  38.535  26.233  1.00  0.00    -0.744 OA
ENDBRANCH 101 104
ENDBRANCH  74  97
ENDBRANCH  48  49
ENDBRANCH  41  43
ENDBRANCH  40  41
ENDBRANCH  39  40
ENDBRANCH  38  39
ENDBRANCH  37  38
ENDBRANCH  36  37
ENDBRANCH  35  36
ENDBRANCH   1  35
TORSDOF 28
ENDMDL
