MODEL 1
REMARK VINA RESULT:      -7.1      0.000      0.000
REMARK SMILES CO[C@@H]1C[NH2+][C@@H](O[C@@H]2C[C@@H](C(=O)OCCOCCOCCOCCOC(=O)c3ccc(-c4c5nc(c(-c6cccc(S(=O)(=O)[O-])c6F)c6ccc([nH]6)c(-c6cccc(S(=O)(=O)[O-])c6F)c6nc(c(-c7cccc(S(=O)(=O)[O-])c7F)c7ccc4[nH]7)C=C6)C=C5)cc3)N(C(=O)OC(C)(C)C)C2)c2cc(Cl)ccc21
REMARK SMILES IDX 19 1 18 2 17 3 16 4 15 5 14 6 13 7 11 8 12 9 10 10 8 11 9 12
REMARK SMILES IDX 99 13 91 14 7 15 6 16 3 17 4 18 106 19 5 20 100 21 105 22
REMARK SMILES IDX 101 25 104 26 102 27 103 28 2 29 1 30 92 31 93 32 94 33
REMARK SMILES IDX 95 34 96 35 97 36 98 37 20 38 21 39 22 40 23 41 24 42 25 43
REMARK SMILES IDX 26 44 27 45 28 46 29 47 90 48 30 49 89 50 31 51 32 52 33 53
REMARK SMILES IDX 83 54 34 55 88 56 82 57 84 58 35 59 87 60 81 61 80 62 36 64
REMARK SMILES IDX 68 65 48 66 67 67 49 68 52 69 66 70 85 71 50 72 51 73 65 75
REMARK SMILES IDX 86 76 53 77 37 78 38 79 46 80 39 81 41 82 47 83 40 84 42 85
REMARK SMILES IDX 43 86 44 87 45 88 69 89 70 90 78 91 71 92 73 93 79 94 72 95
REMARK SMILES IDX 74 96 75 97 76 98 77 99 54 100 55 101 63 102 56 103 58 104
REMARK SMILES IDX 64 105 57 106 59 107 60 108 61 109 62 110
REMARK H PARENT 5 23 5 24 84 63 52 74
REMARK Flexibility Score: inf
ROOT
ATOM      1  O   UNL A   1      46.866  24.414  25.276  1.00  0.00    -0.377 OA
ENDROOT
BRANCH   1   2
ATOM      2  C   UNL A   1      46.664  25.729  24.797  1.00  0.00     0.188 C 
BRANCH   2   3
ATOM      3  C   UNL A   1      45.385  26.474  25.159  1.00  0.00     0.188 C 
BRANCH   3   4
ATOM      4  O   UNL A   1      45.384  27.827  24.797  1.00  0.00    -0.376 OA
BRANCH   4   5
ATOM      5  C   UNL A   1      45.224  28.804  25.820  1.00  0.00     0.202 C 
BRANCH   5   6
ATOM      6  C   UNL A   1      46.244  29.919  26.161  1.00  0.00     0.261 C 
BRANCH   6   7
ATOM      7  O   UNL A   1      46.115  31.207  25.513  1.00  0.00    -0.462 OA
BRANCH   7   8
ATOM      8  C   UNL A   1      45.584  32.202  26.275  1.00  0.00     0.329 C 
ATOM      9  O   UNL A   1      44.537  32.084  26.913  1.00  0.00    -0.250 OA
BRANCH   8  10
ATOM     10  C   UNL A   1      46.386  33.515  26.345  1.00  0.00     0.201 C 
ATOM     11  C   UNL A   1      46.503  35.875  26.093  1.00  0.00     0.147 C 
ATOM     12  C   UNL A   1      45.673  34.679  25.647  1.00  0.00     0.071 C 
ATOM     13  C   UNL A   1      47.937  35.316  26.066  1.00  0.00     0.156 C 
ATOM     14  N   UNL A   1      47.829  33.862  26.248  1.00  0.00    -0.292 N 
BRANCH  11  15
ATOM     15  O   UNL A   1      46.083  36.594  27.252  1.00  0.00    -0.320 OA
BRANCH  15  16
ATOM     16  C   UNL A   1      46.117  37.986  27.555  1.00  0.00     0.354 C 
ATOM     17  C   UNL A   1      45.805  39.318  30.214  1.00  0.00     0.203 C 
ATOM     18  C   UNL A   1      47.024  38.453  29.765  1.00  0.00     0.300 C 
ATOM     19  C   UNL A   1      44.701  39.385  29.160  1.00  0.00    -0.002 A 
ATOM     20  N   UNL A   1      47.283  38.369  28.335  1.00  0.00    -0.315 N 
ATOM     21  C   UNL A   1      44.841  38.723  27.917  1.00  0.00     0.046 A 
ATOM     22  C   UNL A   1      43.469  39.990  29.478  1.00  0.00     0.009 A 
ATOM     23  H   UNL A   1      48.016  37.678  28.180  1.00  0.00     0.349 HD
ATOM     24  H   UNL A   1      47.557  39.302  28.026  1.00  0.00     0.349 HD
ATOM     25  C   UNL A   1      43.769  38.739  27.005  1.00  0.00     0.033 A 
ATOM     26  C   UNL A   1      42.397  39.947  28.584  1.00  0.00     0.021 A 
ATOM     27  C   UNL A   1      42.557  39.334  27.347  1.00  0.00     0.041 A 
ATOM     28  Cl  UNL A   1      41.237  39.268  26.246  1.00  0.00    -0.084 Cl
BRANCH  17  29
ATOM     29  O   UNL A   1      46.156  40.649  30.605  1.00  0.00    -0.371 OA
ATOM     30  C   UNL A   1      46.557  41.471  29.516  1.00  0.00     0.196 C 
ENDBRANCH  17  29
ENDBRANCH  15  16
ENDBRANCH  11  15
BRANCH  14  31
ATOM     31  C   UNL A   1      48.991  33.232  26.703  1.00  0.00     0.411 C 
ATOM     32  O   UNL A   1      49.115  32.012  26.643  1.00  0.00    -0.224 OA
BRANCH  31  33
ATOM     33  O   UNL A   1      49.970  34.038  27.208  1.00  0.00    -0.444 OA
BRANCH  33  34
ATOM     34  C   UNL A   1      50.242  34.073  28.655  1.00  0.00     0.106 C 
ATOM     35  C   UNL A   1      49.205  34.875  29.465  1.00  0.00     0.056 C 
ATOM     36  C   UNL A   1      50.379  32.657  29.221  1.00  0.00     0.056 C 
ATOM     37  C   UNL A   1      51.599  34.784  28.843  1.00  0.00     0.056 C 
ENDBRANCH  33  34
ENDBRANCH  31  33
ENDBRANCH  14  31
ENDBRANCH   8  10
ENDBRANCH   7   8
ENDBRANCH   6   7
ENDBRANCH   5   6
ENDBRANCH   4   5
ENDBRANCH   3   4
ENDBRANCH   2   3
ENDBRANCH   1   2
BRANCH   1  38
ATOM     38  C   UNL A   1      46.348  23.373  24.459  1.00  0.00     0.188 C 
BRANCH  38  39
ATOM     39  C   UNL A   1      45.945  22.094  25.201  1.00  0.00     0.188 C 
BRANCH  39  40
ATOM     40  O   UNL A   1      46.145  20.839  24.539  1.00  0.00    -0.376 OA
BRANCH  40  41
ATOM     41  C   UNL A   1      45.043  19.952  24.360  1.00  0.00     0.202 C 
BRANCH  41  42
ATOM     42  C   UNL A   1      44.108  19.916  25.561  1.00  0.00     0.261 C 
BRANCH  42  43
ATOM     43  O   UNL A   1      42.826  20.408  25.168  1.00  0.00    -0.460 OA
BRANCH  43  44
ATOM     44  C   UNL A   1      41.878  20.459  26.139  1.00  0.00     0.338 C 
ATOM     45  O   UNL A   1      41.190  19.555  26.547  1.00  0.00    -0.246 OA
BRANCH  44  46
ATOM     46  C   UNL A   1      42.018  21.788  26.782  1.00  0.00     0.060 A 
ATOM     47  C   UNL A   1      42.195  21.883  28.165  1.00  0.00     0.016 A 
ATOM     48  C   UNL A   1      41.889  22.946  25.999  1.00  0.00     0.016 A 
ATOM     49  C   UNL A   1      42.273  23.132  28.761  1.00  0.00     0.010 A 
ATOM     50  C   UNL A   1      41.977  24.203  26.598  1.00  0.00     0.010 A 
ATOM     51  C   UNL A   1      42.207  24.294  27.975  1.00  0.00    -0.014 A 
BRANCH  51  52
ATOM     52  C   UNL A   1      42.661  25.554  28.591  1.00  0.00     0.031 A 
ATOM     53  C   UNL A   1      44.099  25.936  28.669  1.00  0.00     0.074 A 
ATOM     54  C   UNL A   1      41.691  26.384  29.021  1.00  0.00     0.049 A 
ATOM     55  N   UNL A   1      44.606  27.099  28.975  1.00  0.00    -0.248 NA
ATOM     56  C   UNL A   1      45.098  24.897  28.372  1.00  0.00     0.031 C 
ATOM     57  C   UNL A   1      40.260  26.057  29.039  1.00  0.00     0.029 A 
ATOM     58  N   UNL A   1      41.745  27.665  29.495  1.00  0.00    -0.354 N 
ATOM     59  C   UNL A   1      45.982  26.940  28.917  1.00  0.00     0.074 A 
ATOM     60  C   UNL A   1      46.234  25.560  28.557  1.00  0.00     0.031 C 
ATOM     61  C   UNL A   1      39.570  27.124  29.460  1.00  0.00     0.029 A 
ATOM     62  C   UNL A   1      40.506  28.199  29.761  1.00  0.00     0.049 A 
ATOM     63  H   UNL A   1      42.586  28.157  29.632  1.00  0.00     0.167 HD
ATOM     64  C   UNL A   1      46.932  27.878  29.130  1.00  0.00     0.034 A 
ATOM     65  C   UNL A   1      40.159  29.427  30.186  1.00  0.00     0.034 A 
ATOM     66  C   UNL A   1      46.649  29.245  29.470  1.00  0.00     0.049 A 
ATOM     67  C   UNL A   1      41.236  30.449  30.384  1.00  0.00     0.074 A 
ATOM     68  C   UNL A   1      47.543  30.290  29.626  1.00  0.00     0.029 A 
ATOM     69  N   UNL A   1      45.386  29.755  29.731  1.00  0.00    -0.354 N 
ATOM     70  N   UNL A   1      42.521  30.331  30.158  1.00  0.00    -0.248 NA
ATOM     71  C   UNL A   1      40.824  31.772  30.870  1.00  0.00     0.031 C 
ATOM     72  C   UNL A   1      46.825  31.424  30.007  1.00  0.00     0.029 A 
ATOM     73  C   UNL A   1      45.480  31.092  30.070  1.00  0.00     0.049 A 
ATOM     74  H   UNL A   1      44.548  29.241  29.681  1.00  0.00     0.167 HD
ATOM     75  C   UNL A   1      43.075  31.564  30.470  1.00  0.00     0.074 A 
ATOM     76  C   UNL A   1      41.981  32.423  30.877  1.00  0.00     0.031 C 
ATOM     77  C   UNL A   1      44.375  31.939  30.439  1.00  0.00     0.034 A 
BRANCH  64  78
ATOM     78  C   UNL A   1      48.374  27.495  28.955  1.00  0.00     0.023 A 
ATOM     79  C   UNL A   1      49.018  27.788  27.737  1.00  0.00     0.012 A 
ATOM     80  C   UNL A   1      49.124  26.998  30.039  1.00  0.00     0.148 A 
ATOM     81  C   UNL A   1      50.392  27.596  27.601  1.00  0.00     0.002 A 
ATOM     82  C   UNL A   1      50.496  26.833  29.903  1.00  0.00     0.091 A 
ATOM     83  F   UNL A   1      48.483  26.725  31.184  1.00  0.00    -0.205 F 
ATOM     84  C   UNL A   1      51.131  27.131  28.685  1.00  0.00     0.022 A 
BRANCH  82  85
ATOM     85  S   UNL A   1      51.550  26.285  31.250  1.00  0.00     0.127 S 
ATOM     86  O   UNL A   1      51.073  24.918  31.458  1.00  0.00    -0.237 OA
ATOM     87  O   UNL A   1      52.883  26.384  30.656  1.00  0.00    -0.237 OA
ATOM     88  O   UNL A   1      51.299  27.198  32.357  1.00  0.00    -0.744 OA
ENDBRANCH  82  85
ENDBRANCH  64  78
BRANCH  65  89
ATOM     89  C   UNL A   1      38.723  29.739  30.400  1.00  0.00     0.023 A 
ATOM     90  C   UNL A   1      38.134  29.497  31.655  1.00  0.00     0.012 A 
ATOM     91  C   UNL A   1      37.969  30.364  29.387  1.00  0.00     0.148 A 
ATOM     92  C   UNL A   1      36.810  29.866  31.894  1.00  0.00     0.002 A 
ATOM     93  C   UNL A   1      36.664  30.762  29.645  1.00  0.00     0.091 A 
ATOM     94  F   UNL A   1      38.561  30.587  28.206  1.00  0.00    -0.205 F 
ATOM     95  C   UNL A   1      36.079  30.506  30.895  1.00  0.00     0.022 A 
BRANCH  93  96
ATOM     96  S   UNL A   1      35.681  31.680  28.455  1.00  0.00     0.127 S 
ATOM     97  O   UNL A   1      36.524  32.849  28.213  1.00  0.00    -0.237 OA
ATOM     98  O   UNL A   1      35.603  30.734  27.341  1.00  0.00    -0.237 OA
ATOM     99  O   UNL A   1      34.410  31.948  29.112  1.00  0.00    -0.744 OA
ENDBRANCH  93  96
ENDBRANCH  65  89
BRANCH  77 100
ATOM    100  C   UNL A   1      44.719  33.337  30.866  1.00  0.00     0.023 A 
ATOM    101  C   UNL A   1      44.669  34.373  29.915  1.00  0.00     0.012 A 
ATOM    102  C   UNL A   1      44.912  33.642  32.227  1.00  0.00     0.148 A 
ATOM    103  C   UNL A   1      44.796  35.702  30.315  1.00  0.00     0.002 A 
ATOM    104  C   UNL A   1      45.004  34.969  32.622  1.00  0.00     0.091 A 
ATOM    105  F   UNL A   1      44.955  32.631  33.107  1.00  0.00    -0.205 F 
ATOM    106  C   UNL A   1      44.948  36.000  31.668  1.00  0.00     0.022 A 
BRANCH 104 107
ATOM    107  S   UNL A   1      45.127  35.461  34.345  1.00  0.00     0.127 S 
ATOM    108  O   UNL A   1      44.883  36.901  34.262  1.00  0.00    -0.237 OA
ATOM    109  O   UNL A   1      44.045  34.692  34.960  1.00  0.00    -0.237 OA
ATOM    110  O   UNL A   1      46.467  35.091  34.779  1.00  0.00    -0.744 OA
ENDBRANCH 104 107
ENDBRANCH  77 100
ENDBRANCH  51  52
ENDBRANCH  44  46
ENDBRANCH  43  44
ENDBRANCH  42  43
ENDBRANCH  41  42
ENDBRANCH  40  41
ENDBRANCH  39  40
ENDBRANCH  38  39
ENDBRANCH   1  38
TORSDOF 29
ENDMDL
MODEL 2
REMARK VINA RESULT:      -6.3      2.199      3.859
REMARK SMILES CO[C@@H]1C[NH2+][C@@H](O[C@@H]2C[C@@H](C(=O)OCCOCCOCCOCCOC(=O)c3ccc(-c4c5nc(c(-c6cccc(S(=O)(=O)[O-])c6F)c6ccc([nH]6)c(-c6cccc(S(=O)(=O)[O-])c6F)c6nc(c(-c7cccc(S(=O)(=O)[O-])c7F)c7ccc4[nH]7)C=C6)C=C5)cc3)N(C(=O)OC(C)(C)C)C2)c2cc(Cl)ccc21
REMARK SMILES IDX 19 1 18 2 17 3 16 4 15 5 14 6 13 7 11 8 12 9 10 10 8 11 9 12
REMARK SMILES IDX 99 13 91 14 7 15 6 16 3 17 4 18 106 19 5 20 100 21 105 22
REMARK SMILES IDX 101 25 104 26 102 27 103 28 2 29 1 30 92 31 93 32 94 33
REMARK SMILES IDX 95 34 96 35 97 36 98 37 20 38 21 39 22 40 23 41 24 42 25 43
REMARK SMILES IDX 26 44 27 45 28 46 29 47 90 48 30 49 89 50 31 51 32 52 33 53
REMARK SMILES IDX 83 54 34 55 88 56 82 57 84 58 35 59 87 60 81 61 80 62 36 64
REMARK SMILES IDX 68 65 48 66 67 67 49 68 52 69 66 70 85 71 50 72 51 73 65 75
REMARK SMILES IDX 86 76 53 77 37 78 38 79 46 80 39 81 41 82 47 83 40 84 42 85
REMARK SMILES IDX 43 86 44 87 45 88 69 89 70 90 78 91 71 92 73 93 79 94 72 95
REMARK SMILES IDX 74 96 75 97 76 98 77 99 54 100 55 101 63 102 56 103 58 104
REMARK SMILES IDX 64 105 57 106 59 107 60 108 61 109 62 110
REMARK H PARENT 5 23 5 24 84 63 52 74
REMARK Flexibility Score: inf
ROOT
ATOM      1  O   UNL A   1      47.019  24.797  25.426  1.00  0.00    -0.377 OA
ENDROOT
BRANCH   1   2
ATOM      2  C   UNL A   1      46.523  26.067  25.049  1.00  0.00     0.188 C 
BRANCH   2   3
ATOM      3  C   UNL A   1      45.075  26.429  25.352  1.00  0.00     0.188 C 
BRANCH   3   4
ATOM      4  O   UNL A   1      44.740  27.758  25.061  1.00  0.00    -0.376 OA
BRANCH   4   5
ATOM      5  C   UNL A   1      44.363  28.614  26.133  1.00  0.00     0.202 C 
BRANCH   5   6
ATOM      6  C   UNL A   1      45.223  29.773  26.699  1.00  0.00     0.261 C 
BRANCH   6   7
ATOM      7  O   UNL A   1      44.832  31.137  26.412  1.00  0.00    -0.462 OA
BRANCH   7   8
ATOM      8  C   UNL A   1      44.528  31.904  27.494  1.00  0.00     0.329 C 
ATOM      9  O   UNL A   1      43.710  31.574  28.352  1.00  0.00    -0.250 OA
BRANCH   8  10
ATOM     10  C   UNL A   1      45.298  33.232  27.632  1.00  0.00     0.201 C 
ATOM     11  C   UNL A   1      47.253  34.424  28.263  1.00  0.00     0.147 C 
ATOM     12  C   UNL A   1      46.543  33.102  28.516  1.00  0.00     0.071 C 
ATOM     13  C   UNL A   1      46.085  35.423  28.187  1.00  0.00     0.156 C 
ATOM     14  N   UNL A   1      44.900  34.658  27.772  1.00  0.00    -0.292 N 
BRANCH  11  15
ATOM     15  O   UNL A   1      48.247  34.473  27.240  1.00  0.00    -0.320 OA
BRANCH  15  16
ATOM     16  C   UNL A   1      48.630  35.521  26.353  1.00  0.00     0.354 C 
ATOM     17  C   UNL A   1      51.346  36.138  25.266  1.00  0.00     0.203 C 
ATOM     18  C   UNL A   1      50.473  34.900  24.891  1.00  0.00     0.300 C 
ATOM     19  C   UNL A   1      50.699  37.023  26.331  1.00  0.00    -0.002 A 
ATOM     20  N   UNL A   1      49.033  35.038  25.043  1.00  0.00    -0.315 N 
ATOM     21  C   UNL A   1      49.428  36.705  26.866  1.00  0.00     0.046 A 
ATOM     22  C   UNL A   1      51.433  38.086  26.893  1.00  0.00     0.009 A 
ATOM     23  H   UNL A   1      48.604  34.126  24.890  1.00  0.00     0.349 HD
ATOM     24  H   UNL A   1      48.725  35.732  24.360  1.00  0.00     0.349 HD
ATOM     25  C   UNL A   1      48.902  37.498  27.903  1.00  0.00     0.033 A 
ATOM     26  C   UNL A   1      50.919  38.826  27.961  1.00  0.00     0.021 A 
ATOM     27  C   UNL A   1      49.651  38.537  28.451  1.00  0.00     0.041 A 
ATOM     28  Cl  UNL A   1      49.017  39.437  29.772  1.00  0.00    -0.084 Cl
BRANCH  17  29
ATOM     29  O   UNL A   1      51.709  36.950  24.144  1.00  0.00    -0.371 OA
ATOM     30  C   UNL A   1      53.105  37.204  24.060  1.00  0.00     0.196 C 
ENDBRANCH  17  29
ENDBRANCH  15  16
ENDBRANCH  11  15
BRANCH  14  31
ATOM     31  C   UNL A   1      43.869  35.418  27.210  1.00  0.00     0.411 C 
ATOM     32  O   UNL A   1      43.582  35.314  26.020  1.00  0.00    -0.224 OA
BRANCH  31  33
ATOM     33  O   UNL A   1      43.205  36.267  28.047  1.00  0.00    -0.444 OA
BRANCH  33  34
ATOM     34  C   UNL A   1      43.209  37.719  27.800  1.00  0.00     0.106 C 
ATOM     35  C   UNL A   1      41.990  38.219  27.001  1.00  0.00     0.056 C 
ATOM     36  C   UNL A   1      43.341  38.497  29.112  1.00  0.00     0.056 C 
ATOM     37  C   UNL A   1      44.457  38.029  26.946  1.00  0.00     0.056 C 
ENDBRANCH  33  34
ENDBRANCH  31  33
ENDBRANCH  14  31
ENDBRANCH   8  10
ENDBRANCH   7   8
ENDBRANCH   6   7
ENDBRANCH   5   6
ENDBRANCH   4   5
ENDBRANCH   3   4
ENDBRANCH   2   3
ENDBRANCH   1   2
BRANCH   1  38
ATOM     38  C   UNL A   1      46.471  23.688  24.726  1.00  0.00     0.188 C 
BRANCH  38  39
ATOM     39  C   UNL A   1      46.290  22.412  25.556  1.00  0.00     0.188 C 
BRANCH  39  40
ATOM     40  O   UNL A   1      45.962  21.200  24.865  1.00  0.00    -0.376 OA
BRANCH  40  41
ATOM     41  C   UNL A   1      44.600  20.784  24.776  1.00  0.00     0.202 C 
BRANCH  41  42
ATOM     42  C   UNL A   1      43.717  21.411  25.846  1.00  0.00     0.261 C 
BRANCH  42  43
ATOM     43  O   UNL A   1      42.731  22.229  25.215  1.00  0.00    -0.460 OA
BRANCH  43  44
ATOM     44  C   UNL A   1      41.537  22.330  25.853  1.00  0.00     0.338 C 
ATOM     45  O   UNL A   1      40.656  21.506  25.906  1.00  0.00    -0.246 OA
BRANCH  44  46
ATOM     46  C   UNL A   1      41.616  23.556  26.685  1.00  0.00     0.060 A 
ATOM     47  C   UNL A   1      41.528  23.465  28.076  1.00  0.00     0.016 A 
ATOM     48  C   UNL A   1      41.699  24.808  26.055  1.00  0.00     0.016 A 
ATOM     49  C   UNL A   1      41.553  24.622  28.841  1.00  0.00     0.010 A 
ATOM     50  C   UNL A   1      41.733  25.971  26.825  1.00  0.00     0.010 A 
ATOM     51  C   UNL A   1      41.698  25.874  28.220  1.00  0.00    -0.014 A 
BRANCH  51  52
ATOM     52  C   UNL A   1      42.087  27.011  29.075  1.00  0.00     0.031 A 
ATOM     53  C   UNL A   1      43.508  27.321  29.397  1.00  0.00     0.074 A 
ATOM     54  C   UNL A   1      41.083  27.804  29.496  1.00  0.00     0.049 A 
ATOM     55  N   UNL A   1      43.991  28.406  29.940  1.00  0.00    -0.248 NA
ATOM     56  C   UNL A   1      44.519  26.300  29.078  1.00  0.00     0.031 C 
ATOM     57  C   UNL A   1      39.657  27.533  29.276  1.00  0.00     0.029 A 
ATOM     58  N   UNL A   1      41.096  28.998  30.161  1.00  0.00    -0.354 N 
ATOM     59  C   UNL A   1      45.359  28.205  30.038  1.00  0.00     0.074 A 
ATOM     60  C   UNL A   1      45.632  26.885  29.509  1.00  0.00     0.031 C 
ATOM     61  C   UNL A   1      38.936  28.551  29.760  1.00  0.00     0.029 A 
ATOM     62  C   UNL A   1      39.843  29.534  30.341  1.00  0.00     0.049 A 
ATOM     63  H   UNL A   1      41.921  29.432  30.480  1.00  0.00     0.167 HD
ATOM     64  C   UNL A   1      46.289  29.063  30.513  1.00  0.00     0.034 A 
ATOM     65  C   UNL A   1      39.464  30.698  30.898  1.00  0.00     0.034 A 
ATOM     66  C   UNL A   1      45.987  30.375  31.017  1.00  0.00     0.049 A 
ATOM     67  C   UNL A   1      40.523  31.637  31.388  1.00  0.00     0.074 A 
ATOM     68  C   UNL A   1      46.871  31.351  31.445  1.00  0.00     0.029 A 
ATOM     69  N   UNL A   1      44.710  30.889  31.185  1.00  0.00    -0.354 N 
ATOM     70  N   UNL A   1      41.825  31.504  31.317  1.00  0.00    -0.248 NA
ATOM     71  C   UNL A   1      40.074  32.888  32.011  1.00  0.00     0.031 C 
ATOM     72  C   UNL A   1      46.129  32.442  31.897  1.00  0.00     0.029 A 
ATOM     73  C   UNL A   1      44.781  32.157  31.732  1.00  0.00     0.049 A 
ATOM     74  H   UNL A   1      43.876  30.421  30.949  1.00  0.00     0.167 HD
ATOM     75  C   UNL A   1      42.354  32.655  31.882  1.00  0.00     0.074 A 
ATOM     76  C   UNL A   1      41.231  33.486  32.268  1.00  0.00     0.031 C 
ATOM     77  C   UNL A   1      43.653  32.982  32.078  1.00  0.00     0.034 A 
BRANCH  64  78
ATOM     78  C   UNL A   1      47.733  28.656  30.472  1.00  0.00     0.023 A 
ATOM     79  C   UNL A   1      48.253  27.871  31.519  1.00  0.00     0.012 A 
ATOM     80  C   UNL A   1      48.522  28.913  29.334  1.00  0.00     0.148 A 
ATOM     81  C   UNL A   1      49.540  27.341  31.433  1.00  0.00     0.002 A 
ATOM     82  C   UNL A   1      49.794  28.361  29.244  1.00  0.00     0.091 A 
ATOM     83  F   UNL A   1      48.002  29.667  28.356  1.00  0.00    -0.205 F 
ATOM     84  C   UNL A   1      50.304  27.576  30.292  1.00  0.00     0.022 A 
BRANCH  82  85
ATOM     85  S   UNL A   1      50.843  28.561  27.801  1.00  0.00     0.127 S 
ATOM     86  O   UNL A   1      52.002  27.747  28.167  1.00  0.00    -0.237 OA
ATOM     87  O   UNL A   1      50.012  27.998  26.737  1.00  0.00    -0.237 OA
ATOM     88  O   UNL A   1      51.107  29.989  27.687  1.00  0.00    -0.744 OA
ENDBRANCH  82  85
ENDBRANCH  64  78
BRANCH  65  89
ATOM     89  C   UNL A   1      38.018  31.030  30.967  1.00  0.00     0.023 A 
ATOM     90  C   UNL A   1      37.285  30.722  32.129  1.00  0.00     0.012 A 
ATOM     91  C   UNL A   1      37.396  31.735  29.919  1.00  0.00     0.148 A 
ATOM     92  C   UNL A   1      35.948  31.106  32.240  1.00  0.00     0.002 A 
ATOM     93  C   UNL A   1      36.076  32.147  30.053  1.00  0.00     0.091 A 
ATOM     94  F   UNL A   1      38.123  32.019  28.831  1.00  0.00    -0.205 F 
ATOM     95  C   UNL A   1      35.347  31.826  31.209  1.00  0.00     0.022 A 
BRANCH  93  96
ATOM     96  S   UNL A   1      35.252  33.162  28.822  1.00  0.00     0.127 S 
ATOM     97  O   UNL A   1      33.916  33.298  29.397  1.00  0.00    -0.237 OA
ATOM     98  O   UNL A   1      36.062  34.380  28.848  1.00  0.00    -0.237 OA
ATOM     99  O   UNL A   1      35.326  32.412  27.576  1.00  0.00    -0.744 OA
ENDBRANCH  93  96
ENDBRANCH  65  89
BRANCH  77 100
ATOM    100  C   UNL A   1      43.961  34.286  32.753  1.00  0.00     0.023 A 
ATOM    101  C   UNL A   1      44.077  35.450  31.970  1.00  0.00     0.012 A 
ATOM    102  C   UNL A   1      43.956  34.383  34.158  1.00  0.00     0.148 A 
ATOM    103  C   UNL A   1      44.174  36.700  32.577  1.00  0.00     0.002 A 
ATOM    104  C   UNL A   1      44.019  35.635  34.756  1.00  0.00     0.091 A 
ATOM    105  F   UNL A   1      43.845  33.255  34.874  1.00  0.00    -0.205 F 
ATOM    106  C   UNL A   1      44.130  36.793  33.967  1.00  0.00     0.022 A 
BRANCH 104 107
ATOM    107  S   UNL A   1      43.895  35.867  36.532  1.00  0.00     0.127 S 
ATOM    108  O   UNL A   1      45.085  35.162  37.008  1.00  0.00    -0.237 OA
ATOM    109  O   UNL A   1      43.958  37.324  36.654  1.00  0.00    -0.237 OA
ATOM    110  O   UNL A   1      42.628  35.271  36.932  1.00  0.00    -0.744 OA
ENDBRANCH 104 107
ENDBRANCH  77 100
ENDBRANCH  51  52
ENDBRANCH  44  46
ENDBRANCH  43  44
ENDBRANCH  42  43
ENDBRANCH  41  42
ENDBRANCH  40  41
ENDBRANCH  39  40
ENDBRANCH  38  39
ENDBRANCH   1  38
TORSDOF 29
ENDMDL
MODEL 3
REMARK VINA RESULT:      -5.7      4.455      9.700
REMARK SMILES CO[C@@H]1C[NH2+][C@@H](O[C@@H]2C[C@@H](C(=O)OCCOCCOCCOCCOC(=O)c3ccc(-c4c5nc(c(-c6cccc(S(=O)(=O)[O-])c6F)c6ccc([nH]6)c(-c6cccc(S(=O)(=O)[O-])c6F)c6nc(c(-c7cccc(S(=O)(=O)[O-])c7F)c7ccc4[nH]7)C=C6)C=C5)cc3)N(C(=O)OC(C)(C)C)C2)c2cc(Cl)ccc21
REMARK SMILES IDX 19 1 18 2 17 3 16 4 15 5 14 6 13 7 11 8 12 9 10 10 8 11 9 12
REMARK SMILES IDX 99 13 91 14 7 15 6 16 3 17 4 18 106 19 5 20 100 21 105 22
REMARK SMILES IDX 101 25 104 26 102 27 103 28 2 29 1 30 92 31 93 32 94 33
REMARK SMILES IDX 95 34 96 35 97 36 98 37 20 38 21 39 22 40 23 41 24 42 25 43
REMARK SMILES IDX 26 44 27 45 28 46 29 47 90 48 30 49 89 50 31 51 32 52 33 53
REMARK SMILES IDX 83 54 34 55 88 56 82 57 84 58 35 59 87 60 81 61 80 62 36 64
REMARK SMILES IDX 68 65 48 66 67 67 49 68 52 69 66 70 85 71 50 72 51 73 65 75
REMARK SMILES IDX 86 76 53 77 37 78 38 79 46 80 39 81 41 82 47 83 40 84 42 85
REMARK SMILES IDX 43 86 44 87 45 88 69 89 70 90 78 91 71 92 73 93 79 94 72 95
REMARK SMILES IDX 74 96 75 97 76 98 77 99 54 100 55 101 63 102 56 103 58 104
REMARK SMILES IDX 64 105 57 106 59 107 60 108 61 109 62 110
REMARK H PARENT 5 23 5 24 84 63 52 74
REMARK Flexibility Score: inf
ROOT
ATOM      1  O   UNL A   1      41.865  26.172  27.564  1.00  0.00    -0.377 OA
ENDROOT
BRANCH   1   2
ATOM      2  C   UNL A   1      41.311  26.642  26.351  1.00  0.00     0.188 C 
BRANCH   2   3
ATOM      3  C   UNL A   1      41.698  28.021  25.831  1.00  0.00     0.188 C 
BRANCH   3   4
ATOM      4  O   UNL A   1      41.100  29.085  26.520  1.00  0.00    -0.376 OA
BRANCH   4   5
ATOM      5  C   UNL A   1      39.764  28.928  26.985  1.00  0.00     0.202 C 
BRANCH   5   6
ATOM      6  C   UNL A   1      39.268  29.267  28.414  1.00  0.00     0.261 C 
BRANCH   6   7
ATOM      7  O   UNL A   1      37.946  29.834  28.578  1.00  0.00    -0.462 OA
BRANCH   7   8
ATOM      8  C   UNL A   1      37.545  30.033  29.863  1.00  0.00     0.329 C 
ATOM      9  O   UNL A   1      36.732  29.311  30.441  1.00  0.00    -0.250 OA
BRANCH   8  10
ATOM     10  C   UNL A   1      38.194  31.215  30.609  1.00  0.00     0.201 C 
ATOM     11  C   UNL A   1      39.333  32.080  32.506  1.00  0.00     0.147 C 
ATOM     12  C   UNL A   1      38.461  30.905  32.086  1.00  0.00     0.071 C 
ATOM     13  C   UNL A   1      38.695  33.258  31.750  1.00  0.00     0.156 C 
ATOM     14  N   UNL A   1      38.021  32.692  30.574  1.00  0.00    -0.292 N 
BRANCH  11  15
ATOM     15  O   UNL A   1      40.751  31.927  32.438  1.00  0.00    -0.320 OA
BRANCH  15  16
ATOM     16  C   UNL A   1      41.695  32.355  31.460  1.00  0.00     0.354 C 
ATOM     17  C   UNL A   1      44.047  30.866  30.369  1.00  0.00     0.203 C 
ATOM     18  C   UNL A   1      42.548  30.526  30.101  1.00  0.00     0.300 C 
ATOM     19  C   UNL A   1      44.230  32.040  31.330  1.00  0.00    -0.002 A 
ATOM     20  N   UNL A   1      41.594  31.618  30.211  1.00  0.00    -0.315 N 
ATOM     21  C   UNL A   1      43.110  32.718  31.869  1.00  0.00     0.046 A 
ATOM     22  C   UNL A   1      45.518  32.364  31.799  1.00  0.00     0.009 A 
ATOM     23  H   UNL A   1      40.653  31.233  30.140  1.00  0.00     0.349 HD
ATOM     24  H   UNL A   1      41.802  32.275  29.459  1.00  0.00     0.349 HD
ATOM     25  C   UNL A   1      43.317  33.741  32.815  1.00  0.00     0.033 A 
ATOM     26  C   UNL A   1      45.700  33.342  32.779  1.00  0.00     0.021 A 
ATOM     27  C   UNL A   1      44.600  34.035  33.272  1.00  0.00     0.041 A 
ATOM     28  Cl  UNL A   1      44.815  35.233  34.486  1.00  0.00    -0.084 Cl
BRANCH  17  29
ATOM     29  O   UNL A   1      44.804  31.116  29.180  1.00  0.00    -0.371 OA
ATOM     30  C   UNL A   1      44.183  30.620  28.001  1.00  0.00     0.196 C 
ENDBRANCH  17  29
ENDBRANCH  15  16
ENDBRANCH  11  15
BRANCH  14  31
ATOM     31  C   UNL A   1      37.777  33.596  29.535  1.00  0.00     0.411 C 
ATOM     32  O   UNL A   1      38.417  34.641  29.442  1.00  0.00    -0.224 OA
BRANCH  31  33
ATOM     33  O   UNL A   1      36.805  33.257  28.640  1.00  0.00    -0.444 OA
BRANCH  33  34
ATOM     34  C   UNL A   1      35.381  33.405  28.986  1.00  0.00     0.106 C 
ATOM     35  C   UNL A   1      34.598  32.078  28.987  1.00  0.00     0.056 C 
ATOM     36  C   UNL A   1      35.215  34.123  30.327  1.00  0.00     0.056 C 
ATOM     37  C   UNL A   1      34.743  34.296  27.898  1.00  0.00     0.056 C 
ENDBRANCH  33  34
ENDBRANCH  31  33
ENDBRANCH  14  31
ENDBRANCH   8  10
ENDBRANCH   7   8
ENDBRANCH   6   7
ENDBRANCH   5   6
ENDBRANCH   4   5
ENDBRANCH   3   4
ENDBRANCH   2   3
ENDBRANCH   1   2
BRANCH   1  38
ATOM     38  C   UNL A   1      40.991  25.416  28.390  1.00  0.00     0.188 C 
BRANCH  38  39
ATOM     39  C   UNL A   1      39.599  25.155  27.808  1.00  0.00     0.188 C 
BRANCH  39  40
ATOM     40  O   UNL A   1      39.239  23.802  27.499  1.00  0.00    -0.376 OA
BRANCH  40  41
ATOM     41  C   UNL A   1      39.980  23.081  26.516  1.00  0.00     0.202 C 
BRANCH  41  42
ATOM     42  C   UNL A   1      40.328  21.666  26.955  1.00  0.00     0.261 C 
BRANCH  42  43
ATOM     43  O   UNL A   1      41.682  21.639  27.410  1.00  0.00    -0.460 OA
BRANCH  43  44
ATOM     44  C   UNL A   1      42.631  21.955  26.491  1.00  0.00     0.338 C 
ATOM     45  O   UNL A   1      42.650  21.663  25.320  1.00  0.00    -0.246 OA
BRANCH  44  46
ATOM     46  C   UNL A   1      43.525  22.941  27.144  1.00  0.00     0.060 A 
ATOM     47  C   UNL A   1      44.056  24.002  26.406  1.00  0.00     0.016 A 
ATOM     48  C   UNL A   1      43.894  22.750  28.485  1.00  0.00     0.016 A 
ATOM     49  C   UNL A   1      44.931  24.889  27.014  1.00  0.00     0.010 A 
ATOM     50  C   UNL A   1      44.768  23.648  29.099  1.00  0.00     0.010 A 
ATOM     51  C   UNL A   1      45.256  24.739  28.372  1.00  0.00    -0.014 A 
BRANCH  51  52
ATOM     52  C   UNL A   1      45.875  25.893  29.051  1.00  0.00     0.031 A 
ATOM     53  C   UNL A   1      45.285  26.519  30.266  1.00  0.00     0.074 A 
ATOM     54  C   UNL A   1      47.053  26.310  28.549  1.00  0.00     0.049 A 
ATOM     55  N   UNL A   1      45.839  27.378  31.078  1.00  0.00    -0.248 NA
ATOM     56  C   UNL A   1      43.907  26.147  30.626  1.00  0.00     0.031 C 
ATOM     57  C   UNL A   1      47.669  25.790  27.321  1.00  0.00     0.029 A 
ATOM     58  N   UNL A   1      47.953  27.232  29.006  1.00  0.00    -0.354 N 
ATOM     59  C   UNL A   1      44.884  27.660  32.042  1.00  0.00     0.074 A 
ATOM     60  C   UNL A   1      43.705  26.888  31.709  1.00  0.00     0.031 C 
ATOM     61  C   UNL A   1      48.862  26.371  27.147  1.00  0.00     0.029 A 
ATOM     62  C   UNL A   1      49.088  27.315  28.235  1.00  0.00     0.049 A 
ATOM     63  H   UNL A   1      47.804  27.781  29.810  1.00  0.00     0.167 HD
ATOM     64  C   UNL A   1      45.006  28.478  33.112  1.00  0.00     0.034 A 
ATOM     65  C   UNL A   1      50.197  28.058  28.392  1.00  0.00     0.034 A 
ATOM     66  C   UNL A   1      46.198  29.219  33.424  1.00  0.00     0.049 A 
ATOM     67  C   UNL A   1      50.309  28.932  29.604  1.00  0.00     0.074 A 
ATOM     68  C   UNL A   1      46.445  30.012  34.532  1.00  0.00     0.029 A 
ATOM     69  N   UNL A   1      47.328  29.281  32.625  1.00  0.00    -0.354 N 
ATOM     70  N   UNL A   1      49.465  29.056  30.598  1.00  0.00    -0.248 NA
ATOM     71  C   UNL A   1      51.523  29.747  29.733  1.00  0.00     0.031 C 
ATOM     72  C   UNL A   1      47.714  30.575  34.389  1.00  0.00     0.029 A 
ATOM     73  C   UNL A   1      48.267  30.118  33.202  1.00  0.00     0.049 A 
ATOM     74  H   UNL A   1      47.446  28.801  31.773  1.00  0.00     0.167 HD
ATOM     75  C   UNL A   1      50.044  29.961  31.476  1.00  0.00     0.074 A 
ATOM     76  C   UNL A   1      51.325  30.334  30.907  1.00  0.00     0.031 C 
ATOM     77  C   UNL A   1      49.549  30.449  32.637  1.00  0.00     0.034 A 
BRANCH  64  78
ATOM     78  C   UNL A   1      43.853  28.591  34.067  1.00  0.00     0.023 A 
ATOM     79  C   UNL A   1      42.901  29.611  33.874  1.00  0.00     0.012 A 
ATOM     80  C   UNL A   1      43.630  27.604  35.047  1.00  0.00     0.148 A 
ATOM     81  C   UNL A   1      41.737  29.645  34.640  1.00  0.00     0.002 A 
ATOM     82  C   UNL A   1      42.456  27.630  35.790  1.00  0.00     0.091 A 
ATOM     83  F   UNL A   1      44.555  26.649  35.211  1.00  0.00    -0.205 F 
ATOM     84  C   UNL A   1      41.510  28.649  35.588  1.00  0.00     0.022 A 
BRANCH  82  85
ATOM     85  S   UNL A   1      42.041  26.372  37.001  1.00  0.00     0.127 S 
ATOM     86  O   UNL A   1      40.721  26.818  37.446  1.00  0.00    -0.237 OA
ATOM     87  O   UNL A   1      42.033  25.155  36.189  1.00  0.00    -0.237 OA
ATOM     88  O   UNL A   1      43.083  26.429  38.017  1.00  0.00    -0.744 OA
ENDBRANCH  82  85
ENDBRANCH  64  78
BRANCH  65  89
ATOM     89  C   UNL A   1      51.286  27.955  27.388  1.00  0.00     0.023 A 
ATOM     90  C   UNL A   1      51.374  28.902  26.352  1.00  0.00     0.012 A 
ATOM     91  C   UNL A   1      52.287  26.973  27.519  1.00  0.00     0.148 A 
ATOM     92  C   UNL A   1      52.441  28.866  25.453  1.00  0.00     0.002 A 
ATOM     93  C   UNL A   1      53.366  26.967  26.645  1.00  0.00     0.091 A 
ATOM     94  F   UNL A   1      52.179  26.090  28.521  1.00  0.00    -0.205 F 
ATOM     95  C   UNL A   1      53.441  27.907  25.605  1.00  0.00     0.022 A 
BRANCH  93  96
ATOM     96  S   UNL A   1      54.748  25.833  26.824  1.00  0.00     0.127 S 
ATOM     97  O   UNL A   1      54.972  25.865  28.267  1.00  0.00    -0.237 OA
ATOM     98  O   UNL A   1      54.178  24.586  26.314  1.00  0.00    -0.237 OA
ATOM     99  O   UNL A   1      55.822  26.385  26.010  1.00  0.00    -0.744 OA
ENDBRANCH  93  96
ENDBRANCH  65  89
BRANCH  77 100
ATOM    100  C   UNL A   1      50.369  31.457  33.388  1.00  0.00     0.023 A 
ATOM    101  C   UNL A   1      50.110  32.827  33.195  1.00  0.00     0.012 A 
ATOM    102  C   UNL A   1      51.257  31.046  34.400  1.00  0.00     0.148 A 
ATOM    103  C   UNL A   1      50.719  33.779  34.011  1.00  0.00     0.002 A 
ATOM    104  C   UNL A   1      51.834  31.998  35.230  1.00  0.00     0.091 A 
ATOM    105  F   UNL A   1      51.483  29.733  34.556  1.00  0.00    -0.205 F 
ATOM    106  C   UNL A   1      51.567  33.364  35.036  1.00  0.00     0.022 A 
BRANCH 104 107
ATOM    107  S   UNL A   1      52.880  31.562  36.624  1.00  0.00     0.127 S 
ATOM    108  O   UNL A   1      53.185  32.876  37.189  1.00  0.00    -0.237 OA
ATOM    109  O   UNL A   1      51.982  30.741  37.435  1.00  0.00    -0.237 OA
ATOM    110  O   UNL A   1      54.025  30.855  36.067  1.00  0.00    -0.744 OA
ENDBRANCH 104 107
ENDBRANCH  77 100
ENDBRANCH  51  52
ENDBRANCH  44  46
ENDBRANCH  43  44
ENDBRANCH  42  43
ENDBRANCH  41  42
ENDBRANCH  40  41
ENDBRANCH  39  40
ENDBRANCH  38  39
ENDBRANCH   1  38
TORSDOF 29
ENDMDL
