MODEL 1
REMARK VINA RESULT:     -10.9      0.000      0.000
REMARK SMILES O=C(OCCOCCOCCOCCOC(=O)[C@H]1[C@H]2CC[C@H](CC2)[C@H]1C(=O)Nc1ccc(C(=O)N2CCCC2)cc1)c1ccc(-c2c3nc(c(-c4cccc(S(=O)(=O)[O-])c4F)c4ccc([nH]4)c(-c4cccc(S(=O)(=O)[O-])c4F)c4nc(c(-c5cccc(S(=O)(=O)[O-])c5F)c5ccc2[nH]5)C=C4)C=C3)cc1
REMARK SMILES IDX 9 1 8 2 7 3 6 4 5 5 4 6 3 7 2 8 1 9 42 10 43 11 104 12 44 13
REMARK SMILES IDX 103 14 45 15 46 16 47 17 97 18 48 19 102 20 96 21 98 22
REMARK SMILES IDX 49 23 101 24 95 25 94 26 50 28 82 29 62 30 81 31 63 32 66 33
REMARK SMILES IDX 80 34 99 35 64 36 65 37 79 39 100 40 67 41 51 42 52 43 60 44
REMARK SMILES IDX 53 45 55 46 61 47 54 48 56 49 57 50 58 51 59 52 83 53 84 54
REMARK SMILES IDX 92 55 85 56 87 57 93 58 86 59 88 60 89 61 90 62 91 63 68 64
REMARK SMILES IDX 69 65 77 66 70 67 72 68 78 69 71 70 73 71 74 72 75 73 76 74
REMARK SMILES IDX 10 75 11 76 12 77 13 78 14 79 15 80 16 81 17 82 18 83 19 84
REMARK SMILES IDX 25 85 24 86 20 87 22 88 23 89 21 90 26 91 27 92 28 93 29 95
REMARK SMILES IDX 30 96 41 97 31 98 40 99 32 100 33 101 34 102 35 103 36 104
REMARK SMILES IDX 39 105 37 106 38 107
REMARK H PARENT 98 27 66 38 28 94
REMARK Flexibility Score: inf
ROOT
ATOM      1  O   UNL A   1      34.705  30.991  28.283  1.00  0.00    -0.377 OA
ENDROOT
BRANCH   1   2
ATOM      2  C   UNL A   1      34.688  32.393  28.005  1.00  0.00     0.188 C 
BRANCH   2   3
ATOM      3  C   UNL A   1      34.569  33.237  29.260  1.00  0.00     0.188 C 
BRANCH   3   4
ATOM      4  O   UNL A   1      33.441  34.081  29.072  1.00  0.00    -0.376 OA
BRANCH   4   5
ATOM      5  C   UNL A   1      33.697  35.436  28.805  1.00  0.00     0.202 C 
BRANCH   5   6
ATOM      6  C   UNL A   1      32.949  36.449  29.658  1.00  0.00     0.261 C 
BRANCH   6   7
ATOM      7  O   UNL A   1      32.380  35.873  30.857  1.00  0.00    -0.460 OA
BRANCH   7   8
ATOM      8  C   UNL A   1      32.961  35.981  32.098  1.00  0.00     0.338 C 
ATOM      9  O   UNL A   1      32.602  36.794  32.919  1.00  0.00    -0.246 OA
BRANCH   8  10
ATOM     10  C   UNL A   1      34.124  35.099  32.333  1.00  0.00     0.060 A 
ATOM     11  C   UNL A   1      33.842  33.858  32.845  1.00  0.00     0.016 A 
ATOM     12  C   UNL A   1      35.446  35.501  32.236  1.00  0.00     0.016 A 
ATOM     13  C   UNL A   1      34.732  33.271  33.703  1.00  0.00     0.010 A 
ATOM     14  C   UNL A   1      36.433  34.635  32.734  1.00  0.00     0.010 A 
ATOM     15  C   UNL A   1      36.070  33.515  33.512  1.00  0.00    -0.014 A 
BRANCH  15  16
ATOM     16  C   UNL A   1      37.024  32.531  34.075  1.00  0.00     0.031 A 
ATOM     17  C   UNL A   1      37.601  32.803  35.423  1.00  0.00     0.074 A 
ATOM     18  C   UNL A   1      37.384  31.432  33.365  1.00  0.00     0.049 A 
ATOM     19  N   UNL A   1      38.732  32.403  35.921  1.00  0.00    -0.248 NA
ATOM     20  C   UNL A   1      36.815  33.673  36.317  1.00  0.00     0.031 C 
ATOM     21  C   UNL A   1      36.785  30.968  32.100  1.00  0.00     0.029 A 
ATOM     22  N   UNL A   1      38.372  30.502  33.588  1.00  0.00    -0.354 N 
ATOM     23  C   UNL A   1      38.873  33.097  37.112  1.00  0.00     0.074 A 
ATOM     24  C   UNL A   1      37.669  33.872  37.312  1.00  0.00     0.031 C 
ATOM     25  C   UNL A   1      37.385  29.849  31.683  1.00  0.00     0.029 A 
ATOM     26  C   UNL A   1      38.540  29.639  32.521  1.00  0.00     0.049 A 
ATOM     27  H   UNL A   1      38.901  30.456  34.416  1.00  0.00     0.167 HD
ATOM     28  C   UNL A   1      39.959  33.114  37.914  1.00  0.00     0.034 A 
ATOM     29  C   UNL A   1      39.585  28.872  32.164  1.00  0.00     0.034 A 
ATOM     30  C   UNL A   1      41.101  32.277  37.673  1.00  0.00     0.049 A 
ATOM     31  C   UNL A   1      40.785  28.929  33.055  1.00  0.00     0.074 A 
ATOM     32  C   UNL A   1      42.268  32.172  38.402  1.00  0.00     0.029 A 
ATOM     33  N   UNL A   1      41.209  31.399  36.601  1.00  0.00    -0.354 N 
ATOM     34  N   UNL A   1      40.947  29.605  34.168  1.00  0.00    -0.248 NA
ATOM     35  C   UNL A   1      41.950  28.139  32.645  1.00  0.00     0.031 C 
ATOM     36  C   UNL A   1      43.097  31.254  37.748  1.00  0.00     0.029 A 
ATOM     37  C   UNL A   1      42.431  30.760  36.634  1.00  0.00     0.049 A 
ATOM     38  H   UNL A   1      40.516  31.254  35.917  1.00  0.00     0.167 HD
ATOM     39  C   UNL A   1      42.227  29.312  34.605  1.00  0.00     0.074 A 
ATOM     40  C   UNL A   1      42.783  28.368  33.651  1.00  0.00     0.031 C 
ATOM     41  C   UNL A   1      42.901  29.791  35.677  1.00  0.00     0.034 A 
BRANCH  28  42
ATOM     42  C   UNL A   1      39.993  34.115  39.032  1.00  0.00     0.023 A 
ATOM     43  C   UNL A   1      40.618  35.366  38.871  1.00  0.00     0.012 A 
ATOM     44  C   UNL A   1      39.383  33.800  40.264  1.00  0.00     0.148 A 
ATOM     45  C   UNL A   1      40.661  36.276  39.929  1.00  0.00     0.002 A 
ATOM     46  C   UNL A   1      39.388  34.726  41.296  1.00  0.00     0.091 A 
ATOM     47  F   UNL A   1      38.822  32.590  40.404  1.00  0.00    -0.205 F 
ATOM     48  C   UNL A   1      40.038  35.961  41.135  1.00  0.00     0.022 A 
BRANCH  46  49
ATOM     49  S   UNL A   1      38.564  34.439  42.865  1.00  0.00     0.127 S 
ATOM     50  O   UNL A   1      39.403  35.206  43.785  1.00  0.00    -0.237 OA
ATOM     51  O   UNL A   1      37.242  35.016  42.620  1.00  0.00    -0.237 OA
ATOM     52  O   UNL A   1      38.580  32.998  43.075  1.00  0.00    -0.744 OA
ENDBRANCH  46  49
ENDBRANCH  28  42
BRANCH  29  53
ATOM     53  C   UNL A   1      39.578  28.098  30.882  1.00  0.00     0.023 A 
ATOM     54  C   UNL A   1      38.894  26.870  30.824  1.00  0.00     0.012 A 
ATOM     55  C   UNL A   1      40.227  28.569  29.718  1.00  0.00     0.148 A 
ATOM     56  C   UNL A   1      38.894  26.107  29.653  1.00  0.00     0.002 A 
ATOM     57  C   UNL A   1      40.167  27.836  28.537  1.00  0.00     0.091 A 
ATOM     58  F   UNL A   1      40.888  29.734  29.781  1.00  0.00    -0.205 F 
ATOM     59  C   UNL A   1      39.521  26.593  28.509  1.00  0.00     0.022 A 
BRANCH  57  60
ATOM     60  S   UNL A   1      40.826  28.457  26.982  1.00  0.00     0.127 S 
ATOM     61  O   UNL A   1      40.994  27.226  26.216  1.00  0.00    -0.237 OA
ATOM     62  O   UNL A   1      39.747  29.329  26.517  1.00  0.00    -0.237 OA
ATOM     63  O   UNL A   1      42.051  29.164  27.333  1.00  0.00    -0.744 OA
ENDBRANCH  57  60
ENDBRANCH  29  53
BRANCH  41  64
ATOM     64  C   UNL A   1      44.287  29.264  35.885  1.00  0.00     0.023 A 
ATOM     65  C   UNL A   1      45.391  29.993  35.405  1.00  0.00     0.012 A 
ATOM     66  C   UNL A   1      44.484  28.100  36.647  1.00  0.00     0.148 A 
ATOM     67  C   UNL A   1      46.684  29.554  35.671  1.00  0.00     0.002 A 
ATOM     68  C   UNL A   1      45.774  27.705  36.960  1.00  0.00     0.091 A 
ATOM     69  F   UNL A   1      43.406  27.420  37.068  1.00  0.00    -0.205 F 
ATOM     70  C   UNL A   1      46.874  28.422  36.462  1.00  0.00     0.022 A 
BRANCH  68  71
ATOM     71  S   UNL A   1      46.109  26.335  38.067  1.00  0.00     0.127 S 
ATOM     72  O   UNL A   1      45.503  25.216  37.348  1.00  0.00    -0.237 OA
ATOM     73  O   UNL A   1      47.571  26.321  38.102  1.00  0.00    -0.237 OA
ATOM     74  O   UNL A   1      45.476  26.673  39.335  1.00  0.00    -0.744 OA
ENDBRANCH  68  71
ENDBRANCH  41  64
ENDBRANCH  15  16
ENDBRANCH   8  10
ENDBRANCH   7   8
ENDBRANCH   6   7
ENDBRANCH   5   6
ENDBRANCH   4   5
ENDBRANCH   3   4
ENDBRANCH   2   3
ENDBRANCH   1   2
BRANCH   1  75
ATOM     75  C   UNL A   1      34.091  30.115  27.355  1.00  0.00     0.188 C 
BRANCH  75  76
ATOM     76  C   UNL A   1      32.809  30.663  26.738  1.00  0.00     0.188 C 
BRANCH  76  77
ATOM     77  O   UNL A   1      31.729  29.762  26.622  1.00  0.00    -0.376 OA
BRANCH  77  78
ATOM     78  C   UNL A   1      31.377  29.262  25.334  1.00  0.00     0.202 C 
BRANCH  78  79
ATOM     79  C   UNL A   1      32.446  28.801  24.313  1.00  0.00     0.261 C 
BRANCH  79  80
ATOM     80  O   UNL A   1      32.701  27.376  24.118  1.00  0.00    -0.463 OA
BRANCH  80  81
ATOM     81  C   UNL A   1      33.336  26.699  25.110  1.00  0.00     0.310 C 
ATOM     82  O   UNL A   1      34.314  27.128  25.720  1.00  0.00    -0.252 OA
BRANCH  81  83
ATOM     83  C   UNL A   1      32.882  25.239  25.334  1.00  0.00     0.115 C 
ATOM     84  C   UNL A   1      31.366  24.740  25.265  1.00  0.00     0.004 C 
ATOM     85  C   UNL A   1      33.833  24.070  25.142  1.00  0.00     0.096 C 
ATOM     86  C   UNL A   1      31.006  23.436  24.447  1.00  0.00     0.005 C 
ATOM     87  C   UNL A   1      31.117  24.194  26.685  1.00  0.00     0.005 C 
ATOM     88  C   UNL A   1      33.062  22.789  25.627  1.00  0.00     0.002 C 
ATOM     89  C   UNL A   1      32.078  22.355  24.555  1.00  0.00     0.005 C 
ATOM     90  C   UNL A   1      32.177  23.073  26.916  1.00  0.00     0.005 C 
BRANCH  85  91
ATOM     91  C   UNL A   1      34.755  23.942  23.886  1.00  0.00     0.228 C 
ATOM     92  O   UNL A   1      34.251  24.268  22.797  1.00  0.00    -0.274 OA
ATOM     93  N   UNL A   1      36.092  23.652  23.823  1.00  0.00    -0.326 N 
ATOM     94  H   UNL A   1      36.492  23.876  22.951  1.00  0.00     0.169 HD
BRANCH  93  95
ATOM     95  C   UNL A   1      37.019  23.107  24.722  1.00  0.00     0.041 A 
ATOM     96  C   UNL A   1      37.367  21.756  24.711  1.00  0.00     0.027 A 
ATOM     97  C   UNL A   1      37.626  23.887  25.667  1.00  0.00     0.027 A 
ATOM     98  C   UNL A   1      38.466  21.297  25.485  1.00  0.00     0.016 A 
ATOM     99  C   UNL A   1      38.712  23.464  26.427  1.00  0.00     0.016 A 
ATOM    100  C   UNL A   1      39.202  22.180  26.300  1.00  0.00     0.040 A 
BRANCH 100 101
ATOM    101  C   UNL A   1      40.524  21.794  26.891  1.00  0.00     0.253 C 
ATOM    102  O   UNL A   1      40.528  20.958  27.795  1.00  0.00    -0.269 OA
ATOM    103  N   UNL A   1      41.704  22.186  26.255  1.00  0.00    -0.339 N 
ATOM    104  C   UNL A   1      42.239  23.527  26.031  1.00  0.00     0.120 C 
ATOM    105  C   UNL A   1      42.771  21.216  26.108  1.00  0.00     0.120 C 
ATOM    106  C   UNL A   1      43.392  23.309  25.074  1.00  0.00     0.023 C 
ATOM    107  C   UNL A   1      43.965  21.981  25.542  1.00  0.00     0.023 C 
ENDBRANCH 100 101
ENDBRANCH  93  95
ENDBRANCH  85  91
ENDBRANCH  81  83
ENDBRANCH  80  81
ENDBRANCH  79  80
ENDBRANCH  78  79
ENDBRANCH  77  78
ENDBRANCH  76  77
ENDBRANCH  75  76
ENDBRANCH   1  75
TORSDOF 26
ENDMDL
MODEL 2
REMARK VINA RESULT:     -10.8      6.995     12.899
REMARK SMILES O=C(OCCOCCOCCOCCOC(=O)[C@H]1[C@H]2CC[C@H](CC2)[C@H]1C(=O)Nc1ccc(C(=O)N2CCCC2)cc1)c1ccc(-c2c3nc(c(-c4cccc(S(=O)(=O)[O-])c4F)c4ccc([nH]4)c(-c4cccc(S(=O)(=O)[O-])c4F)c4nc(c(-c5cccc(S(=O)(=O)[O-])c5F)c5ccc2[nH]5)C=C4)C=C3)cc1
REMARK SMILES IDX 9 1 8 2 7 3 6 4 5 5 4 6 3 7 2 8 1 9 42 10 43 11 104 12 44 13
REMARK SMILES IDX 103 14 45 15 46 16 47 17 97 18 48 19 102 20 96 21 98 22
REMARK SMILES IDX 49 23 101 24 95 25 94 26 50 28 82 29 62 30 81 31 63 32 66 33
REMARK SMILES IDX 80 34 99 35 64 36 65 37 79 39 100 40 67 41 51 42 52 43 60 44
REMARK SMILES IDX 53 45 55 46 61 47 54 48 56 49 57 50 58 51 59 52 83 53 84 54
REMARK SMILES IDX 92 55 85 56 87 57 93 58 86 59 88 60 89 61 90 62 91 63 68 64
REMARK SMILES IDX 69 65 77 66 70 67 72 68 78 69 71 70 73 71 74 72 75 73 76 74
REMARK SMILES IDX 10 75 11 76 12 77 13 78 14 79 15 80 16 81 17 82 18 83 19 84
REMARK SMILES IDX 25 85 24 86 20 87 22 88 23 89 21 90 26 91 27 92 28 93 29 95
REMARK SMILES IDX 30 96 41 97 31 98 40 99 32 100 33 101 34 102 35 103 36 104
REMARK SMILES IDX 39 105 37 106 38 107
REMARK H PARENT 98 27 66 38 28 94
REMARK Flexibility Score: inf
ROOT
ATOM      1  O   UNL A   1      39.763  22.295  27.209  1.00  0.00    -0.377 OA
ENDROOT
BRANCH   1   2
ATOM      2  C   UNL A   1      40.532  21.450  26.351  1.00  0.00     0.188 C 
BRANCH   2   3
ATOM      3  C   UNL A   1      39.829  20.145  26.031  1.00  0.00     0.188 C 
BRANCH   3   4
ATOM      4  O   UNL A   1      40.849  19.185  25.793  1.00  0.00    -0.376 OA
BRANCH   4   5
ATOM      5  C   UNL A   1      42.028  19.308  26.548  1.00  0.00     0.202 C 
BRANCH   5   6
ATOM      6  C   UNL A   1      43.155  18.343  26.208  1.00  0.00     0.261 C 
BRANCH   6   7
ATOM      7  O   UNL A   1      43.762  18.608  24.923  1.00  0.00    -0.460 OA
BRANCH   7   8
ATOM      8  C   UNL A   1      45.041  19.087  24.774  1.00  0.00     0.338 C 
ATOM      9  O   UNL A   1      46.017  18.374  24.842  1.00  0.00    -0.246 OA
BRANCH   8  10
ATOM     10  C   UNL A   1      45.157  20.553  24.622  1.00  0.00     0.060 A 
ATOM     11  C   UNL A   1      45.912  21.196  25.571  1.00  0.00     0.016 A 
ATOM     12  C   UNL A   1      44.433  21.308  23.716  1.00  0.00     0.016 A 
ATOM     13  C   UNL A   1      45.561  22.460  25.960  1.00  0.00     0.010 A 
ATOM     14  C   UNL A   1      44.455  22.705  23.860  1.00  0.00     0.010 A 
ATOM     15  C   UNL A   1      45.001  23.293  25.021  1.00  0.00    -0.014 A 
BRANCH  15  16
ATOM     16  C   UNL A   1      45.089  24.751  25.271  1.00  0.00     0.031 A 
ATOM     17  C   UNL A   1      46.370  25.443  24.949  1.00  0.00     0.074 A 
ATOM     18  C   UNL A   1      44.041  25.424  25.808  1.00  0.00     0.049 A 
ATOM     19  N   UNL A   1      46.863  26.526  25.469  1.00  0.00    -0.248 NA
ATOM     20  C   UNL A   1      47.229  24.809  23.932  1.00  0.00     0.031 C 
ATOM     21  C   UNL A   1      42.680  24.900  26.032  1.00  0.00     0.029 A 
ATOM     22  N   UNL A   1      43.953  26.705  26.298  1.00  0.00    -0.354 N 
ATOM     23  C   UNL A   1      48.152  26.619  24.968  1.00  0.00     0.074 A 
ATOM     24  C   UNL A   1      48.335  25.535  24.030  1.00  0.00     0.031 C 
ATOM     25  C   UNL A   1      41.903  25.840  26.576  1.00  0.00     0.029 A 
ATOM     26  C   UNL A   1      42.753  26.949  26.939  1.00  0.00     0.049 A 
ATOM     27  H   UNL A   1      44.667  27.377  26.204  1.00  0.00     0.167 HD
ATOM     28  C   UNL A   1      49.100  27.508  25.334  1.00  0.00     0.034 A 
ATOM     29  C   UNL A   1      42.411  27.876  27.849  1.00  0.00     0.034 A 
ATOM     30  C   UNL A   1      48.825  28.588  26.240  1.00  0.00     0.049 A 
ATOM     31  C   UNL A   1      43.486  28.833  28.258  1.00  0.00     0.074 A 
ATOM     32  C   UNL A   1      49.675  29.575  26.695  1.00  0.00     0.029 A 
ATOM     33  N   UNL A   1      47.588  28.810  26.835  1.00  0.00    -0.354 N 
ATOM     34  N   UNL A   1      44.719  28.914  27.818  1.00  0.00    -0.248 NA
ATOM     35  C   UNL A   1      43.141  29.814  29.290  1.00  0.00     0.031 C 
ATOM     36  C   UNL A   1      48.960  30.374  27.593  1.00  0.00     0.029 A 
ATOM     37  C   UNL A   1      47.654  29.907  27.668  1.00  0.00     0.049 A 
ATOM     38  H   UNL A   1      46.783  28.265  26.683  1.00  0.00     0.167 HD
ATOM     39  C   UNL A   1      45.299  29.965  28.507  1.00  0.00     0.074 A 
ATOM     40  C   UNL A   1      44.265  30.512  29.369  1.00  0.00     0.031 C 
ATOM     41  C   UNL A   1      46.570  30.428  28.461  1.00  0.00     0.034 A 
BRANCH  28  42
ATOM     42  C   UNL A   1      50.500  27.286  24.843  1.00  0.00     0.023 A 
ATOM     43  C   UNL A   1      50.984  27.949  23.699  1.00  0.00     0.012 A 
ATOM     44  C   UNL A   1      51.348  26.402  25.542  1.00  0.00     0.148 A 
ATOM     45  C   UNL A   1      52.283  27.712  23.243  1.00  0.00     0.002 A 
ATOM     46  C   UNL A   1      52.651  26.207  25.110  1.00  0.00     0.091 A 
ATOM     47  F   UNL A   1      50.854  25.759  26.609  1.00  0.00    -0.205 F 
ATOM     48  C   UNL A   1      53.117  26.851  23.952  1.00  0.00     0.022 A 
BRANCH  46  49
ATOM     49  S   UNL A   1      53.821  25.166  25.988  1.00  0.00     0.127 S 
ATOM     50  O   UNL A   1      55.100  25.680  25.499  1.00  0.00    -0.237 OA
ATOM     51  O   UNL A   1      53.526  25.491  27.383  1.00  0.00    -0.237 OA
ATOM     52  O   UNL A   1      53.520  23.796  25.596  1.00  0.00    -0.744 OA
ENDBRANCH  46  49
ENDBRANCH  28  42
BRANCH  29  53
ATOM     53  C   UNL A   1      41.061  27.870  28.497  1.00  0.00     0.023 A 
ATOM     54  C   UNL A   1      40.795  26.943  29.522  1.00  0.00     0.012 A 
ATOM     55  C   UNL A   1      40.044  28.776  28.121  1.00  0.00     0.148 A 
ATOM     56  C   UNL A   1      39.537  26.889  30.127  1.00  0.00     0.002 A 
ATOM     57  C   UNL A   1      38.814  28.760  28.773  1.00  0.00     0.091 A 
ATOM     58  F   UNL A   1      40.297  29.649  27.135  1.00  0.00    -0.205 F 
ATOM     59  C   UNL A   1      38.551  27.801  29.761  1.00  0.00     0.022 A 
BRANCH  57  60
ATOM     60  S   UNL A   1      37.541  29.992  28.461  1.00  0.00     0.127 S 
ATOM     61  O   UNL A   1      36.462  29.533  29.331  1.00  0.00    -0.237 OA
ATOM     62  O   UNL A   1      38.196  31.227  28.891  1.00  0.00    -0.237 OA
ATOM     63  O   UNL A   1      37.279  29.926  27.029  1.00  0.00    -0.744 OA
ENDBRANCH  57  60
ENDBRANCH  29  53
BRANCH  41  64
ATOM     64  C   UNL A   1      46.886  31.603  29.334  1.00  0.00     0.023 A 
ATOM     65  C   UNL A   1      47.413  31.394  30.622  1.00  0.00     0.012 A 
ATOM     66  C   UNL A   1      46.751  32.906  28.828  1.00  0.00     0.148 A 
ATOM     67  C   UNL A   1      47.790  32.480  31.405  1.00  0.00     0.002 A 
ATOM     68  C   UNL A   1      47.186  33.978  29.589  1.00  0.00     0.091 A 
ATOM     69  F   UNL A   1      46.223  33.065  27.605  1.00  0.00    -0.205 F 
ATOM     70  C   UNL A   1      47.693  33.769  30.882  1.00  0.00     0.022 A 
BRANCH  68  71
ATOM     71  S   UNL A   1      47.210  35.653  28.950  1.00  0.00     0.127 S 
ATOM     72  O   UNL A   1      47.932  36.363  30.005  1.00  0.00    -0.237 OA
ATOM     73  O   UNL A   1      47.953  35.493  27.700  1.00  0.00    -0.237 OA
ATOM     74  O   UNL A   1      45.817  36.044  28.780  1.00  0.00    -0.744 OA
ENDBRANCH  68  71
ENDBRANCH  41  64
ENDBRANCH  15  16
ENDBRANCH   8  10
ENDBRANCH   7   8
ENDBRANCH   6   7
ENDBRANCH   5   6
ENDBRANCH   4   5
ENDBRANCH   3   4
ENDBRANCH   2   3
ENDBRANCH   1   2
BRANCH   1  75
ATOM     75  C   UNL A   1      39.068  23.386  26.633  1.00  0.00     0.188 C 
BRANCH  75  76
ATOM     76  C   UNL A   1      37.758  22.998  25.956  1.00  0.00     0.188 C 
BRANCH  76  77
ATOM     77  O   UNL A   1      37.824  22.695  24.578  1.00  0.00    -0.376 OA
BRANCH  77  78
ATOM     78  C   UNL A   1      36.641  22.277  23.902  1.00  0.00     0.202 C 
BRANCH  78  79
ATOM     79  C   UNL A   1      36.048  23.079  22.716  1.00  0.00     0.261 C 
BRANCH  79  80
ATOM     80  O   UNL A   1      34.774  23.777  22.874  1.00  0.00    -0.463 OA
BRANCH  80  81
ATOM     81  C   UNL A   1      34.477  24.297  24.094  1.00  0.00     0.310 C 
ATOM     82  O   UNL A   1      34.980  25.324  24.545  1.00  0.00    -0.252 OA
BRANCH  81  83
ATOM     83  C   UNL A   1      33.586  23.423  25.005  1.00  0.00     0.115 C 
ATOM     84  C   UNL A   1      32.924  23.919  26.372  1.00  0.00     0.004 C 
ATOM     85  C   UNL A   1      32.846  22.210  24.470  1.00  0.00     0.096 C 
ATOM     86  C   UNL A   1      31.399  23.618  26.660  1.00  0.00     0.005 C 
ATOM     87  C   UNL A   1      33.544  22.974  27.419  1.00  0.00     0.005 C 
ATOM     88  C   UNL A   1      32.205  21.498  25.715  1.00  0.00     0.002 C 
ATOM     89  C   UNL A   1      30.958  22.252  26.142  1.00  0.00     0.005 C 
ATOM     90  C   UNL A   1      33.164  21.525  26.982  1.00  0.00     0.005 C 
BRANCH  85  91
ATOM     91  C   UNL A   1      32.022  22.252  23.142  1.00  0.00     0.228 C 
ATOM     92  O   UNL A   1      31.990  21.199  22.480  1.00  0.00    -0.274 OA
ATOM     93  N   UNL A   1      31.209  23.244  22.662  1.00  0.00    -0.326 N 
ATOM     94  H   UNL A   1      30.613  22.935  21.941  1.00  0.00     0.169 HD
BRANCH  93  95
ATOM     95  C   UNL A   1      31.037  24.602  22.965  1.00  0.00     0.041 A 
ATOM     96  C   UNL A   1      30.148  25.042  23.945  1.00  0.00     0.027 A 
ATOM     97  C   UNL A   1      31.738  25.567  22.297  1.00  0.00     0.027 A 
ATOM     98  C   UNL A   1      30.171  26.398  24.370  1.00  0.00     0.016 A 
ATOM     99  C   UNL A   1      31.786  26.897  22.702  1.00  0.00     0.016 A 
ATOM    100  C   UNL A   1      31.059  27.327  23.793  1.00  0.00     0.040 A 
BRANCH 100 101
ATOM    101  C   UNL A   1      31.308  28.670  24.410  1.00  0.00     0.253 C 
ATOM    102  O   UNL A   1      30.485  29.561  24.200  1.00  0.00    -0.269 OA
ATOM    103  N   UNL A   1      32.301  28.807  25.384  1.00  0.00    -0.339 N 
ATOM    104  C   UNL A   1      33.746  28.634  25.269  1.00  0.00     0.120 C 
ATOM    105  C   UNL A   1      32.005  29.580  26.573  1.00  0.00     0.120 C 
ATOM    106  C   UNL A   1      34.235  28.662  26.703  1.00  0.00     0.023 C 
ATOM    107  C   UNL A   1      33.317  29.688  27.347  1.00  0.00     0.023 C 
ENDBRANCH 100 101
ENDBRANCH  93  95
ENDBRANCH  85  91
ENDBRANCH  81  83
ENDBRANCH  80  81
ENDBRANCH  79  80
ENDBRANCH  78  79
ENDBRANCH  77  78
ENDBRANCH  76  77
ENDBRANCH  75  76
ENDBRANCH   1  75
TORSDOF 26
ENDMDL
MODEL 3
REMARK VINA RESULT:     -10.7      6.525     13.023
REMARK SMILES O=C(OCCOCCOCCOCCOC(=O)[C@H]1[C@H]2CC[C@H](CC2)[C@H]1C(=O)Nc1ccc(C(=O)N2CCCC2)cc1)c1ccc(-c2c3nc(c(-c4cccc(S(=O)(=O)[O-])c4F)c4ccc([nH]4)c(-c4cccc(S(=O)(=O)[O-])c4F)c4nc(c(-c5cccc(S(=O)(=O)[O-])c5F)c5ccc2[nH]5)C=C4)C=C3)cc1
REMARK SMILES IDX 9 1 8 2 7 3 6 4 5 5 4 6 3 7 2 8 1 9 42 10 43 11 104 12 44 13
REMARK SMILES IDX 103 14 45 15 46 16 47 17 97 18 48 19 102 20 96 21 98 22
REMARK SMILES IDX 49 23 101 24 95 25 94 26 50 28 82 29 62 30 81 31 63 32 66 33
REMARK SMILES IDX 80 34 99 35 64 36 65 37 79 39 100 40 67 41 51 42 52 43 60 44
REMARK SMILES IDX 53 45 55 46 61 47 54 48 56 49 57 50 58 51 59 52 83 53 84 54
REMARK SMILES IDX 92 55 85 56 87 57 93 58 86 59 88 60 89 61 90 62 91 63 68 64
REMARK SMILES IDX 69 65 77 66 70 67 72 68 78 69 71 70 73 71 74 72 75 73 76 74
REMARK SMILES IDX 10 75 11 76 12 77 13 78 14 79 15 80 16 81 17 82 18 83 19 84
REMARK SMILES IDX 25 85 24 86 20 87 22 88 23 89 21 90 26 91 27 92 28 93 29 95
REMARK SMILES IDX 30 96 41 97 31 98 40 99 32 100 33 101 34 102 35 103 36 104
REMARK SMILES IDX 39 105 37 106 38 107
REMARK H PARENT 98 27 66 38 28 94
REMARK Flexibility Score: inf
ROOT
ATOM      1  O   UNL A   1      40.456  22.326  27.448  1.00  0.00    -0.377 OA
ENDROOT
BRANCH   1   2
ATOM      2  C   UNL A   1      41.116  21.402  26.580  1.00  0.00     0.188 C 
BRANCH   2   3
ATOM      3  C   UNL A   1      40.208  20.274  26.128  1.00  0.00     0.188 C 
BRANCH   3   4
ATOM      4  O   UNL A   1      41.052  19.169  25.835  1.00  0.00    -0.376 OA
BRANCH   4   5
ATOM      5  C   UNL A   1      42.238  19.059  26.581  1.00  0.00     0.202 C 
BRANCH   5   6
ATOM      6  C   UNL A   1      43.460  18.537  25.839  1.00  0.00     0.261 C 
BRANCH   6   7
ATOM      7  O   UNL A   1      43.463  18.883  24.435  1.00  0.00    -0.460 OA
BRANCH   7   8
ATOM      8  C   UNL A   1      44.507  19.529  23.817  1.00  0.00     0.338 C 
ATOM      9  O   UNL A   1      45.151  19.025  22.925  1.00  0.00    -0.246 OA
BRANCH   8  10
ATOM     10  C   UNL A   1      44.858  20.851  24.379  1.00  0.00     0.060 A 
ATOM     11  C   UNL A   1      46.072  20.929  25.012  1.00  0.00     0.016 A 
ATOM     12  C   UNL A   1      43.990  21.926  24.456  1.00  0.00     0.016 A 
ATOM     13  C   UNL A   1      46.212  21.761  26.090  1.00  0.00     0.010 A 
ATOM     14  C   UNL A   1      44.375  23.025  25.242  1.00  0.00     0.010 A 
ATOM     15  C   UNL A   1      45.490  22.929  26.101  1.00  0.00    -0.014 A 
BRANCH  15  16
ATOM     16  C   UNL A   1      45.992  24.027  26.962  1.00  0.00     0.031 A 
ATOM     17  C   UNL A   1      47.108  24.869  26.446  1.00  0.00     0.074 A 
ATOM     18  C   UNL A   1      45.468  24.231  28.196  1.00  0.00     0.049 A 
ATOM     19  N   UNL A   1      48.002  25.534  27.114  1.00  0.00    -0.248 NA
ATOM     20  C   UNL A   1      47.262  24.943  24.981  1.00  0.00     0.031 C 
ATOM     21  C   UNL A   1      44.275  23.577  28.765  1.00  0.00     0.029 A 
ATOM     22  N   UNL A   1      45.887  25.038  29.228  1.00  0.00    -0.354 N 
ATOM     23  C   UNL A   1      48.917  25.970  26.168  1.00  0.00     0.074 A 
ATOM     24  C   UNL A   1      48.422  25.576  24.868  1.00  0.00     0.031 C 
ATOM     25  C   UNL A   1      44.046  24.021  30.004  1.00  0.00     0.029 A 
ATOM     26  C   UNL A   1      45.185  24.816  30.397  1.00  0.00     0.049 A 
ATOM     27  H   UNL A   1      46.609  25.703  29.143  1.00  0.00     0.167 HD
ATOM     28  C   UNL A   1      50.095  26.586  26.406  1.00  0.00     0.034 A 
ATOM     29  C   UNL A   1      45.496  25.082  31.677  1.00  0.00     0.034 A 
ATOM     30  C   UNL A   1      50.495  26.987  27.725  1.00  0.00     0.049 A 
ATOM     31  C   UNL A   1      46.818  25.741  31.916  1.00  0.00     0.074 A 
ATOM     32  C   UNL A   1      51.649  27.631  28.122  1.00  0.00     0.029 A 
ATOM     33  N   UNL A   1      49.736  26.769  28.869  1.00  0.00    -0.354 N 
ATOM     34  N   UNL A   1      47.708  26.130  31.034  1.00  0.00    -0.248 NA
ATOM     35  C   UNL A   1      47.192  25.986  33.311  1.00  0.00     0.031 C 
ATOM     36  C   UNL A   1      51.602  27.770  29.513  1.00  0.00     0.029 A 
ATOM     37  C   UNL A   1      50.402  27.247  29.977  1.00  0.00     0.049 A 
ATOM     38  H   UNL A   1      48.852  26.337  28.886  1.00  0.00     0.167 HD
ATOM     39  C   UNL A   1      48.746  26.683  31.764  1.00  0.00     0.074 A 
ATOM     40  C   UNL A   1      48.353  26.607  33.161  1.00  0.00     0.031 C 
ATOM     41  C   UNL A   1      49.928  27.184  31.337  1.00  0.00     0.034 A 
BRANCH  28  42
ATOM     42  C   UNL A   1      51.043  26.760  25.255  1.00  0.00     0.023 A 
ATOM     43  C   UNL A   1      52.092  25.848  25.031  1.00  0.00     0.012 A 
ATOM     44  C   UNL A   1      50.876  27.853  24.379  1.00  0.00     0.148 A 
ATOM     45  C   UNL A   1      52.978  26.039  23.969  1.00  0.00     0.002 A 
ATOM     46  C   UNL A   1      51.732  28.011  23.300  1.00  0.00     0.091 A 
ATOM     47  F   UNL A   1      49.890  28.725  24.632  1.00  0.00    -0.205 F 
ATOM     48  C   UNL A   1      52.793  27.112  23.100  1.00  0.00     0.022 A 
BRANCH  46  49
ATOM     49  S   UNL A   1      51.540  29.324  22.091  1.00  0.00     0.127 S 
ATOM     50  O   UNL A   1      52.660  29.061  21.187  1.00  0.00    -0.237 OA
ATOM     51  O   UNL A   1      50.222  29.028  21.531  1.00  0.00    -0.237 OA
ATOM     52  O   UNL A   1      51.630  30.575  22.831  1.00  0.00    -0.744 OA
ENDBRANCH  46  49
ENDBRANCH  28  42
BRANCH  29  53
ATOM     53  C   UNL A   1      44.613  24.635  32.801  1.00  0.00     0.023 A 
ATOM     54  C   UNL A   1      44.621  23.282  33.184  1.00  0.00     0.012 A 
ATOM     55  C   UNL A   1      43.778  25.535  33.502  1.00  0.00     0.148 A 
ATOM     56  C   UNL A   1      43.787  22.824  34.208  1.00  0.00     0.002 A 
ATOM     57  C   UNL A   1      42.999  25.085  34.564  1.00  0.00     0.091 A 
ATOM     58  F   UNL A   1      43.764  26.822  33.126  1.00  0.00    -0.205 F 
ATOM     59  C   UNL A   1      42.984  23.725  34.904  1.00  0.00     0.022 A 
BRANCH  57  60
ATOM     60  S   UNL A   1      42.046  26.203  35.602  1.00  0.00     0.127 S 
ATOM     61  O   UNL A   1      40.733  25.565  35.602  1.00  0.00    -0.237 OA
ATOM     62  O   UNL A   1      42.765  26.129  36.875  1.00  0.00    -0.237 OA
ATOM     63  O   UNL A   1      42.126  27.503  34.949  1.00  0.00    -0.744 OA
ENDBRANCH  57  60
ENDBRANCH  29  53
BRANCH  41  64
ATOM     64  C   UNL A   1      50.847  27.723  32.390  1.00  0.00     0.023 A 
ATOM     65  C   UNL A   1      50.728  29.064  32.799  1.00  0.00     0.012 A 
ATOM     66  C   UNL A   1      51.751  26.864  33.035  1.00  0.00     0.148 A 
ATOM     67  C   UNL A   1      51.519  29.548  33.837  1.00  0.00     0.002 A 
ATOM     68  C   UNL A   1      52.489  27.336  34.107  1.00  0.00     0.091 A 
ATOM     69  F   UNL A   1      51.852  25.598  32.601  1.00  0.00    -0.205 F 
ATOM     70  C   UNL A   1      52.384  28.680  34.501  1.00  0.00     0.022 A 
BRANCH  68  71
ATOM     71  S   UNL A   1      53.534  26.263  35.092  1.00  0.00     0.127 S 
ATOM     72  O   UNL A   1      54.687  26.082  34.212  1.00  0.00    -0.237 OA
ATOM     73  O   UNL A   1      53.788  27.086  36.275  1.00  0.00    -0.237 OA
ATOM     74  O   UNL A   1      52.754  25.060  35.349  1.00  0.00    -0.744 OA
ENDBRANCH  68  71
ENDBRANCH  41  64
ENDBRANCH  15  16
ENDBRANCH   8  10
ENDBRANCH   7   8
ENDBRANCH   6   7
ENDBRANCH   5   6
ENDBRANCH   4   5
ENDBRANCH   3   4
ENDBRANCH   2   3
ENDBRANCH   1   2
BRANCH   1  75
ATOM     75  C   UNL A   1      40.087  23.591  26.927  1.00  0.00     0.188 C 
BRANCH  75  76
ATOM     76  C   UNL A   1      38.598  23.727  26.627  1.00  0.00     0.188 C 
BRANCH  76  77
ATOM     77  O   UNL A   1      38.112  23.014  25.510  1.00  0.00    -0.376 OA
BRANCH  77  78
ATOM     78  C   UNL A   1      36.817  23.323  24.999  1.00  0.00     0.202 C 
BRANCH  78  79
ATOM     79  C   UNL A   1      36.474  23.185  23.495  1.00  0.00     0.261 C 
BRANCH  79  80
ATOM     80  O   UNL A   1      35.227  23.743  22.978  1.00  0.00    -0.463 OA
BRANCH  80  81
ATOM     81  C   UNL A   1      34.427  24.425  23.839  1.00  0.00     0.310 C 
ATOM     82  O   UNL A   1      34.433  25.648  23.963  1.00  0.00    -0.252 OA
BRANCH  81  83
ATOM     83  C   UNL A   1      33.604  23.566  24.824  1.00  0.00     0.115 C 
ATOM     84  C   UNL A   1      33.071  24.072  26.243  1.00  0.00     0.004 C 
ATOM     85  C   UNL A   1      32.801  22.364  24.357  1.00  0.00     0.096 C 
ATOM     86  C   UNL A   1      31.572  23.795  26.662  1.00  0.00     0.005 C 
ATOM     87  C   UNL A   1      33.764  23.116  27.234  1.00  0.00     0.005 C 
ATOM     88  C   UNL A   1      32.259  21.663  25.654  1.00  0.00     0.002 C 
ATOM     89  C   UNL A   1      31.065  22.437  26.186  1.00  0.00     0.005 C 
ATOM     90  C   UNL A   1      33.324  21.674  26.833  1.00  0.00     0.005 C 
BRANCH  85  91
ATOM     91  C   UNL A   1      31.866  22.421  23.105  1.00  0.00     0.228 C 
ATOM     92  O   UNL A   1      31.777  21.375  22.436  1.00  0.00    -0.274 OA
ATOM     93  N   UNL A   1      31.014  23.417  22.708  1.00  0.00    -0.326 N 
ATOM     94  H   UNL A   1      30.358  23.115  22.038  1.00  0.00     0.169 HD
BRANCH  93  95
ATOM     95  C   UNL A   1      30.868  24.770  23.040  1.00  0.00     0.041 A 
ATOM     96  C   UNL A   1      30.129  25.194  24.145  1.00  0.00     0.027 A 
ATOM     97  C   UNL A   1      31.446  25.749  22.279  1.00  0.00     0.027 A 
ATOM     98  C   UNL A   1      30.193  26.549  24.568  1.00  0.00     0.016 A 
ATOM     99  C   UNL A   1      31.533  27.079  22.680  1.00  0.00     0.016 A 
ATOM    100  C   UNL A   1      30.971  27.494  23.869  1.00  0.00     0.040 A 
BRANCH 100 101
ATOM    101  C   UNL A   1      31.288  28.839  24.448  1.00  0.00     0.253 C 
ATOM    102  O   UNL A   1      30.521  29.768  24.198  1.00  0.00    -0.269 OA
ATOM    103  N   UNL A   1      32.272  28.950  25.434  1.00  0.00    -0.339 N 
ATOM    104  C   UNL A   1      33.707  28.690  25.350  1.00  0.00     0.120 C 
ATOM    105  C   UNL A   1      32.004  29.776  26.594  1.00  0.00     0.120 C 
ATOM    106  C   UNL A   1      34.175  28.735  26.789  1.00  0.00     0.023 C 
ATOM    107  C   UNL A   1      33.308  29.832  27.386  1.00  0.00     0.023 C 
ENDBRANCH 100 101
ENDBRANCH  93  95
ENDBRANCH  85  91
ENDBRANCH  81  83
ENDBRANCH  80  81
ENDBRANCH  79  80
ENDBRANCH  78  79
ENDBRANCH  77  78
ENDBRANCH  76  77
ENDBRANCH  75  76
ENDBRANCH   1  75
TORSDOF 26
ENDMDL
