MODEL 1
REMARK VINA RESULT:      -7.3      0.000      0.000
REMARK SMILES C[C@](NC(=O)CSCc1cccs1)(C(=O)OCCOCCOCCOCCOC(=O)c1ccc(-c2c3nc(c(-c4cccc(S(=O)(=O)[O-])c4F)c4ccc([nH]4)c(-c4cccc(S(=O)(=O)[O-])c4F)c4nc(c(-c5cccc(S(=O)(=O)[O-])c5F)c5ccc2[nH]5)C=C4)C=C3)cc1)C(F)(F)F
REMARK SMILES IDX 21 1 20 2 19 3 18 4 17 5 16 6 14 7 15 8 2 9 1 10 94 11 95 12
REMARK SMILES IDX 96 13 97 14 3 15 4 16 5 18 6 19 7 20 8 21 9 22 10 23 13 24
REMARK SMILES IDX 11 25 12 26 22 27 23 28 24 29 25 30 26 31 27 32 28 33 29 34
REMARK SMILES IDX 30 35 31 36 32 37 93 38 33 39 92 40 34 41 35 42 36 43 86 44
REMARK SMILES IDX 37 45 91 46 85 47 87 48 38 49 90 50 84 51 83 52 39 54 71 55
REMARK SMILES IDX 51 56 70 57 52 58 55 59 69 60 88 61 53 62 54 63 68 65 89 66
REMARK SMILES IDX 56 67 40 68 41 69 49 70 42 71 44 72 50 73 43 74 45 75 46 76
REMARK SMILES IDX 47 77 48 78 72 79 73 80 81 81 74 82 76 83 82 84 75 85 77 86
REMARK SMILES IDX 78 87 79 88 80 89 57 90 58 91 66 92 59 93 61 94 67 95 60 96
REMARK SMILES IDX 62 97 63 98 64 99 65 100
REMARK H PARENT 3 17 87 53 55 64
REMARK Flexibility Score: inf
ROOT
ATOM      1  C   UNL A   1      45.039  18.531  25.589  1.00  0.00     0.188 C 
ENDROOT
BRANCH   1   2
ATOM      2  C   UNL A   1      43.785  19.146  24.937  1.00  0.00     0.188 C 
BRANCH   2   3
ATOM      3  O   UNL A   1      42.726  19.617  25.755  1.00  0.00    -0.376 OA
BRANCH   3   4
ATOM      4  C   UNL A   1      42.541  21.004  26.002  1.00  0.00     0.202 C 
BRANCH   4   5
ATOM      5  C   UNL A   1      41.401  21.573  26.875  1.00  0.00     0.261 C 
BRANCH   5   6
ATOM      6  O   UNL A   1      41.769  22.624  27.782  1.00  0.00    -0.461 OA
BRANCH   6   7
ATOM      7  C   UNL A   1      41.062  23.773  27.707  1.00  0.00     0.341 C 
ATOM      8  O   UNL A   1      39.839  23.811  27.735  1.00  0.00    -0.249 OA
BRANCH   7   9
ATOM      9  C   UNL A   1      41.959  25.014  27.530  1.00  0.00     0.231 C 
ATOM     10  C   UNL A   1      43.399  24.519  27.752  1.00  0.00     0.058 C 
BRANCH   9  11
ATOM     11  C   UNL A   1      41.757  25.368  26.060  1.00  0.00     0.422 C 
ATOM     12  F   UNL A   1      42.419  24.512  25.252  1.00  0.00    -0.168 F 
ATOM     13  F   UNL A   1      40.438  25.311  25.756  1.00  0.00    -0.168 F 
ATOM     14  F   UNL A   1      42.144  26.617  25.730  1.00  0.00    -0.168 F 
ENDBRANCH   9  11
BRANCH   9  15
ATOM     15  N   UNL A   1      41.770  26.143  28.539  1.00  0.00    -0.332 N 
ATOM     16  C   UNL A   1      40.882  27.185  28.593  1.00  0.00     0.231 C 
ATOM     17  H   UNL A   1      42.405  26.118  29.291  1.00  0.00     0.164 HD
ATOM     18  O   UNL A   1      41.351  28.328  28.621  1.00  0.00    -0.274 OA
BRANCH  16  19
ATOM     19  C   UNL A   1      39.407  26.975  28.912  1.00  0.00     0.169 C 
BRANCH  19  20
ATOM     20  S   UNL A   1      38.764  27.593  30.478  1.00  0.00    -0.146 SA
BRANCH  20  21
ATOM     21  C   UNL A   1      38.018  29.181  29.986  1.00  0.00     0.116 C 
BRANCH  21  22
ATOM     22  C   UNL A   1      37.996  30.119  31.143  1.00  0.00     0.014 A 
ATOM     23  C   UNL A   1      37.292  30.005  32.326  1.00  0.00     0.016 A 
ATOM     24  S   UNL A   1      38.930  31.554  31.097  1.00  0.00    -0.148 S 
ATOM     25  C   UNL A   1      37.478  31.135  33.170  1.00  0.00     0.012 A 
ATOM     26  C   UNL A   1      38.346  32.052  32.620  1.00  0.00     0.065 A 
ENDBRANCH  21  22
ENDBRANCH  20  21
ENDBRANCH  19  20
ENDBRANCH  16  19
ENDBRANCH   9  15
ENDBRANCH   7   9
ENDBRANCH   6   7
ENDBRANCH   5   6
ENDBRANCH   4   5
ENDBRANCH   3   4
ENDBRANCH   2   3
ENDBRANCH   1   2
BRANCH   1  27
ATOM     27  O   UNL A   1      46.193  19.331  25.457  1.00  0.00    -0.377 OA
BRANCH  27  28
ATOM     28  C   UNL A   1      46.087  20.424  24.562  1.00  0.00     0.188 C 
BRANCH  28  29
ATOM     29  C   UNL A   1      46.041  21.842  25.169  1.00  0.00     0.188 C 
BRANCH  29  30
ATOM     30  O   UNL A   1      46.000  22.895  24.209  1.00  0.00    -0.376 OA
BRANCH  30  31
ATOM     31  C   UNL A   1      47.157  23.697  24.020  1.00  0.00     0.202 C 
BRANCH  31  32
ATOM     32  C   UNL A   1      47.257  25.006  24.824  1.00  0.00     0.261 C 
BRANCH  32  33
ATOM     33  O   UNL A   1      46.858  26.202  24.140  1.00  0.00    -0.460 OA
BRANCH  33  34
ATOM     34  C   UNL A   1      47.354  27.369  24.599  1.00  0.00     0.338 C 
ATOM     35  O   UNL A   1      48.061  28.151  23.981  1.00  0.00    -0.246 OA
BRANCH  34  36
ATOM     36  C   UNL A   1      46.713  27.672  25.897  1.00  0.00     0.060 A 
ATOM     37  C   UNL A   1      45.319  27.571  25.983  1.00  0.00     0.016 A 
ATOM     38  C   UNL A   1      47.464  28.031  27.020  1.00  0.00     0.016 A 
ATOM     39  C   UNL A   1      44.668  27.878  27.174  1.00  0.00     0.010 A 
ATOM     40  C   UNL A   1      46.807  28.366  28.210  1.00  0.00     0.010 A 
ATOM     41  C   UNL A   1      45.403  28.333  28.277  1.00  0.00    -0.014 A 
BRANCH  41  42
ATOM     42  C   UNL A   1      44.664  28.960  29.399  1.00  0.00     0.031 A 
ATOM     43  C   UNL A   1      44.425  28.147  30.644  1.00  0.00     0.074 A 
ATOM     44  C   UNL A   1      44.292  30.251  29.353  1.00  0.00     0.049 A 
ATOM     45  N   UNL A   1      43.883  28.507  31.777  1.00  0.00    -0.248 NA
ATOM     46  C   UNL A   1      44.863  26.741  30.608  1.00  0.00     0.031 C 
ATOM     47  C   UNL A   1      44.473  31.142  28.209  1.00  0.00     0.029 A 
ATOM     48  N   UNL A   1      43.677  31.034  30.298  1.00  0.00    -0.354 N 
ATOM     49  C   UNL A   1      43.906  27.376  32.584  1.00  0.00     0.074 A 
ATOM     50  C   UNL A   1      44.490  26.308  31.802  1.00  0.00     0.031 C 
ATOM     51  C   UNL A   1      43.957  32.347  28.511  1.00  0.00     0.029 A 
ATOM     52  C   UNL A   1      43.397  32.306  29.861  1.00  0.00     0.049 A 
ATOM     53  H   UNL A   1      43.458  30.714  31.202  1.00  0.00     0.167 HD
ATOM     54  C   UNL A   1      43.502  27.240  33.870  1.00  0.00     0.034 A 
ATOM     55  C   UNL A   1      42.747  33.315  30.476  1.00  0.00     0.034 A 
ATOM     56  C   UNL A   1      42.922  28.301  34.648  1.00  0.00     0.049 A 
ATOM     57  C   UNL A   1      42.276  33.129  31.895  1.00  0.00     0.074 A 
ATOM     58  C   UNL A   1      42.496  28.269  35.964  1.00  0.00     0.029 A 
ATOM     59  N   UNL A   1      42.673  29.582  34.180  1.00  0.00    -0.354 N 
ATOM     60  N   UNL A   1      42.402  32.085  32.680  1.00  0.00    -0.248 NA
ATOM     61  C   UNL A   1      41.614  34.278  32.530  1.00  0.00     0.031 C 
ATOM     62  C   UNL A   1      41.958  29.521  36.281  1.00  0.00     0.029 A 
ATOM     63  C   UNL A   1      42.090  30.347  35.176  1.00  0.00     0.049 A 
ATOM     64  H   UNL A   1      42.879  29.900  33.271  1.00  0.00     0.167 HD
ATOM     65  C   UNL A   1      41.862  32.461  33.905  1.00  0.00     0.074 A 
ATOM     66  C   UNL A   1      41.442  33.840  33.770  1.00  0.00     0.031 C 
ATOM     67  C   UNL A   1      41.711  31.729  35.039  1.00  0.00     0.034 A 
BRANCH  54  68
ATOM     68  C   UNL A   1      43.695  25.895  34.522  1.00  0.00     0.023 A 
ATOM     69  C   UNL A   1      42.612  24.995  34.599  1.00  0.00     0.012 A 
ATOM     70  C   UNL A   1      44.956  25.502  35.010  1.00  0.00     0.148 A 
ATOM     71  C   UNL A   1      42.775  23.737  35.178  1.00  0.00     0.002 A 
ATOM     72  C   UNL A   1      45.121  24.230  35.542  1.00  0.00     0.091 A 
ATOM     73  F   UNL A   1      45.966  26.381  34.948  1.00  0.00    -0.205 F 
ATOM     74  C   UNL A   1      44.030  23.350  35.638  1.00  0.00     0.022 A 
BRANCH  72  75
ATOM     75  S   UNL A   1      46.713  23.606  36.091  1.00  0.00     0.127 S 
ATOM     76  O   UNL A   1      46.533  23.576  37.542  1.00  0.00    -0.237 OA
ATOM     77  O   UNL A   1      46.761  22.289  35.455  1.00  0.00    -0.237 OA
ATOM     78  O   UNL A   1      47.706  24.554  35.608  1.00  0.00    -0.744 OA
ENDBRANCH  72  75
ENDBRANCH  54  68
BRANCH  55  79
ATOM     79  C   UNL A   1      42.505  34.597  29.755  1.00  0.00     0.023 A 
ATOM     80  C   UNL A   1      41.345  34.765  28.975  1.00  0.00     0.012 A 
ATOM     81  C   UNL A   1      43.435  35.651  29.837  1.00  0.00     0.148 A 
ATOM     82  C   UNL A   1      41.136  35.945  28.257  1.00  0.00     0.002 A 
ATOM     83  C   UNL A   1      43.191  36.846  29.171  1.00  0.00     0.091 A 
ATOM     84  F   UNL A   1      44.543  35.465  30.568  1.00  0.00    -0.205 F 
ATOM     85  C   UNL A   1      42.053  36.988  28.364  1.00  0.00     0.022 A 
BRANCH  83  86
ATOM     86  S   UNL A   1      44.247  38.285  29.365  1.00  0.00     0.127 S 
ATOM     87  O   UNL A   1      44.115  38.564  30.792  1.00  0.00    -0.237 OA
ATOM     88  O   UNL A   1      45.550  37.757  28.957  1.00  0.00    -0.237 OA
ATOM     89  O   UNL A   1      43.704  39.296  28.468  1.00  0.00    -0.744 OA
ENDBRANCH  83  86
ENDBRANCH  55  79
BRANCH  67  90
ATOM     90  C   UNL A   1      41.097  32.417  36.233  1.00  0.00     0.023 A 
ATOM     91  C   UNL A   1      41.847  33.356  36.969  1.00  0.00     0.012 A 
ATOM     92  C   UNL A   1      39.765  32.154  36.608  1.00  0.00     0.148 A 
ATOM     93  C   UNL A   1      41.300  33.979  38.092  1.00  0.00     0.002 A 
ATOM     94  C   UNL A   1      39.208  32.820  37.693  1.00  0.00     0.091 A 
ATOM     95  F   UNL A   1      39.067  31.249  35.906  1.00  0.00    -0.205 F 
ATOM     96  C   UNL A   1      39.980  33.719  38.448  1.00  0.00     0.022 A 
BRANCH  94  97
ATOM     97  S   UNL A   1      37.487  32.621  38.165  1.00  0.00     0.127 S 
ATOM     98  O   UNL A   1      37.450  33.307  39.455  1.00  0.00    -0.237 OA
ATOM     99  O   UNL A   1      36.786  33.316  37.085  1.00  0.00    -0.237 OA
ATOM    100  O   UNL A   1      37.248  31.185  38.213  1.00  0.00    -0.744 OA
ENDBRANCH  94  97
ENDBRANCH  67  90
ENDBRANCH  41  42
ENDBRANCH  34  36
ENDBRANCH  33  34
ENDBRANCH  32  33
ENDBRANCH  31  32
ENDBRANCH  30  31
ENDBRANCH  29  30
ENDBRANCH  28  29
ENDBRANCH  27  28
ENDBRANCH   1  27
TORSDOF 29
ENDMDL
MODEL 2
REMARK VINA RESULT:      -7.1      5.286      8.421
REMARK SMILES C[C@](NC(=O)CSCc1cccs1)(C(=O)OCCOCCOCCOCCOC(=O)c1ccc(-c2c3nc(c(-c4cccc(S(=O)(=O)[O-])c4F)c4ccc([nH]4)c(-c4cccc(S(=O)(=O)[O-])c4F)c4nc(c(-c5cccc(S(=O)(=O)[O-])c5F)c5ccc2[nH]5)C=C4)C=C3)cc1)C(F)(F)F
REMARK SMILES IDX 21 1 20 2 19 3 18 4 17 5 16 6 14 7 15 8 2 9 1 10 94 11 95 12
REMARK SMILES IDX 96 13 97 14 3 15 4 16 5 18 6 19 7 20 8 21 9 22 10 23 13 24
REMARK SMILES IDX 11 25 12 26 22 27 23 28 24 29 25 30 26 31 27 32 28 33 29 34
REMARK SMILES IDX 30 35 31 36 32 37 93 38 33 39 92 40 34 41 35 42 36 43 86 44
REMARK SMILES IDX 37 45 91 46 85 47 87 48 38 49 90 50 84 51 83 52 39 54 71 55
REMARK SMILES IDX 51 56 70 57 52 58 55 59 69 60 88 61 53 62 54 63 68 65 89 66
REMARK SMILES IDX 56 67 40 68 41 69 49 70 42 71 44 72 50 73 43 74 45 75 46 76
REMARK SMILES IDX 47 77 48 78 72 79 73 80 81 81 74 82 76 83 82 84 75 85 77 86
REMARK SMILES IDX 78 87 79 88 80 89 57 90 58 91 66 92 59 93 61 94 67 95 60 96
REMARK SMILES IDX 62 97 63 98 64 99 65 100
REMARK H PARENT 3 17 87 53 55 64
REMARK Flexibility Score: inf
ROOT
ATOM      1  C   UNL A   1      37.821  20.973  25.684  1.00  0.00     0.188 C 
ENDROOT
BRANCH   1   2
ATOM      2  C   UNL A   1      37.063  21.235  24.368  1.00  0.00     0.188 C 
BRANCH   2   3
ATOM      3  O   UNL A   1      35.925  22.081  24.367  1.00  0.00    -0.376 OA
BRANCH   3   4
ATOM      4  C   UNL A   1      35.844  23.213  23.511  1.00  0.00     0.202 C 
BRANCH   4   5
ATOM      5  C   UNL A   1      34.687  24.235  23.551  1.00  0.00     0.261 C 
BRANCH   5   6
ATOM      6  O   UNL A   1      34.044  24.407  24.824  1.00  0.00    -0.461 OA
BRANCH   6   7
ATOM      7  C   UNL A   1      32.808  23.880  24.961  1.00  0.00     0.341 C 
ATOM      8  O   UNL A   1      32.605  22.735  25.345  1.00  0.00    -0.249 OA
BRANCH   7   9
ATOM      9  C   UNL A   1      31.694  24.856  24.533  1.00  0.00     0.231 C 
ATOM     10  C   UNL A   1      30.610  23.983  23.875  1.00  0.00     0.058 C 
BRANCH   9  11
ATOM     11  C   UNL A   1      31.185  25.392  25.867  1.00  0.00     0.422 C 
ATOM     12  F   UNL A   1      30.337  24.521  26.455  1.00  0.00    -0.168 F 
ATOM     13  F   UNL A   1      32.231  25.604  26.701  1.00  0.00    -0.168 F 
ATOM     14  F   UNL A   1      30.551  26.580  25.783  1.00  0.00    -0.168 F 
ENDBRANCH   9  11
BRANCH   9  15
ATOM     15  N   UNL A   1      32.063  25.890  23.473  1.00  0.00    -0.332 N 
ATOM     16  C   UNL A   1      31.355  26.425  22.428  1.00  0.00     0.231 C 
ATOM     17  H   UNL A   1      32.980  26.239  23.555  1.00  0.00     0.164 HD
ATOM     18  O   UNL A   1      31.826  26.285  21.295  1.00  0.00    -0.274 OA
BRANCH  16  19
ATOM     19  C   UNL A   1      30.210  27.406  22.646  1.00  0.00     0.169 C 
BRANCH  19  20
ATOM     20  S   UNL A   1      30.600  29.095  23.136  1.00  0.00    -0.146 SA
BRANCH  20  21
ATOM     21  C   UNL A   1      32.381  28.987  23.504  1.00  0.00     0.116 C 
BRANCH  21  22
ATOM     22  C   UNL A   1      32.611  29.088  24.971  1.00  0.00     0.014 A 
ATOM     23  C   UNL A   1      31.880  29.793  25.907  1.00  0.00     0.016 A 
ATOM     24  S   UNL A   1      33.927  28.259  25.690  1.00  0.00    -0.148 S 
ATOM     25  C   UNL A   1      32.444  29.698  27.210  1.00  0.00     0.012 A 
ATOM     26  C   UNL A   1      33.561  28.893  27.231  1.00  0.00     0.065 A 
ENDBRANCH  21  22
ENDBRANCH  20  21
ENDBRANCH  19  20
ENDBRANCH  16  19
ENDBRANCH   9  15
ENDBRANCH   7   9
ENDBRANCH   6   7
ENDBRANCH   5   6
ENDBRANCH   4   5
ENDBRANCH   3   4
ENDBRANCH   2   3
ENDBRANCH   1   2
BRANCH   1  27
ATOM     27  O   UNL A   1      38.761  21.974  26.003  1.00  0.00    -0.377 OA
BRANCH  27  28
ATOM     28  C   UNL A   1      40.012  21.516  26.484  1.00  0.00     0.188 C 
BRANCH  28  29
ATOM     29  C   UNL A   1      40.419  20.066  26.146  1.00  0.00     0.188 C 
BRANCH  29  30
ATOM     30  O   UNL A   1      41.824  19.863  26.013  1.00  0.00    -0.376 OA
BRANCH  30  31
ATOM     31  C   UNL A   1      42.712  20.845  26.527  1.00  0.00     0.202 C 
BRANCH  31  32
ATOM     32  C   UNL A   1      43.607  21.594  25.522  1.00  0.00     0.261 C 
BRANCH  32  33
ATOM     33  O   UNL A   1      43.230  22.945  25.222  1.00  0.00    -0.460 OA
BRANCH  33  34
ATOM     34  C   UNL A   1      44.225  23.825  24.987  1.00  0.00     0.338 C 
ATOM     35  O   UNL A   1      45.086  23.734  24.124  1.00  0.00    -0.246 OA
BRANCH  34  36
ATOM     36  C   UNL A   1      43.973  25.041  25.789  1.00  0.00     0.060 A 
ATOM     37  C   UNL A   1      43.663  26.226  25.110  1.00  0.00     0.016 A 
ATOM     38  C   UNL A   1      44.022  25.022  27.187  1.00  0.00     0.016 A 
ATOM     39  C   UNL A   1      43.451  27.404  25.820  1.00  0.00     0.010 A 
ATOM     40  C   UNL A   1      43.835  26.213  27.898  1.00  0.00     0.010 A 
ATOM     41  C   UNL A   1      43.593  27.417  27.213  1.00  0.00    -0.014 A 
BRANCH  41  42
ATOM     42  C   UNL A   1      43.691  28.731  27.894  1.00  0.00     0.031 A 
ATOM     43  C   UNL A   1      42.447  29.311  28.514  1.00  0.00     0.074 A 
ATOM     44  C   UNL A   1      44.874  29.353  28.041  1.00  0.00     0.049 A 
ATOM     45  N   UNL A   1      42.307  30.396  29.230  1.00  0.00    -0.248 NA
ATOM     46  C   UNL A   1      41.195  28.565  28.304  1.00  0.00     0.031 C 
ATOM     47  C   UNL A   1      46.146  28.889  27.493  1.00  0.00     0.029 A 
ATOM     48  N   UNL A   1      45.190  30.519  28.693  1.00  0.00    -0.354 N 
ATOM     49  C   UNL A   1      40.956  30.468  29.548  1.00  0.00     0.074 A 
ATOM     50  C   UNL A   1      40.312  29.333  28.923  1.00  0.00     0.031 C 
ATOM     51  C   UNL A   1      47.106  29.775  27.813  1.00  0.00     0.029 A 
ATOM     52  C   UNL A   1      46.512  30.875  28.573  1.00  0.00     0.049 A 
ATOM     53  H   UNL A   1      44.533  31.049  29.199  1.00  0.00     0.167 HD
ATOM     54  C   UNL A   1      40.310  31.381  30.311  1.00  0.00     0.034 A 
ATOM     55  C   UNL A   1      47.162  31.971  29.011  1.00  0.00     0.034 A 
ATOM     56  C   UNL A   1      40.950  32.509  30.932  1.00  0.00     0.049 A 
ATOM     57  C   UNL A   1      46.414  32.991  29.831  1.00  0.00     0.074 A 
ATOM     58  C   UNL A   1      40.385  33.482  31.739  1.00  0.00     0.029 A 
ATOM     59  N   UNL A   1      42.293  32.826  30.806  1.00  0.00    -0.354 N 
ATOM     60  N   UNL A   1      45.158  32.988  30.211  1.00  0.00    -0.248 NA
ATOM     61  C   UNL A   1      47.184  34.143  30.320  1.00  0.00     0.031 C 
ATOM     62  C   UNL A   1      41.382  34.405  32.073  1.00  0.00     0.029 A 
ATOM     63  C   UNL A   1      42.576  33.984  31.511  1.00  0.00     0.049 A 
ATOM     64  H   UNL A   1      42.949  32.305  30.290  1.00  0.00     0.167 HD
ATOM     65  C   UNL A   1      44.997  34.118  31.006  1.00  0.00     0.074 A 
ATOM     66  C   UNL A   1      46.293  34.761  31.082  1.00  0.00     0.031 C 
ATOM     67  C   UNL A   1      43.877  34.593  31.608  1.00  0.00     0.034 A 
BRANCH  54  68
ATOM     68  C   UNL A   1      38.833  31.182  30.535  1.00  0.00     0.023 A 
ATOM     69  C   UNL A   1      38.392  30.295  31.540  1.00  0.00     0.012 A 
ATOM     70  C   UNL A   1      37.884  31.908  29.791  1.00  0.00     0.148 A 
ATOM     71  C   UNL A   1      37.030  30.113  31.779  1.00  0.00     0.002 A 
ATOM     72  C   UNL A   1      36.531  31.758  30.067  1.00  0.00     0.091 A 
ATOM     73  F   UNL A   1      38.323  32.728  28.825  1.00  0.00    -0.205 F 
ATOM     74  C   UNL A   1      36.102  30.852  31.052  1.00  0.00     0.022 A 
BRANCH  72  75
ATOM     75  S   UNL A   1      35.259  32.719  29.242  1.00  0.00     0.127 S 
ATOM     76  O   UNL A   1      34.133  32.568  30.163  1.00  0.00    -0.237 OA
ATOM     77  O   UNL A   1      35.853  34.057  29.220  1.00  0.00    -0.237 OA
ATOM     78  O   UNL A   1      35.077  32.110  27.933  1.00  0.00    -0.744 OA
ENDBRANCH  72  75
ENDBRANCH  54  68
BRANCH  55  79
ATOM     79  C   UNL A   1      48.605  32.163  28.689  1.00  0.00     0.023 A 
ATOM     80  C   UNL A   1      49.596  31.789  29.617  1.00  0.00     0.012 A 
ATOM     81  C   UNL A   1      48.995  32.728  27.459  1.00  0.00     0.148 A 
ATOM     82  C   UNL A   1      50.947  32.011  29.341  1.00  0.00     0.002 A 
ATOM     83  C   UNL A   1      50.343  32.888  27.165  1.00  0.00     0.091 A 
ATOM     84  F   UNL A   1      48.036  33.096  26.597  1.00  0.00    -0.205 F 
ATOM     85  C   UNL A   1      51.320  32.550  28.112  1.00  0.00     0.022 A 
BRANCH  83  86
ATOM     86  S   UNL A   1      50.914  33.444  25.556  1.00  0.00     0.127 S 
ATOM     87  O   UNL A   1      51.069  32.182  24.840  1.00  0.00    -0.237 OA
ATOM     88  O   UNL A   1      49.794  34.274  25.111  1.00  0.00    -0.237 OA
ATOM     89  O   UNL A   1      52.143  34.184  25.808  1.00  0.00    -0.744 OA
ENDBRANCH  83  86
ENDBRANCH  55  79
BRANCH  67  90
ATOM     90  C   UNL A   1      44.011  35.851  32.431  1.00  0.00     0.023 A 
ATOM     91  C   UNL A   1      44.381  35.770  33.789  1.00  0.00     0.012 A 
ATOM     92  C   UNL A   1      43.799  37.116  31.849  1.00  0.00     0.148 A 
ATOM     93  C   UNL A   1      44.481  36.924  34.567  1.00  0.00     0.002 A 
ATOM     94  C   UNL A   1      43.956  38.265  32.616  1.00  0.00     0.091 A 
ATOM     95  F   UNL A   1      43.435  37.176  30.559  1.00  0.00    -0.205 F 
ATOM     96  C   UNL A   1      44.278  38.170  33.980  1.00  0.00     0.022 A 
BRANCH  94  97
ATOM     97  S   UNL A   1      43.810  39.914  31.921  1.00  0.00     0.127 S 
ATOM     98  O   UNL A   1      45.084  40.516  32.312  1.00  0.00    -0.237 OA
ATOM     99  O   UNL A   1      43.681  39.637  30.490  1.00  0.00    -0.237 OA
ATOM    100  O   UNL A   1      42.626  40.503  32.530  1.00  0.00    -0.744 OA
ENDBRANCH  94  97
ENDBRANCH  67  90
ENDBRANCH  41  42
ENDBRANCH  34  36
ENDBRANCH  33  34
ENDBRANCH  32  33
ENDBRANCH  31  32
ENDBRANCH  30  31
ENDBRANCH  29  30
ENDBRANCH  28  29
ENDBRANCH  27  28
ENDBRANCH   1  27
TORSDOF 29
ENDMDL
MODEL 3
REMARK VINA RESULT:      -6.6      5.928      8.869
REMARK SMILES C[C@](NC(=O)CSCc1cccs1)(C(=O)OCCOCCOCCOCCOC(=O)c1ccc(-c2c3nc(c(-c4cccc(S(=O)(=O)[O-])c4F)c4ccc([nH]4)c(-c4cccc(S(=O)(=O)[O-])c4F)c4nc(c(-c5cccc(S(=O)(=O)[O-])c5F)c5ccc2[nH]5)C=C4)C=C3)cc1)C(F)(F)F
REMARK SMILES IDX 21 1 20 2 19 3 18 4 17 5 16 6 14 7 15 8 2 9 1 10 94 11 95 12
REMARK SMILES IDX 96 13 97 14 3 15 4 16 5 18 6 19 7 20 8 21 9 22 10 23 13 24
REMARK SMILES IDX 11 25 12 26 22 27 23 28 24 29 25 30 26 31 27 32 28 33 29 34
REMARK SMILES IDX 30 35 31 36 32 37 93 38 33 39 92 40 34 41 35 42 36 43 86 44
REMARK SMILES IDX 37 45 91 46 85 47 87 48 38 49 90 50 84 51 83 52 39 54 71 55
REMARK SMILES IDX 51 56 70 57 52 58 55 59 69 60 88 61 53 62 54 63 68 65 89 66
REMARK SMILES IDX 56 67 40 68 41 69 49 70 42 71 44 72 50 73 43 74 45 75 46 76
REMARK SMILES IDX 47 77 48 78 72 79 73 80 81 81 74 82 76 83 82 84 75 85 77 86
REMARK SMILES IDX 78 87 79 88 80 89 57 90 58 91 66 92 59 93 61 94 67 95 60 96
REMARK SMILES IDX 62 97 63 98 64 99 65 100
REMARK H PARENT 3 17 87 53 55 64
REMARK Flexibility Score: inf
ROOT
ATOM      1  C   UNL A   1      37.692  21.130  25.463  1.00  0.00     0.188 C 
ENDROOT
BRANCH   1   2
ATOM      2  C   UNL A   1      37.125  21.599  24.109  1.00  0.00     0.188 C 
BRANCH   2   3
ATOM      3  O   UNL A   1      35.900  22.313  24.070  1.00  0.00    -0.376 OA
BRANCH   3   4
ATOM      4  C   UNL A   1      35.567  23.152  22.972  1.00  0.00     0.202 C 
BRANCH   4   5
ATOM      5  C   UNL A   1      34.304  24.039  22.925  1.00  0.00     0.261 C 
BRANCH   5   6
ATOM      6  O   UNL A   1      34.083  24.879  24.070  1.00  0.00    -0.461 OA
BRANCH   6   7
ATOM      7  C   UNL A   1      33.157  24.466  24.962  1.00  0.00     0.341 C 
ATOM      8  O   UNL A   1      33.320  23.506  25.704  1.00  0.00    -0.249 OA
BRANCH   7   9
ATOM      9  C   UNL A   1      31.861  25.299  24.903  1.00  0.00     0.231 C 
ATOM     10  C   UNL A   1      30.745  24.304  24.539  1.00  0.00     0.058 C 
BRANCH   9  11
ATOM     11  C   UNL A   1      31.690  25.758  26.348  1.00  0.00     0.422 C 
ATOM     12  F   UNL A   1      31.367  24.727  27.157  1.00  0.00    -0.168 F 
ATOM     13  F   UNL A   1      32.848  26.305  26.791  1.00  0.00    -0.168 F 
ATOM     14  F   UNL A   1      30.756  26.716  26.520  1.00  0.00    -0.168 F 
ENDBRANCH   9  11
BRANCH   9  15
ATOM     15  N   UNL A   1      31.792  26.379  23.828  1.00  0.00    -0.332 N 
ATOM     16  C   UNL A   1      30.784  26.773  22.988  1.00  0.00     0.231 C 
ATOM     17  H   UNL A   1      32.628  26.888  23.717  1.00  0.00     0.164 HD
ATOM     18  O   UNL A   1      31.004  26.717  21.773  1.00  0.00    -0.274 OA
BRANCH  16  19
ATOM     19  C   UNL A   1      29.562  27.532  23.491  1.00  0.00     0.169 C 
BRANCH  19  20
ATOM     20  S   UNL A   1      29.578  29.333  23.433  1.00  0.00    -0.146 SA
BRANCH  20  21
ATOM     21  C   UNL A   1      29.078  29.666  21.713  1.00  0.00     0.116 C 
BRANCH  21  22
ATOM     22  C   UNL A   1      28.632  31.080  21.572  1.00  0.00     0.014 A 
ATOM     23  C   UNL A   1      28.667  32.089  22.515  1.00  0.00     0.016 A 
ATOM     24  S   UNL A   1      27.975  31.625  20.087  1.00  0.00    -0.148 S 
ATOM     25  C   UNL A   1      28.095  33.297  22.028  1.00  0.00     0.012 A 
ATOM     26  C   UNL A   1      27.678  33.180  20.720  1.00  0.00     0.065 A 
ENDBRANCH  21  22
ENDBRANCH  20  21
ENDBRANCH  19  20
ENDBRANCH  16  19
ENDBRANCH   9  15
ENDBRANCH   7   9
ENDBRANCH   6   7
ENDBRANCH   5   6
ENDBRANCH   4   5
ENDBRANCH   3   4
ENDBRANCH   2   3
ENDBRANCH   1   2
BRANCH   1  27
ATOM     27  O   UNL A   1      38.559  22.064  26.066  1.00  0.00    -0.377 OA
BRANCH  27  28
ATOM     28  C   UNL A   1      39.836  21.573  26.434  1.00  0.00     0.188 C 
BRANCH  28  29
ATOM     29  C   UNL A   1      40.162  20.104  26.093  1.00  0.00     0.188 C 
BRANCH  29  30
ATOM     30  O   UNL A   1      41.556  19.805  26.041  1.00  0.00    -0.376 OA
BRANCH  30  31
ATOM     31  C   UNL A   1      42.475  20.709  26.636  1.00  0.00     0.202 C 
BRANCH  31  32
ATOM     32  C   UNL A   1      43.537  21.351  25.725  1.00  0.00     0.261 C 
BRANCH  32  33
ATOM     33  O   UNL A   1      43.147  22.555  25.048  1.00  0.00    -0.460 OA
BRANCH  33  34
ATOM     34  C   UNL A   1      44.111  23.469  24.813  1.00  0.00     0.338 C 
ATOM     35  O   UNL A   1      44.954  23.424  23.929  1.00  0.00    -0.246 OA
BRANCH  34  36
ATOM     36  C   UNL A   1      43.844  24.657  25.652  1.00  0.00     0.060 A 
ATOM     37  C   UNL A   1      43.490  25.850  25.010  1.00  0.00     0.016 A 
ATOM     38  C   UNL A   1      43.920  24.602  27.047  1.00  0.00     0.016 A 
ATOM     39  C   UNL A   1      43.262  27.003  25.755  1.00  0.00     0.010 A 
ATOM     40  C   UNL A   1      43.717  25.769  27.794  1.00  0.00     0.010 A 
ATOM     41  C   UNL A   1      43.431  26.984  27.146  1.00  0.00    -0.014 A 
BRANCH  41  42
ATOM     42  C   UNL A   1      43.508  28.282  27.859  1.00  0.00     0.031 A 
ATOM     43  C   UNL A   1      42.235  28.881  28.396  1.00  0.00     0.074 A 
ATOM     44  C   UNL A   1      44.691  28.871  28.107  1.00  0.00     0.049 A 
ATOM     45  N   UNL A   1      42.067  29.955  29.122  1.00  0.00    -0.248 NA
ATOM     46  C   UNL A   1      40.985  28.171  28.077  1.00  0.00     0.031 C 
ATOM     47  C   UNL A   1      45.990  28.385  27.647  1.00  0.00     0.029 A 
ATOM     48  N   UNL A   1      44.985  30.015  28.805  1.00  0.00    -0.354 N 
ATOM     49  C   UNL A   1      40.699  30.055  29.339  1.00  0.00     0.074 A 
ATOM     50  C   UNL A   1      40.077  28.949  28.645  1.00  0.00     0.031 C 
ATOM     51  C   UNL A   1      46.943  29.241  28.056  1.00  0.00     0.029 A 
ATOM     52  C   UNL A   1      46.320  30.340  28.792  1.00  0.00     0.049 A 
ATOM     53  H   UNL A   1      44.304  30.552  29.271  1.00  0.00     0.167 HD
ATOM     54  C   UNL A   1      40.018  30.969  30.071  1.00  0.00     0.034 A 
ATOM     55  C   UNL A   1      46.961  31.412  29.301  1.00  0.00     0.034 A 
ATOM     56  C   UNL A   1      40.636  32.069  30.761  1.00  0.00     0.049 A 
ATOM     57  C   UNL A   1      46.178  32.434  30.084  1.00  0.00     0.074 A 
ATOM     58  C   UNL A   1      40.036  33.040  31.544  1.00  0.00     0.029 A 
ATOM     59  N   UNL A   1      41.992  32.355  30.743  1.00  0.00    -0.354 N 
ATOM     60  N   UNL A   1      44.897  32.455  30.369  1.00  0.00    -0.248 NA
ATOM     61  C   UNL A   1      46.936  33.557  30.653  1.00  0.00     0.031 C 
ATOM     62  C   UNL A   1      41.026  33.932  31.971  1.00  0.00     0.029 A 
ATOM     63  C   UNL A   1      42.248  33.491  31.492  1.00  0.00     0.049 A 
ATOM     64  H   UNL A   1      42.673  31.827  30.267  1.00  0.00     0.167 HD
ATOM     65  C   UNL A   1      44.703  33.574  31.172  1.00  0.00     0.074 A 
ATOM     66  C   UNL A   1      46.004  34.182  31.359  1.00  0.00     0.031 C 
ATOM     67  C   UNL A   1      43.553  34.066  31.698  1.00  0.00     0.034 A 
BRANCH  54  68
ATOM     68  C   UNL A   1      38.524  30.803  30.179  1.00  0.00     0.023 A 
ATOM     69  C   UNL A   1      37.990  29.877  31.098  1.00  0.00     0.012 A 
ATOM     70  C   UNL A   1      37.651  31.599  29.413  1.00  0.00     0.148 A 
ATOM     71  C   UNL A   1      36.609  29.724  31.230  1.00  0.00     0.002 A 
ATOM     72  C   UNL A   1      36.278  31.474  29.585  1.00  0.00     0.091 A 
ATOM     73  F   UNL A   1      38.179  32.457  28.529  1.00  0.00    -0.205 F 
ATOM     74  C   UNL A   1      35.755  30.530  30.484  1.00  0.00     0.022 A 
BRANCH  72  75
ATOM     75  S   UNL A   1      35.094  32.518  28.729  1.00  0.00     0.127 S 
ATOM     76  O   UNL A   1      34.074  31.546  28.338  1.00  0.00    -0.237 OA
ATOM     77  O   UNL A   1      34.681  33.442  29.786  1.00  0.00    -0.237 OA
ATOM     78  O   UNL A   1      35.819  33.134  27.629  1.00  0.00    -0.744 OA
ENDBRANCH  72  75
ENDBRANCH  54  68
BRANCH  55  79
ATOM     79  C   UNL A   1      48.428  31.573  29.092  1.00  0.00     0.023 A 
ATOM     80  C   UNL A   1      49.342  30.890  29.917  1.00  0.00     0.012 A 
ATOM     81  C   UNL A   1      48.918  32.415  28.074  1.00  0.00     0.148 A 
ATOM     82  C   UNL A   1      50.718  31.075  29.757  1.00  0.00     0.002 A 
ATOM     83  C   UNL A   1      50.287  32.546  27.881  1.00  0.00     0.091 A 
ATOM     84  F   UNL A   1      48.032  33.072  27.313  1.00  0.00    -0.205 F 
ATOM     85  C   UNL A   1      51.190  31.894  28.734  1.00  0.00     0.022 A 
BRANCH  83  86
ATOM     86  S   UNL A   1      50.977  33.468  26.503  1.00  0.00     0.127 S 
ATOM     87  O   UNL A   1      50.571  34.833  26.823  1.00  0.00    -0.237 OA
ATOM     88  O   UNL A   1      52.408  33.199  26.650  1.00  0.00    -0.237 OA
ATOM     89  O   UNL A   1      50.380  32.893  25.305  1.00  0.00    -0.744 OA
ENDBRANCH  83  86
ENDBRANCH  55  79
BRANCH  67  90
ATOM     90  C   UNL A   1      43.654  35.304  32.555  1.00  0.00     0.023 A 
ATOM     91  C   UNL A   1      43.798  35.185  33.952  1.00  0.00     0.012 A 
ATOM     92  C   UNL A   1      43.636  36.585  31.971  1.00  0.00     0.148 A 
ATOM     93  C   UNL A   1      43.865  36.323  34.758  1.00  0.00     0.002 A 
ATOM     94  C   UNL A   1      43.760  37.713  32.774  1.00  0.00     0.091 A 
ATOM     95  F   UNL A   1      43.485  36.682  30.641  1.00  0.00    -0.205 F 
ATOM     96  C   UNL A   1      43.855  37.584  34.169  1.00  0.00     0.022 A 
BRANCH  94  97
ATOM     97  S   UNL A   1      43.855  39.372  32.095  1.00  0.00     0.127 S 
ATOM     98  O   UNL A   1      45.265  39.698  32.300  1.00  0.00    -0.237 OA
ATOM     99  O   UNL A   1      43.476  39.158  30.698  1.00  0.00    -0.237 OA
ATOM    100  O   UNL A   1      42.910  40.173  32.860  1.00  0.00    -0.744 OA
ENDBRANCH  94  97
ENDBRANCH  67  90
ENDBRANCH  41  42
ENDBRANCH  34  36
ENDBRANCH  33  34
ENDBRANCH  32  33
ENDBRANCH  31  32
ENDBRANCH  30  31
ENDBRANCH  29  30
ENDBRANCH  28  29
ENDBRANCH  27  28
ENDBRANCH   1  27
TORSDOF 29
ENDMDL
