MODEL 1
REMARK VINA RESULT:      -7.7      0.000      0.000
REMARK SMILES CCCCOc1ccc(NC(=O)[C@]2(C)CC[C@](C)(C(=O)OCCOCCOCCOCCOC(=O)c3ccc(-c4c5nc(c(-c6cccc(S(=O)(=O)[O-])c6F)c6ccc([nH]6)c(-c6cccc(S(=O)(=O)[O-])c6F)c6nc(c(-c7cccc(S(=O)(=O)[O-])c7F)c7ccc4[nH]7)C=C6)C=C5)cc3)C2(C)C)cc1
REMARK SMILES IDX 25 1 24 2 23 3 22 4 21 5 19 6 20 7 17 8 13 9 15 10 99 11
REMARK SMILES IDX 14 12 16 13 100 14 101 15 18 16 11 17 10 18 12 20 9 21 6 22
REMARK SMILES IDX 7 23 103 24 8 25 102 26 5 27 4 28 3 29 2 30 1 31 26 32 27 33
REMARK SMILES IDX 28 34 29 35 30 36 31 37 32 38 33 39 34 40 35 41 36 42 37 43
REMARK SMILES IDX 98 44 38 45 97 46 39 47 40 48 41 49 91 50 42 51 96 52 90 53
REMARK SMILES IDX 92 54 43 55 95 56 89 57 88 58 44 60 76 61 56 62 75 63 57 64
REMARK SMILES IDX 60 65 74 66 93 67 58 68 59 69 73 71 94 72 61 73 45 74 46 75
REMARK SMILES IDX 54 76 47 77 49 78 55 79 48 80 50 81 51 82 52 83 53 84 77 85
REMARK SMILES IDX 78 86 86 87 79 88 81 89 87 90 80 91 82 92 83 93 84 94 85 95
REMARK SMILES IDX 62 96 63 97 71 98 64 99 66 100 72 101 65 102 67 103 68 104
REMARK SMILES IDX 69 105 70 106
REMARK H PARENT 10 19 92 59 60 70
REMARK Flexibility Score: inf
ROOT
ATOM      1  C   UNL A   1      39.475  28.158  29.581  1.00  0.00     0.188 C 
ENDROOT
BRANCH   1   2
ATOM      2  O   UNL A   1      39.869  27.054  28.801  1.00  0.00    -0.376 OA
BRANCH   2   3
ATOM      3  C   UNL A   1      41.177  26.531  29.035  1.00  0.00     0.202 C 
BRANCH   3   4
ATOM      4  C   UNL A   1      42.438  27.266  28.525  1.00  0.00     0.261 C 
BRANCH   4   5
ATOM      5  O   UNL A   1      43.630  26.457  28.324  1.00  0.00    -0.463 OA
BRANCH   5   6
ATOM      6  C   UNL A   1      44.346  26.684  27.182  1.00  0.00     0.312 C 
ATOM      7  O   UNL A   1      44.394  27.788  26.646  1.00  0.00    -0.252 OA
BRANCH   6   8
ATOM      8  C   UNL A   1      44.794  25.394  26.430  1.00  0.00     0.071 C 
ATOM      9  C   UNL A   1      43.588  23.197  26.942  1.00  0.00     0.053 C 
ATOM     10  C   UNL A   1      44.988  23.111  27.539  1.00  0.00     0.018 C 
ATOM     11  C   UNL A   1      43.753  24.353  25.832  1.00  0.00    -0.005 C 
ATOM     12  C   UNL A   1      43.315  21.812  26.244  1.00  0.00     0.022 C 
ATOM     13  C   UNL A   1      45.692  24.461  27.307  1.00  0.00     0.020 C 
ATOM     14  C   UNL A   1      44.389  23.765  24.521  1.00  0.00     0.013 C 
ATOM     15  C   UNL A   1      42.405  24.902  25.367  1.00  0.00     0.013 C 
ATOM     16  C   UNL A   1      45.766  26.053  25.400  1.00  0.00     0.024 C 
BRANCH   9  17
ATOM     17  C   UNL A   1      42.383  23.231  27.972  1.00  0.00     0.230 C 
ATOM     18  N   UNL A   1      41.039  23.185  27.842  1.00  0.00    -0.326 N 
ATOM     19  H   UNL A   1      40.617  23.391  28.707  1.00  0.00     0.169 HD
ATOM     20  O   UNL A   1      42.674  23.274  29.189  1.00  0.00    -0.274 OA
BRANCH  18  21
ATOM     21  C   UNL A   1      40.050  22.941  26.884  1.00  0.00     0.041 A 
ATOM     22  C   UNL A   1      37.551  22.469  25.747  1.00  0.00     0.119 A 
ATOM     23  C   UNL A   1      38.508  21.471  25.746  1.00  0.00     0.048 A 
ATOM     24  C   UNL A   1      37.903  23.755  26.129  1.00  0.00     0.048 A 
ATOM     25  C   UNL A   1      39.769  21.733  26.285  1.00  0.00     0.030 A 
ATOM     26  C   UNL A   1      39.172  24.007  26.643  1.00  0.00     0.030 A 
BRANCH  22  27
ATOM     27  O   UNL A   1      36.234  22.212  25.522  1.00  0.00    -0.494 OA
BRANCH  27  28
ATOM     28  C   UNL A   1      35.353  22.987  26.330  1.00  0.00     0.229 C 
BRANCH  28  29
ATOM     29  C   UNL A   1      34.274  23.603  25.441  1.00  0.00     0.041 C 
BRANCH  29  30
ATOM     30  C   UNL A   1      33.359  24.639  26.104  1.00  0.00     0.000 C 
ATOM     31  C   UNL A   1      33.010  25.861  25.263  1.00  0.00     0.004 C 
ENDBRANCH  29  30
ENDBRANCH  28  29
ENDBRANCH  27  28
ENDBRANCH  22  27
ENDBRANCH  18  21
ENDBRANCH   9  17
ENDBRANCH   6   8
ENDBRANCH   5   6
ENDBRANCH   4   5
ENDBRANCH   3   4
ENDBRANCH   2   3
ENDBRANCH   1   2
BRANCH   1  32
ATOM     32  C   UNL A   1      38.358  29.021  29.016  1.00  0.00     0.188 C 
BRANCH  32  33
ATOM     33  O   UNL A   1      37.264  29.280  29.862  1.00  0.00    -0.377 OA
BRANCH  33  34
ATOM     34  C   UNL A   1      36.152  29.971  29.333  1.00  0.00     0.188 C 
BRANCH  34  35
ATOM     35  C   UNL A   1      36.343  30.790  28.051  1.00  0.00     0.188 C 
BRANCH  35  36
ATOM     36  O   UNL A   1      36.688  32.176  28.121  1.00  0.00    -0.376 OA
BRANCH  36  37
ATOM     37  C   UNL A   1      36.624  32.865  29.367  1.00  0.00     0.202 C 
BRANCH  37  38
ATOM     38  C   UNL A   1      35.428  33.793  29.555  1.00  0.00     0.261 C 
BRANCH  38  39
ATOM     39  O   UNL A   1      35.272  34.166  30.929  1.00  0.00    -0.460 OA
BRANCH  39  40
ATOM     40  C   UNL A   1      34.853  33.184  31.756  1.00  0.00     0.338 C 
ATOM     41  O   UNL A   1      33.999  32.339  31.533  1.00  0.00    -0.246 OA
BRANCH  40  42
ATOM     42  C   UNL A   1      35.731  33.163  32.937  1.00  0.00     0.060 A 
ATOM     43  C   UNL A   1      35.615  34.207  33.865  1.00  0.00     0.016 A 
ATOM     44  C   UNL A   1      36.669  32.143  33.119  1.00  0.00     0.016 A 
ATOM     45  C   UNL A   1      36.486  34.272  34.946  1.00  0.00     0.010 A 
ATOM     46  C   UNL A   1      37.553  32.219  34.191  1.00  0.00     0.010 A 
ATOM     47  C   UNL A   1      37.496  33.314  35.072  1.00  0.00    -0.014 A 
BRANCH  47  48
ATOM     48  C   UNL A   1      38.646  33.593  35.955  1.00  0.00     0.031 A 
ATOM     49  C   UNL A   1      38.506  33.242  37.411  1.00  0.00     0.074 A 
ATOM     50  C   UNL A   1      39.776  34.136  35.474  1.00  0.00     0.049 A 
ATOM     51  N   UNL A   1      39.339  33.441  38.396  1.00  0.00    -0.248 NA
ATOM     52  C   UNL A   1      37.251  32.578  37.810  1.00  0.00     0.031 C 
ATOM     53  C   UNL A   1      40.017  34.487  34.075  1.00  0.00     0.029 A 
ATOM     54  N   UNL A   1      40.924  34.508  36.121  1.00  0.00    -0.354 N 
ATOM     55  C   UNL A   1      38.701  32.954  39.531  1.00  0.00     0.074 A 
ATOM     56  C   UNL A   1      37.405  32.466  39.120  1.00  0.00     0.031 C 
ATOM     57  C   UNL A   1      41.232  35.056  33.974  1.00  0.00     0.029 A 
ATOM     58  C   UNL A   1      41.835  35.132  35.303  1.00  0.00     0.049 A 
ATOM     59  H   UNL A   1      41.082  34.343  37.078  1.00  0.00     0.167 HD
ATOM     60  C   UNL A   1      39.164  32.902  40.801  1.00  0.00     0.034 A 
ATOM     61  C   UNL A   1      43.009  35.719  35.610  1.00  0.00     0.034 A 
ATOM     62  C   UNL A   1      40.457  33.386  41.194  1.00  0.00     0.049 A 
ATOM     63  C   UNL A   1      43.479  35.692  37.043  1.00  0.00     0.074 A 
ATOM     64  C   UNL A   1      41.038  33.373  42.448  1.00  0.00     0.029 A 
ATOM     65  N   UNL A   1      41.368  33.982  40.334  1.00  0.00    -0.354 N 
ATOM     66  N   UNL A   1      42.906  35.151  38.092  1.00  0.00    -0.248 NA
ATOM     67  C   UNL A   1      44.773  36.328  37.328  1.00  0.00     0.031 C 
ATOM     68  C   UNL A   1      42.290  33.989  42.352  1.00  0.00     0.029 A 
ATOM     69  C   UNL A   1      42.505  34.346  41.029  1.00  0.00     0.049 A 
ATOM     70  H   UNL A   1      41.224  34.124  39.370  1.00  0.00     0.167 HD
ATOM     71  C   UNL A   1      43.790  35.337  39.150  1.00  0.00     0.074 A 
ATOM     72  C   UNL A   1      44.943  36.028  38.608  1.00  0.00     0.031 C 
ATOM     73  C   UNL A   1      43.663  34.979  40.451  1.00  0.00     0.034 A 
BRANCH  60  74
ATOM     74  C   UNL A   1      38.271  32.287  41.846  1.00  0.00     0.023 A 
ATOM     75  C   UNL A   1      38.434  30.930  42.194  1.00  0.00     0.012 A 
ATOM     76  C   UNL A   1      37.300  33.059  42.512  1.00  0.00     0.148 A 
ATOM     77  C   UNL A   1      37.624  30.343  43.166  1.00  0.00     0.002 A 
ATOM     78  C   UNL A   1      36.529  32.480  43.512  1.00  0.00     0.091 A 
ATOM     79  F   UNL A   1      37.144  34.340  42.149  1.00  0.00    -0.205 F 
ATOM     80  C   UNL A   1      36.680  31.120  43.832  1.00  0.00     0.022 A 
BRANCH  78  81
ATOM     81  S   UNL A   1      35.340  33.412  44.484  1.00  0.00     0.127 S 
ATOM     82  O   UNL A   1      34.598  32.341  45.149  1.00  0.00    -0.237 OA
ATOM     83  O   UNL A   1      36.209  34.190  45.366  1.00  0.00    -0.237 OA
ATOM     84  O   UNL A   1      34.570  34.200  43.533  1.00  0.00    -0.744 OA
ENDBRANCH  78  81
ENDBRANCH  60  74
BRANCH  61  85
ATOM     85  C   UNL A   1      43.836  36.354  34.546  1.00  0.00     0.023 A 
ATOM     86  C   UNL A   1      44.874  35.618  33.942  1.00  0.00     0.012 A 
ATOM     87  C   UNL A   1      43.609  37.683  34.137  1.00  0.00     0.148 A 
ATOM     88  C   UNL A   1      45.699  36.207  32.981  1.00  0.00     0.002 A 
ATOM     89  C   UNL A   1      44.398  38.245  33.139  1.00  0.00     0.091 A 
ATOM     90  F   UNL A   1      42.625  38.372  34.732  1.00  0.00    -0.205 F 
ATOM     91  C   UNL A   1      45.457  37.516  32.576  1.00  0.00     0.022 A 
BRANCH  89  92
ATOM     92  S   UNL A   1      44.083  39.881  32.467  1.00  0.00     0.127 S 
ATOM     93  O   UNL A   1      44.974  40.712  33.272  1.00  0.00    -0.237 OA
ATOM     94  O   UNL A   1      44.486  39.715  31.070  1.00  0.00    -0.237 OA
ATOM     95  O   UNL A   1      42.657  40.116  32.656  1.00  0.00    -0.744 OA
ENDBRANCH  89  92
ENDBRANCH  61  85
BRANCH  73  96
ATOM     96  C   UNL A   1      44.822  35.265  41.371  1.00  0.00     0.023 A 
ATOM     97  C   UNL A   1      44.871  36.472  42.094  1.00  0.00     0.012 A 
ATOM     98  C   UNL A   1      45.822  34.293  41.574  1.00  0.00     0.148 A 
ATOM     99  C   UNL A   1      45.921  36.724  42.976  1.00  0.00     0.002 A 
ATOM    100  C   UNL A   1      46.834  34.528  42.495  1.00  0.00     0.091 A 
ATOM    101  F   UNL A   1      45.763  33.156  40.864  1.00  0.00    -0.205 F 
ATOM    102  C   UNL A   1      46.894  35.749  43.186  1.00  0.00     0.022 A 
BRANCH 100 103
ATOM    103  S   UNL A   1      48.068  33.290  42.907  1.00  0.00     0.127 S 
ATOM    104  O   UNL A   1      48.597  32.946  41.589  1.00  0.00    -0.237 OA
ATOM    105  O   UNL A   1      48.990  34.045  43.757  1.00  0.00    -0.237 OA
ATOM    106  O   UNL A   1      47.353  32.220  43.591  1.00  0.00    -0.744 OA
ENDBRANCH 100 103
ENDBRANCH  73  96
ENDBRANCH  47  48
ENDBRANCH  40  42
ENDBRANCH  39  40
ENDBRANCH  38  39
ENDBRANCH  37  38
ENDBRANCH  36  37
ENDBRANCH  35  36
ENDBRANCH  34  35
ENDBRANCH  33  34
ENDBRANCH  32  33
ENDBRANCH   1  32
TORSDOF 29
ENDMDL
MODEL 2
REMARK VINA RESULT:      -7.5      7.134     15.107
REMARK SMILES CCCCOc1ccc(NC(=O)[C@]2(C)CC[C@](C)(C(=O)OCCOCCOCCOCCOC(=O)c3ccc(-c4c5nc(c(-c6cccc(S(=O)(=O)[O-])c6F)c6ccc([nH]6)c(-c6cccc(S(=O)(=O)[O-])c6F)c6nc(c(-c7cccc(S(=O)(=O)[O-])c7F)c7ccc4[nH]7)C=C6)C=C5)cc3)C2(C)C)cc1
REMARK SMILES IDX 25 1 24 2 23 3 22 4 21 5 19 6 20 7 17 8 13 9 15 10 99 11
REMARK SMILES IDX 14 12 16 13 100 14 101 15 18 16 11 17 10 18 12 20 9 21 6 22
REMARK SMILES IDX 7 23 103 24 8 25 102 26 5 27 4 28 3 29 2 30 1 31 26 32 27 33
REMARK SMILES IDX 28 34 29 35 30 36 31 37 32 38 33 39 34 40 35 41 36 42 37 43
REMARK SMILES IDX 98 44 38 45 97 46 39 47 40 48 41 49 91 50 42 51 96 52 90 53
REMARK SMILES IDX 92 54 43 55 95 56 89 57 88 58 44 60 76 61 56 62 75 63 57 64
REMARK SMILES IDX 60 65 74 66 93 67 58 68 59 69 73 71 94 72 61 73 45 74 46 75
REMARK SMILES IDX 54 76 47 77 49 78 55 79 48 80 50 81 51 82 52 83 53 84 77 85
REMARK SMILES IDX 78 86 86 87 79 88 81 89 87 90 80 91 82 92 83 93 84 94 85 95
REMARK SMILES IDX 62 96 63 97 71 98 64 99 66 100 72 101 65 102 67 103 68 104
REMARK SMILES IDX 69 105 70 106
REMARK H PARENT 10 19 92 59 60 70
REMARK Flexibility Score: inf
ROOT
ATOM      1  C   UNL A   1      40.651  28.800  28.705  1.00  0.00     0.188 C 
ENDROOT
BRANCH   1   2
ATOM      2  O   UNL A   1      40.123  27.494  28.702  1.00  0.00    -0.376 OA
BRANCH   2   3
ATOM      3  C   UNL A   1      39.221  27.159  29.758  1.00  0.00     0.202 C 
BRANCH   3   4
ATOM      4  C   UNL A   1      38.164  28.169  30.261  1.00  0.00     0.261 C 
BRANCH   4   5
ATOM      5  O   UNL A   1      38.144  28.437  31.691  1.00  0.00    -0.463 OA
BRANCH   5   6
ATOM      6  C   UNL A   1      37.661  29.654  32.084  1.00  0.00     0.312 C 
ATOM      7  O   UNL A   1      36.474  29.955  31.980  1.00  0.00    -0.252 OA
BRANCH   6   8
ATOM      8  C   UNL A   1      38.755  30.736  32.337  1.00  0.00     0.071 C 
ATOM      9  C   UNL A   1      38.069  33.200  32.305  1.00  0.00     0.053 C 
ATOM     10  C   UNL A   1      38.892  32.928  31.051  1.00  0.00     0.018 C 
ATOM     11  C   UNL A   1      38.507  31.992  33.277  1.00  0.00    -0.005 C 
ATOM     12  C   UNL A   1      38.579  34.572  32.884  1.00  0.00     0.022 C 
ATOM     13  C   UNL A   1      39.239  31.428  31.020  1.00  0.00     0.020 C 
ATOM     14  C   UNL A   1      39.875  32.322  33.976  1.00  0.00     0.013 C 
ATOM     15  C   UNL A   1      37.537  31.811  34.444  1.00  0.00     0.013 C 
ATOM     16  C   UNL A   1      39.923  29.789  32.758  1.00  0.00     0.024 C 
BRANCH   9  17
ATOM     17  C   UNL A   1      36.538  33.545  32.083  1.00  0.00     0.230 C 
ATOM     18  N   UNL A   1      35.687  33.404  31.042  1.00  0.00    -0.326 N 
ATOM     19  H   UNL A   1      34.850  33.884  31.234  1.00  0.00     0.169 HD
ATOM     20  O   UNL A   1      35.914  34.024  33.057  1.00  0.00    -0.274 OA
BRANCH  18  21
ATOM     21  C   UNL A   1      35.606  32.801  29.783  1.00  0.00     0.041 A 
ATOM     22  C   UNL A   1      34.709  31.195  27.691  1.00  0.00     0.119 A 
ATOM     23  C   UNL A   1      35.918  30.919  28.302  1.00  0.00     0.048 A 
ATOM     24  C   UNL A   1      34.049  32.379  27.983  1.00  0.00     0.048 A 
ATOM     25  C   UNL A   1      36.374  31.755  29.324  1.00  0.00     0.030 A 
ATOM     26  C   UNL A   1      34.527  33.215  28.988  1.00  0.00     0.030 A 
BRANCH  22  27
ATOM     27  O   UNL A   1      34.063  30.283  26.914  1.00  0.00    -0.494 OA
BRANCH  27  28
ATOM     28  C   UNL A   1      34.404  28.933  27.210  1.00  0.00     0.229 C 
BRANCH  28  29
ATOM     29  C   UNL A   1      33.696  28.012  26.217  1.00  0.00     0.041 C 
BRANCH  29  30
ATOM     30  C   UNL A   1      32.175  28.170  26.110  1.00  0.00     0.000 C 
ATOM     31  C   UNL A   1      31.394  28.042  27.412  1.00  0.00     0.004 C 
ENDBRANCH  29  30
ENDBRANCH  28  29
ENDBRANCH  27  28
ENDBRANCH  22  27
ENDBRANCH  18  21
ENDBRANCH   9  17
ENDBRANCH   6   8
ENDBRANCH   5   6
ENDBRANCH   4   5
ENDBRANCH   3   4
ENDBRANCH   2   3
ENDBRANCH   1   2
BRANCH   1  32
ATOM     32  C   UNL A   1      41.793  29.070  27.739  1.00  0.00     0.188 C 
BRANCH  32  33
ATOM     33  O   UNL A   1      42.603  27.974  27.389  1.00  0.00    -0.377 OA
BRANCH  33  34
ATOM     34  C   UNL A   1      42.387  27.349  26.141  1.00  0.00     0.188 C 
BRANCH  34  35
ATOM     35  C   UNL A   1      42.951  25.941  25.922  1.00  0.00     0.188 C 
BRANCH  35  36
ATOM     36  O   UNL A   1      42.658  24.891  26.848  1.00  0.00    -0.376 OA
BRANCH  36  37
ATOM     37  C   UNL A   1      41.749  23.854  26.488  1.00  0.00     0.202 C 
BRANCH  37  38
ATOM     38  C   UNL A   1      42.307  22.435  26.532  1.00  0.00     0.261 C 
BRANCH  38  39
ATOM     39  O   UNL A   1      43.706  22.437  26.836  1.00  0.00    -0.460 OA
BRANCH  39  40
ATOM     40  C   UNL A   1      44.533  22.275  25.781  1.00  0.00     0.338 C 
ATOM     41  O   UNL A   1      44.359  21.563  24.803  1.00  0.00    -0.246 OA
BRANCH  40  42
ATOM     42  C   UNL A   1      45.628  23.252  25.891  1.00  0.00     0.060 A 
ATOM     43  C   UNL A   1      45.995  23.690  27.172  1.00  0.00     0.016 A 
ATOM     44  C   UNL A   1      46.271  23.745  24.754  1.00  0.00     0.016 A 
ATOM     45  C   UNL A   1      46.961  24.678  27.314  1.00  0.00     0.010 A 
ATOM     46  C   UNL A   1      47.226  24.749  24.896  1.00  0.00     0.010 A 
ATOM     47  C   UNL A   1      47.530  25.253  26.173  1.00  0.00    -0.014 A 
BRANCH  47  48
ATOM     48  C   UNL A   1      48.232  26.546  26.291  1.00  0.00     0.031 A 
ATOM     49  C   UNL A   1      49.735  26.517  26.347  1.00  0.00     0.074 A 
ATOM     50  C   UNL A   1      47.554  27.703  26.343  1.00  0.00     0.049 A 
ATOM     51  N   UNL A   1      50.578  27.500  26.511  1.00  0.00    -0.248 NA
ATOM     52  C   UNL A   1      50.375  25.195  26.202  1.00  0.00     0.031 C 
ATOM     53  C   UNL A   1      46.100  27.836  26.271  1.00  0.00     0.029 A 
ATOM     54  N   UNL A   1      48.006  28.987  26.494  1.00  0.00    -0.354 N 
ATOM     55  C   UNL A   1      51.840  26.916  26.515  1.00  0.00     0.074 A 
ATOM     56  C   UNL A   1      51.654  25.492  26.357  1.00  0.00     0.031 C 
ATOM     57  C   UNL A   1      45.776  29.134  26.410  1.00  0.00     0.029 A 
ATOM     58  C   UNL A   1      46.997  29.912  26.608  1.00  0.00     0.049 A 
ATOM     59  H   UNL A   1      48.961  29.224  26.518  1.00  0.00     0.167 HD
ATOM     60  C   UNL A   1      53.046  27.518  26.625  1.00  0.00     0.034 A 
ATOM     61  C   UNL A   1      47.063  31.232  26.871  1.00  0.00     0.034 A 
ATOM     62  C   UNL A   1      53.215  28.934  26.777  1.00  0.00     0.049 A 
ATOM     63  C   UNL A   1      48.420  31.870  27.039  1.00  0.00     0.074 A 
ATOM     64  C   UNL A   1      54.389  29.657  26.882  1.00  0.00     0.029 A 
ATOM     65  N   UNL A   1      52.172  29.846  26.855  1.00  0.00    -0.354 N 
ATOM     66  N   UNL A   1      49.609  31.321  26.954  1.00  0.00    -0.248 NA
ATOM     67  C   UNL A   1      48.444  33.315  27.306  1.00  0.00     0.031 C 
ATOM     68  C   UNL A   1      54.055  31.004  27.054  1.00  0.00     0.029 A 
ATOM     69  C   UNL A   1      52.674  31.124  27.012  1.00  0.00     0.049 A 
ATOM     70  H   UNL A   1      51.216  29.616  26.805  1.00  0.00     0.167 HD
ATOM     71  C   UNL A   1      50.522  32.360  27.107  1.00  0.00     0.074 A 
ATOM     72  C   UNL A   1      49.745  33.571  27.275  1.00  0.00     0.031 C 
ATOM     73  C   UNL A   1      51.877  32.320  27.117  1.00  0.00     0.034 A 
BRANCH  60  74
ATOM     74  C   UNL A   1      54.271  26.643  26.566  1.00  0.00     0.023 A 
ATOM     75  C   UNL A   1      54.813  26.281  25.315  1.00  0.00     0.012 A 
ATOM     76  C   UNL A   1      54.909  26.213  27.745  1.00  0.00     0.148 A 
ATOM     77  C   UNL A   1      55.952  25.481  25.238  1.00  0.00     0.002 A 
ATOM     78  C   UNL A   1      56.070  25.455  27.662  1.00  0.00     0.091 A 
ATOM     79  F   UNL A   1      54.364  26.546  28.924  1.00  0.00    -0.205 F 
ATOM     80  C   UNL A   1      56.586  25.077  26.410  1.00  0.00     0.022 A 
BRANCH  78  81
ATOM     81  S   UNL A   1      57.007  24.949  29.108  1.00  0.00     0.127 S 
ATOM     82  O   UNL A   1      56.038  24.105  29.807  1.00  0.00    -0.237 OA
ATOM     83  O   UNL A   1      58.127  24.223  28.510  1.00  0.00    -0.237 OA
ATOM     84  O   UNL A   1      57.374  26.176  29.801  1.00  0.00    -0.744 OA
ENDBRANCH  78  81
ENDBRANCH  60  74
BRANCH  61  85
ATOM     85  C   UNL A   1      45.819  32.047  26.964  1.00  0.00     0.023 A 
ATOM     86  C   UNL A   1      45.262  32.600  25.794  1.00  0.00     0.012 A 
ATOM     87  C   UNL A   1      45.191  32.287  28.202  1.00  0.00     0.148 A 
ATOM     88  C   UNL A   1      44.128  33.411  25.859  1.00  0.00     0.002 A 
ATOM     89  C   UNL A   1      44.029  33.049  28.253  1.00  0.00     0.091 A 
ATOM     90  F   UNL A   1      45.741  31.764  29.306  1.00  0.00    -0.205 F 
ATOM     91  C   UNL A   1      43.509  33.630  27.086  1.00  0.00     0.022 A 
BRANCH  89  92
ATOM     92  S   UNL A   1      43.095  33.284  29.769  1.00  0.00     0.127 S 
ATOM     93  O   UNL A   1      42.075  34.241  29.348  1.00  0.00    -0.237 OA
ATOM     94  O   UNL A   1      42.603  31.930  30.031  1.00  0.00    -0.237 OA
ATOM     95  O   UNL A   1      44.054  33.773  30.751  1.00  0.00    -0.744 OA
ENDBRANCH  89  92
ENDBRANCH  61  85
BRANCH  73  96
ATOM     96  C   UNL A   1      52.613  33.628  27.248  1.00  0.00     0.023 A 
ATOM     97  C   UNL A   1      53.018  34.089  28.515  1.00  0.00     0.012 A 
ATOM     98  C   UNL A   1      52.971  34.358  26.097  1.00  0.00     0.148 A 
ATOM     99  C   UNL A   1      53.733  35.279  28.638  1.00  0.00     0.002 A 
ATOM    100  C   UNL A   1      53.732  35.513  26.223  1.00  0.00     0.091 A 
ATOM    101  F   UNL A   1      52.564  33.908  24.901  1.00  0.00    -0.205 F 
ATOM    102  C   UNL A   1      54.101  35.983  27.493  1.00  0.00     0.022 A 
BRANCH 100 103
ATOM    103  S   UNL A   1      54.340  36.426  24.801  1.00  0.00     0.127 S 
ATOM    104  O   UNL A   1      53.106  36.992  24.261  1.00  0.00    -0.237 OA
ATOM    105  O   UNL A   1      55.239  37.400  25.421  1.00  0.00    -0.237 OA
ATOM    106  O   UNL A   1      55.004  35.448  23.948  1.00  0.00    -0.744 OA
ENDBRANCH 100 103
ENDBRANCH  73  96
ENDBRANCH  47  48
ENDBRANCH  40  42
ENDBRANCH  39  40
ENDBRANCH  38  39
ENDBRANCH  37  38
ENDBRANCH  36  37
ENDBRANCH  35  36
ENDBRANCH  34  35
ENDBRANCH  33  34
ENDBRANCH  32  33
ENDBRANCH   1  32
TORSDOF 29
ENDMDL
MODEL 3
REMARK VINA RESULT:      -7.3      7.033     14.887
REMARK SMILES CCCCOc1ccc(NC(=O)[C@]2(C)CC[C@](C)(C(=O)OCCOCCOCCOCCOC(=O)c3ccc(-c4c5nc(c(-c6cccc(S(=O)(=O)[O-])c6F)c6ccc([nH]6)c(-c6cccc(S(=O)(=O)[O-])c6F)c6nc(c(-c7cccc(S(=O)(=O)[O-])c7F)c7ccc4[nH]7)C=C6)C=C5)cc3)C2(C)C)cc1
REMARK SMILES IDX 25 1 24 2 23 3 22 4 21 5 19 6 20 7 17 8 13 9 15 10 99 11
REMARK SMILES IDX 14 12 16 13 100 14 101 15 18 16 11 17 10 18 12 20 9 21 6 22
REMARK SMILES IDX 7 23 103 24 8 25 102 26 5 27 4 28 3 29 2 30 1 31 26 32 27 33
REMARK SMILES IDX 28 34 29 35 30 36 31 37 32 38 33 39 34 40 35 41 36 42 37 43
REMARK SMILES IDX 98 44 38 45 97 46 39 47 40 48 41 49 91 50 42 51 96 52 90 53
REMARK SMILES IDX 92 54 43 55 95 56 89 57 88 58 44 60 76 61 56 62 75 63 57 64
REMARK SMILES IDX 60 65 74 66 93 67 58 68 59 69 73 71 94 72 61 73 45 74 46 75
REMARK SMILES IDX 54 76 47 77 49 78 55 79 48 80 50 81 51 82 52 83 53 84 77 85
REMARK SMILES IDX 78 86 86 87 79 88 81 89 87 90 80 91 82 92 83 93 84 94 85 95
REMARK SMILES IDX 62 96 63 97 71 98 64 99 66 100 72 101 65 102 67 103 68 104
REMARK SMILES IDX 69 105 70 106
REMARK H PARENT 10 19 92 59 60 70
REMARK Flexibility Score: inf
ROOT
ATOM      1  C   UNL A   1      40.188  29.365  29.008  1.00  0.00     0.188 C 
ENDROOT
BRANCH   1   2
ATOM      2  O   UNL A   1      38.964  28.677  29.119  1.00  0.00    -0.376 OA
BRANCH   2   3
ATOM      3  C   UNL A   1      38.233  28.850  30.334  1.00  0.00     0.202 C 
BRANCH   3   4
ATOM      4  C   UNL A   1      38.236  30.201  31.086  1.00  0.00     0.261 C 
BRANCH   4   5
ATOM      5  O   UNL A   1      38.892  30.225  32.385  1.00  0.00    -0.463 OA
BRANCH   5   6
ATOM      6  C   UNL A   1      38.335  31.024  33.344  1.00  0.00     0.312 C 
ATOM      7  O   UNL A   1      37.130  31.016  33.588  1.00  0.00    -0.252 OA
BRANCH   6   8
ATOM      8  C   UNL A   1      39.258  32.175  33.846  1.00  0.00     0.071 C 
ATOM      9  C   UNL A   1      38.295  33.892  35.480  1.00  0.00     0.053 C 
ATOM     10  C   UNL A   1      38.481  34.582  34.134  1.00  0.00     0.018 C 
ATOM     11  C   UNL A   1      39.294  32.633  35.367  1.00  0.00    -0.005 C 
ATOM     12  C   UNL A   1      38.814  34.899  36.573  1.00  0.00     0.022 C 
ATOM     13  C   UNL A   1      38.983  33.533  33.122  1.00  0.00     0.020 C 
ATOM     14  C   UNL A   1      40.768  33.077  35.681  1.00  0.00     0.013 C 
ATOM     15  C   UNL A   1      39.003  31.570  36.425  1.00  0.00     0.013 C 
ATOM     16  C   UNL A   1      40.610  31.660  33.257  1.00  0.00     0.024 C 
BRANCH   9  17
ATOM     17  C   UNL A   1      36.801  33.696  35.971  1.00  0.00     0.230 C 
ATOM     18  N   UNL A   1      35.593  33.878  35.393  1.00  0.00    -0.326 N 
ATOM     19  H   UNL A   1      34.886  33.800  36.073  1.00  0.00     0.169 HD
ATOM     20  O   UNL A   1      36.635  33.246  37.128  1.00  0.00    -0.274 OA
BRANCH  18  21
ATOM     21  C   UNL A   1      35.017  34.139  34.145  1.00  0.00     0.041 A 
ATOM     22  C   UNL A   1      34.734  34.423  31.389  1.00  0.00     0.119 A 
ATOM     23  C   UNL A   1      34.692  35.538  32.204  1.00  0.00     0.048 A 
ATOM     24  C   UNL A   1      34.714  33.158  31.957  1.00  0.00     0.048 A 
ATOM     25  C   UNL A   1      34.797  35.378  33.587  1.00  0.00     0.030 A 
ATOM     26  C   UNL A   1      34.796  33.013  33.339  1.00  0.00     0.030 A 
BRANCH  22  27
ATOM     27  O   UNL A   1      34.938  34.511  30.046  1.00  0.00    -0.494 OA
BRANCH  27  28
ATOM     28  C   UNL A   1      34.605  33.322  29.336  1.00  0.00     0.229 C 
BRANCH  28  29
ATOM     29  C   UNL A   1      35.774  32.941  28.428  1.00  0.00     0.041 C 
BRANCH  29  30
ATOM     30  C   UNL A   1      35.791  31.496  27.914  1.00  0.00     0.000 C 
ATOM     31  C   UNL A   1      34.439  30.901  27.541  1.00  0.00     0.004 C 
ENDBRANCH  29  30
ENDBRANCH  28  29
ENDBRANCH  27  28
ENDBRANCH  22  27
ENDBRANCH  18  21
ENDBRANCH   9  17
ENDBRANCH   6   8
ENDBRANCH   5   6
ENDBRANCH   4   5
ENDBRANCH   3   4
ENDBRANCH   2   3
ENDBRANCH   1   2
BRANCH   1  32
ATOM     32  C   UNL A   1      40.966  29.157  27.720  1.00  0.00     0.188 C 
BRANCH  32  33
ATOM     33  O   UNL A   1      41.001  27.850  27.201  1.00  0.00    -0.377 OA
BRANCH  33  34
ATOM     34  C   UNL A   1      41.833  27.588  26.090  1.00  0.00     0.188 C 
BRANCH  34  35
ATOM     35  C   UNL A   1      42.208  26.134  25.785  1.00  0.00     0.188 C 
BRANCH  35  36
ATOM     36  O   UNL A   1      41.264  25.082  26.002  1.00  0.00    -0.376 OA
BRANCH  36  37
ATOM     37  C   UNL A   1      41.719  23.755  26.256  1.00  0.00     0.202 C 
BRANCH  37  38
ATOM     38  C   UNL A   1      41.601  23.275  27.699  1.00  0.00     0.261 C 
BRANCH  38  39
ATOM     39  O   UNL A   1      42.086  24.263  28.615  1.00  0.00    -0.460 OA
BRANCH  39  40
ATOM     40  C   UNL A   1      43.117  23.878  29.397  1.00  0.00     0.338 C 
ATOM     41  O   UNL A   1      43.158  22.920  30.155  1.00  0.00    -0.246 OA
BRANCH  40  42
ATOM     42  C   UNL A   1      44.292  24.698  29.058  1.00  0.00     0.060 A 
ATOM     43  C   UNL A   1      44.797  25.564  30.038  1.00  0.00     0.016 A 
ATOM     44  C   UNL A   1      44.874  24.632  27.790  1.00  0.00     0.016 A 
ATOM     45  C   UNL A   1      45.847  26.420  29.730  1.00  0.00     0.010 A 
ATOM     46  C   UNL A   1      45.914  25.503  27.476  1.00  0.00     0.010 A 
ATOM     47  C   UNL A   1      46.362  26.434  28.429  1.00  0.00    -0.014 A 
BRANCH  47  48
ATOM     48  C   UNL A   1      47.172  27.587  27.989  1.00  0.00     0.031 A 
ATOM     49  C   UNL A   1      48.668  27.428  27.994  1.00  0.00     0.074 A 
ATOM     50  C   UNL A   1      46.594  28.733  27.595  1.00  0.00     0.049 A 
ATOM     51  N   UNL A   1      49.596  28.302  27.715  1.00  0.00    -0.248 NA
ATOM     52  C   UNL A   1      49.187  26.099  28.371  1.00  0.00     0.031 C 
ATOM     53  C   UNL A   1      45.154  28.976  27.531  1.00  0.00     0.029 A 
ATOM     54  N   UNL A   1      47.156  29.917  27.197  1.00  0.00    -0.354 N 
ATOM     55  C   UNL A   1      50.804  27.641  27.906  1.00  0.00     0.074 A 
ATOM     56  C   UNL A   1      50.495  26.299  28.343  1.00  0.00     0.031 C 
ATOM     57  C   UNL A   1      44.945  30.248  27.147  1.00  0.00     0.029 A 
ATOM     58  C   UNL A   1      46.236  30.910  26.967  1.00  0.00     0.049 A 
ATOM     59  H   UNL A   1      48.127  30.043  27.086  1.00  0.00     0.167 HD
ATOM     60  C   UNL A   1      52.060  28.108  27.717  1.00  0.00     0.034 A 
ATOM     61  C   UNL A   1      46.426  32.211  26.672  1.00  0.00     0.034 A 
ATOM     62  C   UNL A   1      52.351  29.442  27.277  1.00  0.00     0.049 A 
ATOM     63  C   UNL A   1      47.838  32.718  26.516  1.00  0.00     0.074 A 
ATOM     64  C   UNL A   1      53.583  30.021  27.037  1.00  0.00     0.029 A 
ATOM     65  N   UNL A   1      51.393  30.412  27.021  1.00  0.00    -0.354 N 
ATOM     66  N   UNL A   1      48.970  32.061  26.614  1.00  0.00    -0.248 NA
ATOM     67  C   UNL A   1      47.998  34.139  26.176  1.00  0.00     0.031 C 
ATOM     68  C   UNL A   1      53.371  31.352  26.664  1.00  0.00     0.029 A 
ATOM     69  C   UNL A   1      52.005  31.587  26.630  1.00  0.00     0.049 A 
ATOM     70  H   UNL A   1      50.421  30.281  27.105  1.00  0.00     0.167 HD
ATOM     71  C   UNL A   1      49.971  32.975  26.300  1.00  0.00     0.074 A 
ATOM     72  C   UNL A   1      49.309  34.226  25.994  1.00  0.00     0.031 C 
ATOM     73  C   UNL A   1      51.316  32.802  26.273  1.00  0.00     0.034 A 
BRANCH  60  74
ATOM     74  C   UNL A   1      53.203  27.160  27.970  1.00  0.00     0.023 A 
ATOM     75  C   UNL A   1      53.716  26.385  26.909  1.00  0.00     0.012 A 
ATOM     76  C   UNL A   1      53.796  27.066  29.243  1.00  0.00     0.148 A 
ATOM     77  C   UNL A   1      54.781  25.509  27.119  1.00  0.00     0.002 A 
ATOM     78  C   UNL A   1      54.886  26.227  29.434  1.00  0.00     0.091 A 
ATOM     79  F   UNL A   1      53.278  27.793  30.244  1.00  0.00    -0.205 F 
ATOM     80  C   UNL A   1      55.372  25.438  28.377  1.00  0.00     0.022 A 
BRANCH  78  81
ATOM     81  S   UNL A   1      55.769  26.121  30.994  1.00  0.00     0.127 S 
ATOM     82  O   UNL A   1      57.029  25.504  30.580  1.00  0.00    -0.237 OA
ATOM     83  O   UNL A   1      55.877  27.527  31.381  1.00  0.00    -0.237 OA
ATOM     84  O   UNL A   1      54.941  25.307  31.872  1.00  0.00    -0.744 OA
ENDBRANCH  78  81
ENDBRANCH  60  74
BRANCH  61  85
ATOM     85  C   UNL A   1      45.262  33.119  26.475  1.00  0.00     0.023 A 
ATOM     86  C   UNL A   1      44.692  33.251  25.193  1.00  0.00     0.012 A 
ATOM     87  C   UNL A   1      44.722  33.860  27.545  1.00  0.00     0.148 A 
ATOM     88  C   UNL A   1      43.636  34.135  24.971  1.00  0.00     0.002 A 
ATOM     89  C   UNL A   1      43.633  34.697  27.328  1.00  0.00     0.091 A 
ATOM     90  F   UNL A   1      45.284  33.733  28.755  1.00  0.00    -0.205 F 
ATOM     91  C   UNL A   1      43.102  34.852  26.038  1.00  0.00     0.022 A 
BRANCH  89  92
ATOM     92  S   UNL A   1      42.803  35.566  28.663  1.00  0.00     0.127 S 
ATOM     93  O   UNL A   1      41.661  36.157  27.971  1.00  0.00    -0.237 OA
ATOM     94  O   UNL A   1      42.473  34.470  29.576  1.00  0.00    -0.237 OA
ATOM     95  O   UNL A   1      43.782  36.509  29.188  1.00  0.00    -0.744 OA
ENDBRANCH  89  92
ENDBRANCH  61  85
BRANCH  73  96
ATOM     96  C   UNL A   1      52.162  33.970  25.837  1.00  0.00     0.023 A 
ATOM     97  C   UNL A   1      52.395  35.044  26.717  1.00  0.00     0.012 A 
ATOM     98  C   UNL A   1      52.789  33.958  24.574  1.00  0.00     0.148 A 
ATOM     99  C   UNL A   1      53.208  36.108  26.332  1.00  0.00     0.002 A 
ATOM    100  C   UNL A   1      53.643  34.995  24.220  1.00  0.00     0.091 A 
ATOM    101  F   UNL A   1      52.542  32.932  23.747  1.00  0.00    -0.205 F 
ATOM    102  C   UNL A   1      53.842  36.078  25.091  1.00  0.00     0.022 A 
BRANCH 100 103
ATOM    103  S   UNL A   1      54.582  34.989  22.690  1.00  0.00     0.127 S 
ATOM    104  O   UNL A   1      55.096  36.357  22.651  1.00  0.00    -0.237 OA
ATOM    105  O   UNL A   1      55.592  33.964  22.951  1.00  0.00    -0.237 OA
ATOM    106  O   UNL A   1      53.633  34.649  21.637  1.00  0.00    -0.744 OA
ENDBRANCH 100 103
ENDBRANCH  73  96
ENDBRANCH  47  48
ENDBRANCH  40  42
ENDBRANCH  39  40
ENDBRANCH  38  39
ENDBRANCH  37  38
ENDBRANCH  36  37
ENDBRANCH  35  36
ENDBRANCH  34  35
ENDBRANCH  33  34
ENDBRANCH  32  33
ENDBRANCH   1  32
TORSDOF 29
ENDMDL
