MODEL 1
REMARK VINA RESULT:      -9.7      0.000      0.000
REMARK SMILES CCc1cc2c(C)cc(=O)oc2cc1O[C@H](C)C(=O)OCCOCCOCCOCCOC(=O)c1ccc(-c2c3nc(c(-c4cccc(S(=O)(=O)[O-])c4F)c4ccc([nH]4)c(-c4cccc(S(=O)(=O)[O-])c4F)c4nc(c(-c5cccc(S(=O)(=O)[O-])c5F)c5ccc2[nH]5)C=C4)C=C3)cc1
REMARK SMILES IDX 26 1 25 2 24 3 23 4 22 5 21 6 20 7 18 8 19 9 16 10 17 11
REMARK SMILES IDX 15 12 14 13 3 14 4 15 5 16 13 17 6 18 12 19 7 20 8 21 11 22
REMARK SMILES IDX 9 23 10 24 2 25 1 26 27 27 28 28 29 29 30 30 31 31 32 32
REMARK SMILES IDX 33 33 34 34 35 35 36 36 97 37 37 38 96 39 38 40 39 41 40 42
REMARK SMILES IDX 90 43 41 44 95 45 89 46 91 47 42 48 94 49 88 50 87 51 43 53
REMARK SMILES IDX 75 54 55 55 74 56 56 57 59 58 73 59 92 60 57 61 58 62 72 64
REMARK SMILES IDX 93 65 60 66 44 67 45 68 53 69 46 70 48 71 54 72 47 73 49 74
REMARK SMILES IDX 50 75 51 76 52 77 76 78 77 79 85 80 78 81 80 82 86 83 79 84
REMARK SMILES IDX 81 85 82 86 83 87 84 88 61 89 62 90 70 91 63 92 65 93 71 94
REMARK SMILES IDX 64 95 66 96 67 97 68 98 69 99
REMARK H PARENT 91 52 59 63
REMARK Flexibility Score: inf
ROOT
ATOM      1  O   UNL A   1      33.445  27.195  23.252  1.00  0.00    -0.377 OA
ENDROOT
BRANCH   1   2
ATOM      2  C   UNL A   1      32.956  26.682  22.034  1.00  0.00     0.188 C 
BRANCH   2   3
ATOM      3  C   UNL A   1      31.468  26.294  22.062  1.00  0.00     0.188 C 
BRANCH   3   4
ATOM      4  O   UNL A   1      30.520  27.096  22.753  1.00  0.00    -0.376 OA
BRANCH   4   5
ATOM      5  C   UNL A   1      30.217  26.864  24.127  1.00  0.00     0.202 C 
BRANCH   5   6
ATOM      6  C   UNL A   1      30.134  25.449  24.725  1.00  0.00     0.261 C 
BRANCH   6   7
ATOM      7  O   UNL A   1      31.353  25.004  25.332  1.00  0.00    -0.461 OA
BRANCH   7   8
ATOM      8  C   UNL A   1      31.297  23.872  26.076  1.00  0.00     0.347 C 
ATOM      9  O   UNL A   1      30.391  23.049  25.994  1.00  0.00    -0.248 OA
BRANCH   8  10
ATOM     10  C   UNL A   1      32.600  23.630  26.867  1.00  0.00     0.279 C 
ATOM     11  C   UNL A   1      32.572  22.576  27.974  1.00  0.00     0.066 C 
BRANCH  10  12
ATOM     12  O   UNL A   1      33.660  23.228  26.010  1.00  0.00    -0.479 OA
BRANCH  12  13
ATOM     13  C   UNL A   1      33.585  22.011  25.407  1.00  0.00     0.127 A 
ATOM     14  C   UNL A   1      33.522  22.045  24.007  1.00  0.00    -0.005 A 
ATOM     15  C   UNL A   1      33.196  20.873  23.309  1.00  0.00     0.019 A 
ATOM     16  C   UNL A   1      32.968  19.671  23.988  1.00  0.00     0.021 A 
ATOM     17  C   UNL A   1      33.434  20.810  26.094  1.00  0.00     0.094 A 
ATOM     18  C   UNL A   1      32.508  18.447  23.323  1.00  0.00    -0.033 A 
ATOM     19  C   UNL A   1      33.143  19.656  25.371  1.00  0.00     0.142 A 
ATOM     20  C   UNL A   1      32.154  18.484  21.867  1.00  0.00     0.045 C 
ATOM     21  C   UNL A   1      32.365  17.338  24.061  1.00  0.00     0.098 A 
ATOM     22  O   UNL A   1      32.992  18.472  26.121  1.00  0.00    -0.423 OA
ATOM     23  C   UNL A   1      32.643  17.284  25.506  1.00  0.00     0.336 A 
ATOM     24  O   UNL A   1      32.535  16.229  26.122  1.00  0.00    -0.246 OA
BRANCH  14  25
ATOM     25  C   UNL A   1      33.781  23.330  23.251  1.00  0.00     0.036 C 
ATOM     26  C   UNL A   1      35.075  23.995  23.685  1.00  0.00     0.009 C 
ENDBRANCH  14  25
ENDBRANCH  12  13
ENDBRANCH  10  12
ENDBRANCH   8  10
ENDBRANCH   7   8
ENDBRANCH   6   7
ENDBRANCH   5   6
ENDBRANCH   4   5
ENDBRANCH   3   4
ENDBRANCH   2   3
ENDBRANCH   1   2
BRANCH   1  27
ATOM     27  C   UNL A   1      33.670  28.593  23.363  1.00  0.00     0.188 C 
BRANCH  27  28
ATOM     28  C   UNL A   1      32.940  29.387  24.463  1.00  0.00     0.188 C 
BRANCH  28  29
ATOM     29  O   UNL A   1      32.649  28.642  25.638  1.00  0.00    -0.376 OA
BRANCH  29  30
ATOM     30  C   UNL A   1      31.751  29.196  26.589  1.00  0.00     0.202 C 
BRANCH  30  31
ATOM     31  C   UNL A   1      31.558  30.723  26.611  1.00  0.00     0.261 C 
BRANCH  31  32
ATOM     32  O   UNL A   1      32.719  31.534  26.374  1.00  0.00    -0.460 OA
BRANCH  32  33
ATOM     33  C   UNL A   1      33.089  32.428  27.320  1.00  0.00     0.338 C 
ATOM     34  O   UNL A   1      32.422  33.333  27.770  1.00  0.00    -0.246 OA
BRANCH  33  35
ATOM     35  C   UNL A   1      34.392  31.979  27.872  1.00  0.00     0.060 A 
ATOM     36  C   UNL A   1      34.533  30.643  28.271  1.00  0.00     0.016 A 
ATOM     37  C   UNL A   1      35.467  32.863  27.980  1.00  0.00     0.016 A 
ATOM     38  C   UNL A   1      35.741  30.196  28.811  1.00  0.00     0.010 A 
ATOM     39  C   UNL A   1      36.668  32.418  28.543  1.00  0.00     0.010 A 
ATOM     40  C   UNL A   1      36.802  31.091  28.988  1.00  0.00    -0.014 A 
BRANCH  40  41
ATOM     41  C   UNL A   1      37.991  30.688  29.781  1.00  0.00     0.031 A 
ATOM     42  C   UNL A   1      38.951  29.693  29.188  1.00  0.00     0.074 A 
ATOM     43  C   UNL A   1      38.213  31.185  31.012  1.00  0.00     0.049 A 
ATOM     44  N   UNL A   1      40.019  29.155  29.715  1.00  0.00    -0.248 NA
ATOM     45  C   UNL A   1      38.664  29.243  27.815  1.00  0.00     0.031 C 
ATOM     46  C   UNL A   1      37.367  32.162  31.694  1.00  0.00     0.029 A 
ATOM     47  N   UNL A   1      39.207  30.907  31.918  1.00  0.00    -0.354 N 
ATOM     48  C   UNL A   1      40.514  28.279  28.755  1.00  0.00     0.074 A 
ATOM     49  C   UNL A   1      39.625  28.354  27.616  1.00  0.00     0.031 C 
ATOM     50  C   UNL A   1      37.860  32.378  32.926  1.00  0.00     0.029 A 
ATOM     51  C   UNL A   1      39.035  31.531  33.131  1.00  0.00     0.049 A 
ATOM     52  H   UNL A   1      39.970  30.317  31.718  1.00  0.00     0.167 HD
ATOM     53  C   UNL A   1      41.614  27.492  28.811  1.00  0.00     0.034 A 
ATOM     54  C   UNL A   1      39.724  31.406  34.283  1.00  0.00     0.034 A 
ATOM     55  C   UNL A   1      42.501  27.423  29.941  1.00  0.00     0.049 A 
ATOM     56  C   UNL A   1      40.918  30.487  34.336  1.00  0.00     0.074 A 
ATOM     57  C   UNL A   1      43.668  26.691  30.073  1.00  0.00     0.029 A 
ATOM     58  N   UNL A   1      42.310  28.089  31.141  1.00  0.00    -0.354 N 
ATOM     59  N   UNL A   1      41.443  29.755  33.383  1.00  0.00    -0.248 NA
ATOM     60  C   UNL A   1      41.632  30.396  35.620  1.00  0.00     0.031 C 
ATOM     61  C   UNL A   1      44.159  26.880  31.369  1.00  0.00     0.029 A 
ATOM     62  C   UNL A   1      43.322  27.765  32.029  1.00  0.00     0.049 A 
ATOM     63  H   UNL A   1      41.563  28.701  31.334  1.00  0.00     0.167 HD
ATOM     64  C   UNL A   1      42.563  29.145  33.939  1.00  0.00     0.074 A 
ATOM     65  C   UNL A   1      42.656  29.614  35.306  1.00  0.00     0.031 C 
ATOM     66  C   UNL A   1      43.430  28.268  33.374  1.00  0.00     0.034 A 
BRANCH  53  67
ATOM     67  C   UNL A   1      41.924  26.637  27.610  1.00  0.00     0.023 A 
ATOM     68  C   UNL A   1      42.588  27.197  26.499  1.00  0.00     0.012 A 
ATOM     69  C   UNL A   1      41.607  25.264  27.605  1.00  0.00     0.148 A 
ATOM     70  C   UNL A   1      42.899  26.414  25.389  1.00  0.00     0.002 A 
ATOM     71  C   UNL A   1      41.963  24.479  26.514  1.00  0.00     0.091 A 
ATOM     72  F   UNL A   1      40.957  24.755  28.660  1.00  0.00    -0.205 F 
ATOM     73  C   UNL A   1      42.597  25.054  25.401  1.00  0.00     0.022 A 
BRANCH  71  74
ATOM     74  S   UNL A   1      41.691  22.705  26.467  1.00  0.00     0.127 S 
ATOM     75  O   UNL A   1      42.102  22.308  27.813  1.00  0.00    -0.237 OA
ATOM     76  O   UNL A   1      40.252  22.623  26.218  1.00  0.00    -0.237 OA
ATOM     77  O   UNL A   1      42.526  22.197  25.387  1.00  0.00    -0.744 OA
ENDBRANCH  71  74
ENDBRANCH  53  67
BRANCH  54  78
ATOM     78  C   UNL A   1      39.310  32.179  35.490  1.00  0.00     0.023 A 
ATOM     79  C   UNL A   1      38.437  31.597  36.428  1.00  0.00     0.012 A 
ATOM     80  C   UNL A   1      39.776  33.491  35.708  1.00  0.00     0.148 A 
ATOM     81  C   UNL A   1      38.010  32.316  37.546  1.00  0.00     0.002 A 
ATOM     82  C   UNL A   1      39.394  34.181  36.852  1.00  0.00     0.091 A 
ATOM     83  F   UNL A   1      40.591  34.036  34.794  1.00  0.00    -0.205 F 
ATOM     84  C   UNL A   1      38.496  33.603  37.763  1.00  0.00     0.022 A 
BRANCH  82  85
ATOM     85  S   UNL A   1      40.065  35.791  37.278  1.00  0.00     0.127 S 
ATOM     86  O   UNL A   1      39.644  36.602  36.138  1.00  0.00    -0.237 OA
ATOM     87  O   UNL A   1      39.369  36.082  38.533  1.00  0.00    -0.237 OA
ATOM     88  O   UNL A   1      41.500  35.597  37.417  1.00  0.00    -0.744 OA
ENDBRANCH  82  85
ENDBRANCH  54  78
BRANCH  66  89
ATOM     89  C   UNL A   1      44.582  27.776  34.216  1.00  0.00     0.023 A 
ATOM     90  C   UNL A   1      44.500  26.527  34.864  1.00  0.00     0.012 A 
ATOM     91  C   UNL A   1      45.775  28.522  34.308  1.00  0.00     0.148 A 
ATOM     92  C   UNL A   1      45.569  26.047  35.619  1.00  0.00     0.002 A 
ATOM     93  C   UNL A   1      46.856  28.013  35.017  1.00  0.00     0.091 A 
ATOM     94  F   UNL A   1      45.830  29.714  33.696  1.00  0.00    -0.205 F 
ATOM     95  C   UNL A   1      46.750  26.783  35.686  1.00  0.00     0.022 A 
BRANCH  93  96
ATOM     96  S   UNL A   1      48.448  28.842  35.081  1.00  0.00     0.127 S 
ATOM     97  O   UNL A   1      48.132  30.034  35.867  1.00  0.00    -0.237 OA
ATOM     98  O   UNL A   1      49.281  27.858  35.772  1.00  0.00    -0.237 OA
ATOM     99  O   UNL A   1      48.829  29.093  33.697  1.00  0.00    -0.744 OA
ENDBRANCH  93  96
ENDBRANCH  66  89
ENDBRANCH  40  41
ENDBRANCH  33  35
ENDBRANCH  32  33
ENDBRANCH  31  32
ENDBRANCH  30  31
ENDBRANCH  29  30
ENDBRANCH  28  29
ENDBRANCH  27  28
ENDBRANCH   1  27
TORSDOF 26
ENDMDL
MODEL 2
REMARK VINA RESULT:      -9.6      5.274     11.577
REMARK SMILES CCc1cc2c(C)cc(=O)oc2cc1O[C@H](C)C(=O)OCCOCCOCCOCCOC(=O)c1ccc(-c2c3nc(c(-c4cccc(S(=O)(=O)[O-])c4F)c4ccc([nH]4)c(-c4cccc(S(=O)(=O)[O-])c4F)c4nc(c(-c5cccc(S(=O)(=O)[O-])c5F)c5ccc2[nH]5)C=C4)C=C3)cc1
REMARK SMILES IDX 26 1 25 2 24 3 23 4 22 5 21 6 20 7 18 8 19 9 16 10 17 11
REMARK SMILES IDX 15 12 14 13 3 14 4 15 5 16 13 17 6 18 12 19 7 20 8 21 11 22
REMARK SMILES IDX 9 23 10 24 2 25 1 26 27 27 28 28 29 29 30 30 31 31 32 32
REMARK SMILES IDX 33 33 34 34 35 35 36 36 97 37 37 38 96 39 38 40 39 41 40 42
REMARK SMILES IDX 90 43 41 44 95 45 89 46 91 47 42 48 94 49 88 50 87 51 43 53
REMARK SMILES IDX 75 54 55 55 74 56 56 57 59 58 73 59 92 60 57 61 58 62 72 64
REMARK SMILES IDX 93 65 60 66 44 67 45 68 53 69 46 70 48 71 54 72 47 73 49 74
REMARK SMILES IDX 50 75 51 76 52 77 76 78 77 79 85 80 78 81 80 82 86 83 79 84
REMARK SMILES IDX 81 85 82 86 83 87 84 88 61 89 62 90 70 91 63 92 65 93 71 94
REMARK SMILES IDX 64 95 66 96 67 97 68 98 69 99
REMARK H PARENT 91 52 59 63
REMARK Flexibility Score: inf
ROOT
ATOM      1  O   UNL A   1      32.417  36.777  30.217  1.00  0.00    -0.377 OA
ENDROOT
BRANCH   1   2
ATOM      2  C   UNL A   1      33.261  37.207  31.260  1.00  0.00     0.188 C 
BRANCH   2   3
ATOM      3  C   UNL A   1      32.816  36.753  32.661  1.00  0.00     0.188 C 
BRANCH   3   4
ATOM      4  O   UNL A   1      33.737  36.724  33.744  1.00  0.00    -0.376 OA
BRANCH   4   5
ATOM      5  C   UNL A   1      34.748  35.722  33.827  1.00  0.00     0.202 C 
BRANCH   5   6
ATOM      6  C   UNL A   1      34.534  34.291  33.308  1.00  0.00     0.261 C 
BRANCH   6   7
ATOM      7  O   UNL A   1      35.749  33.603  32.982  1.00  0.00    -0.461 OA
BRANCH   7   8
ATOM      8  C   UNL A   1      36.408  32.995  33.998  1.00  0.00     0.347 C 
ATOM      9  O   UNL A   1      36.161  33.194  35.184  1.00  0.00    -0.248 OA
BRANCH   8  10
ATOM     10  C   UNL A   1      37.340  31.872  33.498  1.00  0.00     0.279 C 
ATOM     11  C   UNL A   1      37.195  31.425  32.044  1.00  0.00     0.066 C 
BRANCH  10  12
ATOM     12  O   UNL A   1      38.707  32.235  33.631  1.00  0.00    -0.479 OA
BRANCH  12  13
ATOM     13  C   UNL A   1      39.517  31.456  34.399  1.00  0.00     0.127 A 
ATOM     14  C   UNL A   1      40.236  32.141  35.389  1.00  0.00    -0.005 A 
ATOM     15  C   UNL A   1      41.273  31.480  36.062  1.00  0.00     0.019 A 
ATOM     16  C   UNL A   1      41.574  30.141  35.782  1.00  0.00     0.021 A 
ATOM     17  C   UNL A   1      39.753  30.105  34.160  1.00  0.00     0.094 A 
ATOM     18  C   UNL A   1      42.720  29.437  36.366  1.00  0.00    -0.033 A 
ATOM     19  C   UNL A   1      40.768  29.466  34.867  1.00  0.00     0.142 A 
ATOM     20  C   UNL A   1      43.694  30.189  37.222  1.00  0.00     0.045 C 
ATOM     21  C   UNL A   1      42.890  28.142  36.065  1.00  0.00     0.098 A 
ATOM     22  O   UNL A   1      40.967  28.102  34.575  1.00  0.00    -0.423 OA
ATOM     23  C   UNL A   1      41.988  27.391  35.178  1.00  0.00     0.336 A 
ATOM     24  O   UNL A   1      42.169  26.194  34.973  1.00  0.00    -0.246 OA
BRANCH  14  25
ATOM     25  C   UNL A   1      39.917  33.583  35.719  1.00  0.00     0.036 C 
ATOM     26  C   UNL A   1      40.623  34.551  34.786  1.00  0.00     0.009 C 
ENDBRANCH  14  25
ENDBRANCH  12  13
ENDBRANCH  10  12
ENDBRANCH   8  10
ENDBRANCH   7   8
ENDBRANCH   6   7
ENDBRANCH   5   6
ENDBRANCH   4   5
ENDBRANCH   3   4
ENDBRANCH   2   3
ENDBRANCH   1   2
BRANCH   1  27
ATOM     27  C   UNL A   1      32.892  35.786  29.318  1.00  0.00     0.188 C 
BRANCH  27  28
ATOM     28  C   UNL A   1      34.068  36.124  28.380  1.00  0.00     0.188 C 
BRANCH  28  29
ATOM     29  O   UNL A   1      34.962  35.045  28.138  1.00  0.00    -0.376 OA
BRANCH  29  30
ATOM     30  C   UNL A   1      35.303  34.190  29.220  1.00  0.00     0.202 C 
BRANCH  30  31
ATOM     31  C   UNL A   1      35.922  32.817  28.902  1.00  0.00     0.261 C 
BRANCH  31  32
ATOM     32  O   UNL A   1      35.099  31.660  29.119  1.00  0.00    -0.460 OA
BRANCH  32  33
ATOM     33  C   UNL A   1      35.155  30.647  28.225  1.00  0.00     0.338 C 
ATOM     34  O   UNL A   1      34.359  30.406  27.345  1.00  0.00    -0.246 OA
BRANCH  33  35
ATOM     35  C   UNL A   1      36.481  29.997  28.370  1.00  0.00     0.060 A 
ATOM     36  C   UNL A   1      36.752  29.263  29.533  1.00  0.00     0.016 A 
ATOM     37  C   UNL A   1      37.442  30.098  27.362  1.00  0.00     0.016 A 
ATOM     38  C   UNL A   1      37.997  28.655  29.706  1.00  0.00     0.010 A 
ATOM     39  C   UNL A   1      38.697  29.507  27.547  1.00  0.00     0.010 A 
ATOM     40  C   UNL A   1      38.991  28.808  28.732  1.00  0.00    -0.014 A 
BRANCH  40  41
ATOM     41  C   UNL A   1      40.383  28.379  29.017  1.00  0.00     0.031 A 
ATOM     42  C   UNL A   1      41.254  29.266  29.865  1.00  0.00     0.074 A 
ATOM     43  C   UNL A   1      40.876  27.227  28.524  1.00  0.00     0.049 A 
ATOM     44  N   UNL A   1      42.510  29.125  30.197  1.00  0.00    -0.248 NA
ATOM     45  C   UNL A   1      40.619  30.478  30.412  1.00  0.00     0.031 C 
ATOM     46  C   UNL A   1      40.135  26.275  27.700  1.00  0.00     0.029 A 
ATOM     47  N   UNL A   1      42.133  26.682  28.623  1.00  0.00    -0.354 N 
ATOM     48  C   UNL A   1      42.828  30.242  30.960  1.00  0.00     0.074 A 
ATOM     49  C   UNL A   1      41.633  31.055  31.038  1.00  0.00     0.031 C 
ATOM     50  C   UNL A   1      40.961  25.277  27.340  1.00  0.00     0.029 A 
ATOM     51  C   UNL A   1      42.295  25.537  27.879  1.00  0.00     0.049 A 
ATOM     52  H   UNL A   1      42.849  27.074  29.174  1.00  0.00     0.167 HD
ATOM     53  C   UNL A   1      44.004  30.559  31.552  1.00  0.00     0.034 A 
ATOM     54  C   UNL A   1      43.400  24.804  27.634  1.00  0.00     0.034 A 
ATOM     55  C   UNL A   1      45.189  29.748  31.481  1.00  0.00     0.049 A 
ATOM     56  C   UNL A   1      44.709  25.203  28.266  1.00  0.00     0.074 A 
ATOM     57  C   UNL A   1      46.414  29.961  32.088  1.00  0.00     0.029 A 
ATOM     58  N   UNL A   1      45.308  28.582  30.741  1.00  0.00    -0.354 N 
ATOM     59  N   UNL A   1      44.966  26.198  29.082  1.00  0.00    -0.248 NA
ATOM     60  C   UNL A   1      45.878  24.362  27.965  1.00  0.00     0.031 C 
ATOM     61  C   UNL A   1      47.287  28.948  31.679  1.00  0.00     0.029 A 
ATOM     62  C   UNL A   1      46.593  28.078  30.854  1.00  0.00     0.049 A 
ATOM     63  H   UNL A   1      44.586  28.173  30.212  1.00  0.00     0.167 HD
ATOM     64  C   UNL A   1      46.312  26.083  29.416  1.00  0.00     0.074 A 
ATOM     65  C   UNL A   1      46.811  24.906  28.734  1.00  0.00     0.031 C 
ATOM     66  C   UNL A   1      47.070  26.884  30.205  1.00  0.00     0.034 A 
BRANCH  53  67
ATOM     67  C   UNL A   1      44.068  31.845  32.336  1.00  0.00     0.023 A 
ATOM     68  C   UNL A   1      43.932  31.821  33.739  1.00  0.00     0.012 A 
ATOM     69  C   UNL A   1      44.318  33.070  31.686  1.00  0.00     0.148 A 
ATOM     70  C   UNL A   1      44.009  33.000  34.479  1.00  0.00     0.002 A 
ATOM     71  C   UNL A   1      44.441  34.234  32.436  1.00  0.00     0.091 A 
ATOM     72  F   UNL A   1      44.421  33.074  30.350  1.00  0.00    -0.205 F 
ATOM     73  C   UNL A   1      44.275  34.203  33.830  1.00  0.00     0.022 A 
BRANCH  71  74
ATOM     74  S   UNL A   1      44.860  35.818  31.703  1.00  0.00     0.127 S 
ATOM     75  O   UNL A   1      43.555  36.279  31.231  1.00  0.00    -0.237 OA
ATOM     76  O   UNL A   1      45.389  36.556  32.851  1.00  0.00    -0.237 OA
ATOM     77  O   UNL A   1      45.835  35.535  30.659  1.00  0.00    -0.744 OA
ENDBRANCH  71  74
ENDBRANCH  53  67
BRANCH  54  78
ATOM     78  C   UNL A   1      43.321  23.605  26.751  1.00  0.00     0.023 A 
ATOM     79  C   UNL A   1      43.943  23.624  25.487  1.00  0.00     0.012 A 
ATOM     80  C   UNL A   1      42.628  22.447  27.157  1.00  0.00     0.148 A 
ATOM     81  C   UNL A   1      43.851  22.524  24.632  1.00  0.00     0.002 A 
ATOM     82  C   UNL A   1      42.589  21.335  26.325  1.00  0.00     0.091 A 
ATOM     83  F   UNL A   1      42.026  22.455  28.355  1.00  0.00    -0.205 F 
ATOM     84  C   UNL A   1      43.183  21.378  25.054  1.00  0.00     0.022 A 
BRANCH  82  85
ATOM     85  S   UNL A   1      41.861  19.774  26.833  1.00  0.00     0.127 S 
ATOM     86  O   UNL A   1      42.670  19.434  28.002  1.00  0.00    -0.237 OA
ATOM     87  O   UNL A   1      40.483  20.168  27.129  1.00  0.00    -0.237 OA
ATOM     88  O   UNL A   1      42.001  18.882  25.691  1.00  0.00    -0.744 OA
ENDBRANCH  82  85
ENDBRANCH  54  78
BRANCH  66  89
ATOM     89  C   UNL A   1      48.517  26.505  30.410  1.00  0.00     0.023 A 
ATOM     90  C   UNL A   1      48.873  25.610  31.438  1.00  0.00     0.012 A 
ATOM     91  C   UNL A   1      49.515  26.984  29.537  1.00  0.00     0.148 A 
ATOM     92  C   UNL A   1      50.202  25.228  31.618  1.00  0.00     0.002 A 
ATOM     93  C   UNL A   1      50.829  26.556  29.689  1.00  0.00     0.091 A 
ATOM     94  F   UNL A   1      49.160  27.845  28.572  1.00  0.00    -0.205 F 
ATOM     95  C   UNL A   1      51.177  25.690  30.737  1.00  0.00     0.022 A 
BRANCH  93  96
ATOM     96  S   UNL A   1      52.135  27.022  28.547  1.00  0.00     0.127 S 
ATOM     97  O   UNL A   1      51.592  26.561  27.269  1.00  0.00    -0.237 OA
ATOM     98  O   UNL A   1      52.178  28.476  28.704  1.00  0.00    -0.237 OA
ATOM     99  O   UNL A   1      53.334  26.327  28.999  1.00  0.00    -0.744 OA
ENDBRANCH  93  96
ENDBRANCH  66  89
ENDBRANCH  40  41
ENDBRANCH  33  35
ENDBRANCH  32  33
ENDBRANCH  31  32
ENDBRANCH  30  31
ENDBRANCH  29  30
ENDBRANCH  28  29
ENDBRANCH  27  28
ENDBRANCH   1  27
TORSDOF 26
ENDMDL
MODEL 3
REMARK VINA RESULT:      -9.5      5.503      9.986
REMARK SMILES CCc1cc2c(C)cc(=O)oc2cc1O[C@H](C)C(=O)OCCOCCOCCOCCOC(=O)c1ccc(-c2c3nc(c(-c4cccc(S(=O)(=O)[O-])c4F)c4ccc([nH]4)c(-c4cccc(S(=O)(=O)[O-])c4F)c4nc(c(-c5cccc(S(=O)(=O)[O-])c5F)c5ccc2[nH]5)C=C4)C=C3)cc1
REMARK SMILES IDX 26 1 25 2 24 3 23 4 22 5 21 6 20 7 18 8 19 9 16 10 17 11
REMARK SMILES IDX 15 12 14 13 3 14 4 15 5 16 13 17 6 18 12 19 7 20 8 21 11 22
REMARK SMILES IDX 9 23 10 24 2 25 1 26 27 27 28 28 29 29 30 30 31 31 32 32
REMARK SMILES IDX 33 33 34 34 35 35 36 36 97 37 37 38 96 39 38 40 39 41 40 42
REMARK SMILES IDX 90 43 41 44 95 45 89 46 91 47 42 48 94 49 88 50 87 51 43 53
REMARK SMILES IDX 75 54 55 55 74 56 56 57 59 58 73 59 92 60 57 61 58 62 72 64
REMARK SMILES IDX 93 65 60 66 44 67 45 68 53 69 46 70 48 71 54 72 47 73 49 74
REMARK SMILES IDX 50 75 51 76 52 77 76 78 77 79 85 80 78 81 80 82 86 83 79 84
REMARK SMILES IDX 81 85 82 86 83 87 84 88 61 89 62 90 70 91 63 92 65 93 71 94
REMARK SMILES IDX 64 95 66 96 67 97 68 98 69 99
REMARK H PARENT 91 52 59 63
REMARK Flexibility Score: inf
ROOT
ATOM      1  O   UNL A   1      32.519  35.965  29.241  1.00  0.00    -0.377 OA
ENDROOT
BRANCH   1   2
ATOM      2  C   UNL A   1      33.134  36.615  30.330  1.00  0.00     0.188 C 
BRANCH   2   3
ATOM      3  C   UNL A   1      32.521  36.277  31.699  1.00  0.00     0.188 C 
BRANCH   3   4
ATOM      4  O   UNL A   1      33.348  35.934  32.803  1.00  0.00    -0.376 OA
BRANCH   4   5
ATOM      5  C   UNL A   1      34.176  34.773  32.774  1.00  0.00     0.202 C 
BRANCH   5   6
ATOM      6  C   UNL A   1      35.702  34.845  32.955  1.00  0.00     0.261 C 
BRANCH   6   7
ATOM      7  O   UNL A   1      36.133  34.709  34.314  1.00  0.00    -0.461 OA
BRANCH   7   8
ATOM      8  C   UNL A   1      37.115  33.809  34.565  1.00  0.00     0.347 C 
ATOM      9  O   UNL A   1      36.908  32.621  34.790  1.00  0.00    -0.248 OA
BRANCH   8  10
ATOM     10  C   UNL A   1      38.520  34.398  34.317  1.00  0.00     0.279 C 
ATOM     11  C   UNL A   1      39.179  35.168  35.461  1.00  0.00     0.066 C 
BRANCH  10  12
ATOM     12  O   UNL A   1      39.455  33.383  33.978  1.00  0.00    -0.479 OA
BRANCH  12  13
ATOM     13  C   UNL A   1      40.375  33.640  33.010  1.00  0.00     0.127 A 
ATOM     14  C   UNL A   1      41.710  33.630  33.440  1.00  0.00    -0.005 A 
ATOM     15  C   UNL A   1      42.708  34.122  32.586  1.00  0.00     0.019 A 
ATOM     16  C   UNL A   1      42.392  34.588  31.305  1.00  0.00     0.021 A 
ATOM     17  C   UNL A   1      40.053  34.031  31.713  1.00  0.00     0.094 A 
ATOM     18  C   UNL A   1      43.372  35.223  30.417  1.00  0.00    -0.033 A 
ATOM     19  C   UNL A   1      41.069  34.485  30.876  1.00  0.00     0.142 A 
ATOM     20  C   UNL A   1      44.758  35.495  30.919  1.00  0.00     0.045 C 
ATOM     21  C   UNL A   1      42.974  35.593  29.192  1.00  0.00     0.098 A 
ATOM     22  O   UNL A   1      40.681  34.876  29.580  1.00  0.00    -0.423 OA
ATOM     23  C   UNL A   1      41.604  35.398  28.692  1.00  0.00     0.336 A 
ATOM     24  O   UNL A   1      41.308  35.717  27.545  1.00  0.00    -0.246 OA
BRANCH  14  25
ATOM     25  C   UNL A   1      42.076  33.114  34.815  1.00  0.00     0.036 C 
ATOM     26  C   UNL A   1      42.644  34.208  35.701  1.00  0.00     0.009 C 
ENDBRANCH  14  25
ENDBRANCH  12  13
ENDBRANCH  10  12
ENDBRANCH   8  10
ENDBRANCH   7   8
ENDBRANCH   6   7
ENDBRANCH   5   6
ENDBRANCH   4   5
ENDBRANCH   3   4
ENDBRANCH   2   3
ENDBRANCH   1   2
BRANCH   1  27
ATOM     27  C   UNL A   1      33.134  34.805  28.702  1.00  0.00     0.188 C 
BRANCH  27  28
ATOM     28  C   UNL A   1      34.528  34.926  28.054  1.00  0.00     0.188 C 
BRANCH  28  29
ATOM     29  O   UNL A   1      35.482  33.981  28.521  1.00  0.00    -0.376 OA
BRANCH  29  30
ATOM     30  C   UNL A   1      35.192  33.249  29.703  1.00  0.00     0.202 C 
BRANCH  30  31
ATOM     31  C   UNL A   1      36.253  32.272  30.238  1.00  0.00     0.261 C 
BRANCH  31  32
ATOM     32  O   UNL A   1      35.887  30.885  30.317  1.00  0.00    -0.460 OA
BRANCH  32  33
ATOM     33  C   UNL A   1      36.025  30.114  29.215  1.00  0.00     0.338 C 
ATOM     34  O   UNL A   1      35.226  29.979  28.314  1.00  0.00    -0.246 OA
BRANCH  33  35
ATOM     35  C   UNL A   1      37.423  29.618  29.189  1.00  0.00     0.060 A 
ATOM     36  C   UNL A   1      37.875  28.812  30.243  1.00  0.00     0.016 A 
ATOM     37  C   UNL A   1      38.275  29.933  28.129  1.00  0.00     0.016 A 
ATOM     38  C   UNL A   1      39.191  28.345  30.255  1.00  0.00     0.010 A 
ATOM     39  C   UNL A   1      39.600  29.483  28.155  1.00  0.00     0.010 A 
ATOM     40  C   UNL A   1      40.073  28.713  29.232  1.00  0.00    -0.014 A 
BRANCH  40  41
ATOM     41  C   UNL A   1      41.524  28.430  29.364  1.00  0.00     0.031 A 
ATOM     42  C   UNL A   1      42.112  27.288  28.579  1.00  0.00     0.074 A 
ATOM     43  C   UNL A   1      42.310  29.163  30.175  1.00  0.00     0.049 A 
ATOM     44  N   UNL A   1      43.334  26.823  28.578  1.00  0.00    -0.248 NA
ATOM     45  C   UNL A   1      41.195  26.575  27.673  1.00  0.00     0.031 C 
ATOM     46  C   UNL A   1      41.867  30.300  30.979  1.00  0.00     0.029 A 
ATOM     47  N   UNL A   1      43.644  29.035  30.476  1.00  0.00    -0.354 N 
ATOM     48  C   UNL A   1      43.327  25.744  27.703  1.00  0.00     0.074 A 
ATOM     49  C   UNL A   1      41.978  25.620  27.194  1.00  0.00     0.031 C 
ATOM     50  C   UNL A   1      42.905  30.746  31.709  1.00  0.00     0.029 A 
ATOM     51  C   UNL A   1      44.074  29.907  31.449  1.00  0.00     0.049 A 
ATOM     52  H   UNL A   1      44.236  28.381  30.037  1.00  0.00     0.167 HD
ATOM     53  C   UNL A   1      44.352  24.935  27.345  1.00  0.00     0.034 A 
ATOM     54  C   UNL A   1      45.262  29.993  32.080  1.00  0.00     0.034 A 
ATOM     55  C   UNL A   1      45.695  25.063  27.844  1.00  0.00     0.049 A 
ATOM     56  C   UNL A   1      46.375  29.051  31.698  1.00  0.00     0.074 A 
ATOM     57  C   UNL A   1      46.812  24.321  27.504  1.00  0.00     0.029 A 
ATOM     58  N   UNL A   1      46.099  25.974  28.808  1.00  0.00    -0.354 N 
ATOM     59  N   UNL A   1      46.387  28.111  30.782  1.00  0.00    -0.248 NA
ATOM     60  C   UNL A   1      47.649  29.198  32.419  1.00  0.00     0.031 C 
ATOM     61  C   UNL A   1      47.882  24.754  28.293  1.00  0.00     0.029 A 
ATOM     62  C   UNL A   1      47.442  25.797  29.093  1.00  0.00     0.049 A 
ATOM     63  H   UNL A   1      45.516  26.647  29.228  1.00  0.00     0.167 HD
ATOM     64  C   UNL A   1      47.674  27.580  30.794  1.00  0.00     0.074 A 
ATOM     65  C   UNL A   1      48.420  28.320  31.791  1.00  0.00     0.031 C 
ATOM     66  C   UNL A   1      48.188  26.564  30.057  1.00  0.00     0.034 A 
BRANCH  53  67
ATOM     67  C   UNL A   1      44.062  23.834  26.358  1.00  0.00     0.023 A 
ATOM     68  C   UNL A   1      44.638  23.871  25.071  1.00  0.00     0.012 A 
ATOM     69  C   UNL A   1      43.263  22.733  26.725  1.00  0.00     0.148 A 
ATOM     70  C   UNL A   1      44.395  22.849  24.155  1.00  0.00     0.002 A 
ATOM     71  C   UNL A   1      43.064  21.695  25.822  1.00  0.00     0.091 A 
ATOM     72  F   UNL A   1      42.707  22.727  27.944  1.00  0.00    -0.205 F 
ATOM     73  C   UNL A   1      43.618  21.757  24.534  1.00  0.00     0.022 A 
BRANCH  71  74
ATOM     74  S   UNL A   1      42.148  20.209  26.241  1.00  0.00     0.127 S 
ATOM     75  O   UNL A   1      40.766  20.660  26.079  1.00  0.00    -0.237 OA
ATOM     76  O   UNL A   1      42.606  19.268  25.219  1.00  0.00    -0.237 OA
ATOM     77  O   UNL A   1      42.534  19.866  27.603  1.00  0.00    -0.744 OA
ENDBRANCH  71  74
ENDBRANCH  53  67
BRANCH  54  78
ATOM     78  C   UNL A   1      45.472  31.021  33.140  1.00  0.00     0.023 A 
ATOM     79  C   UNL A   1      45.778  32.347  32.779  1.00  0.00     0.012 A 
ATOM     80  C   UNL A   1      45.371  30.688  34.506  1.00  0.00     0.148 A 
ATOM     81  C   UNL A   1      46.012  33.316  33.757  1.00  0.00     0.002 A 
ATOM     82  C   UNL A   1      45.548  31.669  35.474  1.00  0.00     0.091 A 
ATOM     83  F   UNL A   1      45.097  29.416  34.830  1.00  0.00    -0.205 F 
ATOM     84  C   UNL A   1      45.887  32.980  35.102  1.00  0.00     0.022 A 
BRANCH  82  85
ATOM     85  S   UNL A   1      45.284  31.359  37.223  1.00  0.00     0.127 S 
ATOM     86  O   UNL A   1      45.846  30.020  37.377  1.00  0.00    -0.237 OA
ATOM     87  O   UNL A   1      46.067  32.432  37.837  1.00  0.00    -0.237 OA
ATOM     88  O   UNL A   1      43.847  31.467  37.431  1.00  0.00    -0.744 OA
ENDBRANCH  82  85
ENDBRANCH  54  78
BRANCH  66  89
ATOM     89  C   UNL A   1      49.639  26.206  30.267  1.00  0.00     0.023 A 
ATOM     90  C   UNL A   1      50.639  26.834  29.498  1.00  0.00     0.012 A 
ATOM     91  C   UNL A   1      50.015  25.297  31.278  1.00  0.00     0.148 A 
ATOM     92  C   UNL A   1      51.985  26.534  29.705  1.00  0.00     0.002 A 
ATOM     93  C   UNL A   1      51.361  25.045  31.514  1.00  0.00     0.091 A 
ATOM     94  F   UNL A   1      49.049  24.701  31.991  1.00  0.00    -0.205 F 
ATOM     95  C   UNL A   1      52.347  25.650  30.719  1.00  0.00     0.022 A 
BRANCH  93  96
ATOM     96  S   UNL A   1      51.926  23.997  32.859  1.00  0.00     0.127 S 
ATOM     97  O   UNL A   1      53.375  24.197  32.803  1.00  0.00    -0.237 OA
ATOM     98  O   UNL A   1      51.270  24.602  34.018  1.00  0.00    -0.237 OA
ATOM     99  O   UNL A   1      51.473  22.649  32.540  1.00  0.00    -0.744 OA
ENDBRANCH  93  96
ENDBRANCH  66  89
ENDBRANCH  40  41
ENDBRANCH  33  35
ENDBRANCH  32  33
ENDBRANCH  31  32
ENDBRANCH  30  31
ENDBRANCH  29  30
ENDBRANCH  28  29
ENDBRANCH  27  28
ENDBRANCH   1  27
TORSDOF 26
ENDMDL
