MODEL 1
REMARK VINA RESULT:      -8.6      0.000      0.000
REMARK SMILES O=C(COc1cccc(NC(=O)c2ccc3c(c2)C(=O)N(c2ccccc2-c2ccccc2)C3=O)c1)OCCOCCOCCOCCOC(=O)c1ccc(-c2c3nc(c(-c4cccc(S(=O)(=O)[O-])c4F)c4ccc([nH]4)c(-c4cccc(S(=O)(=O)[O-])c4F)c4nc(c(-c5cccc(S(=O)(=O)[O-])c5F)c5ccc2[nH]5)C=C4)C=C3)cc1
REMARK SMILES IDX 41 1 40 2 39 3 38 4 37 5 2 6 1 7 3 8 4 9 5 10 6 11 36 12
REMARK SMILES IDX 7 13 9 14 8 15 10 16 11 17 12 19 13 20 14 21 18 22 15 23
REMARK SMILES IDX 17 24 16 25 19 26 34 27 20 28 21 29 35 30 22 31 23 32 27 33
REMARK SMILES IDX 24 34 26 35 25 36 28 37 29 38 33 39 30 40 32 41 31 42 42 43
REMARK SMILES IDX 43 44 44 45 45 46 46 47 47 48 48 49 49 50 50 51 51 52 52 53
REMARK SMILES IDX 53 54 114 55 54 56 113 57 55 58 56 59 57 60 107 61 58 62
REMARK SMILES IDX 112 63 106 64 108 65 59 66 111 67 105 68 104 69 60 71 92 72
REMARK SMILES IDX 72 73 91 74 73 75 76 76 90 77 109 78 74 79 75 80 89 82
REMARK SMILES IDX 110 83 77 84 61 85 62 86 70 87 63 88 65 89 71 90 64 91 66 92
REMARK SMILES IDX 67 93 68 94 69 95 93 96 94 97 102 98 95 99 97 100 103 101
REMARK SMILES IDX 96 102 98 103 99 104 100 105 101 106 78 107 79 108 87 109
REMARK SMILES IDX 80 110 82 111 88 112 81 113 83 114 84 115 85 116 86 117
REMARK H PARENT 10 18 108 70 76 81
REMARK Flexibility Score: inf
ROOT
ATOM      1  C   UNL A   1      40.782  22.933  26.614  1.00  0.00     0.188 C 
ENDROOT
BRANCH   1   2
ATOM      2  O   UNL A   1      39.865  23.825  27.227  1.00  0.00    -0.376 OA
BRANCH   2   3
ATOM      3  C   UNL A   1      38.546  24.051  26.769  1.00  0.00     0.202 C 
BRANCH   3   4
ATOM      4  C   UNL A   1      37.839  23.085  25.820  1.00  0.00     0.261 C 
BRANCH   4   5
ATOM      5  O   UNL A   1      36.422  22.889  26.003  1.00  0.00    -0.461 OA
BRANCH   5   6
ATOM      6  C   UNL A   1      35.537  22.333  25.154  1.00  0.00     0.344 C 
ATOM      7  O   UNL A   1      35.309  21.125  25.211  1.00  0.00    -0.248 OA
BRANCH   6   8
ATOM      8  C   UNL A   1      34.862  23.205  24.110  1.00  0.00     0.351 C 
BRANCH   8   9
ATOM      9  O   UNL A   1      35.132  24.590  24.087  1.00  0.00    -0.482 OA
BRANCH   9  10
ATOM     10  C   UNL A   1      34.027  25.389  24.074  1.00  0.00     0.122 A 
ATOM     11  C   UNL A   1      33.649  25.842  22.818  1.00  0.00     0.046 A 
ATOM     12  C   UNL A   1      33.350  25.825  25.219  1.00  0.00     0.072 A 
ATOM     13  C   UNL A   1      32.593  26.733  22.711  1.00  0.00     0.006 A 
ATOM     14  C   UNL A   1      32.254  26.674  25.122  1.00  0.00     0.045 A 
ATOM     15  C   UNL A   1      31.913  27.154  23.858  1.00  0.00     0.026 A 
BRANCH  14  16
ATOM     16  N   UNL A   1      31.596  27.024  26.324  1.00  0.00    -0.322 N 
ATOM     17  C   UNL A   1      31.971  27.908  27.321  1.00  0.00     0.255 C 
ATOM     18  H   UNL A   1      30.736  26.568  26.476  1.00  0.00     0.170 HD
ATOM     19  O   UNL A   1      31.360  28.031  28.372  1.00  0.00    -0.269 OA
BRANCH  17  20
ATOM     20  C   UNL A   1      33.045  28.865  27.008  1.00  0.00     0.041 A 
ATOM     21  C   UNL A   1      32.713  30.202  26.702  1.00  0.00     0.015 A 
ATOM     22  C   UNL A   1      34.337  28.477  27.361  1.00  0.00     0.028 A 
ATOM     23  C   UNL A   1      33.648  31.215  26.958  1.00  0.00     0.015 A 
ATOM     24  C   UNL A   1      35.214  29.502  27.614  1.00  0.00     0.054 A 
ATOM     25  C   UNL A   1      34.871  30.827  27.485  1.00  0.00     0.053 A 
ATOM     26  C   UNL A   1      36.470  29.432  28.329  1.00  0.00     0.266 C 
ATOM     27  C   UNL A   1      35.907  31.599  28.178  1.00  0.00     0.266 C 
ATOM     28  O   UNL A   1      37.080  28.377  28.371  1.00  0.00    -0.268 OA
ATOM     29  N   UNL A   1      36.707  30.686  28.849  1.00  0.00    -0.242 N 
ATOM     30  O   UNL A   1      35.981  32.793  28.013  1.00  0.00    -0.268 OA
BRANCH  29  31
ATOM     31  C   UNL A   1      37.645  30.939  29.915  1.00  0.00     0.060 A 
ATOM     32  C   UNL A   1      37.347  31.970  30.841  1.00  0.00     0.027 A 
ATOM     33  C   UNL A   1      38.915  30.314  30.055  1.00  0.00     0.006 A 
ATOM     34  C   UNL A   1      38.217  32.362  31.862  1.00  0.00     0.002 A 
ATOM     35  C   UNL A   1      39.764  30.703  31.127  1.00  0.00     0.011 A 
ATOM     36  C   UNL A   1      39.424  31.716  32.019  1.00  0.00     0.001 A 
BRANCH  33  37
ATOM     37  C   UNL A   1      39.533  29.384  29.097  1.00  0.00    -0.016 A 
ATOM     38  C   UNL A   1      39.890  29.803  27.805  1.00  0.00     0.009 A 
ATOM     39  C   UNL A   1      39.697  28.029  29.428  1.00  0.00     0.009 A 
ATOM     40  C   UNL A   1      40.466  28.910  26.899  1.00  0.00     0.001 A 
ATOM     41  C   UNL A   1      40.261  27.132  28.517  1.00  0.00     0.001 A 
ATOM     42  C   UNL A   1      40.660  27.578  27.259  1.00  0.00     0.000 A 
ENDBRANCH  33  37
ENDBRANCH  29  31
ENDBRANCH  17  20
ENDBRANCH  14  16
ENDBRANCH   9  10
ENDBRANCH   8   9
ENDBRANCH   6   8
ENDBRANCH   5   6
ENDBRANCH   4   5
ENDBRANCH   3   4
ENDBRANCH   2   3
ENDBRANCH   1   2
BRANCH   1  43
ATOM     43  C   UNL A   1      40.494  21.444  26.846  1.00  0.00     0.188 C 
BRANCH  43  44
ATOM     44  O   UNL A   1      41.359  20.859  27.813  1.00  0.00    -0.377 OA
BRANCH  44  45
ATOM     45  C   UNL A   1      42.167  19.815  27.290  1.00  0.00     0.188 C 
BRANCH  45  46
ATOM     46  C   UNL A   1      42.154  19.703  25.753  1.00  0.00     0.188 C 
BRANCH  46  47
ATOM     47  O   UNL A   1      43.346  19.569  24.998  1.00  0.00    -0.376 OA
BRANCH  47  48
ATOM     48  C   UNL A   1      44.388  20.528  25.047  1.00  0.00     0.202 C 
BRANCH  48  49
ATOM     49  C   UNL A   1      44.179  22.035  25.272  1.00  0.00     0.261 C 
BRANCH  49  50
ATOM     50  O   UNL A   1      44.659  22.925  24.273  1.00  0.00    -0.460 OA
BRANCH  50  51
ATOM     51  C   UNL A   1      45.729  23.677  24.609  1.00  0.00     0.338 C 
ATOM     52  O   UNL A   1      46.793  23.757  24.024  1.00  0.00    -0.246 OA
BRANCH  51  53
ATOM     53  C   UNL A   1      45.297  24.560  25.712  1.00  0.00     0.060 A 
ATOM     54  C   UNL A   1      43.940  24.898  25.807  1.00  0.00     0.016 A 
ATOM     55  C   UNL A   1      46.209  24.982  26.683  1.00  0.00     0.016 A 
ATOM     56  C   UNL A   1      43.488  25.661  26.879  1.00  0.00     0.010 A 
ATOM     57  C   UNL A   1      45.762  25.782  27.733  1.00  0.00     0.010 A 
ATOM     58  C   UNL A   1      44.406  26.141  27.819  1.00  0.00    -0.014 A 
BRANCH  58  59
ATOM     59  C   UNL A   1      44.003  27.201  28.765  1.00  0.00     0.031 A 
ATOM     60  C   UNL A   1      44.098  28.623  28.292  1.00  0.00     0.074 A 
ATOM     61  C   UNL A   1      43.629  26.912  30.024  1.00  0.00     0.049 A 
ATOM     62  N   UNL A   1      43.909  29.729  28.957  1.00  0.00    -0.248 NA
ATOM     63  C   UNL A   1      44.465  28.823  26.877  1.00  0.00     0.031 C 
ATOM     64  C   UNL A   1      43.503  25.568  30.584  1.00  0.00     0.029 A 
ATOM     65  N   UNL A   1      43.331  27.746  31.072  1.00  0.00    -0.354 N 
ATOM     66  C   UNL A   1      44.173  30.753  28.058  1.00  0.00     0.074 A 
ATOM     67  C   UNL A   1      44.518  30.144  26.795  1.00  0.00     0.031 C 
ATOM     68  C   UNL A   1      43.210  25.670  31.893  1.00  0.00     0.029 A 
ATOM     69  C   UNL A   1      43.159  27.084  32.265  1.00  0.00     0.049 A 
ATOM     70  H   UNL A   1      43.250  28.723  30.979  1.00  0.00     0.167 HD
ATOM     71  C   UNL A   1      44.134  32.087  28.270  1.00  0.00     0.034 A 
ATOM     72  C   UNL A   1      43.023  27.570  33.514  1.00  0.00     0.034 A 
ATOM     73  C   UNL A   1      43.778  32.688  29.524  1.00  0.00     0.049 A 
ATOM     74  C   UNL A   1      43.016  29.064  33.725  1.00  0.00     0.074 A 
ATOM     75  C   UNL A   1      43.626  34.030  29.817  1.00  0.00     0.029 A 
ATOM     76  N   UNL A   1      43.552  31.988  30.697  1.00  0.00    -0.354 N 
ATOM     77  N   UNL A   1      43.098  30.025  32.836  1.00  0.00    -0.248 NA
ATOM     78  C   UNL A   1      42.877  29.543  35.109  1.00  0.00     0.031 C 
ATOM     79  C   UNL A   1      43.344  34.144  31.181  1.00  0.00     0.029 A 
ATOM     80  C   UNL A   1      43.293  32.871  31.727  1.00  0.00     0.049 A 
ATOM     81  H   UNL A   1      43.573  31.008  30.783  1.00  0.00     0.167 HD
ATOM     82  C   UNL A   1      42.995  31.215  33.548  1.00  0.00     0.074 A 
ATOM     83  C   UNL A   1      42.817  30.856  34.938  1.00  0.00     0.031 C 
ATOM     84  C   UNL A   1      43.061  32.492  33.096  1.00  0.00     0.034 A 
BRANCH  71  85
ATOM     85  C   UNL A   1      44.479  32.992  27.123  1.00  0.00     0.023 A 
ATOM     86  C   UNL A   1      43.501  33.302  26.157  1.00  0.00     0.012 A 
ATOM     87  C   UNL A   1      45.749  33.594  27.049  1.00  0.00     0.148 A 
ATOM     88  C   UNL A   1      43.789  34.192  25.124  1.00  0.00     0.002 A 
ATOM     89  C   UNL A   1      46.015  34.510  26.040  1.00  0.00     0.091 A 
ATOM     90  F   UNL A   1      46.669  33.257  27.964  1.00  0.00    -0.205 F 
ATOM     91  C   UNL A   1      45.038  34.805  25.073  1.00  0.00     0.022 A 
BRANCH  89  92
ATOM     92  S   UNL A   1      47.565  35.407  25.931  1.00  0.00     0.127 S 
ATOM     93  O   UNL A   1      48.326  34.568  25.006  1.00  0.00    -0.237 OA
ATOM     94  O   UNL A   1      47.137  36.692  25.378  1.00  0.00    -0.237 OA
ATOM     95  O   UNL A   1      48.093  35.471  27.287  1.00  0.00    -0.744 OA
ENDBRANCH  89  92
ENDBRANCH  71  85
BRANCH  72  96
ATOM     96  C   UNL A   1      42.901  26.643  34.675  1.00  0.00     0.023 A 
ATOM     97  C   UNL A   1      41.636  26.139  35.037  1.00  0.00     0.012 A 
ATOM     98  C   UNL A   1      44.029  26.273  35.434  1.00  0.00     0.148 A 
ATOM     99  C   UNL A   1      41.491  25.315  36.154  1.00  0.00     0.002 A 
ATOM    100  C   UNL A   1      43.885  25.405  36.510  1.00  0.00     0.091 A 
ATOM    101  F   UNL A   1      45.221  26.780  35.092  1.00  0.00    -0.205 F 
ATOM    102  C   UNL A   1      42.616  24.940  36.885  1.00  0.00     0.022 A 
BRANCH 100 103
ATOM    103  S   UNL A   1      45.299  24.768  37.417  1.00  0.00     0.127 S 
ATOM    104  O   UNL A   1      45.709  23.643  36.583  1.00  0.00    -0.237 OA
ATOM    105  O   UNL A   1      46.209  25.915  37.401  1.00  0.00    -0.237 OA
ATOM    106  O   UNL A   1      44.788  24.432  38.739  1.00  0.00    -0.744 OA
ENDBRANCH 100 103
ENDBRANCH  72  96
BRANCH  84 107
ATOM    107  C   UNL A   1      42.917  33.605  34.101  1.00  0.00     0.023 A 
ATOM    108  C   UNL A   1      41.660  34.210  34.294  1.00  0.00     0.012 A 
ATOM    109  C   UNL A   1      43.998  33.973  34.925  1.00  0.00     0.148 A 
ATOM    110  C   UNL A   1      41.487  35.181  35.279  1.00  0.00     0.002 A 
ATOM    111  C   UNL A   1      43.806  34.906  35.935  1.00  0.00     0.091 A 
ATOM    112  F   UNL A   1      45.188  33.392  34.714  1.00  0.00    -0.205 F 
ATOM    113  C   UNL A   1      42.554  35.518  36.108  1.00  0.00     0.022 A 
BRANCH 111 114
ATOM    114  S   UNL A   1      45.094  35.329  37.114  1.00  0.00     0.127 S 
ATOM    115  O   UNL A   1      45.790  34.052  37.265  1.00  0.00    -0.237 OA
ATOM    116  O   UNL A   1      45.849  36.354  36.395  1.00  0.00    -0.237 OA
ATOM    117  O   UNL A   1      44.409  35.808  38.307  1.00  0.00    -0.744 OA
ENDBRANCH 111 114
ENDBRANCH  84 107
ENDBRANCH  58  59
ENDBRANCH  51  53
ENDBRANCH  50  51
ENDBRANCH  49  50
ENDBRANCH  48  49
ENDBRANCH  47  48
ENDBRANCH  46  47
ENDBRANCH  45  46
ENDBRANCH  44  45
ENDBRANCH  43  44
ENDBRANCH   1  43
TORSDOF 29
ENDMDL
MODEL 2
REMARK VINA RESULT:      -8.1      4.623     11.153
REMARK SMILES O=C(COc1cccc(NC(=O)c2ccc3c(c2)C(=O)N(c2ccccc2-c2ccccc2)C3=O)c1)OCCOCCOCCOCCOC(=O)c1ccc(-c2c3nc(c(-c4cccc(S(=O)(=O)[O-])c4F)c4ccc([nH]4)c(-c4cccc(S(=O)(=O)[O-])c4F)c4nc(c(-c5cccc(S(=O)(=O)[O-])c5F)c5ccc2[nH]5)C=C4)C=C3)cc1
REMARK SMILES IDX 41 1 40 2 39 3 38 4 37 5 2 6 1 7 3 8 4 9 5 10 6 11 36 12
REMARK SMILES IDX 7 13 9 14 8 15 10 16 11 17 12 19 13 20 14 21 18 22 15 23
REMARK SMILES IDX 17 24 16 25 19 26 34 27 20 28 21 29 35 30 22 31 23 32 27 33
REMARK SMILES IDX 24 34 26 35 25 36 28 37 29 38 33 39 30 40 32 41 31 42 42 43
REMARK SMILES IDX 43 44 44 45 45 46 46 47 47 48 48 49 49 50 50 51 51 52 52 53
REMARK SMILES IDX 53 54 114 55 54 56 113 57 55 58 56 59 57 60 107 61 58 62
REMARK SMILES IDX 112 63 106 64 108 65 59 66 111 67 105 68 104 69 60 71 92 72
REMARK SMILES IDX 72 73 91 74 73 75 76 76 90 77 109 78 74 79 75 80 89 82
REMARK SMILES IDX 110 83 77 84 61 85 62 86 70 87 63 88 65 89 71 90 64 91 66 92
REMARK SMILES IDX 67 93 68 94 69 95 93 96 94 97 102 98 95 99 97 100 103 101
REMARK SMILES IDX 96 102 98 103 99 104 100 105 101 106 78 107 79 108 87 109
REMARK SMILES IDX 80 110 82 111 88 112 81 113 83 114 84 115 85 116 86 117
REMARK H PARENT 10 18 108 70 76 81
REMARK Flexibility Score: inf
ROOT
ATOM      1  C   UNL A   1      49.700  36.683  29.899  1.00  0.00     0.188 C 
ENDROOT
BRANCH   1   2
ATOM      2  O   UNL A   1      48.630  37.256  29.165  1.00  0.00    -0.376 OA
BRANCH   2   3
ATOM      3  C   UNL A   1      47.745  36.521  28.341  1.00  0.00     0.202 C 
BRANCH   3   4
ATOM      4  C   UNL A   1      48.069  36.206  26.881  1.00  0.00     0.261 C 
BRANCH   4   5
ATOM      5  O   UNL A   1      47.690  34.907  26.381  1.00  0.00    -0.461 OA
BRANCH   5   6
ATOM      6  C   UNL A   1      46.463  34.464  26.047  1.00  0.00     0.344 C 
ATOM      7  O   UNL A   1      46.090  34.520  24.877  1.00  0.00    -0.248 OA
BRANCH   6   8
ATOM      8  C   UNL A   1      45.545  33.935  27.134  1.00  0.00     0.351 C 
BRANCH   8   9
ATOM      9  O   UNL A   1      44.546  32.995  26.798  1.00  0.00    -0.482 OA
BRANCH   9  10
ATOM     10  C   UNL A   1      44.672  31.782  27.409  1.00  0.00     0.122 A 
ATOM     11  C   UNL A   1      45.512  30.887  26.761  1.00  0.00     0.046 A 
ATOM     12  C   UNL A   1      43.956  31.388  28.546  1.00  0.00     0.072 A 
ATOM     13  C   UNL A   1      45.634  29.598  27.254  1.00  0.00     0.006 A 
ATOM     14  C   UNL A   1      44.113  30.116  29.083  1.00  0.00     0.045 A 
ATOM     15  C   UNL A   1      44.927  29.216  28.398  1.00  0.00     0.026 A 
BRANCH  14  16
ATOM     16  N   UNL A   1      43.392  29.818  30.264  1.00  0.00    -0.322 N 
ATOM     17  C   UNL A   1      42.198  29.139  30.431  1.00  0.00     0.255 C 
ATOM     18  H   UNL A   1      43.804  30.145  31.097  1.00  0.00     0.170 HD
ATOM     19  O   UNL A   1      41.622  29.052  31.507  1.00  0.00    -0.269 OA
BRANCH  17  20
ATOM     20  C   UNL A   1      41.710  28.337  29.298  1.00  0.00     0.041 A 
ATOM     21  C   UNL A   1      41.319  28.986  28.108  1.00  0.00     0.015 A 
ATOM     22  C   UNL A   1      41.982  26.970  29.351  1.00  0.00     0.028 A 
ATOM     23  C   UNL A   1      41.403  28.294  26.891  1.00  0.00     0.015 A 
ATOM     24  C   UNL A   1      42.067  26.337  28.135  1.00  0.00     0.054 A 
ATOM     25  C   UNL A   1      41.853  26.983  26.941  1.00  0.00     0.053 A 
ATOM     26  C   UNL A   1      42.673  25.055  27.850  1.00  0.00     0.266 C 
ATOM     27  C   UNL A   1      42.384  26.108  25.890  1.00  0.00     0.266 C 
ATOM     28  O   UNL A   1      42.754  24.218  28.733  1.00  0.00    -0.268 OA
ATOM     29  N   UNL A   1      43.060  25.078  26.527  1.00  0.00    -0.242 N 
ATOM     30  O   UNL A   1      42.109  26.321  24.733  1.00  0.00    -0.268 OA
BRANCH  29  31
ATOM     31  C   UNL A   1      44.013  24.156  25.962  1.00  0.00     0.060 A 
ATOM     32  C   UNL A   1      43.528  23.097  25.155  1.00  0.00     0.027 A 
ATOM     33  C   UNL A   1      45.408  24.147  26.241  1.00  0.00     0.006 A 
ATOM     34  C   UNL A   1      44.345  22.096  24.625  1.00  0.00     0.002 A 
ATOM     35  C   UNL A   1      46.225  23.140  25.655  1.00  0.00     0.011 A 
ATOM     36  C   UNL A   1      45.703  22.125  24.860  1.00  0.00     0.001 A 
BRANCH  33  37
ATOM     37  C   UNL A   1      46.102  25.000  27.217  1.00  0.00    -0.016 A 
ATOM     38  C   UNL A   1      46.975  26.019  26.802  1.00  0.00     0.009 A 
ATOM     39  C   UNL A   1      45.975  24.752  28.594  1.00  0.00     0.009 A 
ATOM     40  C   UNL A   1      47.638  26.816  27.737  1.00  0.00     0.001 A 
ATOM     41  C   UNL A   1      46.648  25.542  29.530  1.00  0.00     0.001 A 
ATOM     42  C   UNL A   1      47.466  26.584  29.100  1.00  0.00     0.000 A 
ENDBRANCH  33  37
ENDBRANCH  29  31
ENDBRANCH  17  20
ENDBRANCH  14  16
ENDBRANCH   9  10
ENDBRANCH   8   9
ENDBRANCH   6   8
ENDBRANCH   5   6
ENDBRANCH   4   5
ENDBRANCH   3   4
ENDBRANCH   2   3
ENDBRANCH   1   2
BRANCH   1  43
ATOM     43  C   UNL A   1      51.102  37.073  29.416  1.00  0.00     0.188 C 
BRANCH  43  44
ATOM     44  O   UNL A   1      51.370  36.634  28.088  1.00  0.00    -0.377 OA
BRANCH  44  45
ATOM     45  C   UNL A   1      51.975  35.351  28.029  1.00  0.00     0.188 C 
BRANCH  45  46
ATOM     46  C   UNL A   1      53.192  35.173  28.957  1.00  0.00     0.188 C 
BRANCH  46  47
ATOM     47  O   UNL A   1      53.264  34.126  29.910  1.00  0.00    -0.376 OA
BRANCH  47  48
ATOM     48  C   UNL A   1      53.860  32.874  29.618  1.00  0.00     0.202 C 
BRANCH  48  49
ATOM     49  C   UNL A   1      53.309  31.858  28.604  1.00  0.00     0.261 C 
BRANCH  49  50
ATOM     50  O   UNL A   1      53.089  30.528  29.055  1.00  0.00    -0.460 OA
BRANCH  50  51
ATOM     51  C   UNL A   1      52.127  29.832  28.412  1.00  0.00     0.338 C 
ATOM     52  O   UNL A   1      52.265  29.065  27.477  1.00  0.00    -0.246 OA
BRANCH  51  53
ATOM     53  C   UNL A   1      50.884  30.007  29.191  1.00  0.00     0.060 A 
ATOM     54  C   UNL A   1      49.658  29.956  28.514  1.00  0.00     0.016 A 
ATOM     55  C   UNL A   1      50.929  30.140  30.581  1.00  0.00     0.016 A 
ATOM     56  C   UNL A   1      48.466  30.036  29.229  1.00  0.00     0.010 A 
ATOM     57  C   UNL A   1      49.736  30.264  31.290  1.00  0.00     0.010 A 
ATOM     58  C   UNL A   1      48.505  30.235  30.613  1.00  0.00    -0.014 A 
BRANCH  58  59
ATOM     59  C   UNL A   1      47.281  30.640  31.332  1.00  0.00     0.031 A 
ATOM     60  C   UNL A   1      46.575  29.593  32.144  1.00  0.00     0.074 A 
ATOM     61  C   UNL A   1      46.777  31.881  31.213  1.00  0.00     0.049 A 
ATOM     62  N   UNL A   1      45.436  29.664  32.774  1.00  0.00    -0.248 NA
ATOM     63  C   UNL A   1      47.245  28.283  32.252  1.00  0.00     0.031 C 
ATOM     64  C   UNL A   1      47.381  32.973  30.451  1.00  0.00     0.029 A 
ATOM     65  N   UNL A   1      45.609  32.413  31.700  1.00  0.00    -0.354 N 
ATOM     66  C   UNL A   1      45.230  28.404  33.317  1.00  0.00     0.074 A 
ATOM     67  C   UNL A   1      46.367  27.588  32.960  1.00  0.00     0.031 C 
ATOM     68  C   UNL A   1      46.548  34.029  30.474  1.00  0.00     0.029 A 
ATOM     69  C   UNL A   1      45.344  33.676  31.224  1.00  0.00     0.049 A 
ATOM     70  H   UNL A   1      45.019  31.936  32.328  1.00  0.00     0.167 HD
ATOM     71  C   UNL A   1      44.181  27.964  34.046  1.00  0.00     0.034 A 
ATOM     72  C   UNL A   1      44.236  34.433  31.346  1.00  0.00     0.034 A 
ATOM     73  C   UNL A   1      43.059  28.782  34.408  1.00  0.00     0.049 A 
ATOM     74  C   UNL A   1      43.067  33.902  32.138  1.00  0.00     0.074 A 
ATOM     75  C   UNL A   1      41.987  28.455  35.216  1.00  0.00     0.029 A 
ATOM     76  N   UNL A   1      42.850  30.075  33.958  1.00  0.00    -0.354 N 
ATOM     77  N   UNL A   1      42.956  32.769  32.790  1.00  0.00    -0.248 NA
ATOM     78  C   UNL A   1      41.877  34.762  32.231  1.00  0.00     0.031 C 
ATOM     79  C   UNL A   1      41.107  29.541  35.224  1.00  0.00     0.029 A 
ATOM     80  C   UNL A   1      41.647  30.551  34.445  1.00  0.00     0.049 A 
ATOM     81  H   UNL A   1      43.465  30.579  33.379  1.00  0.00     0.167 HD
ATOM     82  C   UNL A   1      41.700  32.793  33.388  1.00  0.00     0.074 A 
ATOM     83  C   UNL A   1      41.098  34.063  33.045  1.00  0.00     0.031 C 
ATOM     84  C   UNL A   1      41.090  31.842  34.138  1.00  0.00     0.034 A 
BRANCH  71  85
ATOM     85  C   UNL A   1      44.195  26.536  34.508  1.00  0.00     0.023 A 
ATOM     86  C   UNL A   1      43.725  25.518  33.653  1.00  0.00     0.012 A 
ATOM     87  C   UNL A   1      44.746  26.198  35.758  1.00  0.00     0.148 A 
ATOM     88  C   UNL A   1      43.794  24.182  34.044  1.00  0.00     0.002 A 
ATOM     89  C   UNL A   1      44.848  24.863  36.124  1.00  0.00     0.091 A 
ATOM     90  F   UNL A   1      45.157  27.188  36.564  1.00  0.00    -0.205 F 
ATOM     91  C   UNL A   1      44.366  23.855  35.271  1.00  0.00     0.022 A 
BRANCH  89  92
ATOM     92  S   UNL A   1      45.633  24.333  37.648  1.00  0.00     0.127 S 
ATOM     93  O   UNL A   1      45.575  22.877  37.519  1.00  0.00    -0.237 OA
ATOM     94  O   UNL A   1      46.974  24.904  37.514  1.00  0.00    -0.237 OA
ATOM     95  O   UNL A   1      44.836  24.893  38.730  1.00  0.00    -0.744 OA
ENDBRANCH  89  92
ENDBRANCH  71  85
BRANCH  72  96
ATOM     96  C   UNL A   1      44.159  35.769  30.689  1.00  0.00     0.023 A 
ATOM     97  C   UNL A   1      43.585  35.886  29.408  1.00  0.00     0.012 A 
ATOM     98  C   UNL A   1      44.668  36.920  31.319  1.00  0.00     0.148 A 
ATOM     99  C   UNL A   1      43.554  37.117  28.752  1.00  0.00     0.002 A 
ATOM    100  C   UNL A   1      44.581  38.154  30.685  1.00  0.00     0.091 A 
ATOM    101  F   UNL A   1      45.234  36.788  32.527  1.00  0.00    -0.205 F 
ATOM    102  C   UNL A   1      44.043  38.253  29.393  1.00  0.00     0.022 A 
BRANCH 100 103
ATOM    103  S   UNL A   1      45.065  39.681  31.497  1.00  0.00     0.127 S 
ATOM    104  O   UNL A   1      46.508  39.504  31.633  1.00  0.00    -0.237 OA
ATOM    105  O   UNL A   1      44.655  40.687  30.516  1.00  0.00    -0.237 OA
ATOM    106  O   UNL A   1      44.304  39.715  32.739  1.00  0.00    -0.744 OA
ENDBRANCH 100 103
ENDBRANCH  72  96
BRANCH  84 107
ATOM    107  C   UNL A   1      39.710  32.136  34.666  1.00  0.00     0.023 A 
ATOM    108  C   UNL A   1      38.587  31.893  33.852  1.00  0.00     0.012 A 
ATOM    109  C   UNL A   1      39.525  32.550  35.999  1.00  0.00     0.148 A 
ATOM    110  C   UNL A   1      37.299  32.077  34.352  1.00  0.00     0.002 A 
ATOM    111  C   UNL A   1      38.238  32.685  36.505  1.00  0.00     0.091 A 
ATOM    112  F   UNL A   1      40.610  32.788  36.751  1.00  0.00    -0.205 F 
ATOM    113  C   UNL A   1      37.124  32.459  35.680  1.00  0.00     0.022 A 
BRANCH 111 114
ATOM    114  S   UNL A   1      37.916  33.074  38.229  1.00  0.00     0.127 S 
ATOM    115  O   UNL A   1      36.456  33.016  38.278  1.00  0.00    -0.237 OA
ATOM    116  O   UNL A   1      38.594  31.982  38.926  1.00  0.00    -0.237 OA
ATOM    117  O   UNL A   1      38.494  34.391  38.461  1.00  0.00    -0.744 OA
ENDBRANCH 111 114
ENDBRANCH  84 107
ENDBRANCH  58  59
ENDBRANCH  51  53
ENDBRANCH  50  51
ENDBRANCH  49  50
ENDBRANCH  48  49
ENDBRANCH  47  48
ENDBRANCH  46  47
ENDBRANCH  45  46
ENDBRANCH  44  45
ENDBRANCH  43  44
ENDBRANCH   1  43
TORSDOF 29
ENDMDL
MODEL 3
REMARK VINA RESULT:      -8.0      6.283     11.684
REMARK SMILES O=C(COc1cccc(NC(=O)c2ccc3c(c2)C(=O)N(c2ccccc2-c2ccccc2)C3=O)c1)OCCOCCOCCOCCOC(=O)c1ccc(-c2c3nc(c(-c4cccc(S(=O)(=O)[O-])c4F)c4ccc([nH]4)c(-c4cccc(S(=O)(=O)[O-])c4F)c4nc(c(-c5cccc(S(=O)(=O)[O-])c5F)c5ccc2[nH]5)C=C4)C=C3)cc1
REMARK SMILES IDX 41 1 40 2 39 3 38 4 37 5 2 6 1 7 3 8 4 9 5 10 6 11 36 12
REMARK SMILES IDX 7 13 9 14 8 15 10 16 11 17 12 19 13 20 14 21 18 22 15 23
REMARK SMILES IDX 17 24 16 25 19 26 34 27 20 28 21 29 35 30 22 31 23 32 27 33
REMARK SMILES IDX 24 34 26 35 25 36 28 37 29 38 33 39 30 40 32 41 31 42 42 43
REMARK SMILES IDX 43 44 44 45 45 46 46 47 47 48 48 49 49 50 50 51 51 52 52 53
REMARK SMILES IDX 53 54 114 55 54 56 113 57 55 58 56 59 57 60 107 61 58 62
REMARK SMILES IDX 112 63 106 64 108 65 59 66 111 67 105 68 104 69 60 71 92 72
REMARK SMILES IDX 72 73 91 74 73 75 76 76 90 77 109 78 74 79 75 80 89 82
REMARK SMILES IDX 110 83 77 84 61 85 62 86 70 87 63 88 65 89 71 90 64 91 66 92
REMARK SMILES IDX 67 93 68 94 69 95 93 96 94 97 102 98 95 99 97 100 103 101
REMARK SMILES IDX 96 102 98 103 99 104 100 105 101 106 78 107 79 108 87 109
REMARK SMILES IDX 80 110 82 111 88 112 81 113 83 114 84 115 85 116 86 117
REMARK H PARENT 10 18 108 70 76 81
REMARK Flexibility Score: inf
ROOT
ATOM      1  C   UNL A   1      38.122  28.851  30.700  1.00  0.00     0.188 C 
ENDROOT
BRANCH   1   2
ATOM      2  O   UNL A   1      37.703  28.741  32.051  1.00  0.00    -0.376 OA
BRANCH   2   3
ATOM      3  C   UNL A   1      37.403  29.844  32.884  1.00  0.00     0.202 C 
BRANCH   3   4
ATOM      4  C   UNL A   1      38.388  30.993  33.095  1.00  0.00     0.261 C 
BRANCH   4   5
ATOM      5  O   UNL A   1      37.840  32.290  33.406  1.00  0.00    -0.461 OA
BRANCH   5   6
ATOM      6  C   UNL A   1      36.898  32.605  34.316  1.00  0.00     0.344 C 
ATOM      7  O   UNL A   1      37.072  32.321  35.500  1.00  0.00    -0.248 OA
BRANCH   6   8
ATOM      8  C   UNL A   1      35.615  33.274  33.855  1.00  0.00     0.351 C 
BRANCH   8   9
ATOM      9  O   UNL A   1      34.754  32.584  32.974  1.00  0.00    -0.482 OA
BRANCH   9  10
ATOM     10  C   UNL A   1      34.903  32.908  31.657  1.00  0.00     0.122 A 
ATOM     11  C   UNL A   1      34.079  33.931  31.210  1.00  0.00     0.046 A 
ATOM     12  C   UNL A   1      35.738  32.227  30.763  1.00  0.00     0.072 A 
ATOM     13  C   UNL A   1      34.091  34.271  29.867  1.00  0.00     0.006 A 
ATOM     14  C   UNL A   1      35.802  32.595  29.424  1.00  0.00     0.045 A 
ATOM     15  C   UNL A   1      34.937  33.595  28.982  1.00  0.00     0.026 A 
BRANCH  14  16
ATOM     16  N   UNL A   1      36.710  31.889  28.600  1.00  0.00    -0.322 N 
ATOM     17  C   UNL A   1      36.537  30.718  27.883  1.00  0.00     0.255 C 
ATOM     18  H   UNL A   1      37.605  32.292  28.526  1.00  0.00     0.170 HD
ATOM     19  O   UNL A   1      37.449  30.149  27.299  1.00  0.00    -0.269 OA
BRANCH  17  20
ATOM     20  C   UNL A   1      35.158  30.253  27.668  1.00  0.00     0.041 A 
ATOM     21  C   UNL A   1      34.136  31.198  27.435  1.00  0.00     0.015 A 
ATOM     22  C   UNL A   1      35.004  28.899  27.374  1.00  0.00     0.028 A 
ATOM     23  C   UNL A   1      33.007  30.819  26.695  1.00  0.00     0.015 A 
ATOM     24  C   UNL A   1      33.891  28.575  26.637  1.00  0.00     0.054 A 
ATOM     25  C   UNL A   1      32.956  29.506  26.250  1.00  0.00     0.053 A 
ATOM     26  C   UNL A   1      33.651  27.361  25.888  1.00  0.00     0.266 C 
ATOM     27  C   UNL A   1      32.147  28.878  25.201  1.00  0.00     0.266 C 
ATOM     28  O   UNL A   1      34.214  26.331  26.217  1.00  0.00    -0.268 OA
ATOM     29  N   UNL A   1      32.765  27.678  24.881  1.00  0.00    -0.242 N 
ATOM     30  O   UNL A   1      31.106  29.385  24.857  1.00  0.00    -0.268 OA
BRANCH  29  31
ATOM     31  C   UNL A   1      32.561  26.854  23.715  1.00  0.00     0.060 A 
ATOM     32  C   UNL A   1      33.046  27.323  22.469  1.00  0.00     0.027 A 
ATOM     33  C   UNL A   1      31.804  25.650  23.685  1.00  0.00     0.006 A 
ATOM     34  C   UNL A   1      32.834  26.655  21.260  1.00  0.00     0.002 A 
ATOM     35  C   UNL A   1      31.638  24.968  22.448  1.00  0.00     0.011 A 
ATOM     36  C   UNL A   1      32.142  25.463  21.249  1.00  0.00     0.001 A 
BRANCH  33  37
ATOM     37  C   UNL A   1      31.023  25.089  24.798  1.00  0.00    -0.016 A 
ATOM     38  C   UNL A   1      29.928  25.783  25.339  1.00  0.00     0.009 A 
ATOM     39  C   UNL A   1      31.414  23.883  25.403  1.00  0.00     0.009 A 
ATOM     40  C   UNL A   1      29.199  25.247  26.403  1.00  0.00     0.001 A 
ATOM     41  C   UNL A   1      30.692  23.353  26.476  1.00  0.00     0.001 A 
ATOM     42  C   UNL A   1      29.575  24.028  26.964  1.00  0.00     0.000 A 
ENDBRANCH  33  37
ENDBRANCH  29  31
ENDBRANCH  17  20
ENDBRANCH  14  16
ENDBRANCH   9  10
ENDBRANCH   8   9
ENDBRANCH   6   8
ENDBRANCH   5   6
ENDBRANCH   4   5
ENDBRANCH   3   4
ENDBRANCH   2   3
ENDBRANCH   1   2
BRANCH   1  43
ATOM     43  C   UNL A   1      38.792  27.597  30.123  1.00  0.00     0.188 C 
BRANCH  43  44
ATOM     44  O   UNL A   1      40.200  27.742  29.976  1.00  0.00    -0.377 OA
BRANCH  44  45
ATOM     45  C   UNL A   1      40.572  28.541  28.863  1.00  0.00     0.188 C 
BRANCH  45  46
ATOM     46  C   UNL A   1      39.943  28.109  27.524  1.00  0.00     0.188 C 
BRANCH  46  47
ATOM     47  O   UNL A   1      40.613  27.248  26.621  1.00  0.00    -0.376 OA
BRANCH  47  48
ATOM     48  C   UNL A   1      41.263  26.062  27.044  1.00  0.00     0.202 C 
BRANCH  48  49
ATOM     49  C   UNL A   1      41.377  24.779  26.204  1.00  0.00     0.261 C 
BRANCH  49  50
ATOM     50  O   UNL A   1      42.421  23.869  26.526  1.00  0.00    -0.460 OA
BRANCH  50  51
ATOM     51  C   UNL A   1      43.123  23.374  25.484  1.00  0.00     0.338 C 
ATOM     52  O   UNL A   1      42.713  22.671  24.580  1.00  0.00    -0.246 OA
BRANCH  51  53
ATOM     53  C   UNL A   1      44.452  24.019  25.523  1.00  0.00     0.060 A 
ATOM     54  C   UNL A   1      45.592  23.204  25.488  1.00  0.00     0.016 A 
ATOM     55  C   UNL A   1      44.567  25.411  25.513  1.00  0.00     0.016 A 
ATOM     56  C   UNL A   1      46.857  23.782  25.441  1.00  0.00     0.010 A 
ATOM     57  C   UNL A   1      45.835  25.988  25.510  1.00  0.00     0.010 A 
ATOM     58  C   UNL A   1      46.981  25.175  25.497  1.00  0.00    -0.014 A 
BRANCH  58  59
ATOM     59  C   UNL A   1      48.297  25.785  25.771  1.00  0.00     0.031 A 
ATOM     60  C   UNL A   1      48.712  25.918  27.208  1.00  0.00     0.074 A 
ATOM     61  C   UNL A   1      49.068  26.265  24.780  1.00  0.00     0.049 A 
ATOM     62  N   UNL A   1      49.759  26.508  27.714  1.00  0.00    -0.248 NA
ATOM     63  C   UNL A   1      47.819  25.307  28.210  1.00  0.00     0.031 C 
ATOM     64  C   UNL A   1      48.760  26.187  23.353  1.00  0.00     0.029 A 
ATOM     65  N   UNL A   1      50.251  26.957  24.835  1.00  0.00    -0.354 N 
ATOM     66  C   UNL A   1      49.631  26.379  29.090  1.00  0.00     0.074 A 
ATOM     67  C   UNL A   1      48.417  25.639  29.345  1.00  0.00     0.031 C 
ATOM     68  C   UNL A   1      49.702  26.861  22.669  1.00  0.00     0.029 A 
ATOM     69  C   UNL A   1      50.659  27.439  23.612  1.00  0.00     0.049 A 
ATOM     70  H   UNL A   1      50.758  27.096  25.667  1.00  0.00     0.167 HD
ATOM     71  C   UNL A   1      50.454  26.841  30.058  1.00  0.00     0.034 A 
ATOM     72  C   UNL A   1      51.661  28.286  23.305  1.00  0.00     0.034 A 
ATOM     73  C   UNL A   1      51.666  27.564  29.799  1.00  0.00     0.049 A 
ATOM     74  C   UNL A   1      52.543  28.812  24.410  1.00  0.00     0.074 A 
ATOM     75  C   UNL A   1      52.612  28.001  30.707  1.00  0.00     0.029 A 
ATOM     76  N   UNL A   1      52.079  27.985  28.546  1.00  0.00    -0.354 N 
ATOM     77  N   UNL A   1      52.511  28.543  25.693  1.00  0.00    -0.248 NA
ATOM     78  C   UNL A   1      53.615  29.743  24.023  1.00  0.00     0.031 C 
ATOM     79  C   UNL A   1      53.583  28.721  30.005  1.00  0.00     0.029 A 
ATOM     80  C   UNL A   1      53.253  28.707  28.659  1.00  0.00     0.049 A 
ATOM     81  H   UNL A   1      51.609  27.798  27.703  1.00  0.00     0.167 HD
ATOM     82  C   UNL A   1      53.568  29.247  26.260  1.00  0.00     0.074 A 
ATOM     83  C   UNL A   1      54.239  29.934  25.178  1.00  0.00     0.031 C 
ATOM     84  C   UNL A   1      53.939  29.336  27.561  1.00  0.00     0.034 A 
BRANCH  71  85
ATOM     85  C   UNL A   1      50.079  26.575  31.486  1.00  0.00     0.023 A 
ATOM     86  C   UNL A   1      49.348  27.539  32.209  1.00  0.00     0.012 A 
ATOM     87  C   UNL A   1      50.383  25.337  32.084  1.00  0.00     0.148 A 
ATOM     88  C   UNL A   1      48.936  27.277  33.515  1.00  0.00     0.002 A 
ATOM     89  C   UNL A   1      49.935  25.069  33.370  1.00  0.00     0.091 A 
ATOM     90  F   UNL A   1      51.106  24.451  31.384  1.00  0.00    -0.205 F 
ATOM     91  C   UNL A   1      49.218  26.040  34.089  1.00  0.00     0.022 A 
BRANCH  89  92
ATOM     92  S   UNL A   1      50.183  23.481  34.170  1.00  0.00     0.127 S 
ATOM     93  O   UNL A   1      48.896  23.284  34.836  1.00  0.00    -0.237 OA
ATOM     94  O   UNL A   1      50.420  22.598  33.027  1.00  0.00    -0.237 OA
ATOM     95  O   UNL A   1      51.323  23.649  35.059  1.00  0.00    -0.744 OA
ENDBRANCH  89  92
ENDBRANCH  71  85
BRANCH  72  96
ATOM     96  C   UNL A   1      51.882  28.713  21.894  1.00  0.00     0.023 A 
ATOM     97  C   UNL A   1      51.185  29.826  21.383  1.00  0.00     0.012 A 
ATOM     98  C   UNL A   1      52.765  28.011  21.051  1.00  0.00     0.148 A 
ATOM     99  C   UNL A   1      51.335  30.208  20.050  1.00  0.00     0.002 A 
ATOM    100  C   UNL A   1      52.953  28.433  19.740  1.00  0.00     0.091 A 
ATOM    101  F   UNL A   1      53.400  26.939  21.544  1.00  0.00    -0.205 F 
ATOM    102  C   UNL A   1      52.226  29.519  19.231  1.00  0.00     0.022 A 
BRANCH 100 103
ATOM    103  S   UNL A   1      54.179  27.683  18.663  1.00  0.00     0.127 S 
ATOM    104  O   UNL A   1      53.834  26.267  18.756  1.00  0.00    -0.237 OA
ATOM    105  O   UNL A   1      53.875  28.311  17.376  1.00  0.00    -0.237 OA
ATOM    106  O   UNL A   1      55.469  28.065  19.222  1.00  0.00    -0.744 OA
ENDBRANCH 100 103
ENDBRANCH  72  96
BRANCH  84 107
ATOM    107  C   UNL A   1      55.139  30.182  27.897  1.00  0.00     0.023 A 
ATOM    108  C   UNL A   1      54.961  31.530  28.262  1.00  0.00     0.012 A 
ATOM    109  C   UNL A   1      56.426  29.612  27.954  1.00  0.00     0.148 A 
ATOM    110  C   UNL A   1      56.049  32.305  28.660  1.00  0.00     0.002 A 
ATOM    111  C   UNL A   1      57.498  30.376  28.397  1.00  0.00     0.091 A 
ATOM    112  F   UNL A   1      56.573  28.330  27.589  1.00  0.00    -0.205 F 
ATOM    113  C   UNL A   1      57.313  31.725  28.740  1.00  0.00     0.022 A 
BRANCH 111 114
ATOM    114  S   UNL A   1      59.141  29.689  28.629  1.00  0.00     0.127 S 
ATOM    115  O   UNL A   1      59.799  30.746  29.397  1.00  0.00    -0.237 OA
ATOM    116  O   UNL A   1      58.864  28.468  29.385  1.00  0.00    -0.237 OA
ATOM    117  O   UNL A   1      59.678  29.465  27.294  1.00  0.00    -0.744 OA
ENDBRANCH 111 114
ENDBRANCH  84 107
ENDBRANCH  58  59
ENDBRANCH  51  53
ENDBRANCH  50  51
ENDBRANCH  49  50
ENDBRANCH  48  49
ENDBRANCH  47  48
ENDBRANCH  46  47
ENDBRANCH  45  46
ENDBRANCH  44  45
ENDBRANCH  43  44
ENDBRANCH   1  43
TORSDOF 29
ENDMDL
