MODEL 1
REMARK VINA RESULT:      -6.6      0.000      0.000
REMARK SMILES CCCCCCNC(=O)Oc1cccc(-c2ccc([C@@H](C)C(=O)OCCOCCOCCOCCOC(=O)c3ccc(-c4c5nc(c(-c6cccc(S(=O)(=O)[O-])c6F)c6ccc([nH]6)c(-c6cccc(S(=O)(=O)[O-])c6F)c6nc(c(-c7cccc(S(=O)(=O)[O-])c7F)c7ccc4[nH]7)C=C6)C=C5)cc3)cc2Cl)c1
REMARK SMILES IDX 27 1 26 2 25 3 24 4 22 5 23 6 20 7 21 8 19 9 16 10 17 11
REMARK SMILES IDX 103 12 18 13 102 14 104 15 15 16 11 17 12 18 105 19 13 20
REMARK SMILES IDX 14 21 10 22 8 23 7 24 9 26 6 27 5 28 4 29 3 30 2 31 1 32
REMARK SMILES IDX 28 33 29 34 30 35 31 36 32 37 33 38 34 39 35 40 36 41 37 42
REMARK SMILES IDX 38 43 39 44 40 45 101 46 41 47 100 48 42 49 43 50 44 51
REMARK SMILES IDX 94 52 45 53 99 54 93 55 95 56 46 57 98 58 92 59 91 60 47 62
REMARK SMILES IDX 79 63 59 64 78 65 60 66 63 67 77 68 96 69 61 70 62 71 76 73
REMARK SMILES IDX 97 74 64 75 48 76 49 77 57 78 50 79 52 80 58 81 51 82 53 83
REMARK SMILES IDX 54 84 55 85 56 86 80 87 81 88 89 89 82 90 84 91 90 92 83 93
REMARK SMILES IDX 85 94 86 95 87 96 88 97 65 98 66 99 74 100 67 101 69 102
REMARK SMILES IDX 75 103 68 104 70 105 71 106 72 107 73 108
REMARK H PARENT 7 25 95 61 63 72
REMARK Flexibility Score: inf
ROOT
ATOM      1  O   UNL A   1      33.821  36.887  31.994  1.00  0.00    -0.376 OA
ENDROOT
BRANCH   1   2
ATOM      2  C   UNL A   1      34.232  36.013  33.037  1.00  0.00     0.202 C 
BRANCH   2   3
ATOM      3  C   UNL A   1      35.525  35.185  32.910  1.00  0.00     0.261 C 
BRANCH   3   4
ATOM      4  O   UNL A   1      35.621  33.996  33.720  1.00  0.00    -0.463 OA
BRANCH   4   5
ATOM      5  C   UNL A   1      36.369  32.987  33.221  1.00  0.00     0.313 C 
ATOM      6  O   UNL A   1      35.977  32.229  32.333  1.00  0.00    -0.252 OA
BRANCH   5   7
ATOM      7  C   UNL A   1      37.753  32.806  33.840  1.00  0.00     0.126 C 
ATOM      8  C   UNL A   1      38.067  31.318  33.909  1.00  0.00     0.025 C 
BRANCH   7   9
ATOM      9  C   UNL A   1      38.154  33.520  35.130  1.00  0.00    -0.033 A 
ATOM     10  C   UNL A   1      39.003  34.959  37.483  1.00  0.00     0.000 A 
ATOM     11  C   UNL A   1      38.059  33.912  37.540  1.00  0.00     0.010 A 
ATOM     12  C   UNL A   1      39.515  35.271  36.211  1.00  0.00     0.049 A 
ATOM     13  C   UNL A   1      37.645  33.201  36.393  1.00  0.00     0.005 A 
ATOM     14  C   UNL A   1      39.104  34.561  35.066  1.00  0.00     0.025 A 
ATOM     15  Cl  UNL A   1      40.706  36.507  35.961  1.00  0.00    -0.084 Cl
BRANCH  10  16
ATOM     16  C   UNL A   1      39.458  35.621  38.732  1.00  0.00    -0.013 A 
ATOM     17  C   UNL A   1      40.103  35.582  41.083  1.00  0.00     0.133 A 
ATOM     18  C   UNL A   1      40.184  36.972  41.115  1.00  0.00     0.047 A 
ATOM     19  C   UNL A   1      39.752  34.904  39.909  1.00  0.00     0.056 A 
ATOM     20  C   UNL A   1      39.926  37.694  39.955  1.00  0.00     0.004 A 
ATOM     21  C   UNL A   1      39.563  37.026  38.781  1.00  0.00     0.009 A 
BRANCH  17  22
ATOM     22  O   UNL A   1      40.241  34.924  42.323  1.00  0.00    -0.410 OA
BRANCH  22  23
ATOM     23  C   UNL A   1      39.507  35.358  43.415  1.00  0.00     0.412 C 
ATOM     24  N   UNL A   1      38.172  35.065  43.324  1.00  0.00    -0.321 N 
ATOM     25  H   UNL A   1      37.610  35.349  44.081  1.00  0.00     0.167 HD
ATOM     26  O   UNL A   1      39.952  35.952  44.391  1.00  0.00    -0.224 OA
BRANCH  24  27
ATOM     27  C   UNL A   1      37.493  34.382  42.240  1.00  0.00     0.119 C 
BRANCH  27  28
ATOM     28  C   UNL A   1      37.286  32.895  42.537  1.00  0.00     0.021 C 
BRANCH  28  29
ATOM     29  C   UNL A   1      38.372  31.963  41.982  1.00  0.00     0.002 C 
BRANCH  29  30
ATOM     30  C   UNL A   1      38.379  30.539  42.551  1.00  0.00    -0.000 C 
BRANCH  30  31
ATOM     31  C   UNL A   1      38.876  30.408  43.993  1.00  0.00    -0.003 C 
ATOM     32  C   UNL A   1      38.025  29.480  44.845  1.00  0.00     0.004 C 
ENDBRANCH  30  31
ENDBRANCH  29  30
ENDBRANCH  28  29
ENDBRANCH  27  28
ENDBRANCH  24  27
ENDBRANCH  22  23
ENDBRANCH  17  22
ENDBRANCH  10  16
ENDBRANCH   7   9
ENDBRANCH   5   7
ENDBRANCH   4   5
ENDBRANCH   3   4
ENDBRANCH   2   3
ENDBRANCH   1   2
BRANCH   1  33
ATOM     33  C   UNL A   1      32.813  36.494  31.071  1.00  0.00     0.188 C 
BRANCH  33  34
ATOM     34  C   UNL A   1      33.161  36.067  29.637  1.00  0.00     0.188 C 
BRANCH  34  35
ATOM     35  O   UNL A   1      33.141  34.675  29.408  1.00  0.00    -0.377 OA
BRANCH  35  36
ATOM     36  C   UNL A   1      33.417  34.247  28.085  1.00  0.00     0.188 C 
BRANCH  36  37
ATOM     37  C   UNL A   1      34.719  33.450  27.874  1.00  0.00     0.188 C 
BRANCH  37  38
ATOM     38  O   UNL A   1      34.518  32.128  27.383  1.00  0.00    -0.376 OA
BRANCH  38  39
ATOM     39  C   UNL A   1      34.881  31.034  28.216  1.00  0.00     0.202 C 
BRANCH  39  40
ATOM     40  C   UNL A   1      36.374  30.707  28.390  1.00  0.00     0.261 C 
BRANCH  40  41
ATOM     41  O   UNL A   1      36.789  30.266  29.688  1.00  0.00    -0.460 OA
BRANCH  41  42
ATOM     42  C   UNL A   1      38.020  29.727  29.822  1.00  0.00     0.338 C 
ATOM     43  O   UNL A   1      38.335  28.569  29.660  1.00  0.00    -0.246 OA
BRANCH  42  44
ATOM     44  C   UNL A   1      38.974  30.852  29.966  1.00  0.00     0.060 A 
ATOM     45  C   UNL A   1      40.348  30.593  29.850  1.00  0.00     0.016 A 
ATOM     46  C   UNL A   1      38.518  32.148  30.213  1.00  0.00     0.016 A 
ATOM     47  C   UNL A   1      41.274  31.620  30.032  1.00  0.00     0.010 A 
ATOM     48  C   UNL A   1      39.447  33.171  30.423  1.00  0.00     0.010 A 
ATOM     49  C   UNL A   1      40.829  32.902  30.377  1.00  0.00    -0.014 A 
BRANCH  49  50
ATOM     50  C   UNL A   1      41.785  33.890  30.934  1.00  0.00     0.031 A 
ATOM     51  C   UNL A   1      42.205  33.724  32.370  1.00  0.00     0.074 A 
ATOM     52  C   UNL A   1      42.262  34.913  30.203  1.00  0.00     0.049 A 
ATOM     53  N   UNL A   1      42.942  34.502  33.116  1.00  0.00    -0.248 NA
ATOM     54  C   UNL A   1      41.719  32.515  33.057  1.00  0.00     0.031 C 
ATOM     55  C   UNL A   1      41.959  35.163  28.796  1.00  0.00     0.029 A 
ATOM     56  N   UNL A   1      43.081  35.955  30.564  1.00  0.00    -0.354 N 
ATOM     57  C   UNL A   1      42.973  33.901  34.369  1.00  0.00     0.074 A 
ATOM     58  C   UNL A   1      42.181  32.696  34.285  1.00  0.00     0.031 C 
ATOM     59  C   UNL A   1      42.552  36.312  28.422  1.00  0.00     0.029 A 
ATOM     60  C   UNL A   1      43.245  36.893  29.572  1.00  0.00     0.049 A 
ATOM     61  H   UNL A   1      43.510  36.024  31.448  1.00  0.00     0.167 HD
ATOM     62  C   UNL A   1      43.608  34.313  35.492  1.00  0.00     0.034 A 
ATOM     63  C   UNL A   1      43.850  38.098  29.603  1.00  0.00     0.034 A 
ATOM     64  C   UNL A   1      44.403  35.507  35.570  1.00  0.00     0.049 A 
ATOM     65  C   UNL A   1      44.516  38.558  30.877  1.00  0.00     0.074 A 
ATOM     66  C   UNL A   1      45.116  35.994  36.651  1.00  0.00     0.029 A 
ATOM     67  N   UNL A   1      44.577  36.409  34.533  1.00  0.00    -0.354 N 
ATOM     68  N   UNL A   1      44.611  37.940  32.030  1.00  0.00    -0.248 NA
ATOM     69  C   UNL A   1      45.183  39.869  30.847  1.00  0.00     0.031 C 
ATOM     70  C   UNL A   1      45.689  37.213  36.278  1.00  0.00     0.029 A 
ATOM     71  C   UNL A   1      45.377  37.457  34.950  1.00  0.00     0.049 A 
ATOM     72  H   UNL A   1      44.189  36.317  33.633  1.00  0.00     0.167 HD
ATOM     73  C   UNL A   1      45.390  38.759  32.842  1.00  0.00     0.074 A 
ATOM     74  C   UNL A   1      45.744  39.917  32.048  1.00  0.00     0.031 C 
ATOM     75  C   UNL A   1      45.775  38.571  34.129  1.00  0.00     0.034 A 
BRANCH  62  76
ATOM     76  C   UNL A   1      43.465  33.465  36.728  1.00  0.00     0.023 A 
ATOM     77  C   UNL A   1      42.399  33.693  37.621  1.00  0.00     0.012 A 
ATOM     78  C   UNL A   1      44.364  32.409  36.978  1.00  0.00     0.148 A 
ATOM     79  C   UNL A   1      42.250  32.908  38.763  1.00  0.00     0.002 A 
ATOM     80  C   UNL A   1      44.180  31.599  38.091  1.00  0.00     0.091 A 
ATOM     81  F   UNL A   1      45.385  32.224  36.129  1.00  0.00    -0.205 F 
ATOM     82  C   UNL A   1      43.133  31.855  38.991  1.00  0.00     0.022 A 
BRANCH  80  83
ATOM     83  S   UNL A   1      45.212  30.169  38.428  1.00  0.00     0.127 S 
ATOM     84  O   UNL A   1      44.902  29.305  37.290  1.00  0.00    -0.237 OA
ATOM     85  O   UNL A   1      46.555  30.749  38.406  1.00  0.00    -0.237 OA
ATOM     86  O   UNL A   1      44.789  29.663  39.726  1.00  0.00    -0.744 OA
ENDBRANCH  80  83
ENDBRANCH  62  76
BRANCH  63  87
ATOM     87  C   UNL A   1      43.872  38.959  28.384  1.00  0.00     0.023 A 
ATOM     88  C   UNL A   1      42.743  39.733  28.056  1.00  0.00     0.012 A 
ATOM     89  C   UNL A   1      45.004  39.009  27.548  1.00  0.00     0.148 A 
ATOM     90  C   UNL A   1      42.727  40.514  26.900  1.00  0.00     0.002 A 
ATOM     91  C   UNL A   1      45.004  39.833  26.429  1.00  0.00     0.091 A 
ATOM     92  F   UNL A   1      46.064  38.252  27.869  1.00  0.00    -0.205 F 
ATOM     93  C   UNL A   1      43.860  40.571  26.091  1.00  0.00     0.022 A 
BRANCH  91  94
ATOM     94  S   UNL A   1      46.457  40.064  25.399  1.00  0.00     0.127 S 
ATOM     95  O   UNL A   1      46.866  38.685  25.144  1.00  0.00    -0.237 OA
ATOM     96  O   UNL A   1      45.895  40.764  24.243  1.00  0.00    -0.237 OA
ATOM     97  O   UNL A   1      47.383  40.860  26.193  1.00  0.00    -0.744 OA
ENDBRANCH  91  94
ENDBRANCH  63  87
BRANCH  75  98
ATOM     98  C   UNL A   1      46.693  39.589  34.753  1.00  0.00     0.023 A 
ATOM     99  C   UNL A   1      46.178  40.796  35.265  1.00  0.00     0.012 A 
ATOM    100  C   UNL A   1      48.061  39.292  34.927  1.00  0.00     0.148 A 
ATOM    101  C   UNL A   1      47.016  41.703  35.916  1.00  0.00     0.002 A 
ATOM    102  C   UNL A   1      48.876  40.173  35.625  1.00  0.00     0.091 A 
ATOM    103  F   UNL A   1      48.532  38.144  34.420  1.00  0.00    -0.205 F 
ATOM    104  C   UNL A   1      48.359  41.385  36.108  1.00  0.00     0.022 A 
BRANCH 102 105
ATOM    105  S   UNL A   1      50.591  39.800  36.011  1.00  0.00     0.127 S 
ATOM    106  O   UNL A   1      50.451  38.940  37.185  1.00  0.00    -0.237 OA
ATOM    107  O   UNL A   1      51.036  39.111  34.799  1.00  0.00    -0.237 OA
ATOM    108  O   UNL A   1      51.240  41.081  36.255  1.00  0.00    -0.744 OA
ENDBRANCH 102 105
ENDBRANCH  75  98
ENDBRANCH  49  50
ENDBRANCH  42  44
ENDBRANCH  41  42
ENDBRANCH  40  41
ENDBRANCH  39  40
ENDBRANCH  38  39
ENDBRANCH  37  38
ENDBRANCH  36  37
ENDBRANCH  35  36
ENDBRANCH  34  35
ENDBRANCH  33  34
ENDBRANCH   1  33
TORSDOF 32
ENDMDL
MODEL 2
REMARK VINA RESULT:      -6.5      6.378     12.597
REMARK SMILES CCCCCCNC(=O)Oc1cccc(-c2ccc([C@@H](C)C(=O)OCCOCCOCCOCCOC(=O)c3ccc(-c4c5nc(c(-c6cccc(S(=O)(=O)[O-])c6F)c6ccc([nH]6)c(-c6cccc(S(=O)(=O)[O-])c6F)c6nc(c(-c7cccc(S(=O)(=O)[O-])c7F)c7ccc4[nH]7)C=C6)C=C5)cc3)cc2Cl)c1
REMARK SMILES IDX 27 1 26 2 25 3 24 4 22 5 23 6 20 7 21 8 19 9 16 10 17 11
REMARK SMILES IDX 103 12 18 13 102 14 104 15 15 16 11 17 12 18 105 19 13 20
REMARK SMILES IDX 14 21 10 22 8 23 7 24 9 26 6 27 5 28 4 29 3 30 2 31 1 32
REMARK SMILES IDX 28 33 29 34 30 35 31 36 32 37 33 38 34 39 35 40 36 41 37 42
REMARK SMILES IDX 38 43 39 44 40 45 101 46 41 47 100 48 42 49 43 50 44 51
REMARK SMILES IDX 94 52 45 53 99 54 93 55 95 56 46 57 98 58 92 59 91 60 47 62
REMARK SMILES IDX 79 63 59 64 78 65 60 66 63 67 77 68 96 69 61 70 62 71 76 73
REMARK SMILES IDX 97 74 64 75 48 76 49 77 57 78 50 79 52 80 58 81 51 82 53 83
REMARK SMILES IDX 54 84 55 85 56 86 80 87 81 88 89 89 82 90 84 91 90 92 83 93
REMARK SMILES IDX 85 94 86 95 87 96 88 97 65 98 66 99 74 100 67 101 69 102
REMARK SMILES IDX 75 103 68 104 70 105 71 106 72 107 73 108
REMARK H PARENT 7 25 95 61 63 72
REMARK Flexibility Score: inf
ROOT
ATOM      1  O   UNL A   1      48.377  27.804  30.610  1.00  0.00    -0.376 OA
ENDROOT
BRANCH   1   2
ATOM      2  C   UNL A   1      47.702  27.892  31.858  1.00  0.00     0.202 C 
BRANCH   2   3
ATOM      3  C   UNL A   1      46.708  29.034  32.140  1.00  0.00     0.261 C 
BRANCH   3   4
ATOM      4  O   UNL A   1      45.326  28.667  32.323  1.00  0.00    -0.463 OA
BRANCH   4   5
ATOM      5  C   UNL A   1      44.895  28.563  33.600  1.00  0.00     0.313 C 
ATOM      6  O   UNL A   1      45.605  28.801  34.577  1.00  0.00    -0.252 OA
BRANCH   5   7
ATOM      7  C   UNL A   1      43.451  28.101  33.786  1.00  0.00     0.126 C 
ATOM      8  C   UNL A   1      43.094  27.147  32.654  1.00  0.00     0.025 C 
BRANCH   7   9
ATOM      9  C   UNL A   1      42.320  29.092  34.056  1.00  0.00    -0.033 A 
ATOM     10  C   UNL A   1      40.277  31.078  34.512  1.00  0.00     0.000 A 
ATOM     11  C   UNL A   1      40.066  29.707  34.773  1.00  0.00     0.010 A 
ATOM     12  C   UNL A   1      41.543  31.433  34.014  1.00  0.00     0.049 A 
ATOM     13  C   UNL A   1      41.065  28.733  34.558  1.00  0.00     0.005 A 
ATOM     14  C   UNL A   1      42.540  30.462  33.800  1.00  0.00     0.025 A 
ATOM     15  Cl  UNL A   1      41.982  33.075  33.669  1.00  0.00    -0.084 Cl
BRANCH  10  16
ATOM     16  C   UNL A   1      39.216  32.067  34.831  1.00  0.00    -0.013 A 
ATOM     17  C   UNL A   1      37.089  33.171  34.383  1.00  0.00     0.133 A 
ATOM     18  C   UNL A   1      37.307  34.078  35.417  1.00  0.00     0.047 A 
ATOM     19  C   UNL A   1      38.022  32.168  34.090  1.00  0.00     0.056 A 
ATOM     20  C   UNL A   1      38.466  33.974  36.178  1.00  0.00     0.004 A 
ATOM     21  C   UNL A   1      39.410  32.985  35.884  1.00  0.00     0.009 A 
BRANCH  17  22
ATOM     22  O   UNL A   1      35.965  33.417  33.567  1.00  0.00    -0.410 OA
BRANCH  22  23
ATOM     23  C   UNL A   1      35.846  34.634  32.914  1.00  0.00     0.412 C 
ATOM     24  N   UNL A   1      36.254  34.591  31.607  1.00  0.00    -0.321 N 
ATOM     25  H   UNL A   1      36.182  35.432  31.100  1.00  0.00     0.167 HD
ATOM     26  O   UNL A   1      35.427  35.676  33.405  1.00  0.00    -0.224 OA
BRANCH  24  27
ATOM     27  C   UNL A   1      36.779  33.447  30.886  1.00  0.00     0.119 C 
BRANCH  27  28
ATOM     28  C   UNL A   1      36.808  33.684  29.375  1.00  0.00     0.021 C 
BRANCH  28  29
ATOM     29  C   UNL A   1      35.795  34.714  28.858  1.00  0.00     0.002 C 
BRANCH  29  30
ATOM     30  C   UNL A   1      34.418  34.157  28.476  1.00  0.00    -0.000 C 
BRANCH  30  31
ATOM     31  C   UNL A   1      33.243  34.681  29.305  1.00  0.00    -0.003 C 
ATOM     32  C   UNL A   1      33.046  36.185  29.194  1.00  0.00     0.004 C 
ENDBRANCH  30  31
ENDBRANCH  29  30
ENDBRANCH  28  29
ENDBRANCH  27  28
ENDBRANCH  24  27
ENDBRANCH  22  23
ENDBRANCH  17  22
ENDBRANCH  10  16
ENDBRANCH   7   9
ENDBRANCH   5   7
ENDBRANCH   4   5
ENDBRANCH   3   4
ENDBRANCH   2   3
ENDBRANCH   1   2
BRANCH   1  33
ATOM     33  C   UNL A   1      49.424  26.863  30.415  1.00  0.00     0.188 C 
BRANCH  33  34
ATOM     34  C   UNL A   1      50.893  27.228  30.678  1.00  0.00     0.188 C 
BRANCH  34  35
ATOM     35  O   UNL A   1      51.744  27.125  29.558  1.00  0.00    -0.377 OA
BRANCH  35  36
ATOM     36  C   UNL A   1      52.458  28.294  29.195  1.00  0.00     0.188 C 
BRANCH  36  37
ATOM     37  C   UNL A   1      53.465  28.837  30.228  1.00  0.00     0.188 C 
BRANCH  37  38
ATOM     38  O   UNL A   1      54.584  29.504  29.652  1.00  0.00    -0.376 OA
BRANCH  38  39
ATOM     39  C   UNL A   1      54.432  30.094  28.367  1.00  0.00     0.202 C 
BRANCH  39  40
ATOM     40  C   UNL A   1      54.578  31.621  28.239  1.00  0.00     0.261 C 
BRANCH  40  41
ATOM     41  O   UNL A   1      53.543  32.417  28.826  1.00  0.00    -0.460 OA
BRANCH  41  42
ATOM     42  C   UNL A   1      52.730  33.122  28.010  1.00  0.00     0.338 C 
ATOM     43  O   UNL A   1      53.046  34.004  27.243  1.00  0.00    -0.246 OA
BRANCH  42  44
ATOM     44  C   UNL A   1      51.406  32.457  28.036  1.00  0.00     0.060 A 
ATOM     45  C   UNL A   1      50.530  32.652  26.957  1.00  0.00     0.016 A 
ATOM     46  C   UNL A   1      51.032  31.651  29.113  1.00  0.00     0.016 A 
ATOM     47  C   UNL A   1      49.257  32.083  26.976  1.00  0.00     0.010 A 
ATOM     48  C   UNL A   1      49.746  31.105  29.143  1.00  0.00     0.010 A 
ATOM     49  C   UNL A   1      48.838  31.355  28.096  1.00  0.00    -0.014 A 
BRANCH  49  50
ATOM     50  C   UNL A   1      47.395  31.072  28.295  1.00  0.00     0.031 A 
ATOM     51  C   UNL A   1      46.512  32.212  28.727  1.00  0.00     0.074 A 
ATOM     52  C   UNL A   1      46.877  29.844  28.115  1.00  0.00     0.049 A 
ATOM     53  N   UNL A   1      45.251  32.205  29.064  1.00  0.00    -0.248 NA
ATOM     54  C   UNL A   1      47.146  33.541  28.793  1.00  0.00     0.031 C 
ATOM     55  C   UNL A   1      47.619  28.668  27.666  1.00  0.00     0.029 A 
ATOM     56  N   UNL A   1      45.601  29.381  28.324  1.00  0.00    -0.354 N 
ATOM     57  C   UNL A   1      44.950  33.514  29.422  1.00  0.00     0.074 A 
ATOM     58  C   UNL A   1      46.160  34.289  29.263  1.00  0.00     0.031 C 
ATOM     59  C   UNL A   1      46.793  27.606  27.673  1.00  0.00     0.029 A 
ATOM     60  C   UNL A   1      45.477  28.021  28.158  1.00  0.00     0.049 A 
ATOM     61  H   UNL A   1      44.847  29.966  28.567  1.00  0.00     0.167 HD
ATOM     62  C   UNL A   1      43.771  34.029  29.842  1.00  0.00     0.034 A 
ATOM     63  C   UNL A   1      44.434  27.204  28.409  1.00  0.00     0.034 A 
ATOM     64  C   UNL A   1      42.568  33.258  29.990  1.00  0.00     0.049 A 
ATOM     65  C   UNL A   1      43.140  27.793  28.918  1.00  0.00     0.074 A 
ATOM     66  C   UNL A   1      41.312  33.692  30.375  1.00  0.00     0.029 A 
ATOM     67  N   UNL A   1      42.473  31.893  29.774  1.00  0.00    -0.354 N 
ATOM     68  N   UNL A   1      42.844  29.045  29.170  1.00  0.00    -0.248 NA
ATOM     69  C   UNL A   1      42.026  26.859  29.150  1.00  0.00     0.031 C 
ATOM     70  C   UNL A   1      40.467  32.580  30.432  1.00  0.00     0.029 A 
ATOM     71  C   UNL A   1      41.184  31.464  30.030  1.00  0.00     0.049 A 
ATOM     72  H   UNL A   1      43.215  31.314  29.483  1.00  0.00     0.167 HD
ATOM     73  C   UNL A   1      41.502  29.057  29.538  1.00  0.00     0.074 A 
ATOM     74  C   UNL A   1      41.040  27.686  29.473  1.00  0.00     0.031 C 
ATOM     75  C   UNL A   1      40.722  30.106  29.898  1.00  0.00     0.034 A 
BRANCH  62  76
ATOM     76  C   UNL A   1      43.727  35.497  30.175  1.00  0.00     0.023 A 
ATOM     77  C   UNL A   1      43.557  36.448  29.149  1.00  0.00     0.012 A 
ATOM     78  C   UNL A   1      43.807  35.929  31.514  1.00  0.00     0.148 A 
ATOM     79  C   UNL A   1      43.503  37.809  29.446  1.00  0.00     0.002 A 
ATOM     80  C   UNL A   1      43.701  37.282  31.807  1.00  0.00     0.091 A 
ATOM     81  F   UNL A   1      43.992  35.010  32.473  1.00  0.00    -0.205 F 
ATOM     82  C   UNL A   1      43.564  38.224  30.774  1.00  0.00     0.022 A 
BRANCH  80  83
ATOM     83  S   UNL A   1      43.685  37.911  33.488  1.00  0.00     0.127 S 
ATOM     84  O   UNL A   1      43.169  39.265  33.293  1.00  0.00    -0.237 OA
ATOM     85  O   UNL A   1      42.756  36.993  34.149  1.00  0.00    -0.237 OA
ATOM     86  O   UNL A   1      45.059  37.832  33.962  1.00  0.00    -0.744 OA
ENDBRANCH  80  83
ENDBRANCH  62  76
BRANCH  63  87
ATOM     87  C   UNL A   1      44.555  25.736  28.172  1.00  0.00     0.023 A 
ATOM     88  C   UNL A   1      44.847  24.877  29.248  1.00  0.00     0.012 A 
ATOM     89  C   UNL A   1      44.388  25.191  26.884  1.00  0.00     0.148 A 
ATOM     90  C   UNL A   1      45.005  23.505  29.041  1.00  0.00     0.002 A 
ATOM     91  C   UNL A   1      44.490  23.818  26.694  1.00  0.00     0.091 A 
ATOM     92  F   UNL A   1      44.127  26.027  25.869  1.00  0.00    -0.205 F 
ATOM     93  C   UNL A   1      44.818  22.975  27.767  1.00  0.00     0.022 A 
BRANCH  91  94
ATOM     94  S   UNL A   1      44.146  23.032  25.116  1.00  0.00     0.127 S 
ATOM     95  O   UNL A   1      42.740  23.372  24.913  1.00  0.00    -0.237 OA
ATOM     96  O   UNL A   1      45.082  23.722  24.228  1.00  0.00    -0.237 OA
ATOM     97  O   UNL A   1      44.431  21.616  25.308  1.00  0.00    -0.744 OA
ENDBRANCH  91  94
ENDBRANCH  63  87
BRANCH  75  98
ATOM     98  C   UNL A   1      39.264  29.848  30.176  1.00  0.00     0.023 A 
ATOM     99  C   UNL A   1      38.829  29.540  31.479  1.00  0.00     0.012 A 
ATOM    100  C   UNL A   1      38.311  30.020  29.151  1.00  0.00     0.148 A 
ATOM    101  C   UNL A   1      37.469  29.381  31.752  1.00  0.00     0.002 A 
ATOM    102  C   UNL A   1      36.957  29.915  29.441  1.00  0.00     0.091 A 
ATOM    103  F   UNL A   1      38.748  30.300  27.914  1.00  0.00    -0.205 F 
ATOM    104  C   UNL A   1      36.534  29.583  30.738  1.00  0.00     0.022 A 
BRANCH 102 105
ATOM    105  S   UNL A   1      35.680  30.262  28.226  1.00  0.00     0.127 S 
ATOM    106  O   UNL A   1      36.402  31.092  27.264  1.00  0.00    -0.237 OA
ATOM    107  O   UNL A   1      35.343  28.922  27.743  1.00  0.00    -0.237 OA
ATOM    108  O   UNL A   1      34.607  30.935  28.945  1.00  0.00    -0.744 OA
ENDBRANCH 102 105
ENDBRANCH  75  98
ENDBRANCH  49  50
ENDBRANCH  42  44
ENDBRANCH  41  42
ENDBRANCH  40  41
ENDBRANCH  39  40
ENDBRANCH  38  39
ENDBRANCH  37  38
ENDBRANCH  36  37
ENDBRANCH  35  36
ENDBRANCH  34  35
ENDBRANCH  33  34
ENDBRANCH   1  33
TORSDOF 32
ENDMDL
MODEL 3
REMARK VINA RESULT:      -6.3      1.972      3.249
REMARK SMILES CCCCCCNC(=O)Oc1cccc(-c2ccc([C@@H](C)C(=O)OCCOCCOCCOCCOC(=O)c3ccc(-c4c5nc(c(-c6cccc(S(=O)(=O)[O-])c6F)c6ccc([nH]6)c(-c6cccc(S(=O)(=O)[O-])c6F)c6nc(c(-c7cccc(S(=O)(=O)[O-])c7F)c7ccc4[nH]7)C=C6)C=C5)cc3)cc2Cl)c1
REMARK SMILES IDX 27 1 26 2 25 3 24 4 22 5 23 6 20 7 21 8 19 9 16 10 17 11
REMARK SMILES IDX 103 12 18 13 102 14 104 15 15 16 11 17 12 18 105 19 13 20
REMARK SMILES IDX 14 21 10 22 8 23 7 24 9 26 6 27 5 28 4 29 3 30 2 31 1 32
REMARK SMILES IDX 28 33 29 34 30 35 31 36 32 37 33 38 34 39 35 40 36 41 37 42
REMARK SMILES IDX 38 43 39 44 40 45 101 46 41 47 100 48 42 49 43 50 44 51
REMARK SMILES IDX 94 52 45 53 99 54 93 55 95 56 46 57 98 58 92 59 91 60 47 62
REMARK SMILES IDX 79 63 59 64 78 65 60 66 63 67 77 68 96 69 61 70 62 71 76 73
REMARK SMILES IDX 97 74 64 75 48 76 49 77 57 78 50 79 52 80 58 81 51 82 53 83
REMARK SMILES IDX 54 84 55 85 56 86 80 87 81 88 89 89 82 90 84 91 90 92 83 93
REMARK SMILES IDX 85 94 86 95 87 96 88 97 65 98 66 99 74 100 67 101 69 102
REMARK SMILES IDX 75 103 68 104 70 105 71 106 72 107 73 108
REMARK H PARENT 7 25 95 61 63 72
REMARK Flexibility Score: inf
ROOT
ATOM      1  O   UNL A   1      33.784  36.853  32.052  1.00  0.00    -0.376 OA
ENDROOT
BRANCH   1   2
ATOM      2  C   UNL A   1      34.189  36.030  33.137  1.00  0.00     0.202 C 
BRANCH   2   3
ATOM      3  C   UNL A   1      35.532  35.276  33.098  1.00  0.00     0.261 C 
BRANCH   3   4
ATOM      4  O   UNL A   1      35.681  34.161  34.001  1.00  0.00    -0.463 OA
BRANCH   4   5
ATOM      5  C   UNL A   1      36.344  33.084  33.522  1.00  0.00     0.313 C 
ATOM      6  O   UNL A   1      35.836  32.257  32.765  1.00  0.00    -0.252 OA
BRANCH   5   7
ATOM      7  C   UNL A   1      37.788  32.920  33.994  1.00  0.00     0.126 C 
ATOM      8  C   UNL A   1      38.040  31.448  34.289  1.00  0.00     0.025 C 
BRANCH   7   9
ATOM      9  C   UNL A   1      38.383  33.816  35.079  1.00  0.00    -0.033 A 
ATOM     10  C   UNL A   1      39.584  35.584  37.017  1.00  0.00     0.000 A 
ATOM     11  C   UNL A   1      38.678  34.567  37.386  1.00  0.00     0.010 A 
ATOM     12  C   UNL A   1      39.875  35.696  35.646  1.00  0.00     0.049 A 
ATOM     13  C   UNL A   1      38.094  33.695  36.442  1.00  0.00     0.005 A 
ATOM     14  C   UNL A   1      39.294  34.827  34.705  1.00  0.00     0.025 A 
ATOM     15  Cl  UNL A   1      40.990  36.870  35.022  1.00  0.00    -0.084 Cl
BRANCH  10  16
ATOM     16  C   UNL A   1      40.227  36.422  38.062  1.00  0.00    -0.013 A 
ATOM     17  C   UNL A   1      42.179  37.241  39.271  1.00  0.00     0.133 A 
ATOM     18  C   UNL A   1      41.370  37.932  40.169  1.00  0.00     0.047 A 
ATOM     19  C   UNL A   1      41.625  36.497  38.221  1.00  0.00     0.056 A 
ATOM     20  C   UNL A   1      39.990  37.893  40.009  1.00  0.00     0.004 A 
ATOM     21  C   UNL A   1      39.427  37.143  38.971  1.00  0.00     0.009 A 
BRANCH  17  22
ATOM     22  O   UNL A   1      43.557  37.210  39.573  1.00  0.00    -0.410 OA
BRANCH  22  23
ATOM     23  C   UNL A   1      44.303  38.375  39.487  1.00  0.00     0.412 C 
ATOM     24  N   UNL A   1      45.110  38.585  40.575  1.00  0.00    -0.321 N 
ATOM     25  H   UNL A   1      45.665  39.398  40.556  1.00  0.00     0.167 HD
ATOM     26  O   UNL A   1      44.284  39.175  38.559  1.00  0.00    -0.224 OA
BRANCH  24  27
ATOM     27  C   UNL A   1      45.239  37.744  41.749  1.00  0.00     0.119 C 
BRANCH  27  28
ATOM     28  C   UNL A   1      46.407  36.762  41.627  1.00  0.00     0.021 C 
BRANCH  28  29
ATOM     29  C   UNL A   1      47.793  37.364  41.891  1.00  0.00     0.002 C 
BRANCH  29  30
ATOM     30  C   UNL A   1      48.721  37.453  40.672  1.00  0.00    -0.000 C 
BRANCH  30  31
ATOM     31  C   UNL A   1      50.000  36.618  40.756  1.00  0.00    -0.003 C 
ATOM     32  C   UNL A   1      49.959  35.360  39.902  1.00  0.00     0.004 C 
ENDBRANCH  30  31
ENDBRANCH  29  30
ENDBRANCH  28  29
ENDBRANCH  27  28
ENDBRANCH  24  27
ENDBRANCH  22  23
ENDBRANCH  17  22
ENDBRANCH  10  16
ENDBRANCH   7   9
ENDBRANCH   5   7
ENDBRANCH   4   5
ENDBRANCH   3   4
ENDBRANCH   2   3
ENDBRANCH   1   2
BRANCH   1  33
ATOM     33  C   UNL A   1      32.725  36.452  31.191  1.00  0.00     0.188 C 
BRANCH  33  34
ATOM     34  C   UNL A   1      32.993  35.987  29.751  1.00  0.00     0.188 C 
BRANCH  34  35
ATOM     35  O   UNL A   1      32.871  34.597  29.541  1.00  0.00    -0.377 OA
BRANCH  35  36
ATOM     36  C   UNL A   1      33.149  34.128  28.233  1.00  0.00     0.188 C 
BRANCH  36  37
ATOM     37  C   UNL A   1      34.442  33.310  28.052  1.00  0.00     0.188 C 
BRANCH  37  38
ATOM     38  O   UNL A   1      34.228  31.976  27.600  1.00  0.00    -0.376 OA
BRANCH  38  39
ATOM     39  C   UNL A   1      34.632  30.904  28.443  1.00  0.00     0.202 C 
BRANCH  39  40
ATOM     40  C   UNL A   1      36.132  30.581  28.551  1.00  0.00     0.261 C 
BRANCH  40  41
ATOM     41  O   UNL A   1      36.610  30.172  29.837  1.00  0.00    -0.460 OA
BRANCH  41  42
ATOM     42  C   UNL A   1      37.845  29.631  29.924  1.00  0.00     0.338 C 
ATOM     43  O   UNL A   1      38.153  28.475  29.740  1.00  0.00    -0.246 OA
BRANCH  42  44
ATOM     44  C   UNL A   1      38.804  30.754  30.046  1.00  0.00     0.060 A 
ATOM     45  C   UNL A   1      40.175  30.489  29.915  1.00  0.00     0.016 A 
ATOM     46  C   UNL A   1      38.356  32.054  30.288  1.00  0.00     0.016 A 
ATOM     47  C   UNL A   1      41.107  31.515  30.076  1.00  0.00     0.010 A 
ATOM     48  C   UNL A   1      39.291  33.075  30.477  1.00  0.00     0.010 A 
ATOM     49  C   UNL A   1      40.671  32.801  30.415  1.00  0.00    -0.014 A 
BRANCH  49  50
ATOM     50  C   UNL A   1      41.637  33.791  30.952  1.00  0.00     0.031 A 
ATOM     51  C   UNL A   1      42.096  33.620  32.376  1.00  0.00     0.074 A 
ATOM     52  C   UNL A   1      42.089  34.820  30.214  1.00  0.00     0.049 A 
ATOM     53  N   UNL A   1      42.850  34.397  33.105  1.00  0.00    -0.248 NA
ATOM     54  C   UNL A   1      41.634  32.405  33.069  1.00  0.00     0.031 C 
ATOM     55  C   UNL A   1      41.748  35.076  28.817  1.00  0.00     0.029 A 
ATOM     56  N   UNL A   1      42.913  35.864  30.558  1.00  0.00    -0.354 N 
ATOM     57  C   UNL A   1      42.917  33.790  34.354  1.00  0.00     0.074 A 
ATOM     58  C   UNL A   1      42.128  32.582  34.285  1.00  0.00     0.031 C 
ATOM     59  C   UNL A   1      42.325  36.229  28.433  1.00  0.00     0.029 A 
ATOM     60  C   UNL A   1      43.046  36.808  29.566  1.00  0.00     0.049 A 
ATOM     61  H   UNL A   1      43.365  35.931  31.430  1.00  0.00     0.167 HD
ATOM     62  C   UNL A   1      43.579  34.200  35.461  1.00  0.00     0.034 A 
ATOM     63  C   UNL A   1      43.646  38.015  29.587  1.00  0.00     0.034 A 
ATOM     64  C   UNL A   1      44.371  35.397  35.524  1.00  0.00     0.049 A 
ATOM     65  C   UNL A   1      44.344  38.471  30.846  1.00  0.00     0.074 A 
ATOM     66  C   UNL A   1      45.111  35.882  36.588  1.00  0.00     0.029 A 
ATOM     67  N   UNL A   1      44.514  36.305  34.487  1.00  0.00    -0.354 N 
ATOM     68  N   UNL A   1      44.473  37.848  31.992  1.00  0.00    -0.248 NA
ATOM     69  C   UNL A   1      45.005  39.786  30.805  1.00  0.00     0.031 C 
ATOM     70  C   UNL A   1      45.668  37.105  36.206  1.00  0.00     0.029 A 
ATOM     71  C   UNL A   1      45.319  37.354  34.888  1.00  0.00     0.049 A 
ATOM     72  H   UNL A   1      44.101  36.216  33.598  1.00  0.00     0.167 HD
ATOM     73  C   UNL A   1      45.269  38.667  32.787  1.00  0.00     0.074 A 
ATOM     74  C   UNL A   1      45.597  39.831  31.990  1.00  0.00     0.031 C 
ATOM     75  C   UNL A   1      45.691  38.475  34.062  1.00  0.00     0.034 A 
BRANCH  62  76
ATOM     76  C   UNL A   1      43.474  33.345  36.696  1.00  0.00     0.023 A 
ATOM     77  C   UNL A   1      42.345  33.450  37.533  1.00  0.00     0.012 A 
ATOM     78  C   UNL A   1      44.476  32.402  37.000  1.00  0.00     0.148 A 
ATOM     79  C   UNL A   1      42.231  32.656  38.674  1.00  0.00     0.002 A 
ATOM     80  C   UNL A   1      44.331  31.578  38.109  1.00  0.00     0.091 A 
ATOM     81  F   UNL A   1      45.553  32.333  36.204  1.00  0.00    -0.205 F 
ATOM     82  C   UNL A   1      43.218  31.714  38.955  1.00  0.00     0.022 A 
BRANCH  80  83
ATOM     83  S   UNL A   1      45.504  30.279  38.511  1.00  0.00     0.127 S 
ATOM     84  O   UNL A   1      46.404  30.969  39.434  1.00  0.00    -0.237 OA
ATOM     85  O   UNL A   1      44.644  29.273  39.134  1.00  0.00    -0.237 OA
ATOM     86  O   UNL A   1      46.101  29.871  37.248  1.00  0.00    -0.744 OA
ENDBRANCH  80  83
ENDBRANCH  62  76
BRANCH  63  87
ATOM     87  C   UNL A   1      43.631  38.882  28.373  1.00  0.00     0.023 A 
ATOM     88  C   UNL A   1      42.405  39.354  27.867  1.00  0.00     0.012 A 
ATOM     89  C   UNL A   1      44.826  39.236  27.717  1.00  0.00     0.148 A 
ATOM     90  C   UNL A   1      42.365  40.133  26.710  1.00  0.00     0.002 A 
ATOM     91  C   UNL A   1      44.785  40.060  26.597  1.00  0.00     0.091 A 
ATOM     92  F   UNL A   1      45.983  38.764  28.204  1.00  0.00    -0.205 F 
ATOM     93  C   UNL A   1      43.555  40.493  26.080  1.00  0.00     0.022 A 
BRANCH  91  94
ATOM     94  S   UNL A   1      46.269  40.674  25.794  1.00  0.00     0.127 S 
ATOM     95  O   UNL A   1      47.267  39.697  26.221  1.00  0.00    -0.237 OA
ATOM     96  O   UNL A   1      45.897  40.598  24.381  1.00  0.00    -0.237 OA
ATOM     97  O   UNL A   1      46.458  42.029  26.295  1.00  0.00    -0.744 OA
ENDBRANCH  91  94
ENDBRANCH  63  87
BRANCH  75  98
ATOM     98  C   UNL A   1      46.620  39.494  34.667  1.00  0.00     0.023 A 
ATOM     99  C   UNL A   1      46.109  40.571  35.417  1.00  0.00     0.012 A 
ATOM    100  C   UNL A   1      48.016  39.315  34.577  1.00  0.00     0.148 A 
ATOM    101  C   UNL A   1      46.973  41.469  36.045  1.00  0.00     0.002 A 
ATOM    102  C   UNL A   1      48.868  40.180  35.251  1.00  0.00     0.091 A 
ATOM    103  F   UNL A   1      48.481  38.291  33.847  1.00  0.00    -0.205 F 
ATOM    104  C   UNL A   1      48.350  41.265  35.974  1.00  0.00     0.022 A 
BRANCH 102 105
ATOM    105  S   UNL A   1      50.648  39.935  35.302  1.00  0.00     0.127 S 
ATOM    106  O   UNL A   1      50.938  39.571  33.917  1.00  0.00    -0.237 OA
ATOM    107  O   UNL A   1      51.129  41.258  35.700  1.00  0.00    -0.237 OA
ATOM    108  O   UNL A   1      50.883  38.883  36.283  1.00  0.00    -0.744 OA
ENDBRANCH 102 105
ENDBRANCH  75  98
ENDBRANCH  49  50
ENDBRANCH  42  44
ENDBRANCH  41  42
ENDBRANCH  40  41
ENDBRANCH  39  40
ENDBRANCH  38  39
ENDBRANCH  37  38
ENDBRANCH  36  37
ENDBRANCH  35  36
ENDBRANCH  34  35
ENDBRANCH  33  34
ENDBRANCH   1  33
TORSDOF 32
ENDMDL
