MODEL 1
REMARK VINA RESULT:      -8.5      0.000      0.000
REMARK SMILES Cc1ccc(-c2nn(-c3ccccc3)cc2[C@@H]2[NH2+][C@H](C(=O)OCCOCCOCCOCCOC(=O)c3ccc(-c4c5nc(c(-c6cccc(S(=O)(=O)[O-])c6F)c6ccc([nH]6)c(-c6cccc(S(=O)(=O)[O-])c6F)c6nc(c(-c7cccc(S(=O)(=O)[O-])c7F)c7ccc4[nH]7)C=C6)C=C5)cc3)CS2)cc1
REMARK SMILES IDX 29 1 28 2 27 3 26 4 25 5 24 6 23 7 22 8 20 9 21 10 19 11
REMARK SMILES IDX 17 12 18 13 101 14 100 17 16 18 6 19 7 20 8 21 15 22 5 23
REMARK SMILES IDX 1 24 2 25 3 26 103 27 4 28 102 29 9 30 10 31 14 32 11 33
REMARK SMILES IDX 13 34 12 35 30 36 31 37 32 38 33 39 34 40 35 41 36 42 37 43
REMARK SMILES IDX 38 44 99 45 39 46 98 47 40 48 41 49 42 50 92 51 43 52 97 53
REMARK SMILES IDX 91 54 93 55 44 56 96 57 90 58 89 59 45 61 77 62 57 63 76 64
REMARK SMILES IDX 58 65 61 66 75 67 94 68 59 69 60 70 74 72 95 73 62 74 46 75
REMARK SMILES IDX 47 76 55 77 48 78 50 79 56 80 49 81 51 82 52 83 53 84 54 85
REMARK SMILES IDX 78 86 79 87 87 88 80 89 82 90 88 91 81 92 83 93 84 94 85 95
REMARK SMILES IDX 86 96 63 97 64 98 72 99 65 100 67 101 73 102 66 103 68 104
REMARK SMILES IDX 69 105 70 106 71 107
REMARK H PARENT 18 15 18 16 93 60 61 71
REMARK Flexibility Score: inf
ROOT
ATOM      1  C   UNL A   1      33.571  34.950  30.114  1.00  0.00     0.188 C 
ENDROOT
BRANCH   1   2
ATOM      2  O   UNL A   1      34.362  35.129  31.270  1.00  0.00    -0.377 OA
BRANCH   2   3
ATOM      3  C   UNL A   1      34.065  34.302  32.359  1.00  0.00     0.188 C 
BRANCH   3   4
ATOM      4  C   UNL A   1      35.010  33.146  32.728  1.00  0.00     0.188 C 
BRANCH   4   5
ATOM      5  O   UNL A   1      35.398  32.911  34.070  1.00  0.00    -0.376 OA
BRANCH   5   6
ATOM      6  C   UNL A   1      35.653  34.067  34.876  1.00  0.00     0.202 C 
BRANCH   6   7
ATOM      7  C   UNL A   1      37.034  34.100  35.532  1.00  0.00     0.261 C 
BRANCH   7   8
ATOM      8  O   UNL A   1      37.274  32.797  36.098  1.00  0.00    -0.459 OA
BRANCH   8   9
ATOM      9  C   UNL A   1      37.389  32.592  37.419  1.00  0.00     0.365 C 
ATOM     10  O   UNL A   1      36.461  32.568  38.216  1.00  0.00    -0.245 OA
BRANCH   9  11
ATOM     11  C   UNL A   1      38.848  32.216  37.769  1.00  0.00     0.304 C 
ATOM     12  C   UNL A   1      41.063  32.023  36.686  1.00  0.00     0.278 C 
ATOM     13  N   UNL A   1      39.620  31.845  36.520  1.00  0.00    -0.319 N 
ATOM     14  S   UNL A   1      41.285  33.026  38.270  1.00  0.00    -0.087 SA
ATOM     15  H   UNL A   1      39.434  30.868  36.296  1.00  0.00     0.348 HD
ATOM     16  H   UNL A   1      39.313  32.464  35.769  1.00  0.00     0.348 HD
ATOM     17  C   UNL A   1      39.523  33.309  38.571  1.00  0.00     0.153 C 
BRANCH  12  18
ATOM     18  C   UNL A   1      42.137  32.491  35.334  1.00  0.00     0.067 A 
ATOM     19  C   UNL A   1      43.576  31.179  35.545  1.00  0.00     0.103 A 
ATOM     20  N   UNL A   1      45.079  31.869  35.242  1.00  0.00    -0.167 NA
ATOM     21  N   UNL A   1      44.917  33.642  34.706  1.00  0.00    -0.240 N 
ATOM     22  C   UNL A   1      43.014  34.046  34.648  1.00  0.00     0.126 A 
BRANCH  19  23
ATOM     23  C   UNL A   1      43.178  29.622  35.335  1.00  0.00     0.003 A 
ATOM     24  C   UNL A   1      41.503  25.603  36.192  1.00  0.00     0.044 C 
ATOM     25  C   UNL A   1      42.100  26.922  35.782  1.00  0.00    -0.051 A 
ATOM     26  C   UNL A   1      43.239  27.340  36.431  1.00  0.00     0.004 A 
ATOM     27  C   UNL A   1      41.529  27.829  34.870  1.00  0.00     0.004 A 
ATOM     28  C   UNL A   1      43.752  28.623  36.181  1.00  0.00     0.011 A 
ATOM     29  C   UNL A   1      42.049  29.161  34.654  1.00  0.00     0.011 A 
ENDBRANCH  19  23
BRANCH  21  30
ATOM     30  C   UNL A   1      46.151  34.402  34.383  1.00  0.00     0.065 A 
ATOM     31  C   UNL A   1      46.825  34.295  33.170  1.00  0.00     0.028 A 
ATOM     32  C   UNL A   1      46.571  35.439  35.204  1.00  0.00     0.028 A 
ATOM     33  C   UNL A   1      47.417  35.391  32.564  1.00  0.00     0.002 A 
ATOM     34  C   UNL A   1      47.140  36.577  34.610  1.00  0.00     0.002 A 
ATOM     35  C   UNL A   1      47.471  36.581  33.257  1.00  0.00     0.000 A 
ENDBRANCH  21  30
ENDBRANCH  12  18
ENDBRANCH   9  11
ENDBRANCH   8   9
ENDBRANCH   7   8
ENDBRANCH   6   7
ENDBRANCH   5   6
ENDBRANCH   4   5
ENDBRANCH   3   4
ENDBRANCH   2   3
ENDBRANCH   1   2
BRANCH   1  36
ATOM     36  C   UNL A   1      34.003  35.395  28.696  1.00  0.00     0.188 C 
BRANCH  36  37
ATOM     37  O   UNL A   1      34.022  34.440  27.664  1.00  0.00    -0.376 OA
BRANCH  37  38
ATOM     38  C   UNL A   1      34.328  33.132  28.117  1.00  0.00     0.202 C 
BRANCH  38  39
ATOM     39  C   UNL A   1      35.810  32.606  28.157  1.00  0.00     0.261 C 
BRANCH  39  40
ATOM     40  O   UNL A   1      36.078  31.267  27.626  1.00  0.00    -0.460 OA
BRANCH  40  41
ATOM     41  C   UNL A   1      36.653  30.246  28.355  1.00  0.00     0.338 C 
ATOM     42  O   UNL A   1      36.033  29.415  28.992  1.00  0.00    -0.246 OA
BRANCH  41  43
ATOM     43  C   UNL A   1      38.158  30.242  28.088  1.00  0.00     0.060 A 
ATOM     44  C   UNL A   1      38.732  29.510  27.069  1.00  0.00     0.016 A 
ATOM     45  C   UNL A   1      39.053  30.715  29.036  1.00  0.00     0.016 A 
ATOM     46  C   UNL A   1      39.978  28.871  27.259  1.00  0.00     0.010 A 
ATOM     47  C   UNL A   1      40.207  29.968  29.312  1.00  0.00     0.010 A 
ATOM     48  C   UNL A   1      40.597  28.901  28.504  1.00  0.00    -0.014 A 
BRANCH  48  49
ATOM     49  C   UNL A   1      41.688  27.989  28.963  1.00  0.00     0.031 A 
ATOM     50  C   UNL A   1      41.363  26.554  29.085  1.00  0.00     0.074 A 
ATOM     51  C   UNL A   1      43.016  28.328  29.037  1.00  0.00     0.049 A 
ATOM     52  N   UNL A   1      42.161  25.686  29.588  1.00  0.00    -0.248 NA
ATOM     53  C   UNL A   1      40.207  25.927  28.451  1.00  0.00     0.031 C 
ATOM     54  C   UNL A   1      44.226  27.632  29.423  1.00  0.00     0.029 A 
ATOM     55  N   UNL A   1      43.620  29.536  28.816  1.00  0.00    -0.354 N 
ATOM     56  C   UNL A   1      41.979  24.539  28.852  1.00  0.00     0.074 A 
ATOM     57  C   UNL A   1      40.655  24.675  28.299  1.00  0.00     0.031 C 
ATOM     58  C   UNL A   1      45.217  28.454  29.859  1.00  0.00     0.029 A 
ATOM     59  C   UNL A   1      44.641  29.786  29.891  1.00  0.00     0.049 A 
ATOM     60  H   UNL A   1      43.418  30.147  28.069  1.00  0.00     0.167 HD
ATOM     61  C   UNL A   1      43.067  23.743  28.639  1.00  0.00     0.034 A 
ATOM     62  C   UNL A   1      44.573  31.042  30.866  1.00  0.00     0.034 A 
ATOM     63  C   UNL A   1      44.253  24.185  29.462  1.00  0.00     0.049 A 
ATOM     64  C   UNL A   1      44.869  29.703  32.062  1.00  0.00     0.074 A 
ATOM     65  C   UNL A   1      45.604  24.388  29.216  1.00  0.00     0.029 A 
ATOM     66  N   UNL A   1      44.058  24.708  30.767  1.00  0.00    -0.354 N 
ATOM     67  N   UNL A   1      44.223  28.519  32.117  1.00  0.00    -0.248 NA
ATOM     68  C   UNL A   1      46.088  29.617  32.904  1.00  0.00     0.031 C 
ATOM     69  C   UNL A   1      46.148  25.180  30.290  1.00  0.00     0.029 A 
ATOM     70  C   UNL A   1      45.131  25.498  31.197  1.00  0.00     0.049 A 
ATOM     71  H   UNL A   1      43.255  24.533  31.311  1.00  0.00     0.167 HD
ATOM     72  C   UNL A   1      45.007  27.526  32.757  1.00  0.00     0.074 A 
ATOM     73  C   UNL A   1      46.079  28.338  33.355  1.00  0.00     0.031 C 
ATOM     74  C   UNL A   1      45.133  26.141  32.530  1.00  0.00     0.034 A 
BRANCH  61  75
ATOM     75  C   UNL A   1      43.151  22.668  27.535  1.00  0.00     0.023 A 
ATOM     76  C   UNL A   1      42.192  21.632  27.600  1.00  0.00     0.012 A 
ATOM     77  C   UNL A   1      44.107  22.543  26.481  1.00  0.00     0.148 A 
ATOM     78  C   UNL A   1      42.180  20.544  26.716  1.00  0.00     0.002 A 
ATOM     79  C   UNL A   1      44.039  21.496  25.541  1.00  0.00     0.091 A 
ATOM     80  F   UNL A   1      45.143  23.384  26.408  1.00  0.00    -0.205 F 
ATOM     81  C   UNL A   1      43.089  20.483  25.675  1.00  0.00     0.022 A 
BRANCH  79  82
ATOM     82  S   UNL A   1      45.105  21.376  24.081  1.00  0.00     0.127 S 
ATOM     83  O   UNL A   1      44.782  20.046  23.567  1.00  0.00    -0.237 OA
ATOM     84  O   UNL A   1      44.615  22.479  23.252  1.00  0.00    -0.237 OA
ATOM     85  O   UNL A   1      46.472  21.537  24.560  1.00  0.00    -0.744 OA
ENDBRANCH  79  82
ENDBRANCH  61  75
BRANCH  62  86
ATOM     86  C   UNL A   1      43.190  32.757  30.694  1.00  0.00     0.023 A 
ATOM     87  C   UNL A   1      42.768  33.684  29.535  1.00  0.00     0.012 A 
ATOM     88  C   UNL A   1      41.699  32.916  31.439  1.00  0.00     0.148 A 
ATOM     89  C   UNL A   1      41.576  34.469  29.263  1.00  0.00     0.002 A 
ATOM     90  C   UNL A   1      40.563  33.755  31.246  1.00  0.00     0.091 A 
ATOM     91  F   UNL A   1      41.258  31.816  32.083  1.00  0.00    -0.205 F 
ATOM     92  C   UNL A   1      40.491  34.513  30.111  1.00  0.00     0.022 A 
BRANCH  90  93
ATOM     93  S   UNL A   1      39.053  33.606  32.283  1.00  0.00     0.127 S 
ATOM     94  O   UNL A   1      38.529  32.319  31.844  1.00  0.00    -0.237 OA
ATOM     95  O   UNL A   1      39.590  33.624  33.644  1.00  0.00    -0.237 OA
ATOM     96  O   UNL A   1      38.202  34.751  31.978  1.00  0.00    -0.744 OA
ENDBRANCH  90  93
ENDBRANCH  62  86
BRANCH  74  97
ATOM     97  C   UNL A   1      45.285  25.113  33.677  1.00  0.00     0.023 A 
ATOM     98  C   UNL A   1      44.201  24.345  34.122  1.00  0.00     0.012 A 
ATOM     99  C   UNL A   1      46.580  24.722  34.162  1.00  0.00     0.148 A 
ATOM    100  C   UNL A   1      44.394  23.247  34.977  1.00  0.00     0.002 A 
ATOM    101  C   UNL A   1      46.775  23.563  34.899  1.00  0.00     0.091 A 
ATOM    102  F   UNL A   1      47.656  25.492  33.954  1.00  0.00    -0.205 F 
ATOM    103  C   UNL A   1      45.678  22.829  35.330  1.00  0.00     0.022 A 
BRANCH 101 104
ATOM    104  S   UNL A   1      48.433  22.899  35.172  1.00  0.00     0.127 S 
ATOM    105  O   UNL A   1      48.823  23.561  36.415  1.00  0.00    -0.237 OA
ATOM    106  O   UNL A   1      48.175  21.463  35.300  1.00  0.00    -0.237 OA
ATOM    107  O   UNL A   1      49.203  23.260  33.988  1.00  0.00    -0.744 OA
ENDBRANCH 101 104
ENDBRANCH  74  97
ENDBRANCH  48  49
ENDBRANCH  41  43
ENDBRANCH  40  41
ENDBRANCH  39  40
ENDBRANCH  38  39
ENDBRANCH  37  38
ENDBRANCH  36  37
ENDBRANCH   1  36
TORSDOF 26
ENDMDL
MODEL 2
REMARK VINA RESULT:      -7.8      1.567      3.160
REMARK SMILES Cc1ccc(-c2nn(-c3ccccc3)cc2[C@@H]2[NH2+][C@H](C(=O)OCCOCCOCCOCCOC(=O)c3ccc(-c4c5nc(c(-c6cccc(S(=O)(=O)[O-])c6F)c6ccc([nH]6)c(-c6cccc(S(=O)(=O)[O-])c6F)c6nc(c(-c7cccc(S(=O)(=O)[O-])c7F)c7ccc4[nH]7)C=C6)C=C5)cc3)CS2)cc1
REMARK SMILES IDX 29 1 28 2 27 3 26 4 25 5 24 6 23 7 22 8 20 9 21 10 19 11
REMARK SMILES IDX 17 12 18 13 101 14 100 17 16 18 6 19 7 20 8 21 15 22 5 23
REMARK SMILES IDX 1 24 2 25 3 26 103 27 4 28 102 29 9 30 10 31 14 32 11 33
REMARK SMILES IDX 13 34 12 35 30 36 31 37 32 38 33 39 34 40 35 41 36 42 37 43
REMARK SMILES IDX 38 44 99 45 39 46 98 47 40 48 41 49 42 50 92 51 43 52 97 53
REMARK SMILES IDX 91 54 93 55 44 56 96 57 90 58 89 59 45 61 77 62 57 63 76 64
REMARK SMILES IDX 58 65 61 66 75 67 94 68 59 69 60 70 74 72 95 73 62 74 46 75
REMARK SMILES IDX 47 76 55 77 48 78 50 79 56 80 49 81 51 82 52 83 53 84 54 85
REMARK SMILES IDX 78 86 79 87 87 88 80 89 82 90 88 91 81 92 83 93 84 94 85 95
REMARK SMILES IDX 86 96 63 97 64 98 72 99 65 100 67 101 73 102 66 103 68 104
REMARK SMILES IDX 69 105 70 106 71 107
REMARK H PARENT 18 15 18 16 93 60 61 71
REMARK Flexibility Score: inf
ROOT
ATOM      1  C   UNL A   1      33.480  34.686  30.382  1.00  0.00     0.188 C 
ENDROOT
BRANCH   1   2
ATOM      2  O   UNL A   1      34.303  34.969  31.494  1.00  0.00    -0.377 OA
BRANCH   2   3
ATOM      3  C   UNL A   1      34.080  34.202  32.642  1.00  0.00     0.188 C 
BRANCH   3   4
ATOM      4  C   UNL A   1      35.150  33.209  33.123  1.00  0.00     0.188 C 
BRANCH   4   5
ATOM      5  O   UNL A   1      35.473  33.079  34.497  1.00  0.00    -0.376 OA
BRANCH   5   6
ATOM      6  C   UNL A   1      35.985  34.248  35.148  1.00  0.00     0.202 C 
BRANCH   6   7
ATOM      7  C   UNL A   1      37.321  34.049  35.865  1.00  0.00     0.261 C 
BRANCH   7   8
ATOM      8  O   UNL A   1      37.221  32.834  36.634  1.00  0.00    -0.459 OA
BRANCH   8   9
ATOM      9  C   UNL A   1      37.033  32.831  37.962  1.00  0.00     0.365 C 
ATOM     10  O   UNL A   1      35.955  32.968  38.525  1.00  0.00    -0.245 OA
BRANCH   9  11
ATOM     11  C   UNL A   1      38.351  32.455  38.680  1.00  0.00     0.304 C 
ATOM     12  C   UNL A   1      40.794  32.705  38.401  1.00  0.00     0.278 C 
ATOM     13  N   UNL A   1      39.517  32.499  37.717  1.00  0.00    -0.319 N 
ATOM     14  S   UNL A   1      40.363  33.228  40.163  1.00  0.00    -0.087 SA
ATOM     15  H   UNL A   1      39.557  31.617  37.207  1.00  0.00     0.348 HD
ATOM     16  H   UNL A   1      39.370  33.288  37.085  1.00  0.00     0.348 HD
ATOM     17  C   UNL A   1      38.573  33.312  39.909  1.00  0.00     0.153 C 
BRANCH  12  18
ATOM     18  C   UNL A   1      42.153  33.599  37.655  1.00  0.00     0.067 A 
ATOM     19  C   UNL A   1      41.260  35.272  37.168  1.00  0.00     0.103 A 
ATOM     20  N   UNL A   1      41.798  35.839  35.678  1.00  0.00    -0.167 NA
ATOM     21  N   UNL A   1      43.144  34.759  34.987  1.00  0.00    -0.240 N 
ATOM     22  C   UNL A   1      43.477  33.358  36.295  1.00  0.00     0.126 A 
BRANCH  19  23
ATOM     23  C   UNL A   1      40.694  36.177  38.388  1.00  0.00     0.003 A 
ATOM     24  C   UNL A   1      39.597  39.780  40.734  1.00  0.00     0.044 C 
ATOM     25  C   UNL A   1      39.915  38.487  40.033  1.00  0.00    -0.051 A 
ATOM     26  C   UNL A   1      41.239  38.146  39.884  1.00  0.00     0.004 A 
ATOM     27  C   UNL A   1      38.975  37.645  39.408  1.00  0.00     0.004 A 
ATOM     28  C   UNL A   1      41.587  37.023  39.117  1.00  0.00     0.011 A 
ATOM     29  C   UNL A   1      39.354  36.515  38.589  1.00  0.00     0.011 A 
ENDBRANCH  19  23
BRANCH  21  30
ATOM     30  C   UNL A   1      43.745  35.123  33.679  1.00  0.00     0.065 A 
ATOM     31  C   UNL A   1      43.110  35.929  32.738  1.00  0.00     0.028 A 
ATOM     32  C   UNL A   1      45.082  34.855  33.422  1.00  0.00     0.028 A 
ATOM     33  C   UNL A   1      43.810  36.844  31.968  1.00  0.00     0.002 A 
ATOM     34  C   UNL A   1      45.822  35.787  32.676  1.00  0.00     0.002 A 
ATOM     35  C   UNL A   1      45.186  36.843  32.029  1.00  0.00     0.000 A 
ENDBRANCH  21  30
ENDBRANCH  12  18
ENDBRANCH   9  11
ENDBRANCH   8   9
ENDBRANCH   7   8
ENDBRANCH   6   7
ENDBRANCH   5   6
ENDBRANCH   4   5
ENDBRANCH   3   4
ENDBRANCH   2   3
ENDBRANCH   1   2
BRANCH   1  36
ATOM     36  C   UNL A   1      33.730  35.241  28.959  1.00  0.00     0.188 C 
BRANCH  36  37
ATOM     37  O   UNL A   1      33.754  34.343  27.878  1.00  0.00    -0.376 OA
BRANCH  37  38
ATOM     38  C   UNL A   1      34.213  33.049  28.233  1.00  0.00     0.202 C 
BRANCH  38  39
ATOM     39  C   UNL A   1      35.736  32.670  28.149  1.00  0.00     0.261 C 
BRANCH  39  40
ATOM     40  O   UNL A   1      36.082  31.301  27.759  1.00  0.00    -0.460 OA
BRANCH  40  41
ATOM     41  C   UNL A   1      36.703  30.392  28.593  1.00  0.00     0.338 C 
ATOM     42  O   UNL A   1      36.128  29.687  29.400  1.00  0.00    -0.246 OA
BRANCH  41  43
ATOM     43  C   UNL A   1      38.181  30.308  28.212  1.00  0.00     0.060 A 
ATOM     44  C   UNL A   1      38.649  29.468  27.223  1.00  0.00     0.016 A 
ATOM     45  C   UNL A   1      39.163  30.830  29.039  1.00  0.00     0.016 A 
ATOM     46  C   UNL A   1      39.886  28.803  27.373  1.00  0.00     0.010 A 
ATOM     47  C   UNL A   1      40.313  30.068  29.292  1.00  0.00     0.010 A 
ATOM     48  C   UNL A   1      40.604  28.920  28.558  1.00  0.00    -0.014 A 
BRANCH  48  49
ATOM     49  C   UNL A   1      41.700  28.012  29.012  1.00  0.00     0.031 A 
ATOM     50  C   UNL A   1      41.391  26.572  29.107  1.00  0.00     0.074 A 
ATOM     51  C   UNL A   1      43.024  28.364  29.104  1.00  0.00     0.049 A 
ATOM     52  N   UNL A   1      42.194  25.705  29.604  1.00  0.00    -0.248 NA
ATOM     53  C   UNL A   1      40.247  25.943  28.453  1.00  0.00     0.031 C 
ATOM     54  C   UNL A   1      44.238  27.676  29.491  1.00  0.00     0.029 A 
ATOM     55  N   UNL A   1      43.617  29.583  28.909  1.00  0.00    -0.354 N 
ATOM     56  C   UNL A   1      42.031  24.568  28.848  1.00  0.00     0.074 A 
ATOM     57  C   UNL A   1      40.710  24.699  28.284  1.00  0.00     0.031 C 
ATOM     58  C   UNL A   1      45.216  28.501  29.950  1.00  0.00     0.029 A 
ATOM     59  C   UNL A   1      44.625  29.826  29.997  1.00  0.00     0.049 A 
ATOM     60  H   UNL A   1      43.415  30.203  28.170  1.00  0.00     0.167 HD
ATOM     61  C   UNL A   1      43.130  23.787  28.632  1.00  0.00     0.034 A 
ATOM     62  C   UNL A   1      44.534  31.065  30.992  1.00  0.00     0.034 A 
ATOM     63  C   UNL A   1      44.303  24.229  29.474  1.00  0.00     0.049 A 
ATOM     64  C   UNL A   1      44.834  29.710  32.169  1.00  0.00     0.074 A 
ATOM     65  C   UNL A   1      45.654  24.451  29.244  1.00  0.00     0.029 A 
ATOM     66  N   UNL A   1      44.090  24.728  30.785  1.00  0.00    -0.354 N 
ATOM     67  N   UNL A   1      44.200  28.518  32.198  1.00  0.00    -0.248 NA
ATOM     68  C   UNL A   1      46.045  29.624  33.021  1.00  0.00     0.031 C 
ATOM     69  C   UNL A   1      46.179  25.231  30.336  1.00  0.00     0.029 A 
ATOM     70  C   UNL A   1      45.150  25.523  31.238  1.00  0.00     0.049 A 
ATOM     71  H   UNL A   1      43.284  24.536  31.318  1.00  0.00     0.167 HD
ATOM     72  C   UNL A   1      44.989  27.524  32.830  1.00  0.00     0.074 A 
ATOM     73  C   UNL A   1      46.046  28.337  33.451  1.00  0.00     0.031 C 
ATOM     74  C   UNL A   1      45.132  26.144  32.582  1.00  0.00     0.034 A 
BRANCH  61  75
ATOM     75  C   UNL A   1      43.236  22.732  27.512  1.00  0.00     0.023 A 
ATOM     76  C   UNL A   1      42.317  21.661  27.575  1.00  0.00     0.012 A 
ATOM     77  C   UNL A   1      44.179  22.657  26.441  1.00  0.00     0.148 A 
ATOM     78  C   UNL A   1      42.330  20.586  26.676  1.00  0.00     0.002 A 
ATOM     79  C   UNL A   1      44.135  21.621  25.488  1.00  0.00     0.091 A 
ATOM     80  F   UNL A   1      45.183  23.536  26.366  1.00  0.00    -0.205 F 
ATOM     81  C   UNL A   1      43.225  20.572  25.621  1.00  0.00     0.022 A 
BRANCH  79  82
ATOM     82  S   UNL A   1      45.183  21.561  24.011  1.00  0.00     0.127 S 
ATOM     83  O   UNL A   1      44.766  20.307  23.383  1.00  0.00    -0.237 OA
ATOM     84  O   UNL A   1      44.766  22.765  23.290  1.00  0.00    -0.237 OA
ATOM     85  O   UNL A   1      46.560  21.583  24.486  1.00  0.00    -0.744 OA
ENDBRANCH  79  82
ENDBRANCH  61  75
BRANCH  62  86
ATOM     86  C   UNL A   1      43.134  32.768  30.836  1.00  0.00     0.023 A 
ATOM     87  C   UNL A   1      42.760  33.749  29.705  1.00  0.00     0.012 A 
ATOM     88  C   UNL A   1      41.602  32.865  31.504  1.00  0.00     0.148 A 
ATOM     89  C   UNL A   1      41.572  34.532  29.410  1.00  0.00     0.002 A 
ATOM     90  C   UNL A   1      40.465  33.697  31.293  1.00  0.00     0.091 A 
ATOM     91  F   UNL A   1      41.145  31.726  32.063  1.00  0.00    -0.205 F 
ATOM     92  C   UNL A   1      40.442  34.515  30.197  1.00  0.00     0.022 A 
BRANCH  90  93
ATOM     93  S   UNL A   1      38.903  33.473  32.236  1.00  0.00     0.127 S 
ATOM     94  O   UNL A   1      39.408  33.318  33.595  1.00  0.00    -0.237 OA
ATOM     95  O   UNL A   1      38.186  34.722  31.980  1.00  0.00    -0.237 OA
ATOM     96  O   UNL A   1      38.233  32.296  31.693  1.00  0.00    -0.744 OA
ENDBRANCH  90  93
ENDBRANCH  62  86
BRANCH  74  97
ATOM     97  C   UNL A   1      45.285  25.099  33.713  1.00  0.00     0.023 A 
ATOM     98  C   UNL A   1      44.215  24.287  34.111  1.00  0.00     0.012 A 
ATOM     99  C   UNL A   1      46.577  24.741  34.229  1.00  0.00     0.148 A 
ATOM    100  C   UNL A   1      44.419  23.178  34.950  1.00  0.00     0.002 A 
ATOM    101  C   UNL A   1      46.790  23.574  34.950  1.00  0.00     0.091 A 
ATOM    102  F   UNL A   1      47.633  25.550  34.068  1.00  0.00    -0.205 F 
ATOM    103  C   UNL A   1      45.705  22.797  35.333  1.00  0.00     0.022 A 
BRANCH 101 104
ATOM    104  S   UNL A   1      48.460  22.960  35.260  1.00  0.00     0.127 S 
ATOM    105  O   UNL A   1      48.195  21.692  35.936  1.00  0.00    -0.237 OA
ATOM    106  O   UNL A   1      49.000  22.829  33.905  1.00  0.00    -0.237 OA
ATOM    107  O   UNL A   1      49.115  23.986  36.063  1.00  0.00    -0.744 OA
ENDBRANCH 101 104
ENDBRANCH  74  97
ENDBRANCH  48  49
ENDBRANCH  41  43
ENDBRANCH  40  41
ENDBRANCH  39  40
ENDBRANCH  38  39
ENDBRANCH  37  38
ENDBRANCH  36  37
ENDBRANCH   1  36
TORSDOF 26
ENDMDL
MODEL 3
REMARK VINA RESULT:      -7.5      4.128     10.623
REMARK SMILES Cc1ccc(-c2nn(-c3ccccc3)cc2[C@@H]2[NH2+][C@H](C(=O)OCCOCCOCCOCCOC(=O)c3ccc(-c4c5nc(c(-c6cccc(S(=O)(=O)[O-])c6F)c6ccc([nH]6)c(-c6cccc(S(=O)(=O)[O-])c6F)c6nc(c(-c7cccc(S(=O)(=O)[O-])c7F)c7ccc4[nH]7)C=C6)C=C5)cc3)CS2)cc1
REMARK SMILES IDX 29 1 28 2 27 3 26 4 25 5 24 6 23 7 22 8 20 9 21 10 19 11
REMARK SMILES IDX 17 12 18 13 101 14 100 17 16 18 6 19 7 20 8 21 15 22 5 23
REMARK SMILES IDX 1 24 2 25 3 26 103 27 4 28 102 29 9 30 10 31 14 32 11 33
REMARK SMILES IDX 13 34 12 35 30 36 31 37 32 38 33 39 34 40 35 41 36 42 37 43
REMARK SMILES IDX 38 44 99 45 39 46 98 47 40 48 41 49 42 50 92 51 43 52 97 53
REMARK SMILES IDX 91 54 93 55 44 56 96 57 90 58 89 59 45 61 77 62 57 63 76 64
REMARK SMILES IDX 58 65 61 66 75 67 94 68 59 69 60 70 74 72 95 73 62 74 46 75
REMARK SMILES IDX 47 76 55 77 48 78 50 79 56 80 49 81 51 82 52 83 53 84 54 85
REMARK SMILES IDX 78 86 79 87 87 88 80 89 82 90 88 91 81 92 83 93 84 94 85 95
REMARK SMILES IDX 86 96 63 97 64 98 72 99 65 100 67 101 73 102 66 103 68 104
REMARK SMILES IDX 69 105 70 106 71 107
REMARK H PARENT 18 15 18 16 93 60 61 71
REMARK Flexibility Score: inf
ROOT
ATOM      1  C   UNL A   1      50.124  34.260  26.381  1.00  0.00     0.188 C 
ENDROOT
BRANCH   1   2
ATOM      2  O   UNL A   1      49.091  34.285  25.418  1.00  0.00    -0.377 OA
BRANCH   2   3
ATOM      3  C   UNL A   1      48.167  35.329  25.526  1.00  0.00     0.188 C 
BRANCH   3   4
ATOM      4  C   UNL A   1      46.722  35.036  25.962  1.00  0.00     0.188 C 
BRANCH   4   5
ATOM      5  O   UNL A   1      45.843  34.282  25.145  1.00  0.00    -0.376 OA
BRANCH   5   6
ATOM      6  C   UNL A   1      44.698  33.713  25.790  1.00  0.00     0.202 C 
BRANCH   6   7
ATOM      7  C   UNL A   1      44.998  32.513  26.690  1.00  0.00     0.261 C 
BRANCH   7   8
ATOM      8  O   UNL A   1      44.744  31.322  25.920  1.00  0.00    -0.459 OA
BRANCH   8   9
ATOM      9  C   UNL A   1      45.105  30.100  26.337  1.00  0.00     0.365 C 
ATOM     10  O   UNL A   1      44.516  29.059  26.078  1.00  0.00    -0.245 OA
BRANCH   9  11
ATOM     11  C   UNL A   1      46.475  30.170  27.052  1.00  0.00     0.304 C 
ATOM     12  C   UNL A   1      47.514  29.564  29.212  1.00  0.00     0.278 C 
ATOM     13  N   UNL A   1      46.304  30.053  28.552  1.00  0.00    -0.319 N 
ATOM     14  S   UNL A   1      48.632  28.913  27.837  1.00  0.00    -0.087 SA
ATOM     15  H   UNL A   1      46.072  30.972  28.929  1.00  0.00     0.348 HD
ATOM     16  H   UNL A   1      45.558  29.379  28.729  1.00  0.00     0.348 HD
ATOM     17  C   UNL A   1      47.444  29.150  26.492  1.00  0.00     0.153 C 
BRANCH  12  18
ATOM     18  C   UNL A   1      47.465  28.558  30.691  1.00  0.00     0.067 A 
ATOM     19  C   UNL A   1      46.029  27.310  30.230  1.00  0.00     0.103 A 
ATOM     20  N   UNL A   1      45.056  26.981  31.563  1.00  0.00    -0.167 NA
ATOM     21  N   UNL A   1      45.691  27.826  33.092  1.00  0.00    -0.240 N 
ATOM     22  C   UNL A   1      47.316  28.769  32.587  1.00  0.00     0.126 A 
BRANCH  19  23
ATOM     23  C   UNL A   1      46.300  26.319  28.976  1.00  0.00     0.003 A 
ATOM     24  C   UNL A   1      47.388  24.988  24.886  1.00  0.00     0.044 C 
ATOM     25  C   UNL A   1      47.007  25.313  26.304  1.00  0.00    -0.051 A 
ATOM     26  C   UNL A   1      45.820  25.975  26.514  1.00  0.00     0.004 A 
ATOM     27  C   UNL A   1      47.817  25.103  27.436  1.00  0.00     0.004 A 
ATOM     28  C   UNL A   1      45.489  26.422  27.803  1.00  0.00     0.011 A 
ATOM     29  C   UNL A   1      47.479  25.605  28.750  1.00  0.00     0.011 A 
ENDBRANCH  19  23
BRANCH  21  30
ATOM     30  C   UNL A   1      44.956  27.632  34.368  1.00  0.00     0.065 A 
ATOM     31  C   UNL A   1      45.501  27.912  35.618  1.00  0.00     0.028 A 
ATOM     32  C   UNL A   1      43.594  27.371  34.360  1.00  0.00     0.028 A 
ATOM     33  C   UNL A   1      44.739  28.453  36.641  1.00  0.00     0.002 A 
ATOM     34  C   UNL A   1      42.796  27.940  35.365  1.00  0.00     0.002 A 
ATOM     35  C   UNL A   1      43.378  28.572  36.461  1.00  0.00     0.000 A 
ENDBRANCH  21  30
ENDBRANCH  12  18
ENDBRANCH   9  11
ENDBRANCH   8   9
ENDBRANCH   7   8
ENDBRANCH   6   7
ENDBRANCH   5   6
ENDBRANCH   4   5
ENDBRANCH   3   4
ENDBRANCH   2   3
ENDBRANCH   1   2
BRANCH   1  36
ATOM     36  C   UNL A   1      49.947  33.720  27.821  1.00  0.00     0.188 C 
BRANCH  36  37
ATOM     37  O   UNL A   1      48.679  33.798  28.422  1.00  0.00    -0.376 OA
BRANCH  37  38
ATOM     38  C   UNL A   1      48.596  33.092  29.650  1.00  0.00     0.202 C 
BRANCH  38  39
ATOM     39  C   UNL A   1      47.280  33.101  30.510  1.00  0.00     0.261 C 
BRANCH  39  40
ATOM     40  O   UNL A   1      47.358  32.606  31.887  1.00  0.00    -0.460 OA
BRANCH  40  41
ATOM     41  C   UNL A   1      47.060  33.366  33.000  1.00  0.00     0.338 C 
ATOM     42  O   UNL A   1      47.709  34.323  33.380  1.00  0.00    -0.246 OA
BRANCH  41  43
ATOM     43  C   UNL A   1      45.711  32.913  33.556  1.00  0.00     0.060 A 
ATOM     44  C   UNL A   1      45.437  31.597  33.869  1.00  0.00     0.016 A 
ATOM     45  C   UNL A   1      44.595  33.733  33.482  1.00  0.00     0.016 A 
ATOM     46  C   UNL A   1      44.161  31.049  33.610  1.00  0.00     0.010 A 
ATOM     47  C   UNL A   1      43.374  33.183  33.067  1.00  0.00     0.010 A 
ATOM     48  C   UNL A   1      43.194  31.806  32.957  1.00  0.00    -0.014 A 
BRANCH  48  49
ATOM     49  C   UNL A   1      41.968  31.274  32.288  1.00  0.00     0.031 A 
ATOM     50  C   UNL A   1      42.017  31.105  30.822  1.00  0.00     0.074 A 
ATOM     51  C   UNL A   1      40.906  30.698  32.939  1.00  0.00     0.049 A 
ATOM     52  N   UNL A   1      41.000  30.784  30.111  1.00  0.00    -0.248 NA
ATOM     53  C   UNL A   1      43.255  31.065  30.051  1.00  0.00     0.031 C 
ATOM     54  C   UNL A   1      39.650  30.110  32.519  1.00  0.00     0.029 A 
ATOM     55  N   UNL A   1      40.675  30.564  34.282  1.00  0.00    -0.354 N 
ATOM     56  C   UNL A   1      41.482  29.963  29.118  1.00  0.00     0.074 A 
ATOM     57  C   UNL A   1      42.876  30.313  29.011  1.00  0.00     0.031 C 
ATOM     58  C   UNL A   1      38.679  30.150  33.470  1.00  0.00     0.029 A 
ATOM     59  C   UNL A   1      39.241  30.905  34.576  1.00  0.00     0.049 A 
ATOM     60  H   UNL A   1      41.344  30.288  34.950  1.00  0.00     0.167 HD
ATOM     61  C   UNL A   1      40.676  28.949  28.687  1.00  0.00     0.034 A 
ATOM     62  C   UNL A   1      38.822  32.083  35.561  1.00  0.00     0.034 A 
ATOM     63  C   UNL A   1      39.282  29.063  29.256  1.00  0.00     0.049 A 
ATOM     64  C   UNL A   1      37.738  32.430  34.141  1.00  0.00     0.074 A 
ATOM     65  C   UNL A   1      38.382  28.185  29.845  1.00  0.00     0.029 A 
ATOM     66  N   UNL A   1      38.695  30.341  29.450  1.00  0.00    -0.354 N 
ATOM     67  N   UNL A   1      38.105  32.466  32.842  1.00  0.00    -0.248 NA
ATOM     68  C   UNL A   1      36.257  32.378  34.214  1.00  0.00     0.031 C 
ATOM     69  C   UNL A   1      37.376  28.957  30.530  1.00  0.00     0.029 A 
ATOM     70  C   UNL A   1      37.661  30.320  30.394  1.00  0.00     0.049 A 
ATOM     71  H   UNL A   1      38.984  31.152  28.973  1.00  0.00     0.167 HD
ATOM     72  C   UNL A   1      37.005  32.220  31.983  1.00  0.00     0.074 A 
ATOM     73  C   UNL A   1      35.871  32.337  32.914  1.00  0.00     0.031 C 
ATOM     74  C   UNL A   1      36.913  31.548  30.747  1.00  0.00     0.034 A 
BRANCH  61  75
ATOM     75  C   UNL A   1      41.178  27.718  27.903  1.00  0.00     0.023 A 
ATOM     76  C   UNL A   1      41.185  27.837  26.495  1.00  0.00     0.012 A 
ATOM     77  C   UNL A   1      41.585  26.444  28.405  1.00  0.00     0.148 A 
ATOM     78  C   UNL A   1      41.543  26.786  25.640  1.00  0.00     0.002 A 
ATOM     79  C   UNL A   1      42.027  25.418  27.548  1.00  0.00     0.091 A 
ATOM     80  F   UNL A   1      41.482  26.170  29.709  1.00  0.00    -0.205 F 
ATOM     81  C   UNL A   1      41.982  25.582  26.163  1.00  0.00     0.022 A 
BRANCH  79  82
ATOM     82  S   UNL A   1      42.723  23.848  28.123  1.00  0.00     0.127 S 
ATOM     83  O   UNL A   1      43.447  24.249  29.329  1.00  0.00    -0.237 OA
ATOM     84  O   UNL A   1      41.519  23.054  28.378  1.00  0.00    -0.237 OA
ATOM     85  O   UNL A   1      43.560  23.351  27.039  1.00  0.00    -0.744 OA
ENDBRANCH  79  82
ENDBRANCH  61  75
BRANCH  62  86
ATOM     86  C   UNL A   1      40.179  33.247  36.860  1.00  0.00     0.023 A 
ATOM     87  C   UNL A   1      39.972  34.145  38.098  1.00  0.00     0.012 A 
ATOM     88  C   UNL A   1      41.703  32.786  37.378  1.00  0.00     0.148 A 
ATOM     89  C   UNL A   1      40.821  34.521  39.216  1.00  0.00     0.002 A 
ATOM     90  C   UNL A   1      42.588  33.219  38.408  1.00  0.00     0.091 A 
ATOM     91  F   UNL A   1      42.052  31.518  37.080  1.00  0.00    -0.205 F 
ATOM     92  C   UNL A   1      42.115  34.073  39.365  1.00  0.00     0.022 A 
BRANCH  90  93
ATOM     93  S   UNL A   1      44.220  32.422  38.691  1.00  0.00     0.127 S 
ATOM     94  O   UNL A   1      44.808  32.492  37.359  1.00  0.00    -0.237 OA
ATOM     95  O   UNL A   1      44.840  33.295  39.689  1.00  0.00    -0.237 OA
ATOM     96  O   UNL A   1      43.965  31.070  39.178  1.00  0.00    -0.744 OA
ENDBRANCH  90  93
ENDBRANCH  62  86
BRANCH  74  97
ATOM     97  C   UNL A   1      36.002  32.033  29.594  1.00  0.00     0.023 A 
ATOM     98  C   UNL A   1      35.388  31.131  28.715  1.00  0.00     0.012 A 
ATOM     99  C   UNL A   1      35.546  33.394  29.526  1.00  0.00     0.148 A 
ATOM    100  C   UNL A   1      34.373  31.550  27.838  1.00  0.00     0.002 A 
ATOM    101  C   UNL A   1      34.457  33.772  28.752  1.00  0.00     0.091 A 
ATOM    102  F   UNL A   1      36.187  34.370  30.181  1.00  0.00    -0.205 F 
ATOM    103  C   UNL A   1      33.878  32.854  27.886  1.00  0.00     0.022 A 
BRANCH 101 104
ATOM    104  S   UNL A   1      33.675  35.386  28.967  1.00  0.00     0.127 S 
ATOM    105  O   UNL A   1      34.599  36.267  28.257  1.00  0.00    -0.237 OA
ATOM    106  O   UNL A   1      32.382  35.195  28.306  1.00  0.00    -0.237 OA
ATOM    107  O   UNL A   1      33.580  35.589  30.407  1.00  0.00    -0.744 OA
ENDBRANCH 101 104
ENDBRANCH  74  97
ENDBRANCH  48  49
ENDBRANCH  41  43
ENDBRANCH  40  41
ENDBRANCH  39  40
ENDBRANCH  38  39
ENDBRANCH  37  38
ENDBRANCH  36  37
ENDBRANCH   1  36
TORSDOF 26
ENDMDL
