MODEL 1
REMARK VINA RESULT:     -10.0      0.000      0.000
REMARK SMILES Cc1cccc(C[N@H+]2CC[C@@](C)(C(=O)OCCOCCOCCOCCOC(=O)c3ccc(-c4c5nc(c(-c6cccc(S(=O)(=O)[O-])c6F)c6ccc([nH]6)c(-c6cccc(S(=O)(=O)[O-])c6F)c6nc(c(-c7cccc(S(=O)(=O)[O-])c7F)c7ccc4[nH]7)C=C6)C=C5)cc3)C2)n1
REMARK SMILES IDX 22 1 21 2 20 3 19 4 18 5 17 6 16 7 15 8 13 9 14 10 11 11
REMARK SMILES IDX 8 12 9 13 93 14 10 16 12 17 7 18 6 19 1 20 2 21 3 22 94 23
REMARK SMILES IDX 4 24 5 25 23 26 24 27 25 28 26 29 27 30 28 31 29 32 30 33
REMARK SMILES IDX 31 34 92 35 32 36 91 37 33 38 34 39 35 40 85 41 36 42 90 43
REMARK SMILES IDX 84 44 86 45 37 46 89 47 83 48 82 49 38 51 70 52 50 53 69 54
REMARK SMILES IDX 51 55 54 56 68 57 87 58 52 59 53 60 67 62 88 63 55 64 39 65
REMARK SMILES IDX 40 66 48 67 41 68 43 69 49 70 42 71 44 72 45 73 46 74 47 75
REMARK SMILES IDX 71 76 72 77 80 78 73 79 75 80 81 81 74 82 76 83 77 84 78 85
REMARK SMILES IDX 79 86 56 87 57 88 65 89 58 90 60 91 66 92 59 93 61 94 62 95
REMARK SMILES IDX 63 96 64 97
REMARK H PARENT 8 15 86 50 54 61
REMARK Flexibility Score: inf
ROOT
ATOM      1  C   UNL A   1      32.888  29.116  23.673  1.00  0.00     0.188 C 
ENDROOT
BRANCH   1   2
ATOM      2  O   UNL A   1      31.793  29.261  22.801  1.00  0.00    -0.377 OA
BRANCH   2   3
ATOM      3  C   UNL A   1      30.500  29.204  23.358  1.00  0.00     0.188 C 
BRANCH   3   4
ATOM      4  C   UNL A   1      29.587  28.129  22.759  1.00  0.00     0.188 C 
BRANCH   4   5
ATOM      5  O   UNL A   1      29.578  26.848  23.393  1.00  0.00    -0.376 OA
BRANCH   5   6
ATOM      6  C   UNL A   1      30.803  26.119  23.472  1.00  0.00     0.202 C 
BRANCH   6   7
ATOM      7  C   UNL A   1      30.720  24.636  23.851  1.00  0.00     0.261 C 
BRANCH   7   8
ATOM      8  O   UNL A   1      31.848  24.210  24.640  1.00  0.00    -0.463 OA
BRANCH   8   9
ATOM      9  C   UNL A   1      31.644  23.990  25.960  1.00  0.00     0.317 C 
ATOM     10  O   UNL A   1      31.563  24.889  26.794  1.00  0.00    -0.251 OA
BRANCH   9  11
ATOM     11  C   UNL A   1      31.499  22.510  26.341  1.00  0.00     0.119 C 
ATOM     12  N   UNL A   1      33.054  20.714  26.024  1.00  0.00    -0.329 N 
ATOM     13  C   UNL A   1      33.639  21.631  26.990  1.00  0.00     0.263 C 
ATOM     14  C   UNL A   1      32.008  21.470  25.321  1.00  0.00     0.281 C 
ATOM     15  H   UNL A   1      32.646  19.911  26.504  1.00  0.00     0.348 HD
ATOM     16  C   UNL A   1      32.385  22.265  27.574  1.00  0.00     0.086 C 
ATOM     17  C   UNL A   1      30.012  22.275  26.645  1.00  0.00     0.030 C 
BRANCH  12  18
ATOM     18  C   UNL A   1      34.028  20.045  25.140  1.00  0.00     0.319 C 
BRANCH  18  19
ATOM     19  C   UNL A   1      33.767  18.590  24.779  1.00  0.00     0.095 A 
ATOM     20  C   UNL A   1      31.918  15.820  26.326  1.00  0.00     0.067 C 
ATOM     21  C   UNL A   1      32.743  16.574  25.336  1.00  0.00     0.038 A 
ATOM     22  C   UNL A   1      33.208  15.971  24.177  1.00  0.00     0.023 A 
ATOM     23  N   UNL A   1      33.024  17.859  25.651  1.00  0.00    -0.252 NA
ATOM     24  C   UNL A   1      33.988  16.718  23.302  1.00  0.00     0.004 A 
ATOM     25  C   UNL A   1      34.270  18.047  23.600  1.00  0.00     0.030 A 
ENDBRANCH  18  19
ENDBRANCH  12  18
ENDBRANCH   9  11
ENDBRANCH   8   9
ENDBRANCH   7   8
ENDBRANCH   6   7
ENDBRANCH   5   6
ENDBRANCH   4   5
ENDBRANCH   3   4
ENDBRANCH   2   3
ENDBRANCH   1   2
BRANCH   1  26
ATOM     26  C   UNL A   1      32.449  29.208  25.141  1.00  0.00     0.188 C 
BRANCH  26  27
ATOM     27  O   UNL A   1      32.628  30.424  25.864  1.00  0.00    -0.376 OA
BRANCH  27  28
ATOM     28  C   UNL A   1      31.523  31.296  26.083  1.00  0.00     0.202 C 
BRANCH  28  29
ATOM     29  C   UNL A   1      31.758  32.645  26.777  1.00  0.00     0.261 C 
BRANCH  29  30
ATOM     30  O   UNL A   1      32.620  32.618  27.930  1.00  0.00    -0.460 OA
BRANCH  30  31
ATOM     31  C   UNL A   1      33.694  33.435  27.867  1.00  0.00     0.338 C 
ATOM     32  O   UNL A   1      33.681  34.658  27.728  1.00  0.00    -0.246 OA
BRANCH  31  33
ATOM     33  C   UNL A   1      34.948  32.699  28.091  1.00  0.00     0.060 A 
ATOM     34  C   UNL A   1      34.875  31.324  28.358  1.00  0.00     0.016 A 
ATOM     35  C   UNL A   1      36.167  33.373  28.203  1.00  0.00     0.016 A 
ATOM     36  C   UNL A   1      36.010  30.631  28.785  1.00  0.00     0.010 A 
ATOM     37  C   UNL A   1      37.299  32.679  28.646  1.00  0.00     0.010 A 
ATOM     38  C   UNL A   1      37.217  31.314  28.981  1.00  0.00    -0.014 A 
BRANCH  38  39
ATOM     39  C   UNL A   1      38.332  30.653  29.709  1.00  0.00     0.031 A 
ATOM     40  C   UNL A   1      38.625  31.081  31.123  1.00  0.00     0.074 A 
ATOM     41  C   UNL A   1      39.073  29.687  29.137  1.00  0.00     0.049 A 
ATOM     42  N   UNL A   1      39.565  30.668  31.935  1.00  0.00    -0.248 NA
ATOM     43  C   UNL A   1      37.739  32.106  31.700  1.00  0.00     0.031 C 
ATOM     44  C   UNL A   1      38.881  29.167  27.788  1.00  0.00     0.029 A 
ATOM     45  N   UNL A   1      40.154  28.986  29.615  1.00  0.00    -0.354 N 
ATOM     46  C   UNL A   1      39.391  31.387  33.111  1.00  0.00     0.074 A 
ATOM     47  C   UNL A   1      38.268  32.275  32.903  1.00  0.00     0.031 C 
ATOM     48  C   UNL A   1      39.829  28.250  27.531  1.00  0.00     0.029 A 
ATOM     49  C   UNL A   1      40.711  28.134  28.689  1.00  0.00     0.049 A 
ATOM     50  H   UNL A   1      40.496  29.083  30.532  1.00  0.00     0.167 HD
ATOM     51  C   UNL A   1      40.088  31.303  34.269  1.00  0.00     0.034 A 
ATOM     52  C   UNL A   1      41.820  27.368  28.761  1.00  0.00     0.034 A 
ATOM     53  C   UNL A   1      41.205  30.423  34.482  1.00  0.00     0.049 A 
ATOM     54  C   UNL A   1      42.616  27.343  30.042  1.00  0.00     0.074 A 
ATOM     55  C   UNL A   1      41.971  30.266  35.624  1.00  0.00     0.029 A 
ATOM     56  N   UNL A   1      41.720  29.555  33.533  1.00  0.00    -0.354 N 
ATOM     57  N   UNL A   1      42.373  27.949  31.178  1.00  0.00    -0.248 NA
ATOM     58  C   UNL A   1      43.822  26.501  30.060  1.00  0.00     0.031 C 
ATOM     59  C   UNL A   1      42.960  29.314  35.359  1.00  0.00     0.029 A 
ATOM     60  C   UNL A   1      42.796  28.863  34.060  1.00  0.00     0.049 A 
ATOM     61  H   UNL A   1      41.373  29.448  32.618  1.00  0.00     0.167 HD
ATOM     62  C   UNL A   1      43.366  27.525  32.057  1.00  0.00     0.074 A 
ATOM     63  C   UNL A   1      44.203  26.598  31.326  1.00  0.00     0.031 C 
ATOM     64  C   UNL A   1      43.576  27.884  33.348  1.00  0.00     0.034 A 
BRANCH  51  65
ATOM     65  C   UNL A   1      39.635  32.163  35.418  1.00  0.00     0.023 A 
ATOM     66  C   UNL A   1      38.806  31.602  36.411  1.00  0.00     0.012 A 
ATOM     67  C   UNL A   1      40.075  33.493  35.553  1.00  0.00     0.148 A 
ATOM     68  C   UNL A   1      38.403  32.361  37.509  1.00  0.00     0.002 A 
ATOM     69  C   UNL A   1      39.701  34.230  36.670  1.00  0.00     0.091 A 
ATOM     70  F   UNL A   1      40.846  34.012  34.586  1.00  0.00    -0.205 F 
ATOM     71  C   UNL A   1      38.858  33.669  37.644  1.00  0.00     0.022 A 
BRANCH  69  72
ATOM     72  S   UNL A   1      40.291  35.899  36.974  1.00  0.00     0.127 S 
ATOM     73  O   UNL A   1      39.746  36.619  35.824  1.00  0.00    -0.237 OA
ATOM     74  O   UNL A   1      39.655  36.221  38.252  1.00  0.00    -0.237 OA
ATOM     75  O   UNL A   1      41.743  35.810  37.022  1.00  0.00    -0.744 OA
ENDBRANCH  69  72
ENDBRANCH  51  65
BRANCH  52  76
ATOM     76  C   UNL A   1      42.235  26.526  27.601  1.00  0.00     0.023 A 
ATOM     77  C   UNL A   1      42.992  27.103  26.561  1.00  0.00     0.012 A 
ATOM     78  C   UNL A   1      41.871  25.169  27.508  1.00  0.00     0.148 A 
ATOM     79  C   UNL A   1      43.336  26.358  25.432  1.00  0.00     0.002 A 
ATOM     80  C   UNL A   1      42.271  24.416  26.408  1.00  0.00     0.091 A 
ATOM     81  F   UNL A   1      41.132  24.636  28.492  1.00  0.00    -0.205 F 
ATOM     82  C   UNL A   1      42.984  25.013  25.359  1.00  0.00     0.022 A 
BRANCH  80  83
ATOM     83  S   UNL A   1      41.984  22.645  26.316  1.00  0.00     0.127 S 
ATOM     84  O   UNL A   1      40.534  22.579  26.171  1.00  0.00    -0.237 OA
ATOM     85  O   UNL A   1      42.744  22.272  25.122  1.00  0.00    -0.237 OA
ATOM     86  O   UNL A   1      42.534  22.102  27.553  1.00  0.00    -0.744 OA
ENDBRANCH  80  83
ENDBRANCH  52  76
BRANCH  64  87
ATOM     87  C   UNL A   1      44.721  27.237  34.082  1.00  0.00     0.023 A 
ATOM     88  C   UNL A   1      45.976  27.876  34.131  1.00  0.00     0.012 A 
ATOM     89  C   UNL A   1      44.530  26.034  34.792  1.00  0.00     0.148 A 
ATOM     90  C   UNL A   1      47.031  27.313  34.848  1.00  0.00     0.002 A 
ATOM     91  C   UNL A   1      45.573  25.503  35.543  1.00  0.00     0.091 A 
ATOM     92  F   UNL A   1      43.335  25.431  34.719  1.00  0.00    -0.205 F 
ATOM     93  C   UNL A   1      46.827  26.135  35.563  1.00  0.00     0.022 A 
BRANCH  91  94
ATOM     94  S   UNL A   1      45.374  24.042  36.569  1.00  0.00     0.127 S 
ATOM     95  O   UNL A   1      46.718  23.468  36.533  1.00  0.00    -0.237 OA
ATOM     96  O   UNL A   1      44.990  24.618  37.859  1.00  0.00    -0.237 OA
ATOM     97  O   UNL A   1      44.336  23.244  35.933  1.00  0.00    -0.744 OA
ENDBRANCH  91  94
ENDBRANCH  64  87
ENDBRANCH  38  39
ENDBRANCH  31  33
ENDBRANCH  30  31
ENDBRANCH  29  30
ENDBRANCH  28  29
ENDBRANCH  27  28
ENDBRANCH  26  27
ENDBRANCH   1  26
TORSDOF 25
ENDMDL
MODEL 2
REMARK VINA RESULT:      -9.6      1.495      7.543
REMARK SMILES Cc1cccc(C[N@H+]2CC[C@@](C)(C(=O)OCCOCCOCCOCCOC(=O)c3ccc(-c4c5nc(c(-c6cccc(S(=O)(=O)[O-])c6F)c6ccc([nH]6)c(-c6cccc(S(=O)(=O)[O-])c6F)c6nc(c(-c7cccc(S(=O)(=O)[O-])c7F)c7ccc4[nH]7)C=C6)C=C5)cc3)C2)n1
REMARK SMILES IDX 22 1 21 2 20 3 19 4 18 5 17 6 16 7 15 8 13 9 14 10 11 11
REMARK SMILES IDX 8 12 9 13 93 14 10 16 12 17 7 18 6 19 1 20 2 21 3 22 94 23
REMARK SMILES IDX 4 24 5 25 23 26 24 27 25 28 26 29 27 30 28 31 29 32 30 33
REMARK SMILES IDX 31 34 92 35 32 36 91 37 33 38 34 39 35 40 85 41 36 42 90 43
REMARK SMILES IDX 84 44 86 45 37 46 89 47 83 48 82 49 38 51 70 52 50 53 69 54
REMARK SMILES IDX 51 55 54 56 68 57 87 58 52 59 53 60 67 62 88 63 55 64 39 65
REMARK SMILES IDX 40 66 48 67 41 68 43 69 49 70 42 71 44 72 45 73 46 74 47 75
REMARK SMILES IDX 71 76 72 77 80 78 73 79 75 80 81 81 74 82 76 83 77 84 78 85
REMARK SMILES IDX 79 86 56 87 57 88 65 89 58 90 60 91 66 92 59 93 61 94 62 95
REMARK SMILES IDX 63 96 64 97
REMARK H PARENT 8 15 86 50 54 61
REMARK Flexibility Score: inf
ROOT
ATOM      1  C   UNL A   1      32.300  28.221  23.152  1.00  0.00     0.188 C 
ENDROOT
BRANCH   1   2
ATOM      2  O   UNL A   1      31.033  28.438  22.577  1.00  0.00    -0.377 OA
BRANCH   2   3
ATOM      3  C   UNL A   1      29.917  28.443  23.437  1.00  0.00     0.188 C 
BRANCH   3   4
ATOM      4  C   UNL A   1      29.039  27.189  23.359  1.00  0.00     0.188 C 
BRANCH   4   5
ATOM      5  O   UNL A   1      29.308  26.141  24.293  1.00  0.00    -0.376 OA
BRANCH   5   6
ATOM      6  C   UNL A   1      30.283  25.156  23.950  1.00  0.00     0.202 C 
BRANCH   6   7
ATOM      7  C   UNL A   1      30.918  24.360  25.096  1.00  0.00     0.261 C 
BRANCH   7   8
ATOM      8  O   UNL A   1      32.239  23.888  24.766  1.00  0.00    -0.463 OA
BRANCH   8   9
ATOM      9  C   UNL A   1      33.241  24.171  25.630  1.00  0.00     0.317 C 
ATOM     10  O   UNL A   1      33.737  25.288  25.753  1.00  0.00    -0.251 OA
BRANCH   9  11
ATOM     11  C   UNL A   1      33.705  22.977  26.475  1.00  0.00     0.119 C 
ATOM     12  N   UNL A   1      35.162  21.174  25.864  1.00  0.00    -0.329 N 
ATOM     13  C   UNL A   1      35.958  22.392  25.876  1.00  0.00     0.263 C 
ATOM     14  C   UNL A   1      33.758  21.601  25.777  1.00  0.00     0.281 C 
ATOM     15  H   UNL A   1      35.316  20.644  26.721  1.00  0.00     0.348 HD
ATOM     16  C   UNL A   1      35.169  23.234  26.869  1.00  0.00     0.086 C 
ATOM     17  C   UNL A   1      32.782  22.916  27.701  1.00  0.00     0.030 C 
BRANCH  12  18
ATOM     18  C   UNL A   1      35.566  20.183  24.846  1.00  0.00     0.319 C 
BRANCH  18  19
ATOM     19  C   UNL A   1      34.650  18.989  24.624  1.00  0.00     0.095 A 
ATOM     20  C   UNL A   1      34.985  15.351  25.001  1.00  0.00     0.067 C 
ATOM     21  C   UNL A   1      34.365  16.679  24.716  1.00  0.00     0.038 A 
ATOM     22  C   UNL A   1      33.047  16.784  24.297  1.00  0.00     0.023 A 
ATOM     23  N   UNL A   1      35.170  17.757  24.866  1.00  0.00    -0.252 NA
ATOM     24  C   UNL A   1      32.532  18.047  24.028  1.00  0.00     0.004 A 
ATOM     25  C   UNL A   1      33.338  19.167  24.197  1.00  0.00     0.030 A 
ENDBRANCH  18  19
ENDBRANCH  12  18
ENDBRANCH   9  11
ENDBRANCH   8   9
ENDBRANCH   7   8
ENDBRANCH   6   7
ENDBRANCH   5   6
ENDBRANCH   4   5
ENDBRANCH   3   4
ENDBRANCH   2   3
ENDBRANCH   1   2
BRANCH   1  26
ATOM     26  C   UNL A   1      32.276  28.466  24.666  1.00  0.00     0.188 C 
BRANCH  26  27
ATOM     27  O   UNL A   1      32.590  29.757  25.185  1.00  0.00    -0.376 OA
BRANCH  27  28
ATOM     28  C   UNL A   1      31.547  30.650  25.564  1.00  0.00     0.202 C 
BRANCH  28  29
ATOM     29  C   UNL A   1      31.773  31.613  26.737  1.00  0.00     0.261 C 
BRANCH  29  30
ATOM     30  O   UNL A   1      32.904  31.324  27.580  1.00  0.00    -0.460 OA
BRANCH  30  31
ATOM     31  C   UNL A   1      33.809  32.321  27.694  1.00  0.00     0.338 C 
ATOM     32  O   UNL A   1      33.582  33.529  27.646  1.00  0.00    -0.246 OA
BRANCH  31  33
ATOM     33  C   UNL A   1      35.152  31.801  27.998  1.00  0.00     0.060 A 
ATOM     34  C   UNL A   1      35.304  30.421  28.195  1.00  0.00     0.016 A 
ATOM     35  C   UNL A   1      36.217  32.669  28.250  1.00  0.00     0.016 A 
ATOM     36  C   UNL A   1      36.505  29.911  28.691  1.00  0.00     0.010 A 
ATOM     37  C   UNL A   1      37.416  32.156  28.762  1.00  0.00     0.010 A 
ATOM     38  C   UNL A   1      37.551  30.780  29.026  1.00  0.00    -0.014 A 
BRANCH  38  39
ATOM     39  C   UNL A   1      38.703  30.280  29.822  1.00  0.00     0.031 A 
ATOM     40  C   UNL A   1      39.577  29.204  29.232  1.00  0.00     0.074 A 
ATOM     41  C   UNL A   1      38.981  30.770  31.044  1.00  0.00     0.049 A 
ATOM     42  N   UNL A   1      40.612  28.599  29.757  1.00  0.00    -0.248 NA
ATOM     43  C   UNL A   1      39.243  28.756  27.870  1.00  0.00     0.031 C 
ATOM     44  C   UNL A   1      38.231  31.823  31.719  1.00  0.00     0.029 A 
ATOM     45  N   UNL A   1      39.959  30.427  31.946  1.00  0.00    -0.354 N 
ATOM     46  C   UNL A   1      41.046  27.693  28.796  1.00  0.00     0.074 A 
ATOM     47  C   UNL A   1      40.152  27.814  27.665  1.00  0.00     0.031 C 
ATOM     48  C   UNL A   1      38.755  32.024  32.940  1.00  0.00     0.029 A 
ATOM     49  C   UNL A   1      39.864  31.096  33.144  1.00  0.00     0.049 A 
ATOM     50  H   UNL A   1      40.663  29.767  31.752  1.00  0.00     0.167 HD
ATOM     51  C   UNL A   1      42.104  26.850  28.841  1.00  0.00     0.034 A 
ATOM     52  C   UNL A   1      40.574  30.958  34.283  1.00  0.00     0.034 A 
ATOM     53  C   UNL A   1      42.995  26.724  29.963  1.00  0.00     0.049 A 
ATOM     54  C   UNL A   1      41.708  29.963  34.327  1.00  0.00     0.074 A 
ATOM     55  C   UNL A   1      44.097  25.898  30.097  1.00  0.00     0.029 A 
ATOM     56  N   UNL A   1      42.884  27.438  31.145  1.00  0.00    -0.354 N 
ATOM     57  N   UNL A   1      42.169  29.192  33.373  1.00  0.00    -0.248 NA
ATOM     58  C   UNL A   1      42.441  29.843  35.597  1.00  0.00     0.031 C 
ATOM     59  C   UNL A   1      44.644  26.102  31.368  1.00  0.00     0.029 A 
ATOM     60  C   UNL A   1      43.895  27.071  32.016  1.00  0.00     0.049 A 
ATOM     61  H   UNL A   1      42.189  28.108  31.337  1.00  0.00     0.167 HD
ATOM     62  C   UNL A   1      43.271  28.534  33.912  1.00  0.00     0.074 A 
ATOM     63  C   UNL A   1      43.418  29.010  35.271  1.00  0.00     0.031 C 
ATOM     64  C   UNL A   1      44.079  27.607  33.339  1.00  0.00     0.034 A 
BRANCH  51  65
ATOM     65  C   UNL A   1      42.384  26.019  27.618  1.00  0.00     0.023 A 
ATOM     66  C   UNL A   1      43.119  26.585  26.556  1.00  0.00     0.012 A 
ATOM     67  C   UNL A   1      41.983  24.671  27.542  1.00  0.00     0.148 A 
ATOM     68  C   UNL A   1      43.430  25.828  25.427  1.00  0.00     0.002 A 
ATOM     69  C   UNL A   1      42.331  23.913  26.431  1.00  0.00     0.091 A 
ATOM     70  F   UNL A   1      41.268  24.160  28.555  1.00  0.00    -0.205 F 
ATOM     71  C   UNL A   1      43.046  24.492  25.369  1.00  0.00     0.022 A 
BRANCH  69  72
ATOM     72  S   UNL A   1      41.947  22.164  26.291  1.00  0.00     0.127 S 
ATOM     73  O   UNL A   1      40.489  22.190  26.184  1.00  0.00    -0.237 OA
ATOM     74  O   UNL A   1      42.642  21.795  25.058  1.00  0.00    -0.237 OA
ATOM     75  O   UNL A   1      42.472  21.539  27.496  1.00  0.00    -0.744 OA
ENDBRANCH  69  72
ENDBRANCH  51  65
BRANCH  52  76
ATOM     76  C   UNL A   1      40.269  31.802  35.475  1.00  0.00     0.023 A 
ATOM     77  C   UNL A   1      41.158  32.834  35.840  1.00  0.00     0.012 A 
ATOM     78  C   UNL A   1      39.121  31.580  36.260  1.00  0.00     0.148 A 
ATOM     79  C   UNL A   1      40.933  33.595  36.988  1.00  0.00     0.002 A 
ATOM     80  C   UNL A   1      38.872  32.384  37.368  1.00  0.00     0.091 A 
ATOM     81  F   UNL A   1      38.295  30.582  35.916  1.00  0.00    -0.205 F 
ATOM     82  C   UNL A   1      39.787  33.376  37.746  1.00  0.00     0.022 A 
BRANCH  80  83
ATOM     83  S   UNL A   1      37.343  32.261  38.304  1.00  0.00     0.127 S 
ATOM     84  O   UNL A   1      36.416  33.017  37.470  1.00  0.00    -0.237 OA
ATOM     85  O   UNL A   1      37.114  30.816  38.331  1.00  0.00    -0.237 OA
ATOM     86  O   UNL A   1      37.647  32.831  39.611  1.00  0.00    -0.744 OA
ENDBRANCH  80  83
ENDBRANCH  52  76
BRANCH  64  87
ATOM     87  C   UNL A   1      45.232  27.079  34.151  1.00  0.00     0.023 A 
ATOM     88  C   UNL A   1      46.471  27.749  34.133  1.00  0.00     0.012 A 
ATOM     89  C   UNL A   1      45.063  25.962  34.995  1.00  0.00     0.148 A 
ATOM     90  C   UNL A   1      47.533  27.300  34.917  1.00  0.00     0.002 A 
ATOM     91  C   UNL A   1      46.111  25.549  35.810  1.00  0.00     0.091 A 
ATOM     92  F   UNL A   1      43.883  25.326  34.986  1.00  0.00    -0.205 F 
ATOM     93  C   UNL A   1      47.350  26.209  35.763  1.00  0.00     0.022 A 
BRANCH  91  94
ATOM     94  S   UNL A   1      45.938  24.212  36.999  1.00  0.00     0.127 S 
ATOM     95  O   UNL A   1      45.024  24.800  37.977  1.00  0.00    -0.237 OA
ATOM     96  O   UNL A   1      45.356  23.145  36.184  1.00  0.00    -0.237 OA
ATOM     97  O   UNL A   1      47.282  23.934  37.485  1.00  0.00    -0.744 OA
ENDBRANCH  91  94
ENDBRANCH  64  87
ENDBRANCH  38  39
ENDBRANCH  31  33
ENDBRANCH  30  31
ENDBRANCH  29  30
ENDBRANCH  28  29
ENDBRANCH  27  28
ENDBRANCH  26  27
ENDBRANCH   1  26
TORSDOF 25
ENDMDL
MODEL 3
REMARK VINA RESULT:      -9.0      2.186      2.925
REMARK SMILES Cc1cccc(C[N@H+]2CC[C@@](C)(C(=O)OCCOCCOCCOCCOC(=O)c3ccc(-c4c5nc(c(-c6cccc(S(=O)(=O)[O-])c6F)c6ccc([nH]6)c(-c6cccc(S(=O)(=O)[O-])c6F)c6nc(c(-c7cccc(S(=O)(=O)[O-])c7F)c7ccc4[nH]7)C=C6)C=C5)cc3)C2)n1
REMARK SMILES IDX 22 1 21 2 20 3 19 4 18 5 17 6 16 7 15 8 13 9 14 10 11 11
REMARK SMILES IDX 8 12 9 13 93 14 10 16 12 17 7 18 6 19 1 20 2 21 3 22 94 23
REMARK SMILES IDX 4 24 5 25 23 26 24 27 25 28 26 29 27 30 28 31 29 32 30 33
REMARK SMILES IDX 31 34 92 35 32 36 91 37 33 38 34 39 35 40 85 41 36 42 90 43
REMARK SMILES IDX 84 44 86 45 37 46 89 47 83 48 82 49 38 51 70 52 50 53 69 54
REMARK SMILES IDX 51 55 54 56 68 57 87 58 52 59 53 60 67 62 88 63 55 64 39 65
REMARK SMILES IDX 40 66 48 67 41 68 43 69 49 70 42 71 44 72 45 73 46 74 47 75
REMARK SMILES IDX 71 76 72 77 80 78 73 79 75 80 81 81 74 82 76 83 77 84 78 85
REMARK SMILES IDX 79 86 56 87 57 88 65 89 58 90 60 91 66 92 59 93 61 94 62 95
REMARK SMILES IDX 63 96 64 97
REMARK H PARENT 8 15 86 50 54 61
REMARK Flexibility Score: inf
ROOT
ATOM      1  C   UNL A   1      32.578  25.812  23.059  1.00  0.00     0.188 C 
ENDROOT
BRANCH   1   2
ATOM      2  O   UNL A   1      31.683  26.649  22.366  1.00  0.00    -0.377 OA
BRANCH   2   3
ATOM      3  C   UNL A   1      30.433  26.909  22.963  1.00  0.00     0.188 C 
BRANCH   3   4
ATOM      4  C   UNL A   1      29.882  25.767  23.825  1.00  0.00     0.188 C 
BRANCH   4   5
ATOM      5  O   UNL A   1      29.670  26.034  25.212  1.00  0.00    -0.376 OA
BRANCH   5   6
ATOM      6  C   UNL A   1      30.159  25.094  26.170  1.00  0.00     0.202 C 
BRANCH   6   7
ATOM      7  C   UNL A   1      30.760  23.790  25.636  1.00  0.00     0.261 C 
BRANCH   7   8
ATOM      8  O   UNL A   1      31.805  23.282  26.490  1.00  0.00    -0.463 OA
BRANCH   8   9
ATOM      9  C   UNL A   1      33.065  23.725  26.271  1.00  0.00     0.317 C 
ATOM     10  O   UNL A   1      33.435  24.870  26.520  1.00  0.00    -0.251 OA
BRANCH   9  11
ATOM     11  C   UNL A   1      34.018  22.666  25.700  1.00  0.00     0.119 C 
ATOM     12  N   UNL A   1      33.501  20.709  24.417  1.00  0.00    -0.329 N 
ATOM     13  C   UNL A   1      33.168  21.865  23.600  1.00  0.00     0.263 C 
ATOM     14  C   UNL A   1      33.574  21.192  25.803  1.00  0.00     0.281 C 
ATOM     15  H   UNL A   1      34.401  20.323  24.131  1.00  0.00     0.348 HD
ATOM     16  C   UNL A   1      34.113  22.905  24.183  1.00  0.00     0.086 C 
ATOM     17  C   UNL A   1      35.371  22.865  26.399  1.00  0.00     0.030 C 
BRANCH  12  18
ATOM     18  C   UNL A   1      32.621  19.539  24.220  1.00  0.00     0.319 C 
BRANCH  18  19
ATOM     19  C   UNL A   1      33.173  18.172  24.598  1.00  0.00     0.095 A 
ATOM     20  C   UNL A   1      31.790  15.156  26.173  1.00  0.00     0.067 C 
ATOM     21  C   UNL A   1      32.772  16.069  25.515  1.00  0.00     0.038 A 
ATOM     22  C   UNL A   1      34.076  15.667  25.266  1.00  0.00     0.023 A 
ATOM     23  N   UNL A   1      32.319  17.306  25.204  1.00  0.00    -0.252 NA
ATOM     24  C   UNL A   1      34.949  16.569  24.669  1.00  0.00     0.004 A 
ATOM     25  C   UNL A   1      34.495  17.837  24.324  1.00  0.00     0.030 A 
ENDBRANCH  18  19
ENDBRANCH  12  18
ENDBRANCH   9  11
ENDBRANCH   8   9
ENDBRANCH   7   8
ENDBRANCH   6   7
ENDBRANCH   5   6
ENDBRANCH   4   5
ENDBRANCH   3   4
ENDBRANCH   2   3
ENDBRANCH   1   2
BRANCH   1  26
ATOM     26  C   UNL A   1      33.568  26.627  23.901  1.00  0.00     0.188 C 
BRANCH  26  27
ATOM     27  O   UNL A   1      33.908  27.956  23.513  1.00  0.00    -0.376 OA
BRANCH  27  28
ATOM     28  C   UNL A   1      33.034  29.039  23.820  1.00  0.00     0.202 C 
BRANCH  28  29
ATOM     29  C   UNL A   1      33.262  29.846  25.105  1.00  0.00     0.261 C 
BRANCH  29  30
ATOM     30  O   UNL A   1      34.245  29.318  26.014  1.00  0.00    -0.460 OA
BRANCH  30  31
ATOM     31  C   UNL A   1      34.191  29.808  27.272  1.00  0.00     0.338 C 
ATOM     32  O   UNL A   1      33.182  30.167  27.879  1.00  0.00    -0.246 OA
BRANCH  31  33
ATOM     33  C   UNL A   1      35.511  29.780  27.922  1.00  0.00     0.060 A 
ATOM     34  C   UNL A   1      36.653  29.881  27.115  1.00  0.00     0.016 A 
ATOM     35  C   UNL A   1      35.636  29.494  29.283  1.00  0.00     0.016 A 
ATOM     36  C   UNL A   1      37.919  29.647  27.656  1.00  0.00     0.010 A 
ATOM     37  C   UNL A   1      36.905  29.243  29.820  1.00  0.00     0.010 A 
ATOM     38  C   UNL A   1      38.049  29.277  29.001  1.00  0.00    -0.014 A 
BRANCH  38  39
ATOM     39  C   UNL A   1      39.343  28.742  29.500  1.00  0.00     0.031 A 
ATOM     40  C   UNL A   1      40.018  29.442  30.651  1.00  0.00     0.074 A 
ATOM     41  C   UNL A   1      39.915  27.654  28.954  1.00  0.00     0.049 A 
ATOM     42  N   UNL A   1      41.161  29.173  31.228  1.00  0.00    -0.248 NA
ATOM     43  C   UNL A   1      39.307  30.594  31.232  1.00  0.00     0.031 C 
ATOM     44  C   UNL A   1      39.358  26.874  27.854  1.00  0.00     0.029 A 
ATOM     45  N   UNL A   1      41.106  27.029  29.237  1.00  0.00    -0.354 N 
ATOM     46  C   UNL A   1      41.312  30.124  32.229  1.00  0.00     0.074 A 
ATOM     47  C   UNL A   1      40.154  30.989  32.171  1.00  0.00     0.031 C 
ATOM     48  C   UNL A   1      40.217  25.891  27.533  1.00  0.00     0.029 A 
ATOM     49  C   UNL A   1      41.397  25.987  28.389  1.00  0.00     0.049 A 
ATOM     50  H   UNL A   1      41.693  27.302  29.978  1.00  0.00     0.167 HD
ATOM     51  C   UNL A   1      42.314  30.257  33.131  1.00  0.00     0.034 A 
ATOM     52  C   UNL A   1      42.499  25.214  28.298  1.00  0.00     0.034 A 
ATOM     53  C   UNL A   1      43.468  29.402  33.194  1.00  0.00     0.049 A 
ATOM     54  C   UNL A   1      43.629  25.426  29.275  1.00  0.00     0.074 A 
ATOM     55  C   UNL A   1      44.533  29.458  34.075  1.00  0.00     0.029 A 
ATOM     56  N   UNL A   1      43.713  28.340  32.338  1.00  0.00    -0.354 N 
ATOM     57  N   UNL A   1      43.706  26.261  30.281  1.00  0.00    -0.248 NA
ATOM     58  C   UNL A   1      44.813  24.565  29.122  1.00  0.00     0.031 C 
ATOM     59  C   UNL A   1      45.430  28.438  33.743  1.00  0.00     0.029 A 
ATOM     60  C   UNL A   1      44.913  27.734  32.668  1.00  0.00     0.049 A 
ATOM     61  H   UNL A   1      43.121  28.058  31.604  1.00  0.00     0.167 HD
ATOM     62  C   UNL A   1      44.920  25.994  30.908  1.00  0.00     0.074 A 
ATOM     63  C   UNL A   1      45.537  24.907  30.177  1.00  0.00     0.031 C 
ATOM     64  C   UNL A   1      45.481  26.604  31.981  1.00  0.00     0.034 A 
BRANCH  51  65
ATOM     65  C   UNL A   1      42.186  31.351  34.157  1.00  0.00     0.023 A 
ATOM     66  C   UNL A   1      41.532  31.076  35.375  1.00  0.00     0.012 A 
ATOM     67  C   UNL A   1      42.764  32.618  33.950  1.00  0.00     0.148 A 
ATOM     68  C   UNL A   1      41.432  32.056  36.363  1.00  0.00     0.002 A 
ATOM     69  C   UNL A   1      42.695  33.576  34.955  1.00  0.00     0.091 A 
ATOM     70  F   UNL A   1      43.363  32.862  32.776  1.00  0.00    -0.205 F 
ATOM     71  C   UNL A   1      42.022  33.300  36.157  1.00  0.00     0.022 A 
BRANCH  69  72
ATOM     72  S   UNL A   1      43.484  35.184  34.818  1.00  0.00     0.127 S 
ATOM     73  O   UNL A   1      44.125  35.309  36.126  1.00  0.00    -0.237 OA
ATOM     74  O   UNL A   1      44.408  34.978  33.703  1.00  0.00    -0.237 OA
ATOM     75  O   UNL A   1      42.414  36.135  34.555  1.00  0.00    -0.744 OA
ENDBRANCH  69  72
ENDBRANCH  51  65
BRANCH  52  76
ATOM     76  C   UNL A   1      42.587  24.137  27.268  1.00  0.00     0.023 A 
ATOM     77  C   UNL A   1      43.191  24.414  26.025  1.00  0.00     0.012 A 
ATOM     78  C   UNL A   1      42.061  22.852  27.500  1.00  0.00     0.148 A 
ATOM     79  C   UNL A   1      43.226  23.447  25.019  1.00  0.00     0.002 A 
ATOM     80  C   UNL A   1      42.155  21.874  26.515  1.00  0.00     0.091 A 
ATOM     81  F   UNL A   1      41.468  22.606  28.678  1.00  0.00    -0.205 F 
ATOM     82  C   UNL A   1      42.717  22.175  25.267  1.00  0.00     0.022 A 
BRANCH  80  83
ATOM     83  S   UNL A   1      41.658  20.174  26.814  1.00  0.00     0.127 S 
ATOM     84  O   UNL A   1      41.281  19.729  25.477  1.00  0.00    -0.237 OA
ATOM     85  O   UNL A   1      42.889  19.581  27.340  1.00  0.00    -0.237 OA
ATOM     86  O   UNL A   1      40.582  20.255  27.795  1.00  0.00    -0.744 OA
ENDBRANCH  80  83
ENDBRANCH  52  76
BRANCH  64  87
ATOM     87  C   UNL A   1      46.806  26.083  32.476  1.00  0.00     0.023 A 
ATOM     88  C   UNL A   1      48.004  26.673  32.029  1.00  0.00     0.012 A 
ATOM     89  C   UNL A   1      46.858  25.061  33.445  1.00  0.00     0.148 A 
ATOM     90  C   UNL A   1      49.236  26.234  32.515  1.00  0.00     0.002 A 
ATOM     91  C   UNL A   1      48.086  24.661  33.960  1.00  0.00     0.091 A 
ATOM     92  F   UNL A   1      45.708  24.498  33.845  1.00  0.00    -0.205 F 
ATOM     93  C   UNL A   1      49.276  25.238  33.488  1.00  0.00     0.022 A 
BRANCH  91  94
ATOM     94  S   UNL A   1      48.229  23.452  35.282  1.00  0.00     0.127 S 
ATOM     95  O   UNL A   1      47.726  22.242  34.634  1.00  0.00    -0.237 OA
ATOM     96  O   UNL A   1      49.669  23.450  35.546  1.00  0.00    -0.237 OA
ATOM     97  O   UNL A   1      47.416  23.960  36.378  1.00  0.00    -0.744 OA
ENDBRANCH  91  94
ENDBRANCH  64  87
ENDBRANCH  38  39
ENDBRANCH  31  33
ENDBRANCH  30  31
ENDBRANCH  29  30
ENDBRANCH  28  29
ENDBRANCH  27  28
ENDBRANCH  26  27
ENDBRANCH   1  26
TORSDOF 25
ENDMDL
