MODEL 1
REMARK VINA RESULT:      -8.5      0.000      0.000
REMARK SMILES CNC(=O)c1ccc(N(CCC(=O)OCCOCCOCCOCCOC(=O)c2ccc(-c3c4nc(c(-c5cccc(S(=O)(=O)[O-])c5F)c5ccc([nH]5)c(-c5cccc(S(=O)(=O)[O-])c5F)c5nc(c(-c6cccc(S(=O)(=O)[O-])c6F)c6ccc3[nH]6)C=C5)C=C4)cc2)C2CC2)nn1
REMARK SMILES IDX 19 1 18 2 17 3 16 4 15 5 14 6 12 7 13 8 11 9 10 10 9 11 8 12
REMARK SMILES IDX 5 13 6 14 96 15 7 16 95 17 3 18 1 19 2 20 4 22 92 23 93 24
REMARK SMILES IDX 94 25 20 26 21 27 22 28 23 29 24 30 25 31 26 32 27 33 28 34
REMARK SMILES IDX 29 35 30 36 91 37 31 38 90 39 32 40 33 41 34 42 84 43 35 44
REMARK SMILES IDX 89 45 83 46 85 47 36 48 88 49 82 50 81 51 37 53 69 54 49 55
REMARK SMILES IDX 68 56 50 57 53 58 67 59 86 60 51 61 52 62 66 64 87 65 54 66
REMARK SMILES IDX 38 67 39 68 47 69 40 70 42 71 48 72 41 73 43 74 44 75 45 76
REMARK SMILES IDX 46 77 70 78 71 79 79 80 72 81 74 82 80 83 73 84 75 85 76 86
REMARK SMILES IDX 77 87 78 88 55 89 56 90 64 91 57 92 59 93 65 94 58 95 60 96
REMARK SMILES IDX 61 97 62 98 63 99
REMARK H PARENT 2 21 85 52 53 63
REMARK Flexibility Score: inf
ROOT
ATOM      1  C   UNL A   1      39.671  21.821  26.740  1.00  0.00     0.188 C 
ENDROOT
BRANCH   1   2
ATOM      2  C   UNL A   1      39.237  23.243  26.398  1.00  0.00     0.188 C 
BRANCH   2   3
ATOM      3  O   UNL A   1      37.857  23.542  26.355  1.00  0.00    -0.376 OA
BRANCH   3   4
ATOM      4  C   UNL A   1      37.073  23.514  25.172  1.00  0.00     0.202 C 
BRANCH   4   5
ATOM      5  C   UNL A   1      35.819  24.368  24.947  1.00  0.00     0.261 C 
BRANCH   5   6
ATOM      6  O   UNL A   1      34.923  23.897  23.926  1.00  0.00    -0.463 OA
BRANCH   6   7
ATOM      7  C   UNL A   1      33.988  24.770  23.483  1.00  0.00     0.307 C 
ATOM      8  O   UNL A   1      34.066  25.344  22.398  1.00  0.00    -0.252 OA
BRANCH   7   9
ATOM      9  C   UNL A   1      32.832  25.049  24.429  1.00  0.00     0.144 C 
BRANCH   9  10
ATOM     10  C   UNL A   1      31.842  23.985  24.912  1.00  0.00     0.130 C 
BRANCH  10  11
ATOM     11  N   UNL A   1      32.421  22.817  25.616  1.00  0.00    -0.352 N 
BRANCH  11  12
ATOM     12  C   UNL A   1      32.328  21.584  24.926  1.00  0.00     0.151 A 
ATOM     13  C   UNL A   1      32.277  19.124  23.667  1.00  0.00     0.150 A 
ATOM     14  C   UNL A   1      32.344  20.256  22.892  1.00  0.00     0.040 A 
ATOM     15  N   UNL A   1      32.157  19.184  25.005  1.00  0.00    -0.143 NA
ATOM     16  C   UNL A   1      32.407  21.483  23.541  1.00  0.00     0.051 A 
ATOM     17  N   UNL A   1      32.169  20.427  25.619  1.00  0.00    -0.132 NA
BRANCH  13  18
ATOM     18  C   UNL A   1      32.566  17.804  23.069  1.00  0.00     0.271 C 
ATOM     19  C   UNL A   1      32.783  16.747  25.380  1.00  0.00     0.143 C 
ATOM     20  N   UNL A   1      32.842  16.755  23.924  1.00  0.00    -0.354 N 
ATOM     21  H   UNL A   1      33.111  15.909  23.498  1.00  0.00     0.163 HD
ATOM     22  O   UNL A   1      32.566  17.647  21.852  1.00  0.00    -0.267 OA
ENDBRANCH  13  18
ENDBRANCH  11  12
BRANCH  11  23
ATOM     23  C   UNL A   1      33.207  23.094  26.838  1.00  0.00     0.084 C 
ATOM     24  C   UNL A   1      32.934  22.407  28.146  1.00  0.00     0.027 C 
ATOM     25  C   UNL A   1      34.292  22.303  27.499  1.00  0.00     0.027 C 
ENDBRANCH  11  23
ENDBRANCH  10  11
ENDBRANCH   9  10
ENDBRANCH   7   9
ENDBRANCH   6   7
ENDBRANCH   5   6
ENDBRANCH   4   5
ENDBRANCH   3   4
ENDBRANCH   2   3
ENDBRANCH   1   2
BRANCH   1  26
ATOM     26  O   UNL A   1      40.847  21.243  26.224  1.00  0.00    -0.377 OA
BRANCH  26  27
ATOM     27  C   UNL A   1      42.022  22.020  26.135  1.00  0.00     0.188 C 
BRANCH  27  28
ATOM     28  C   UNL A   1      43.299  21.192  26.331  1.00  0.00     0.188 C 
BRANCH  28  29
ATOM     29  O   UNL A   1      44.193  20.946  25.244  1.00  0.00    -0.376 OA
BRANCH  29  30
ATOM     30  C   UNL A   1      45.485  21.531  25.240  1.00  0.00     0.202 C 
BRANCH  30  31
ATOM     31  C   UNL A   1      45.676  22.707  24.267  1.00  0.00     0.261 C 
BRANCH  31  32
ATOM     32  O   UNL A   1      45.542  24.024  24.825  1.00  0.00    -0.460 OA
BRANCH  32  33
ATOM     33  C   UNL A   1      44.291  24.548  24.792  1.00  0.00     0.338 C 
ATOM     34  O   UNL A   1      43.310  24.086  24.240  1.00  0.00    -0.246 OA
BRANCH  33  35
ATOM     35  C   UNL A   1      44.246  25.772  25.623  1.00  0.00     0.060 A 
ATOM     36  C   UNL A   1      45.423  26.215  26.237  1.00  0.00     0.016 A 
ATOM     37  C   UNL A   1      43.034  26.421  25.871  1.00  0.00     0.016 A 
ATOM     38  C   UNL A   1      45.388  27.285  27.135  1.00  0.00     0.010 A 
ATOM     39  C   UNL A   1      42.997  27.480  26.785  1.00  0.00     0.010 A 
ATOM     40  C   UNL A   1      44.166  27.894  27.450  1.00  0.00    -0.014 A 
BRANCH  40  41
ATOM     41  C   UNL A   1      44.074  28.829  28.600  1.00  0.00     0.031 A 
ATOM     42  C   UNL A   1      43.941  28.259  29.987  1.00  0.00     0.074 A 
ATOM     43  C   UNL A   1      44.088  30.162  28.420  1.00  0.00     0.049 A 
ATOM     44  N   UNL A   1      43.758  28.876  31.125  1.00  0.00    -0.248 NA
ATOM     45  C   UNL A   1      44.025  26.793  30.103  1.00  0.00     0.031 C 
ATOM     46  C   UNL A   1      44.235  30.840  27.134  1.00  0.00     0.029 A 
ATOM     47  N   UNL A   1      43.943  31.185  29.327  1.00  0.00    -0.354 N 
ATOM     48  C   UNL A   1      43.664  27.877  32.087  1.00  0.00     0.074 A 
ATOM     49  C   UNL A   1      43.809  26.612  31.399  1.00  0.00     0.031 C 
ATOM     50  C   UNL A   1      44.133  32.166  27.328  1.00  0.00     0.029 A 
ATOM     51  C   UNL A   1      43.880  32.429  28.744  1.00  0.00     0.049 A 
ATOM     52  H   UNL A   1      43.892  31.040  30.299  1.00  0.00     0.167 HD
ATOM     53  C   UNL A   1      43.482  27.998  33.423  1.00  0.00     0.034 A 
ATOM     54  C   UNL A   1      43.610  33.634  29.287  1.00  0.00     0.034 A 
ATOM     55  C   UNL A   1      43.352  29.255  34.108  1.00  0.00     0.049 A 
ATOM     56  C   UNL A   1      43.373  33.743  30.773  1.00  0.00     0.074 A 
ATOM     57  C   UNL A   1      43.206  29.484  35.465  1.00  0.00     0.029 A 
ATOM     58  N   UNL A   1      43.333  30.495  33.489  1.00  0.00    -0.354 N 
ATOM     59  N   UNL A   1      43.386  32.799  31.682  1.00  0.00    -0.248 NA
ATOM     60  C   UNL A   1      43.112  35.088  31.312  1.00  0.00     0.031 C 
ATOM     61  C   UNL A   1      43.058  30.860  35.662  1.00  0.00     0.029 A 
ATOM     62  C   UNL A   1      43.162  31.492  34.434  1.00  0.00     0.049 A 
ATOM     63  H   UNL A   1      43.428  30.645  32.521  1.00  0.00     0.167 HD
ATOM     64  C   UNL A   1      43.182  33.438  32.902  1.00  0.00     0.074 A 
ATOM     65  C   UNL A   1      43.057  34.851  32.616  1.00  0.00     0.031 C 
ATOM     66  C   UNL A   1      43.098  32.902  34.145  1.00  0.00     0.034 A 
BRANCH  53  67
ATOM     67  C   UNL A   1      43.415  26.734  34.240  1.00  0.00     0.023 A 
ATOM     68  C   UNL A   1      42.165  26.214  34.631  1.00  0.00     0.012 A 
ATOM     69  C   UNL A   1      44.590  26.031  34.571  1.00  0.00     0.148 A 
ATOM     70  C   UNL A   1      42.086  25.032  35.368  1.00  0.00     0.002 A 
ATOM     71  C   UNL A   1      44.501  24.829  35.263  1.00  0.00     0.091 A 
ATOM     72  F   UNL A   1      45.771  26.552  34.207  1.00  0.00    -0.205 F 
ATOM     73  C   UNL A   1      43.252  24.336  35.674  1.00  0.00     0.022 A 
BRANCH  71  74
ATOM     74  S   UNL A   1      45.938  23.816  35.632  1.00  0.00     0.127 S 
ATOM     75  O   UNL A   1      45.339  22.719  36.390  1.00  0.00    -0.237 OA
ATOM     76  O   UNL A   1      46.405  23.450  34.294  1.00  0.00    -0.237 OA
ATOM     77  O   UNL A   1      46.850  24.668  36.382  1.00  0.00    -0.744 OA
ENDBRANCH  71  74
ENDBRANCH  53  67
BRANCH  54  78
ATOM     78  C   UNL A   1      43.561  34.846  28.418  1.00  0.00     0.023 A 
ATOM     79  C   UNL A   1      42.323  35.308  27.931  1.00  0.00     0.012 A 
ATOM     80  C   UNL A   1      44.736  35.550  28.085  1.00  0.00     0.148 A 
ATOM     81  C   UNL A   1      42.261  36.428  27.100  1.00  0.00     0.002 A 
ATOM     82  C   UNL A   1      44.660  36.701  27.310  1.00  0.00     0.091 A 
ATOM     83  F   UNL A   1      45.907  35.087  28.545  1.00  0.00    -0.205 F 
ATOM     84  C   UNL A   1      43.426  37.130  26.799  1.00  0.00     0.022 A 
BRANCH  82  85
ATOM     85  S   UNL A   1      46.090  37.743  26.997  1.00  0.00     0.127 S 
ATOM     86  O   UNL A   1      46.827  36.958  26.011  1.00  0.00    -0.237 OA
ATOM     87  O   UNL A   1      45.468  38.962  26.478  1.00  0.00    -0.237 OA
ATOM     88  O   UNL A   1      46.751  37.919  28.285  1.00  0.00    -0.744 OA
ENDBRANCH  82  85
ENDBRANCH  54  78
BRANCH  66  89
ATOM     89  C   UNL A   1      42.924  33.839  35.313  1.00  0.00     0.023 A 
ATOM     90  C   UNL A   1      44.050  34.345  35.992  1.00  0.00     0.012 A 
ATOM     91  C   UNL A   1      41.638  34.295  35.673  1.00  0.00     0.148 A 
ATOM     92  C   UNL A   1      43.898  35.266  37.028  1.00  0.00     0.002 A 
ATOM     93  C   UNL A   1      41.499  35.252  36.670  1.00  0.00     0.091 A 
ATOM     94  F   UNL A   1      40.579  33.790  35.025  1.00  0.00    -0.205 F 
ATOM     95  C   UNL A   1      42.625  35.730  37.357  1.00  0.00     0.022 A 
BRANCH  93  96
ATOM     96  S   UNL A   1      39.912  35.982  37.092  1.00  0.00     0.127 S 
ATOM     97  O   UNL A   1      40.300  36.979  38.089  1.00  0.00    -0.237 OA
ATOM     98  O   UNL A   1      39.477  36.538  35.811  1.00  0.00    -0.237 OA
ATOM     99  O   UNL A   1      39.086  34.891  37.593  1.00  0.00    -0.744 OA
ENDBRANCH  93  96
ENDBRANCH  66  89
ENDBRANCH  40  41
ENDBRANCH  33  35
ENDBRANCH  32  33
ENDBRANCH  31  32
ENDBRANCH  30  31
ENDBRANCH  29  30
ENDBRANCH  28  29
ENDBRANCH  27  28
ENDBRANCH  26  27
ENDBRANCH   1  26
TORSDOF 28
ENDMDL
MODEL 2
REMARK VINA RESULT:      -7.7      5.424     13.428
REMARK SMILES CNC(=O)c1ccc(N(CCC(=O)OCCOCCOCCOCCOC(=O)c2ccc(-c3c4nc(c(-c5cccc(S(=O)(=O)[O-])c5F)c5ccc([nH]5)c(-c5cccc(S(=O)(=O)[O-])c5F)c5nc(c(-c6cccc(S(=O)(=O)[O-])c6F)c6ccc3[nH]6)C=C5)C=C4)cc2)C2CC2)nn1
REMARK SMILES IDX 19 1 18 2 17 3 16 4 15 5 14 6 12 7 13 8 11 9 10 10 9 11 8 12
REMARK SMILES IDX 5 13 6 14 96 15 7 16 95 17 3 18 1 19 2 20 4 22 92 23 93 24
REMARK SMILES IDX 94 25 20 26 21 27 22 28 23 29 24 30 25 31 26 32 27 33 28 34
REMARK SMILES IDX 29 35 30 36 91 37 31 38 90 39 32 40 33 41 34 42 84 43 35 44
REMARK SMILES IDX 89 45 83 46 85 47 36 48 88 49 82 50 81 51 37 53 69 54 49 55
REMARK SMILES IDX 68 56 50 57 53 58 67 59 86 60 51 61 52 62 66 64 87 65 54 66
REMARK SMILES IDX 38 67 39 68 47 69 40 70 42 71 48 72 41 73 43 74 44 75 45 76
REMARK SMILES IDX 46 77 70 78 71 79 79 80 72 81 74 82 80 83 73 84 75 85 76 86
REMARK SMILES IDX 77 87 78 88 55 89 56 90 64 91 57 92 59 93 65 94 58 95 60 96
REMARK SMILES IDX 61 97 62 98 63 99
REMARK H PARENT 2 21 85 52 53 63
REMARK Flexibility Score: inf
ROOT
ATOM      1  C   UNL A   1      37.162  31.739  40.848  1.00  0.00     0.188 C 
ENDROOT
BRANCH   1   2
ATOM      2  C   UNL A   1      36.345  31.547  39.574  1.00  0.00     0.188 C 
BRANCH   2   3
ATOM      3  O   UNL A   1      36.536  32.445  38.501  1.00  0.00    -0.376 OA
BRANCH   3   4
ATOM      4  C   UNL A   1      37.639  32.396  37.608  1.00  0.00     0.202 C 
BRANCH   4   5
ATOM      5  C   UNL A   1      37.720  33.177  36.291  1.00  0.00     0.261 C 
BRANCH   5   6
ATOM      6  O   UNL A   1      36.516  33.193  35.505  1.00  0.00    -0.463 OA
BRANCH   6   7
ATOM      7  C   UNL A   1      36.641  32.903  34.189  1.00  0.00     0.307 C 
ATOM      8  O   UNL A   1      36.644  31.753  33.752  1.00  0.00    -0.252 OA
BRANCH   7   9
ATOM      9  C   UNL A   1      36.828  34.088  33.258  1.00  0.00     0.144 C 
BRANCH   9  10
ATOM     10  C   UNL A   1      37.774  34.093  32.053  1.00  0.00     0.130 C 
BRANCH  10  11
ATOM     11  N   UNL A   1      37.356  33.287  30.883  1.00  0.00    -0.352 N 
BRANCH  11  12
ATOM     12  C   UNL A   1      38.071  32.081  30.687  1.00  0.00     0.151 A 
ATOM     13  C   UNL A   1      39.525  29.791  30.163  1.00  0.00     0.150 A 
ATOM     14  C   UNL A   1      38.176  29.672  30.391  1.00  0.00     0.040 A 
ATOM     15  N   UNL A   1      40.164  30.970  30.265  1.00  0.00    -0.143 NA
ATOM     16  C   UNL A   1      37.453  30.837  30.615  1.00  0.00     0.051 A 
ATOM     17  N   UNL A   1      39.421  32.107  30.543  1.00  0.00    -0.132 NA
BRANCH  13  18
ATOM     18  C   UNL A   1      40.275  28.662  29.573  1.00  0.00     0.271 C 
ATOM     19  C   UNL A   1      39.507  29.308  27.229  1.00  0.00     0.143 C 
ATOM     20  N   UNL A   1      40.180  28.467  28.210  1.00  0.00    -0.354 N 
ATOM     21  H   UNL A   1      40.622  27.661  27.856  1.00  0.00     0.163 HD
ATOM     22  O   UNL A   1      40.955  27.918  30.274  1.00  0.00    -0.267 OA
ENDBRANCH  13  18
ENDBRANCH  11  12
BRANCH  11  23
ATOM     23  C   UNL A   1      36.122  33.713  30.185  1.00  0.00     0.084 C 
ATOM     24  C   UNL A   1      35.414  32.836  29.193  1.00  0.00     0.027 C 
ATOM     25  C   UNL A   1      34.693  33.339  30.418  1.00  0.00     0.027 C 
ENDBRANCH  11  23
ENDBRANCH  10  11
ENDBRANCH   9  10
ENDBRANCH   7   9
ENDBRANCH   6   7
ENDBRANCH   5   6
ENDBRANCH   4   5
ENDBRANCH   3   4
ENDBRANCH   2   3
ENDBRANCH   1   2
BRANCH   1  26
ATOM     26  O   UNL A   1      38.562  31.890  40.835  1.00  0.00    -0.377 OA
BRANCH  26  27
ATOM     27  C   UNL A   1      39.133  33.111  41.255  1.00  0.00     0.188 C 
BRANCH  27  28
ATOM     28  C   UNL A   1      38.225  34.317  40.980  1.00  0.00     0.188 C 
BRANCH  28  29
ATOM     29  O   UNL A   1      38.617  35.638  41.360  1.00  0.00    -0.376 OA
BRANCH  29  30
ATOM     30  C   UNL A   1      38.697  36.664  40.383  1.00  0.00     0.202 C 
BRANCH  30  31
ATOM     31  C   UNL A   1      40.091  36.891  39.775  1.00  0.00     0.261 C 
BRANCH  31  32
ATOM     32  O   UNL A   1      40.446  36.053  38.663  1.00  0.00    -0.460 OA
BRANCH  32  33
ATOM     33  C   UNL A   1      41.684  36.257  38.149  1.00  0.00     0.338 C 
ATOM     34  O   UNL A   1      42.428  37.196  38.362  1.00  0.00    -0.246 OA
BRANCH  33  35
ATOM     35  C   UNL A   1      42.072  35.095  37.318  1.00  0.00     0.060 A 
ATOM     36  C   UNL A   1      43.429  34.885  37.041  1.00  0.00     0.016 A 
ATOM     37  C   UNL A   1      41.099  34.278  36.736  1.00  0.00     0.016 A 
ATOM     38  C   UNL A   1      43.816  33.880  36.150  1.00  0.00     0.010 A 
ATOM     39  C   UNL A   1      41.488  33.285  35.830  1.00  0.00     0.010 A 
ATOM     40  C   UNL A   1      42.846  33.106  35.503  1.00  0.00    -0.014 A 
BRANCH  40  41
ATOM     41  C   UNL A   1      43.224  32.241  34.357  1.00  0.00     0.031 A 
ATOM     42  C   UNL A   1      43.272  32.847  32.979  1.00  0.00     0.074 A 
ATOM     43  C   UNL A   1      43.502  30.936  34.527  1.00  0.00     0.049 A 
ATOM     44  N   UNL A   1      43.489  32.271  31.826  1.00  0.00    -0.248 NA
ATOM     45  C   UNL A   1      43.042  34.299  32.894  1.00  0.00     0.031 C 
ATOM     46  C   UNL A   1      43.514  30.235  35.809  1.00  0.00     0.029 A 
ATOM     47  N   UNL A   1      43.798  29.960  33.605  1.00  0.00    -0.354 N 
ATOM     48  C   UNL A   1      43.383  33.279  30.873  1.00  0.00     0.074 A 
ATOM     49  C   UNL A   1      43.080  34.502  31.584  1.00  0.00     0.031 C 
ATOM     50  C   UNL A   1      43.763  28.932  35.588  1.00  0.00     0.029 A 
ATOM     51  C   UNL A   1      43.893  28.702  34.150  1.00  0.00     0.049 A 
ATOM     52  H   UNL A   1      43.929  30.146  32.647  1.00  0.00     0.167 HD
ATOM     53  C   UNL A   1      43.531  33.197  29.530  1.00  0.00     0.034 A 
ATOM     54  C   UNL A   1      44.032  27.500  33.553  1.00  0.00     0.034 A 
ATOM     55  C   UNL A   1      43.845  31.984  28.826  1.00  0.00     0.049 A 
ATOM     56  C   UNL A   1      44.158  27.427  32.052  1.00  0.00     0.074 A 
ATOM     57  C   UNL A   1      44.056  31.807  27.469  1.00  0.00     0.029 A 
ATOM     58  N   UNL A   1      43.975  30.737  29.417  1.00  0.00    -0.354 N 
ATOM     59  N   UNL A   1      44.154  28.401  31.175  1.00  0.00    -0.248 NA
ATOM     60  C   UNL A   1      44.336  26.091  31.459  1.00  0.00     0.031 C 
ATOM     61  C   UNL A   1      44.274  30.446  27.236  1.00  0.00     0.029 A 
ATOM     62  C   UNL A   1      44.247  29.783  28.452  1.00  0.00     0.049 A 
ATOM     63  H   UNL A   1      43.886  30.556  30.380  1.00  0.00     0.167 HD
ATOM     64  C   UNL A   1      44.374  27.804  29.936  1.00  0.00     0.074 A 
ATOM     65  C   UNL A   1      44.516  26.385  30.178  1.00  0.00     0.031 C 
ATOM     66  C   UNL A   1      44.444  28.380  28.710  1.00  0.00     0.034 A 
BRANCH  53  67
ATOM     67  C   UNL A   1      43.358  34.460  28.727  1.00  0.00     0.023 A 
ATOM     68  C   UNL A   1      42.064  34.945  28.448  1.00  0.00     0.012 A 
ATOM     69  C   UNL A   1      44.479  35.197  28.299  1.00  0.00     0.148 A 
ATOM     70  C   UNL A   1      41.889  36.125  27.725  1.00  0.00     0.002 A 
ATOM     71  C   UNL A   1      44.298  36.397  27.621  1.00  0.00     0.091 A 
ATOM     72  F   UNL A   1      45.701  34.709  28.557  1.00  0.00    -0.205 F 
ATOM     73  C   UNL A   1      43.004  36.854  27.322  1.00  0.00     0.022 A 
BRANCH  71  74
ATOM     74  S   UNL A   1      45.668  37.450  27.134  1.00  0.00     0.127 S 
ATOM     75  O   UNL A   1      44.968  38.593  26.548  1.00  0.00    -0.237 OA
ATOM     76  O   UNL A   1      46.315  37.724  28.418  1.00  0.00    -0.237 OA
ATOM     77  O   UNL A   1      46.469  36.666  26.205  1.00  0.00    -0.744 OA
ENDBRANCH  71  74
ENDBRANCH  53  67
BRANCH  54  78
ATOM     78  C   UNL A   1      44.072  26.259  34.381  1.00  0.00     0.023 A 
ATOM     79  C   UNL A   1      42.870  25.618  34.737  1.00  0.00     0.012 A 
ATOM     80  C   UNL A   1      45.298  25.706  34.803  1.00  0.00     0.148 A 
ATOM     81  C   UNL A   1      42.887  24.467  35.528  1.00  0.00     0.002 A 
ATOM     82  C   UNL A   1      45.310  24.526  35.537  1.00  0.00     0.091 A 
ATOM     83  F   UNL A   1      46.430  26.339  34.468  1.00  0.00    -0.205 F 
ATOM     84  C   UNL A   1      44.105  23.916  35.919  1.00  0.00     0.022 A 
BRANCH  82  85
ATOM     85  S   UNL A   1      46.835  23.673  35.955  1.00  0.00     0.127 S 
ATOM     86  O   UNL A   1      46.392  22.753  36.999  1.00  0.00    -0.237 OA
ATOM     87  O   UNL A   1      47.189  23.043  34.683  1.00  0.00    -0.237 OA
ATOM     88  O   UNL A   1      47.771  24.707  36.382  1.00  0.00    -0.744 OA
ENDBRANCH  82  85
ENDBRANCH  54  78
BRANCH  66  89
ATOM     89  C   UNL A   1      44.750  27.496  27.527  1.00  0.00     0.023 A 
ATOM     90  C   UNL A   1      46.037  27.496  26.953  1.00  0.00     0.012 A 
ATOM     91  C   UNL A   1      43.781  26.590  27.048  1.00  0.00     0.148 A 
ATOM     92  C   UNL A   1      46.345  26.631  25.904  1.00  0.00     0.002 A 
ATOM     93  C   UNL A   1      44.111  25.695  26.039  1.00  0.00     0.091 A 
ATOM     94  F   UNL A   1      42.558  26.616  27.597  1.00  0.00    -0.205 F 
ATOM     95  C   UNL A   1      45.388  25.721  25.457  1.00  0.00     0.022 A 
BRANCH  93  96
ATOM     96  S   UNL A   1      42.978  24.422  25.469  1.00  0.00     0.127 S 
ATOM     97  O   UNL A   1      41.847  25.221  24.999  1.00  0.00    -0.237 OA
ATOM     98  O   UNL A   1      43.750  23.774  24.409  1.00  0.00    -0.237 OA
ATOM     99  O   UNL A   1      42.705  23.577  26.624  1.00  0.00    -0.744 OA
ENDBRANCH  93  96
ENDBRANCH  66  89
ENDBRANCH  40  41
ENDBRANCH  33  35
ENDBRANCH  32  33
ENDBRANCH  31  32
ENDBRANCH  30  31
ENDBRANCH  29  30
ENDBRANCH  28  29
ENDBRANCH  27  28
ENDBRANCH  26  27
ENDBRANCH   1  26
TORSDOF 28
ENDMDL
MODEL 3
REMARK VINA RESULT:      -7.5      5.609     10.222
REMARK SMILES CNC(=O)c1ccc(N(CCC(=O)OCCOCCOCCOCCOC(=O)c2ccc(-c3c4nc(c(-c5cccc(S(=O)(=O)[O-])c5F)c5ccc([nH]5)c(-c5cccc(S(=O)(=O)[O-])c5F)c5nc(c(-c6cccc(S(=O)(=O)[O-])c6F)c6ccc3[nH]6)C=C5)C=C4)cc2)C2CC2)nn1
REMARK SMILES IDX 19 1 18 2 17 3 16 4 15 5 14 6 12 7 13 8 11 9 10 10 9 11 8 12
REMARK SMILES IDX 5 13 6 14 96 15 7 16 95 17 3 18 1 19 2 20 4 22 92 23 93 24
REMARK SMILES IDX 94 25 20 26 21 27 22 28 23 29 24 30 25 31 26 32 27 33 28 34
REMARK SMILES IDX 29 35 30 36 91 37 31 38 90 39 32 40 33 41 34 42 84 43 35 44
REMARK SMILES IDX 89 45 83 46 85 47 36 48 88 49 82 50 81 51 37 53 69 54 49 55
REMARK SMILES IDX 68 56 50 57 53 58 67 59 86 60 51 61 52 62 66 64 87 65 54 66
REMARK SMILES IDX 38 67 39 68 47 69 40 70 42 71 48 72 41 73 43 74 44 75 45 76
REMARK SMILES IDX 46 77 70 78 71 79 79 80 72 81 74 82 80 83 73 84 75 85 76 86
REMARK SMILES IDX 77 87 78 88 55 89 56 90 64 91 57 92 59 93 65 94 58 95 60 96
REMARK SMILES IDX 61 97 62 98 63 99
REMARK H PARENT 2 21 85 52 53 63
REMARK Flexibility Score: inf
ROOT
ATOM      1  C   UNL A   1      33.992  25.162  24.682  1.00  0.00     0.188 C 
ENDROOT
BRANCH   1   2
ATOM      2  C   UNL A   1      33.269  26.309  23.984  1.00  0.00     0.188 C 
BRANCH   2   3
ATOM      3  O   UNL A   1      33.303  27.593  24.571  1.00  0.00    -0.376 OA
BRANCH   3   4
ATOM      4  C   UNL A   1      33.754  27.854  25.892  1.00  0.00     0.202 C 
BRANCH   4   5
ATOM      5  C   UNL A   1      34.060  29.253  26.439  1.00  0.00     0.261 C 
BRANCH   5   6
ATOM      6  O   UNL A   1      34.445  29.308  27.824  1.00  0.00    -0.463 OA
BRANCH   6   7
ATOM      7  C   UNL A   1      35.689  29.765  28.095  1.00  0.00     0.307 C 
ATOM      8  O   UNL A   1      36.593  29.785  27.261  1.00  0.00    -0.252 OA
BRANCH   7   9
ATOM      9  C   UNL A   1      35.938  30.222  29.522  1.00  0.00     0.144 C 
BRANCH   9  10
ATOM     10  C   UNL A   1      36.560  31.572  29.895  1.00  0.00     0.130 C 
BRANCH  10  11
ATOM     11  N   UNL A   1      36.169  32.138  31.207  1.00  0.00    -0.352 N 
BRANCH  11  12
ATOM     12  C   UNL A   1      35.425  33.341  31.152  1.00  0.00     0.151 A 
ATOM     13  C   UNL A   1      33.906  35.650  31.193  1.00  0.00     0.150 A 
ATOM     14  C   UNL A   1      33.805  34.817  30.105  1.00  0.00     0.040 A 
ATOM     15  N   UNL A   1      34.775  35.412  32.192  1.00  0.00    -0.143 NA
ATOM     16  C   UNL A   1      34.546  33.642  30.117  1.00  0.00     0.051 A 
ATOM     17  N   UNL A   1      35.539  34.257  32.149  1.00  0.00    -0.132 NA
BRANCH  13  18
ATOM     18  C   UNL A   1      32.898  36.709  31.407  1.00  0.00     0.271 C 
ATOM     19  C   UNL A   1      31.515  35.166  32.893  1.00  0.00     0.143 C 
ATOM     20  N   UNL A   1      31.787  36.399  32.166  1.00  0.00    -0.354 N 
ATOM     21  H   UNL A   1      31.094  37.096  32.224  1.00  0.00     0.163 HD
ATOM     22  O   UNL A   1      33.042  37.826  30.920  1.00  0.00    -0.267 OA
ENDBRANCH  13  18
ENDBRANCH  11  12
BRANCH  11  23
ATOM     23  C   UNL A   1      36.406  31.293  32.398  1.00  0.00     0.084 C 
ATOM     24  C   UNL A   1      37.684  30.530  32.604  1.00  0.00     0.027 C 
ATOM     25  C   UNL A   1      37.227  31.543  33.623  1.00  0.00     0.027 C 
ENDBRANCH  11  23
ENDBRANCH  10  11
ENDBRANCH   9  10
ENDBRANCH   7   9
ENDBRANCH   6   7
ENDBRANCH   5   6
ENDBRANCH   4   5
ENDBRANCH   3   4
ENDBRANCH   2   3
ENDBRANCH   1   2
BRANCH   1  26
ATOM     26  O   UNL A   1      34.730  24.191  23.978  1.00  0.00    -0.377 OA
BRANCH  26  27
ATOM     27  C   UNL A   1      35.086  22.987  24.623  1.00  0.00     0.188 C 
BRANCH  27  28
ATOM     28  C   UNL A   1      36.311  23.139  25.534  1.00  0.00     0.188 C 
BRANCH  28  29
ATOM     29  O   UNL A   1      37.620  22.796  25.075  1.00  0.00    -0.376 OA
BRANCH  29  30
ATOM     30  C   UNL A   1      38.194  21.549  25.431  1.00  0.00     0.202 C 
BRANCH  30  31
ATOM     31  C   UNL A   1      39.468  21.629  26.290  1.00  0.00     0.261 C 
BRANCH  31  32
ATOM     32  O   UNL A   1      40.654  22.100  25.629  1.00  0.00    -0.460 OA
BRANCH  32  33
ATOM     33  C   UNL A   1      41.827  21.717  26.193  1.00  0.00     0.338 C 
ATOM     34  O   UNL A   1      42.349  20.619  26.144  1.00  0.00    -0.246 OA
BRANCH  33  35
ATOM     35  C   UNL A   1      42.468  22.885  26.840  1.00  0.00     0.060 A 
ATOM     36  C   UNL A   1      42.576  24.081  26.120  1.00  0.00     0.016 A 
ATOM     37  C   UNL A   1      43.042  22.771  28.108  1.00  0.00     0.016 A 
ATOM     38  C   UNL A   1      43.295  25.157  26.649  1.00  0.00     0.010 A 
ATOM     39  C   UNL A   1      43.778  23.842  28.628  1.00  0.00     0.010 A 
ATOM     40  C   UNL A   1      43.939  25.027  27.886  1.00  0.00    -0.014 A 
BRANCH  40  41
ATOM     41  C   UNL A   1      44.928  26.046  28.322  1.00  0.00     0.031 A 
ATOM     42  C   UNL A   1      44.461  27.172  29.207  1.00  0.00     0.074 A 
ATOM     43  C   UNL A   1      46.212  25.988  27.930  1.00  0.00     0.049 A 
ATOM     44  N   UNL A   1      45.119  28.216  29.637  1.00  0.00    -0.248 NA
ATOM     45  C   UNL A   1      43.062  27.111  29.663  1.00  0.00     0.031 C 
ATOM     46  C   UNL A   1      46.794  24.939  27.096  1.00  0.00     0.029 A 
ATOM     47  N   UNL A   1      47.254  26.855  28.158  1.00  0.00    -0.354 N 
ATOM     48  C   UNL A   1      44.208  28.958  30.382  1.00  0.00     0.074 A 
ATOM     49  C   UNL A   1      42.950  28.244  30.342  1.00  0.00     0.031 C 
ATOM     50  C   UNL A   1      48.080  25.244  26.848  1.00  0.00     0.029 A 
ATOM     51  C   UNL A   1      48.402  26.525  27.477  1.00  0.00     0.049 A 
ATOM     52  H   UNL A   1      47.184  27.636  28.753  1.00  0.00     0.167 HD
ATOM     53  C   UNL A   1      44.400  30.122  31.045  1.00  0.00     0.034 A 
ATOM     54  C   UNL A   1      49.563  27.198  27.344  1.00  0.00     0.034 A 
ATOM     55  C   UNL A   1      45.654  30.823  31.095  1.00  0.00     0.049 A 
ATOM     56  C   UNL A   1      49.744  28.513  28.062  1.00  0.00     0.074 A 
ATOM     57  C   UNL A   1      45.960  31.990  31.775  1.00  0.00     0.029 A 
ATOM     58  N   UNL A   1      46.805  30.436  30.426  1.00  0.00    -0.354 N 
ATOM     59  N   UNL A   1      48.905  29.151  28.841  1.00  0.00    -0.248 NA
ATOM     60  C   UNL A   1      51.043  29.188  27.904  1.00  0.00     0.031 C 
ATOM     61  C   UNL A   1      47.285  32.329  31.484  1.00  0.00     0.029 A 
ATOM     62  C   UNL A   1      47.819  31.349  30.663  1.00  0.00     0.049 A 
ATOM     63  H   UNL A   1      46.889  29.632  29.865  1.00  0.00     0.167 HD
ATOM     64  C   UNL A   1      49.587  30.273  29.303  1.00  0.00     0.074 A 
ATOM     65  C   UNL A   1      50.912  30.224  28.722  1.00  0.00     0.031 C 
ATOM     66  C   UNL A   1      49.152  31.259  30.127  1.00  0.00     0.034 A 
BRANCH  53  67
ATOM     67  C   UNL A   1      43.225  30.715  31.777  1.00  0.00     0.023 A 
ATOM     68  C   UNL A   1      42.975  30.354  33.116  1.00  0.00     0.012 A 
ATOM     69  C   UNL A   1      42.402  31.674  31.155  1.00  0.00     0.148 A 
ATOM     70  C   UNL A   1      41.903  30.912  33.814  1.00  0.00     0.002 A 
ATOM     71  C   UNL A   1      41.366  32.262  31.871  1.00  0.00     0.091 A 
ATOM     72  F   UNL A   1      42.644  31.989  29.874  1.00  0.00    -0.205 F 
ATOM     73  C   UNL A   1      41.108  31.873  33.195  1.00  0.00     0.022 A 
BRANCH  71  74
ATOM     74  S   UNL A   1      40.338  33.568  31.190  1.00  0.00     0.127 S 
ATOM     75  O   UNL A   1      39.705  32.886  30.062  1.00  0.00    -0.237 OA
ATOM     76  O   UNL A   1      39.439  33.862  32.307  1.00  0.00    -0.237 OA
ATOM     77  O   UNL A   1      41.243  34.651  30.836  1.00  0.00    -0.744 OA
ENDBRANCH  71  74
ENDBRANCH  53  67
BRANCH  54  78
ATOM     78  C   UNL A   1      50.659  26.633  26.504  1.00  0.00     0.023 A 
ATOM     79  C   UNL A   1      51.429  25.559  26.990  1.00  0.00     0.012 A 
ATOM     80  C   UNL A   1      50.929  27.147  25.220  1.00  0.00     0.148 A 
ATOM     81  C   UNL A   1      52.471  25.031  26.226  1.00  0.00     0.002 A 
ATOM     82  C   UNL A   1      51.927  26.576  24.439  1.00  0.00     0.091 A 
ATOM     83  F   UNL A   1      50.197  28.180  24.780  1.00  0.00    -0.205 F 
ATOM     84  C   UNL A   1      52.714  25.531  24.949  1.00  0.00     0.022 A 
BRANCH  82  85
ATOM     85  S   UNL A   1      52.207  27.063  22.733  1.00  0.00     0.127 S 
ATOM     86  O   UNL A   1      53.209  26.093  22.301  1.00  0.00    -0.237 OA
ATOM     87  O   UNL A   1      50.879  26.884  22.145  1.00  0.00    -0.237 OA
ATOM     88  O   UNL A   1      52.651  28.451  22.777  1.00  0.00    -0.744 OA
ENDBRANCH  82  85
ENDBRANCH  54  78
BRANCH  66  89
ATOM     89  C   UNL A   1      50.126  32.343  30.513  1.00  0.00     0.023 A 
ATOM     90  C   UNL A   1      51.030  32.141  31.575  1.00  0.00     0.012 A 
ATOM     91  C   UNL A   1      50.208  33.529  29.753  1.00  0.00     0.148 A 
ATOM     92  C   UNL A   1      51.980  33.112  31.892  1.00  0.00     0.002 A 
ATOM     93  C   UNL A   1      51.191  34.467  30.041  1.00  0.00     0.091 A 
ATOM     94  F   UNL A   1      49.330  33.709  28.757  1.00  0.00    -0.205 F 
ATOM     95  C   UNL A   1      52.069  34.268  31.117  1.00  0.00     0.022 A 
BRANCH  93  96
ATOM     96  S   UNL A   1      51.447  35.935  29.037  1.00  0.00     0.127 S 
ATOM     97  O   UNL A   1      52.560  36.580  29.734  1.00  0.00    -0.237 OA
ATOM     98  O   UNL A   1      51.791  35.363  27.736  1.00  0.00    -0.237 OA
ATOM     99  O   UNL A   1      50.189  36.669  29.065  1.00  0.00    -0.744 OA
ENDBRANCH  93  96
ENDBRANCH  66  89
ENDBRANCH  40  41
ENDBRANCH  33  35
ENDBRANCH  32  33
ENDBRANCH  31  32
ENDBRANCH  30  31
ENDBRANCH  29  30
ENDBRANCH  28  29
ENDBRANCH  27  28
ENDBRANCH  26  27
ENDBRANCH   1  26
TORSDOF 28
ENDMDL
