MODEL 1
REMARK VINA RESULT:      -7.6      0.000      0.000
REMARK SMILES CC(C)CCc1cc2c(cc1Cl)C=C(C(=O)OCCOCCOCCOCCOC(=O)c1ccc(-c3c4nc(c(-c5cccc(S(=O)(=O)[O-])c5F)c5ccc([nH]5)c(-c5cccc(S(=O)(=O)[O-])c5F)c5nc(c(-c6cccc(S(=O)(=O)[O-])c6F)c6ccc3[nH]6)C=C5)C=C4)cc1)[C@@H](C(F)(F)F)O2
REMARK SMILES IDX 23 1 22 2 21 3 20 4 19 5 18 6 17 7 15 8 16 9 14 10 6 11 7 12
REMARK SMILES IDX 11 13 8 14 10 15 12 16 9 17 100 18 13 19 95 20 5 21 4 22
REMARK SMILES IDX 2 23 1 24 3 25 96 26 97 27 98 28 99 29 24 30 25 31 26 32
REMARK SMILES IDX 27 33 28 34 29 35 30 36 31 37 32 38 33 39 94 40 34 41 93 42
REMARK SMILES IDX 35 43 36 44 37 45 87 46 38 47 92 48 86 49 88 50 39 51 91 52
REMARK SMILES IDX 85 53 84 54 40 56 72 57 52 58 71 59 53 60 56 61 70 62 89 63
REMARK SMILES IDX 54 64 55 65 69 67 90 68 57 69 41 70 42 71 50 72 43 73 45 74
REMARK SMILES IDX 51 75 44 76 46 77 47 78 48 79 49 80 73 81 74 82 82 83 75 84
REMARK SMILES IDX 77 85 83 86 76 87 78 88 79 89 80 90 81 91 58 92 59 93 67 94
REMARK SMILES IDX 60 95 62 96 68 97 61 98 63 99 64 100 65 101 66 102
REMARK H PARENT 88 55 56 66
REMARK Flexibility Score: inf
ROOT
ATOM      1  O   UNL A   1      43.126  19.856  26.217  1.00  0.00    -0.377 OA
ENDROOT
BRANCH   1   2
ATOM      2  C   UNL A   1      41.881  20.521  26.096  1.00  0.00     0.188 C 
BRANCH   2   3
ATOM      3  C   UNL A   1      42.025  22.053  26.074  1.00  0.00     0.188 C 
BRANCH   3   4
ATOM      4  O   UNL A   1      42.289  22.611  27.357  1.00  0.00    -0.376 OA
BRANCH   4   5
ATOM      5  C   UNL A   1      41.911  23.968  27.572  1.00  0.00     0.202 C 
BRANCH   5   6
ATOM      6  C   UNL A   1      40.426  24.269  27.832  1.00  0.00     0.261 C 
BRANCH   6   7
ATOM      7  O   UNL A   1      39.819  25.192  26.912  1.00  0.00    -0.460 OA
BRANCH   7   8
ATOM      8  C   UNL A   1      40.575  26.203  26.445  1.00  0.00     0.338 C 
ATOM      9  O   UNL A   1      41.040  26.322  25.326  1.00  0.00    -0.246 OA
BRANCH   8  10
ATOM     10  C   UNL A   1      40.573  27.264  27.474  1.00  0.00     0.087 C 
ATOM     11  C   UNL A   1      39.347  30.316  31.271  1.00  0.00    -0.026 A 
ATOM     12  C   UNL A   1      40.323  30.343  30.256  1.00  0.00     0.052 A 
ATOM     13  C   UNL A   1      38.610  29.135  31.446  1.00  0.00     0.045 A 
ATOM     14  C   UNL A   1      40.470  29.273  29.371  1.00  0.00     0.128 A 
ATOM     15  C   UNL A   1      38.713  28.093  30.521  1.00  0.00     0.032 A 
ATOM     16  Cl  UNL A   1      37.539  28.893  32.779  1.00  0.00    -0.084 Cl
ATOM     17  C   UNL A   1      39.603  28.187  29.451  1.00  0.00     0.019 A 
ATOM     18  O   UNL A   1      41.436  29.397  28.416  1.00  0.00    -0.475 OA
ATOM     19  C   UNL A   1      39.586  27.209  28.379  1.00  0.00     0.027 C 
ATOM     20  C   UNL A   1      41.710  28.252  27.551  1.00  0.00     0.316 C 
BRANCH  11  21
ATOM     21  C   UNL A   1      39.081  31.589  32.046  1.00  0.00     0.037 C 
BRANCH  21  22
ATOM     22  C   UNL A   1      38.669  32.767  31.133  1.00  0.00     0.008 C 
BRANCH  22  23
ATOM     23  C   UNL A   1      37.576  32.458  30.088  1.00  0.00    -0.017 C 
ATOM     24  C   UNL A   1      36.192  32.309  30.727  1.00  0.00     0.007 C 
ATOM     25  C   UNL A   1      37.516  33.555  29.021  1.00  0.00     0.007 C 
ENDBRANCH  22  23
ENDBRANCH  21  22
ENDBRANCH  11  21
BRANCH  20  26
ATOM     26  C   UNL A   1      42.116  28.822  26.182  1.00  0.00     0.430 C 
ATOM     27  F   UNL A   1      41.042  28.916  25.360  1.00  0.00    -0.167 F 
ATOM     28  F   UNL A   1      42.651  30.058  26.269  1.00  0.00    -0.167 F 
ATOM     29  F   UNL A   1      43.025  28.029  25.568  1.00  0.00    -0.167 F 
ENDBRANCH  20  26
ENDBRANCH   8  10
ENDBRANCH   7   8
ENDBRANCH   6   7
ENDBRANCH   5   6
ENDBRANCH   4   5
ENDBRANCH   3   4
ENDBRANCH   2   3
ENDBRANCH   1   2
BRANCH   1  30
ATOM     30  C   UNL A   1      43.561  19.067  25.110  1.00  0.00     0.188 C 
BRANCH  30  31
ATOM     31  C   UNL A   1      44.871  19.389  24.356  1.00  0.00     0.188 C 
BRANCH  31  32
ATOM     32  O   UNL A   1      45.055  20.782  24.087  1.00  0.00    -0.376 OA
BRANCH  32  33
ATOM     33  C   UNL A   1      46.192  21.395  24.682  1.00  0.00     0.202 C 
BRANCH  33  34
ATOM     34  C   UNL A   1      46.318  22.890  24.368  1.00  0.00     0.261 C 
BRANCH  34  35
ATOM     35  O   UNL A   1      46.440  23.745  25.515  1.00  0.00    -0.460 OA
BRANCH  35  36
ATOM     36  C   UNL A   1      46.908  24.999  25.315  1.00  0.00     0.338 C 
ATOM     37  O   UNL A   1      47.479  25.418  24.325  1.00  0.00    -0.246 OA
BRANCH  36  38
ATOM     38  C   UNL A   1      46.418  25.831  26.434  1.00  0.00     0.060 A 
ATOM     39  C   UNL A   1      47.297  26.669  27.126  1.00  0.00     0.016 A 
ATOM     40  C   UNL A   1      45.075  25.737  26.818  1.00  0.00     0.016 A 
ATOM     41  C   UNL A   1      46.821  27.441  28.185  1.00  0.00     0.010 A 
ATOM     42  C   UNL A   1      44.602  26.506  27.885  1.00  0.00     0.010 A 
ATOM     43  C   UNL A   1      45.467  27.382  28.557  1.00  0.00    -0.014 A 
BRANCH  43  44
ATOM     44  C   UNL A   1      44.928  28.399  29.488  1.00  0.00     0.031 A 
ATOM     45  C   UNL A   1      44.771  29.839  29.110  1.00  0.00     0.074 A 
ATOM     46  C   UNL A   1      44.586  27.983  30.721  1.00  0.00     0.049 A 
ATOM     47  N   UNL A   1      44.210  30.801  29.796  1.00  0.00    -0.248 NA
ATOM     48  C   UNL A   1      45.313  30.260  27.810  1.00  0.00     0.031 C 
ATOM     49  C   UNL A   1      44.753  26.614  31.216  1.00  0.00     0.029 A 
ATOM     50  N   UNL A   1      44.033  28.656  31.779  1.00  0.00    -0.354 N 
ATOM     51  C   UNL A   1      44.331  31.945  29.020  1.00  0.00     0.074 A 
ATOM     52  C   UNL A   1      45.034  31.559  27.813  1.00  0.00     0.031 C 
ATOM     53  C   UNL A   1      44.302  26.547  32.476  1.00  0.00     0.029 A 
ATOM     54  C   UNL A   1      43.821  27.864  32.880  1.00  0.00     0.049 A 
ATOM     55  H   UNL A   1      43.811  29.616  31.753  1.00  0.00     0.167 HD
ATOM     56  C   UNL A   1      43.877  33.194  29.288  1.00  0.00     0.034 A 
ATOM     57  C   UNL A   1      43.282  28.154  34.079  1.00  0.00     0.034 A 
ATOM     58  C   UNL A   1      43.166  33.563  30.485  1.00  0.00     0.049 A 
ATOM     59  C   UNL A   1      42.767  29.537  34.339  1.00  0.00     0.074 A 
ATOM     60  C   UNL A   1      42.597  34.786  30.800  1.00  0.00     0.029 A 
ATOM     61  N   UNL A   1      42.942  32.728  31.568  1.00  0.00    -0.354 N 
ATOM     62  N   UNL A   1      42.746  30.567  33.529  1.00  0.00    -0.248 NA
ATOM     63  C   UNL A   1      42.172  29.792  35.659  1.00  0.00     0.031 C 
ATOM     64  C   UNL A   1      42.044  34.696  32.082  1.00  0.00     0.029 A 
ATOM     65  C   UNL A   1      42.257  33.412  32.559  1.00  0.00     0.049 A 
ATOM     66  H   UNL A   1      43.228  31.789  31.625  1.00  0.00     0.167 HD
ATOM     67  C   UNL A   1      42.121  31.589  34.232  1.00  0.00     0.074 A 
ATOM     68  C   UNL A   1      41.765  31.050  35.529  1.00  0.00     0.031 C 
ATOM     69  C   UNL A   1      41.876  32.861  33.835  1.00  0.00     0.034 A 
BRANCH  56  70
ATOM     70  C   UNL A   1      44.068  34.257  28.241  1.00  0.00     0.023 A 
ATOM     71  C   UNL A   1      43.025  34.513  27.330  1.00  0.00     0.012 A 
ATOM     72  C   UNL A   1      45.212  35.080  28.237  1.00  0.00     0.148 A 
ATOM     73  C   UNL A   1      43.120  35.568  26.422  1.00  0.00     0.002 A 
ATOM     74  C   UNL A   1      45.288  36.145  27.347  1.00  0.00     0.091 A 
ATOM     75  F   UNL A   1      46.196  34.810  29.107  1.00  0.00    -0.205 F 
ATOM     76  C   UNL A   1      44.244  36.388  26.438  1.00  0.00     0.022 A 
BRANCH  74  77
ATOM     77  S   UNL A   1      46.667  37.296  27.321  1.00  0.00     0.127 S 
ATOM     78  O   UNL A   1      46.627  37.834  28.681  1.00  0.00    -0.237 OA
ATOM     79  O   UNL A   1      47.802  36.413  27.048  1.00  0.00    -0.237 OA
ATOM     80  O   UNL A   1      46.373  38.255  26.265  1.00  0.00    -0.744 OA
ENDBRANCH  74  77
ENDBRANCH  56  70
BRANCH  57  81
ATOM     81  C   UNL A   1      43.131  27.061  35.074  1.00  0.00     0.023 A 
ATOM     82  C   UNL A   1      42.073  26.145  34.927  1.00  0.00     0.012 A 
ATOM     83  C   UNL A   1      44.094  26.857  36.080  1.00  0.00     0.148 A 
ATOM     84  C   UNL A   1      41.976  25.038  35.768  1.00  0.00     0.002 A 
ATOM     85  C   UNL A   1      44.014  25.732  36.889  1.00  0.00     0.091 A 
ATOM     86  F   UNL A   1      45.095  27.743  36.186  1.00  0.00    -0.205 F 
ATOM     87  C   UNL A   1      42.951  24.825  36.741  1.00  0.00     0.022 A 
BRANCH  85  88
ATOM     88  S   UNL A   1      45.278  25.310  38.092  1.00  0.00     0.127 S 
ATOM     89  O   UNL A   1      44.825  23.999  38.553  1.00  0.00    -0.237 OA
ATOM     90  O   UNL A   1      46.483  25.290  37.263  1.00  0.00    -0.237 OA
ATOM     91  O   UNL A   1      45.244  26.367  39.093  1.00  0.00    -0.744 OA
ENDBRANCH  85  88
ENDBRANCH  57  81
BRANCH  69  92
ATOM     92  C   UNL A   1      41.190  33.782  34.806  1.00  0.00     0.023 A 
ATOM     93  C   UNL A   1      39.783  33.806  34.855  1.00  0.00     0.012 A 
ATOM     94  C   UNL A   1      41.932  34.526  35.744  1.00  0.00     0.148 A 
ATOM     95  C   UNL A   1      39.122  34.566  35.819  1.00  0.00     0.002 A 
ATOM     96  C   UNL A   1      41.267  35.254  36.723  1.00  0.00     0.091 A 
ATOM     97  F   UNL A   1      43.271  34.493  35.669  1.00  0.00    -0.205 F 
ATOM     98  C   UNL A   1      39.863  35.279  36.759  1.00  0.00     0.022 A 
BRANCH  96  99
ATOM     99  S   UNL A   1      42.130  36.148  38.021  1.00  0.00     0.127 S 
ATOM    100  O   UNL A   1      41.017  36.692  38.798  1.00  0.00    -0.237 OA
ATOM    101  O   UNL A   1      42.875  35.081  38.688  1.00  0.00    -0.237 OA
ATOM    102  O   UNL A   1      42.958  37.140  37.349  1.00  0.00    -0.744 OA
ENDBRANCH  96  99
ENDBRANCH  69  92
ENDBRANCH  43  44
ENDBRANCH  36  38
ENDBRANCH  35  36
ENDBRANCH  34  35
ENDBRANCH  33  34
ENDBRANCH  32  33
ENDBRANCH  31  32
ENDBRANCH  30  31
ENDBRANCH   1  30
TORSDOF 27
ENDMDL
MODEL 2
REMARK VINA RESULT:      -7.1      5.773     10.729
REMARK SMILES CC(C)CCc1cc2c(cc1Cl)C=C(C(=O)OCCOCCOCCOCCOC(=O)c1ccc(-c3c4nc(c(-c5cccc(S(=O)(=O)[O-])c5F)c5ccc([nH]5)c(-c5cccc(S(=O)(=O)[O-])c5F)c5nc(c(-c6cccc(S(=O)(=O)[O-])c6F)c6ccc3[nH]6)C=C5)C=C4)cc1)[C@@H](C(F)(F)F)O2
REMARK SMILES IDX 23 1 22 2 21 3 20 4 19 5 18 6 17 7 15 8 16 9 14 10 6 11 7 12
REMARK SMILES IDX 11 13 8 14 10 15 12 16 9 17 100 18 13 19 95 20 5 21 4 22
REMARK SMILES IDX 2 23 1 24 3 25 96 26 97 27 98 28 99 29 24 30 25 31 26 32
REMARK SMILES IDX 27 33 28 34 29 35 30 36 31 37 32 38 33 39 94 40 34 41 93 42
REMARK SMILES IDX 35 43 36 44 37 45 87 46 38 47 92 48 86 49 88 50 39 51 91 52
REMARK SMILES IDX 85 53 84 54 40 56 72 57 52 58 71 59 53 60 56 61 70 62 89 63
REMARK SMILES IDX 54 64 55 65 69 67 90 68 57 69 41 70 42 71 50 72 43 73 45 74
REMARK SMILES IDX 51 75 44 76 46 77 47 78 48 79 49 80 73 81 74 82 82 83 75 84
REMARK SMILES IDX 77 85 83 86 76 87 78 88 79 89 80 90 81 91 58 92 59 93 67 94
REMARK SMILES IDX 60 95 62 96 68 97 61 98 63 99 64 100 65 101 66 102
REMARK H PARENT 88 55 56 66
REMARK Flexibility Score: inf
ROOT
ATOM      1  O   UNL A   1      35.046  30.882  28.145  1.00  0.00    -0.377 OA
ENDROOT
BRANCH   1   2
ATOM      2  C   UNL A   1      35.448  29.685  27.504  1.00  0.00     0.188 C 
BRANCH   2   3
ATOM      3  C   UNL A   1      34.257  28.867  26.973  1.00  0.00     0.188 C 
BRANCH   3   4
ATOM      4  O   UNL A   1      33.257  29.670  26.353  1.00  0.00    -0.376 OA
BRANCH   4   5
ATOM      5  C   UNL A   1      33.099  29.546  24.943  1.00  0.00     0.202 C 
BRANCH   5   6
ATOM      6  C   UNL A   1      31.735  29.081  24.408  1.00  0.00     0.261 C 
BRANCH   6   7
ATOM      7  O   UNL A   1      31.131  27.997  25.133  1.00  0.00    -0.460 OA
BRANCH   7   8
ATOM      8  C   UNL A   1      30.332  27.154  24.454  1.00  0.00     0.338 C 
ATOM      9  O   UNL A   1      29.265  27.411  23.927  1.00  0.00    -0.246 OA
BRANCH   8  10
ATOM     10  C   UNL A   1      31.077  25.890  24.276  1.00  0.00     0.087 C 
ATOM     11  C   UNL A   1      33.825  21.750  25.016  1.00  0.00    -0.026 A 
ATOM     12  C   UNL A   1      33.402  22.466  23.880  1.00  0.00     0.052 A 
ATOM     13  C   UNL A   1      33.270  22.096  26.258  1.00  0.00     0.045 A 
ATOM     14  C   UNL A   1      32.550  23.566  23.999  1.00  0.00     0.128 A 
ATOM     15  C   UNL A   1      32.471  23.235  26.384  1.00  0.00     0.032 A 
ATOM     16  Cl  UNL A   1      33.537  21.168  27.690  1.00  0.00    -0.084 Cl
ATOM     17  C   UNL A   1      32.158  24.003  25.261  1.00  0.00     0.019 A 
ATOM     18  O   UNL A   1      32.204  24.201  22.842  1.00  0.00    -0.475 OA
ATOM     19  C   UNL A   1      31.496  25.287  25.396  1.00  0.00     0.027 C 
ATOM     20  C   UNL A   1      31.217  25.276  22.905  1.00  0.00     0.316 C 
BRANCH  11  21
ATOM     21  C   UNL A   1      34.922  20.720  24.850  1.00  0.00     0.037 C 
BRANCH  21  22
ATOM     22  C   UNL A   1      36.337  21.337  24.949  1.00  0.00     0.008 C 
BRANCH  22  23
ATOM     23  C   UNL A   1      36.437  22.845  24.631  1.00  0.00    -0.017 C 
ATOM     24  C   UNL A   1      37.385  23.574  25.587  1.00  0.00     0.007 C 
ATOM     25  C   UNL A   1      36.912  23.067  23.192  1.00  0.00     0.007 C 
ENDBRANCH  22  23
ENDBRANCH  21  22
ENDBRANCH  11  21
BRANCH  20  26
ATOM     26  C   UNL A   1      31.602  26.292  21.818  1.00  0.00     0.430 C 
ATOM     27  F   UNL A   1      32.760  26.921  22.134  1.00  0.00    -0.167 F 
ATOM     28  F   UNL A   1      31.784  25.719  20.610  1.00  0.00    -0.167 F 
ATOM     29  F   UNL A   1      30.651  27.244  21.676  1.00  0.00    -0.167 F 
ENDBRANCH  20  26
ENDBRANCH   8  10
ENDBRANCH   7   8
ENDBRANCH   6   7
ENDBRANCH   5   6
ENDBRANCH   4   5
ENDBRANCH   3   4
ENDBRANCH   2   3
ENDBRANCH   1   2
BRANCH   1  30
ATOM     30  C   UNL A   1      35.981  31.961  28.171  1.00  0.00     0.188 C 
BRANCH  30  31
ATOM     31  C   UNL A   1      35.597  33.349  28.733  1.00  0.00     0.188 C 
BRANCH  31  32
ATOM     32  O   UNL A   1      35.741  33.457  30.151  1.00  0.00    -0.376 OA
BRANCH  32  33
ATOM     33  C   UNL A   1      34.653  32.983  30.934  1.00  0.00     0.202 C 
BRANCH  33  34
ATOM     34  C   UNL A   1      35.043  32.623  32.373  1.00  0.00     0.261 C 
BRANCH  34  35
ATOM     35  O   UNL A   1      36.434  32.330  32.572  1.00  0.00    -0.460 OA
BRANCH  35  36
ATOM     36  C   UNL A   1      37.013  32.782  33.708  1.00  0.00     0.338 C 
ATOM     37  O   UNL A   1      36.514  33.513  34.543  1.00  0.00    -0.246 OA
BRANCH  36  38
ATOM     38  C   UNL A   1      38.294  32.060  33.861  1.00  0.00     0.060 A 
ATOM     39  C   UNL A   1      38.316  30.774  34.408  1.00  0.00     0.016 A 
ATOM     40  C   UNL A   1      39.485  32.696  33.491  1.00  0.00     0.016 A 
ATOM     41  C   UNL A   1      39.533  30.109  34.554  1.00  0.00     0.010 A 
ATOM     42  C   UNL A   1      40.705  32.030  33.646  1.00  0.00     0.010 A 
ATOM     43  C   UNL A   1      40.732  30.723  34.154  1.00  0.00    -0.014 A 
BRANCH  43  44
ATOM     44  C   UNL A   1      41.965  29.909  34.058  1.00  0.00     0.031 A 
ATOM     45  C   UNL A   1      42.284  29.060  32.867  1.00  0.00     0.074 A 
ATOM     46  C   UNL A   1      42.806  29.945  35.108  1.00  0.00     0.049 A 
ATOM     47  N   UNL A   1      43.380  28.391  32.619  1.00  0.00    -0.248 NA
ATOM     48  C   UNL A   1      41.251  28.937  31.829  1.00  0.00     0.031 C 
ATOM     49  C   UNL A   1      42.565  30.691  36.346  1.00  0.00     0.029 A 
ATOM     50  N   UNL A   1      44.023  29.347  35.308  1.00  0.00    -0.354 N 
ATOM     51  C   UNL A   1      43.175  27.760  31.400  1.00  0.00     0.074 A 
ATOM     52  C   UNL A   1      41.839  28.117  30.965  1.00  0.00     0.031 C 
ATOM     53  C   UNL A   1      43.607  30.516  37.171  1.00  0.00     0.029 A 
ATOM     54  C   UNL A   1      44.583  29.643  36.527  1.00  0.00     0.049 A 
ATOM     55  H   UNL A   1      44.454  28.761  34.644  1.00  0.00     0.167 HD
ATOM     56  C   UNL A   1      44.034  26.976  30.705  1.00  0.00     0.034 A 
ATOM     57  C   UNL A   1      45.759  29.271  37.066  1.00  0.00     0.034 A 
ATOM     58  C   UNL A   1      45.365  26.639  31.141  1.00  0.00     0.049 A 
ATOM     59  C   UNL A   1      46.699  28.422  36.265  1.00  0.00     0.074 A 
ATOM     60  C   UNL A   1      46.333  25.919  30.460  1.00  0.00     0.029 A 
ATOM     61  N   UNL A   1      45.911  26.980  32.368  1.00  0.00    -0.354 N 
ATOM     62  N   UNL A   1      46.553  27.967  35.045  1.00  0.00    -0.248 NA
ATOM     63  C   UNL A   1      47.977  28.062  36.896  1.00  0.00     0.031 C 
ATOM     64  C   UNL A   1      47.458  25.808  31.284  1.00  0.00     0.029 A 
ATOM     65  C   UNL A   1      47.196  26.473  32.471  1.00  0.00     0.049 A 
ATOM     66  H   UNL A   1      45.454  27.504  33.063  1.00  0.00     0.167 HD
ATOM     67  C   UNL A   1      47.725  27.282  34.752  1.00  0.00     0.074 A 
ATOM     68  C   UNL A   1      48.578  27.393  35.919  1.00  0.00     0.031 C 
ATOM     69  C   UNL A   1      48.053  26.614  33.621  1.00  0.00     0.034 A 
BRANCH  56  70
ATOM     70  C   UNL A   1      43.598  26.468  29.357  1.00  0.00     0.023 A 
ATOM     71  C   UNL A   1      42.952  25.219  29.275  1.00  0.00     0.012 A 
ATOM     72  C   UNL A   1      43.712  27.269  28.204  1.00  0.00     0.148 A 
ATOM     73  C   UNL A   1      42.432  24.768  28.062  1.00  0.00     0.002 A 
ATOM     74  C   UNL A   1      43.168  26.825  27.004  1.00  0.00     0.091 A 
ATOM     75  F   UNL A   1      44.340  28.449  28.305  1.00  0.00    -0.205 F 
ATOM     76  C   UNL A   1      42.531  25.574  26.931  1.00  0.00     0.022 A 
BRANCH  74  77
ATOM     77  S   UNL A   1      43.191  27.809  25.501  1.00  0.00     0.127 S 
ATOM     78  O   UNL A   1      42.339  27.015  24.616  1.00  0.00    -0.237 OA
ATOM     79  O   UNL A   1      42.598  29.070  25.948  1.00  0.00    -0.237 OA
ATOM     80  O   UNL A   1      44.588  27.901  25.100  1.00  0.00    -0.744 OA
ENDBRANCH  74  77
ENDBRANCH  56  70
BRANCH  57  81
ATOM     81  C   UNL A   1      46.126  29.798  38.405  1.00  0.00     0.023 A 
ATOM     82  C   UNL A   1      46.762  31.049  38.497  1.00  0.00     0.012 A 
ATOM     83  C   UNL A   1      45.737  29.126  39.580  1.00  0.00     0.148 A 
ATOM     84  C   UNL A   1      47.006  31.628  39.742  1.00  0.00     0.002 A 
ATOM     85  C   UNL A   1      45.949  29.726  40.815  1.00  0.00     0.091 A 
ATOM     86  F   UNL A   1      45.125  27.940  39.458  1.00  0.00    -0.205 F 
ATOM     87  C   UNL A   1      46.590  30.972  40.899  1.00  0.00     0.022 A 
BRANCH  85  88
ATOM     88  S   UNL A   1      45.350  29.017  42.352  1.00  0.00     0.127 S 
ATOM     89  O   UNL A   1      43.915  28.920  42.098  1.00  0.00    -0.237 OA
ATOM     90  O   UNL A   1      46.058  27.737  42.384  1.00  0.00    -0.237 OA
ATOM     91  O   UNL A   1      45.736  29.952  43.399  1.00  0.00    -0.744 OA
ENDBRANCH  85  88
ENDBRANCH  57  81
BRANCH  69  92
ATOM     92  C   UNL A   1      49.395  25.937  33.567  1.00  0.00     0.023 A 
ATOM     93  C   UNL A   1      50.554  26.718  33.393  1.00  0.00     0.012 A 
ATOM     94  C   UNL A   1      49.517  24.555  33.808  1.00  0.00     0.148 A 
ATOM     95  C   UNL A   1      51.817  26.132  33.450  1.00  0.00     0.002 A 
ATOM     96  C   UNL A   1      50.780  23.983  33.897  1.00  0.00     0.091 A 
ATOM     97  F   UNL A   1      48.398  23.833  33.961  1.00  0.00    -0.205 F 
ATOM     98  C   UNL A   1      51.930  24.769  33.714  1.00  0.00     0.022 A 
BRANCH  96  99
ATOM     99  S   UNL A   1      51.035  22.251  34.303  1.00  0.00     0.127 S 
ATOM    100  O   UNL A   1      52.483  22.201  34.498  1.00  0.00    -0.237 OA
ATOM    101  O   UNL A   1      50.248  22.102  35.527  1.00  0.00    -0.237 OA
ATOM    102  O   UNL A   1      50.539  21.491  33.164  1.00  0.00    -0.744 OA
ENDBRANCH  96  99
ENDBRANCH  69  92
ENDBRANCH  43  44
ENDBRANCH  36  38
ENDBRANCH  35  36
ENDBRANCH  34  35
ENDBRANCH  33  34
ENDBRANCH  32  33
ENDBRANCH  31  32
ENDBRANCH  30  31
ENDBRANCH   1  30
TORSDOF 27
ENDMDL
MODEL 3
REMARK VINA RESULT:      -7.0      6.141     11.667
REMARK SMILES CC(C)CCc1cc2c(cc1Cl)C=C(C(=O)OCCOCCOCCOCCOC(=O)c1ccc(-c3c4nc(c(-c5cccc(S(=O)(=O)[O-])c5F)c5ccc([nH]5)c(-c5cccc(S(=O)(=O)[O-])c5F)c5nc(c(-c6cccc(S(=O)(=O)[O-])c6F)c6ccc3[nH]6)C=C5)C=C4)cc1)[C@@H](C(F)(F)F)O2
REMARK SMILES IDX 23 1 22 2 21 3 20 4 19 5 18 6 17 7 15 8 16 9 14 10 6 11 7 12
REMARK SMILES IDX 11 13 8 14 10 15 12 16 9 17 100 18 13 19 95 20 5 21 4 22
REMARK SMILES IDX 2 23 1 24 3 25 96 26 97 27 98 28 99 29 24 30 25 31 26 32
REMARK SMILES IDX 27 33 28 34 29 35 30 36 31 37 32 38 33 39 94 40 34 41 93 42
REMARK SMILES IDX 35 43 36 44 37 45 87 46 38 47 92 48 86 49 88 50 39 51 91 52
REMARK SMILES IDX 85 53 84 54 40 56 72 57 52 58 71 59 53 60 56 61 70 62 89 63
REMARK SMILES IDX 54 64 55 65 69 67 90 68 57 69 41 70 42 71 50 72 43 73 45 74
REMARK SMILES IDX 51 75 44 76 46 77 47 78 48 79 49 80 73 81 74 82 82 83 75 84
REMARK SMILES IDX 77 85 83 86 76 87 78 88 79 89 80 90 81 91 58 92 59 93 67 94
REMARK SMILES IDX 60 95 62 96 68 97 61 98 63 99 64 100 65 101 66 102
REMARK H PARENT 88 55 56 66
REMARK Flexibility Score: inf
ROOT
ATOM      1  O   UNL A   1      36.811  30.865  30.141  1.00  0.00    -0.377 OA
ENDROOT
BRANCH   1   2
ATOM      2  C   UNL A   1      36.973  31.131  28.759  1.00  0.00     0.188 C 
BRANCH   2   3
ATOM      3  C   UNL A   1      35.646  31.057  27.981  1.00  0.00     0.188 C 
BRANCH   3   4
ATOM      4  O   UNL A   1      35.003  29.790  28.085  1.00  0.00    -0.376 OA
BRANCH   4   5
ATOM      5  C   UNL A   1      34.018  29.474  27.106  1.00  0.00     0.202 C 
BRANCH   5   6
ATOM      6  C   UNL A   1      34.151  28.139  26.355  1.00  0.00     0.261 C 
BRANCH   6   7
ATOM      7  O   UNL A   1      33.074  27.836  25.452  1.00  0.00    -0.460 OA
BRANCH   7   8
ATOM      8  C   UNL A   1      33.383  27.263  24.275  1.00  0.00     0.338 C 
ATOM      9  O   UNL A   1      33.990  27.764  23.346  1.00  0.00    -0.246 OA
BRANCH   8  10
ATOM     10  C   UNL A   1      33.036  25.830  24.379  1.00  0.00     0.087 C 
ATOM     11  C   UNL A   1      33.190  20.809  24.429  1.00  0.00    -0.026 A 
ATOM     12  C   UNL A   1      32.158  21.766  24.405  1.00  0.00     0.052 A 
ATOM     13  C   UNL A   1      34.500  21.257  24.657  1.00  0.00     0.045 A 
ATOM     14  C   UNL A   1      32.441  23.131  24.483  1.00  0.00     0.128 A 
ATOM     15  C   UNL A   1      34.789  22.624  24.670  1.00  0.00     0.032 A 
ATOM     16  Cl  UNL A   1      35.822  20.177  24.922  1.00  0.00    -0.084 Cl
ATOM     17  C   UNL A   1      33.764  23.561  24.526  1.00  0.00     0.019 A 
ATOM     18  O   UNL A   1      31.376  23.981  24.442  1.00  0.00    -0.475 OA
ATOM     19  C   UNL A   1      34.063  24.969  24.343  1.00  0.00     0.027 C 
ATOM     20  C   UNL A   1      31.614  25.408  24.648  1.00  0.00     0.316 C 
BRANCH  11  21
ATOM     21  C   UNL A   1      32.844  19.369  24.110  1.00  0.00     0.037 C 
BRANCH  21  22
ATOM     22  C   UNL A   1      32.897  18.455  25.355  1.00  0.00     0.008 C 
BRANCH  22  23
ATOM     23  C   UNL A   1      33.605  17.096  25.163  1.00  0.00    -0.017 C 
ATOM     24  C   UNL A   1      32.675  15.915  25.450  1.00  0.00     0.007 C 
ATOM     25  C   UNL A   1      34.152  16.965  23.738  1.00  0.00     0.007 C 
ENDBRANCH  22  23
ENDBRANCH  21  22
ENDBRANCH  11  21
BRANCH  20  26
ATOM     26  C   UNL A   1      30.583  26.155  23.787  1.00  0.00     0.430 C 
ATOM     27  F   UNL A   1      29.449  25.425  23.648  1.00  0.00    -0.167 F 
ATOM     28  F   UNL A   1      30.221  27.342  24.319  1.00  0.00    -0.167 F 
ATOM     29  F   UNL A   1      31.062  26.396  22.544  1.00  0.00    -0.167 F 
ENDBRANCH  20  26
ENDBRANCH   8  10
ENDBRANCH   7   8
ENDBRANCH   6   7
ENDBRANCH   5   6
ENDBRANCH   4   5
ENDBRANCH   3   4
ENDBRANCH   2   3
ENDBRANCH   1   2
BRANCH   1  30
ATOM     30  C   UNL A   1      35.967  31.744  30.885  1.00  0.00     0.188 C 
BRANCH  30  31
ATOM     31  C   UNL A   1      36.175  31.971  32.400  1.00  0.00     0.188 C 
BRANCH  31  32
ATOM     32  O   UNL A   1      36.666  33.273  32.726  1.00  0.00    -0.376 OA
BRANCH  32  33
ATOM     33  C   UNL A   1      37.680  33.796  31.877  1.00  0.00     0.202 C 
BRANCH  33  34
ATOM     34  C   UNL A   1      39.089  33.705  32.475  1.00  0.00     0.261 C 
BRANCH  34  35
ATOM     35  O   UNL A   1      40.157  34.023  31.569  1.00  0.00    -0.460 OA
BRANCH  35  36
ATOM     36  C   UNL A   1      41.380  34.255  32.100  1.00  0.00     0.338 C 
ATOM     37  O   UNL A   1      41.635  34.913  33.092  1.00  0.00    -0.246 OA
BRANCH  36  38
ATOM     38  C   UNL A   1      42.338  33.393  31.377  1.00  0.00     0.060 A 
ATOM     39  C   UNL A   1      42.253  33.254  29.989  1.00  0.00     0.016 A 
ATOM     40  C   UNL A   1      43.303  32.684  32.104  1.00  0.00     0.016 A 
ATOM     41  C   UNL A   1      43.159  32.430  29.322  1.00  0.00     0.010 A 
ATOM     42  C   UNL A   1      44.205  31.853  31.435  1.00  0.00     0.010 A 
ATOM     43  C   UNL A   1      44.154  31.742  30.037  1.00  0.00    -0.014 A 
BRANCH  43  44
ATOM     44  C   UNL A   1      45.265  31.101  29.296  1.00  0.00     0.031 A 
ATOM     45  C   UNL A   1      46.475  31.855  28.841  1.00  0.00     0.074 A 
ATOM     46  C   UNL A   1      45.144  29.788  29.026  1.00  0.00     0.049 A 
ATOM     47  N   UNL A   1      47.560  31.385  28.283  1.00  0.00    -0.248 NA
ATOM     48  C   UNL A   1      46.471  33.313  29.023  1.00  0.00     0.031 C 
ATOM     49  C   UNL A   1      43.979  28.968  29.370  1.00  0.00     0.029 A 
ATOM     50  N   UNL A   1      45.997  28.914  28.404  1.00  0.00    -0.354 N 
ATOM     51  C   UNL A   1      48.373  32.483  28.041  1.00  0.00     0.074 A 
ATOM     52  C   UNL A   1      47.645  33.650  28.500  1.00  0.00     0.031 C 
ATOM     53  C   UNL A   1      44.196  27.709  28.965  1.00  0.00     0.029 A 
ATOM     54  C   UNL A   1      45.508  27.633  28.329  1.00  0.00     0.049 A 
ATOM     55  H   UNL A   1      46.875  29.179  28.044  1.00  0.00     0.167 HD
ATOM     56  C   UNL A   1      49.616  32.507  27.503  1.00  0.00     0.034 A 
ATOM     57  C   UNL A   1      46.055  26.513  27.823  1.00  0.00     0.034 A 
ATOM     58  C   UNL A   1      50.335  31.339  27.062  1.00  0.00     0.049 A 
ATOM     59  C   UNL A   1      47.442  26.563  27.255  1.00  0.00     0.074 A 
ATOM     60  C   UNL A   1      51.633  31.262  26.582  1.00  0.00     0.029 A 
ATOM     61  N   UNL A   1      49.822  30.053  27.027  1.00  0.00    -0.354 N 
ATOM     62  N   UNL A   1      48.258  27.585  27.182  1.00  0.00    -0.248 NA
ATOM     63  C   UNL A   1      47.996  25.306  26.734  1.00  0.00     0.031 C 
ATOM     64  C   UNL A   1      51.896  29.932  26.240  1.00  0.00     0.029 A 
ATOM     65  C   UNL A   1      50.768  29.178  26.521  1.00  0.00     0.049 A 
ATOM     66  H   UNL A   1      48.917  29.798  27.319  1.00  0.00     0.167 HD
ATOM     67  C   UNL A   1      49.431  27.094  26.623  1.00  0.00     0.074 A 
ATOM     68  C   UNL A   1      49.224  25.679  26.389  1.00  0.00     0.031 C 
ATOM     69  C   UNL A   1      50.569  27.765  26.322  1.00  0.00     0.034 A 
BRANCH  56  70
ATOM     70  C   UNL A   1      50.326  33.830  27.414  1.00  0.00     0.023 A 
ATOM     71  C   UNL A   1      51.052  34.291  28.530  1.00  0.00     0.012 A 
ATOM     72  C   UNL A   1      50.381  34.549  26.204  1.00  0.00     0.148 A 
ATOM     73  C   UNL A   1      51.816  35.454  28.447  1.00  0.00     0.002 A 
ATOM     74  C   UNL A   1      51.167  35.694  26.121  1.00  0.00     0.091 A 
ATOM     75  F   UNL A   1      49.674  34.096  25.159  1.00  0.00    -0.205 F 
ATOM     76  C   UNL A   1      51.881  36.148  27.242  1.00  0.00     0.022 A 
BRANCH  74  77
ATOM     77  S   UNL A   1      51.365  36.631  24.601  1.00  0.00     0.127 S 
ATOM     78  O   UNL A   1      49.975  36.933  24.258  1.00  0.00    -0.237 OA
ATOM     79  O   UNL A   1      52.147  37.784  25.049  1.00  0.00    -0.237 OA
ATOM     80  O   UNL A   1      52.056  35.750  23.671  1.00  0.00    -0.744 OA
ENDBRANCH  74  77
ENDBRANCH  56  70
BRANCH  57  81
ATOM     81  C   UNL A   1      45.299  25.239  27.932  1.00  0.00     0.023 A 
ATOM     82  C   UNL A   1      45.405  24.479  29.111  1.00  0.00     0.012 A 
ATOM     83  C   UNL A   1      44.388  24.849  26.932  1.00  0.00     0.148 A 
ATOM     84  C   UNL A   1      44.613  23.347  29.295  1.00  0.00     0.002 A 
ATOM     85  C   UNL A   1      43.575  23.742  27.138  1.00  0.00     0.091 A 
ATOM     86  F   UNL A   1      44.304  25.600  25.825  1.00  0.00    -0.205 F 
ATOM     87  C   UNL A   1      43.692  22.985  28.315  1.00  0.00     0.022 A 
BRANCH  85  88
ATOM     88  S   UNL A   1      42.281  23.261  25.989  1.00  0.00     0.127 S 
ATOM     89  O   UNL A   1      41.584  22.223  26.744  1.00  0.00    -0.237 OA
ATOM     90  O   UNL A   1      41.541  24.513  25.834  1.00  0.00    -0.237 OA
ATOM     91  O   UNL A   1      42.965  22.805  24.787  1.00  0.00    -0.744 OA
ENDBRANCH  85  88
ENDBRANCH  57  81
BRANCH  69  92
ATOM     92  C   UNL A   1      51.698  26.990  25.701  1.00  0.00     0.023 A 
ATOM     93  C   UNL A   1      51.678  26.734  24.316  1.00  0.00     0.012 A 
ATOM     94  C   UNL A   1      52.827  26.624  26.460  1.00  0.00     0.148 A 
ATOM     95  C   UNL A   1      52.763  26.117  23.696  1.00  0.00     0.002 A 
ATOM     96  C   UNL A   1      53.918  26.039  25.829  1.00  0.00     0.091 A 
ATOM     97  F   UNL A   1      52.816  26.870  27.778  1.00  0.00    -0.205 F 
ATOM     98  C   UNL A   1      53.886  25.781  24.449  1.00  0.00     0.022 A 
BRANCH  96  99
ATOM     99  S   UNL A   1      55.439  25.634  26.696  1.00  0.00     0.127 S 
ATOM    100  O   UNL A   1      56.346  25.343  25.588  1.00  0.00    -0.237 OA
ATOM    101  O   UNL A   1      55.727  26.878  27.410  1.00  0.00    -0.237 OA
ATOM    102  O   UNL A   1      55.126  24.499  27.554  1.00  0.00    -0.744 OA
ENDBRANCH  96  99
ENDBRANCH  69  92
ENDBRANCH  43  44
ENDBRANCH  36  38
ENDBRANCH  35  36
ENDBRANCH  34  35
ENDBRANCH  33  34
ENDBRANCH  32  33
ENDBRANCH  31  32
ENDBRANCH  30  31
ENDBRANCH   1  30
TORSDOF 27
ENDMDL
