MODEL 1
REMARK VINA RESULT:     -10.5      0.000      0.000
REMARK SMILES Cc1ccc(-c2cc(Cl)cc3c2O[C@@H](C(F)(F)F)C(C(=O)OCCOCCOCCOCCOC(=O)c2ccc(-c4c5nc(c(-c6cccc(S(=O)(=O)[O-])c6F)c6ccc([nH]6)c(-c6cccc(S(=O)(=O)[O-])c6F)c6nc(c(-c7cccc(S(=O)(=O)[O-])c7F)c7ccc4[nH]7)C=C6)C=C5)cc2)=C3)cc1
REMARK SMILES IDX 29 1 28 2 27 3 26 4 25 5 24 6 23 7 22 8 20 9 21 10 19 11
REMARK SMILES IDX 6 12 7 13 12 14 8 15 11 16 13 17 9 18 10 19 100 20 14 21
REMARK SMILES IDX 5 22 1 23 2 24 3 25 102 26 4 27 101 28 15 29 16 30 17 31
REMARK SMILES IDX 18 32 30 33 31 34 32 35 33 36 34 37 35 38 36 39 37 40 38 41
REMARK SMILES IDX 99 42 39 43 98 44 40 45 41 46 42 47 92 48 43 49 97 50 91 51
REMARK SMILES IDX 93 52 44 53 96 54 90 55 89 56 45 58 77 59 57 60 76 61 58 62
REMARK SMILES IDX 61 63 75 64 94 65 59 66 60 67 74 69 95 70 62 71 46 72 47 73
REMARK SMILES IDX 55 74 48 75 50 76 56 77 49 78 51 79 52 80 53 81 54 82 78 83
REMARK SMILES IDX 79 84 87 85 80 86 82 87 88 88 81 89 83 90 84 91 85 92 86 93
REMARK SMILES IDX 63 94 64 95 72 96 65 97 67 98 73 99 66 100 68 101 69 102
REMARK SMILES IDX 70 103 71 104
REMARK H PARENT 93 57 61 68
REMARK Flexibility Score: inf
ROOT
ATOM      1  C   UNL A   1      35.982  20.761  25.098  1.00  0.00     0.188 C 
ENDROOT
BRANCH   1   2
ATOM      2  O   UNL A   1      34.711  20.368  24.644  1.00  0.00    -0.377 OA
BRANCH   2   3
ATOM      3  C   UNL A   1      33.602  20.845  25.381  1.00  0.00     0.188 C 
BRANCH   3   4
ATOM      4  C   UNL A   1      33.680  21.419  26.798  1.00  0.00     0.188 C 
BRANCH   4   5
ATOM      5  O   UNL A   1      33.795  22.784  27.068  1.00  0.00    -0.376 OA
BRANCH   5   6
ATOM      6  C   UNL A   1      34.716  23.668  26.470  1.00  0.00     0.202 C 
BRANCH   6   7
ATOM      7  C   UNL A   1      34.519  24.766  25.316  1.00  0.00     0.261 C 
BRANCH   7   8
ATOM      8  O   UNL A   1      34.209  24.235  24.010  1.00  0.00    -0.460 OA
BRANCH   8   9
ATOM      9  C   UNL A   1      33.615  25.044  23.089  1.00  0.00     0.338 C 
ATOM     10  O   UNL A   1      33.939  26.164  22.733  1.00  0.00    -0.246 OA
BRANCH   9  11
ATOM     11  C   UNL A   1      32.712  24.141  22.241  1.00  0.00     0.087 C 
ATOM     12  C   UNL A   1      30.993  25.995  25.258  1.00  0.00     0.026 A 
ATOM     13  C   UNL A   1      30.634  25.163  26.331  1.00  0.00     0.033 A 
ATOM     14  C   UNL A   1      31.075  25.315  23.928  1.00  0.00     0.135 A 
ATOM     15  C   UNL A   1      30.490  23.784  26.187  1.00  0.00     0.042 A 
ATOM     16  C   UNL A   1      31.136  23.897  23.898  1.00  0.00     0.019 A 
ATOM     17  O   UNL A   1      31.210  25.897  22.584  1.00  0.00    -0.475 OA
ATOM     18  Cl  UNL A   1      30.164  22.827  27.573  1.00  0.00    -0.084 Cl
ATOM     19  C   UNL A   1      30.764  23.145  24.989  1.00  0.00     0.032 A 
ATOM     20  C   UNL A   1      31.918  23.222  22.824  1.00  0.00     0.027 C 
ATOM     21  C   UNL A   1      31.785  25.030  21.479  1.00  0.00     0.316 C 
BRANCH  12  22
ATOM     22  C   UNL A   1      31.644  27.293  25.801  1.00  0.00    -0.015 A 
ATOM     23  C   UNL A   1      35.700  29.864  27.957  1.00  0.00     0.044 C 
ATOM     24  C   UNL A   1      33.848  29.057  27.051  1.00  0.00    -0.051 A 
ATOM     25  C   UNL A   1      33.154  29.279  25.749  1.00  0.00     0.004 A 
ATOM     26  C   UNL A   1      32.621  28.467  27.675  1.00  0.00     0.004 A 
ATOM     27  C   UNL A   1      32.083  28.450  25.165  1.00  0.00     0.009 A 
ATOM     28  C   UNL A   1      31.674  27.541  27.152  1.00  0.00     0.009 A 
ENDBRANCH  12  22
BRANCH  21  29
ATOM     29  C   UNL A   1      32.565  25.383  20.152  1.00  0.00     0.430 C 
ATOM     30  F   UNL A   1      31.611  25.647  19.186  1.00  0.00    -0.167 F 
ATOM     31  F   UNL A   1      33.269  26.537  20.235  1.00  0.00    -0.167 F 
ATOM     32  F   UNL A   1      33.342  24.451  19.582  1.00  0.00    -0.167 F 
ENDBRANCH  21  29
ENDBRANCH   9  11
ENDBRANCH   8   9
ENDBRANCH   7   8
ENDBRANCH   6   7
ENDBRANCH   5   6
ENDBRANCH   4   5
ENDBRANCH   3   4
ENDBRANCH   2   3
ENDBRANCH   1   2
BRANCH   1  33
ATOM     33  C   UNL A   1      37.108  19.872  24.760  1.00  0.00     0.188 C 
BRANCH  33  34
ATOM     34  O   UNL A   1      38.258  20.473  25.302  1.00  0.00    -0.376 OA
BRANCH  34  35
ATOM     35  C   UNL A   1      38.147  21.839  25.594  1.00  0.00     0.202 C 
BRANCH  35  36
ATOM     36  C   UNL A   1      39.276  22.276  26.516  1.00  0.00     0.261 C 
BRANCH  36  37
ATOM     37  O   UNL A   1      40.537  21.967  25.819  1.00  0.00    -0.460 OA
BRANCH  37  38
ATOM     38  C   UNL A   1      41.515  21.159  26.369  1.00  0.00     0.338 C 
ATOM     39  O   UNL A   1      41.422  19.942  26.394  1.00  0.00    -0.246 OA
BRANCH  38  40
ATOM     40  C   UNL A   1      42.654  21.964  27.020  1.00  0.00     0.060 A 
ATOM     41  C   UNL A   1      42.757  22.233  28.397  1.00  0.00     0.016 A 
ATOM     42  C   UNL A   1      43.359  22.816  26.217  1.00  0.00     0.016 A 
ATOM     43  C   UNL A   1      43.222  23.510  28.892  1.00  0.00     0.010 A 
ATOM     44  C   UNL A   1      43.527  24.119  26.692  1.00  0.00     0.010 A 
ATOM     45  C   UNL A   1      43.385  24.563  28.013  1.00  0.00    -0.014 A 
BRANCH  45  46
ATOM     46  C   UNL A   1      43.605  26.071  28.182  1.00  0.00     0.031 A 
ATOM     47  C   UNL A   1      42.152  26.674  28.507  1.00  0.00     0.074 A 
ATOM     48  C   UNL A   1      44.875  26.693  28.419  1.00  0.00     0.049 A 
ATOM     49  N   UNL A   1      41.959  28.242  28.824  1.00  0.00    -0.248 NA
ATOM     50  C   UNL A   1      40.295  25.825  28.315  1.00  0.00     0.031 C 
ATOM     51  C   UNL A   1      45.314  27.868  29.269  1.00  0.00     0.029 A 
ATOM     52  N   UNL A   1      46.191  26.275  28.122  1.00  0.00    -0.354 N 
ATOM     53  C   UNL A   1      40.191  28.753  29.004  1.00  0.00     0.074 A 
ATOM     54  C   UNL A   1      39.168  27.086  28.698  1.00  0.00     0.031 C 
ATOM     55  C   UNL A   1      46.629  27.934  29.547  1.00  0.00     0.029 A 
ATOM     56  C   UNL A   1      47.209  27.157  28.547  1.00  0.00     0.049 A 
ATOM     57  H   UNL A   1      46.383  25.431  27.654  1.00  0.00     0.167 HD
ATOM     58  C   UNL A   1      40.046  30.035  29.516  1.00  0.00     0.034 A 
ATOM     59  C   UNL A   1      48.111  27.743  27.728  1.00  0.00     0.034 A 
ATOM     60  C   UNL A   1      41.424  30.688  29.592  1.00  0.00     0.049 A 
ATOM     61  C   UNL A   1      47.414  29.109  27.291  1.00  0.00     0.074 A 
ATOM     62  C   UNL A   1      42.155  31.213  30.643  1.00  0.00     0.029 A 
ATOM     63  N   UNL A   1      42.374  30.653  28.523  1.00  0.00    -0.354 N 
ATOM     64  N   UNL A   1      46.122  29.404  27.462  1.00  0.00    -0.248 NA
ATOM     65  C   UNL A   1      48.170  30.342  27.065  1.00  0.00     0.031 C 
ATOM     66  C   UNL A   1      43.521  31.395  30.245  1.00  0.00     0.029 A 
ATOM     67  C   UNL A   1      43.685  31.011  28.912  1.00  0.00     0.049 A 
ATOM     68  H   UNL A   1      42.136  30.402  27.601  1.00  0.00     0.167 HD
ATOM     69  C   UNL A   1      45.894  30.763  27.579  1.00  0.00     0.074 A 
ATOM     70  C   UNL A   1      47.234  31.293  27.274  1.00  0.00     0.031 C 
ATOM     71  C   UNL A   1      44.736  31.458  27.953  1.00  0.00     0.034 A 
BRANCH  58  72
ATOM     72  C   UNL A   1      38.819  30.476  30.426  1.00  0.00     0.023 A 
ATOM     73  C   UNL A   1      38.326  29.537  31.364  1.00  0.00     0.012 A 
ATOM     74  C   UNL A   1      37.985  31.628  30.264  1.00  0.00     0.148 A 
ATOM     75  C   UNL A   1      37.063  29.632  31.978  1.00  0.00     0.002 A 
ATOM     76  C   UNL A   1      36.714  31.729  30.884  1.00  0.00     0.091 A 
ATOM     77  F   UNL A   1      38.389  32.611  29.452  1.00  0.00    -0.205 F 
ATOM     78  C   UNL A   1      36.246  30.718  31.726  1.00  0.00     0.022 A 
BRANCH  76  79
ATOM     79  S   UNL A   1      35.556  33.089  30.579  1.00  0.00     0.127 S 
ATOM     80  O   UNL A   1      36.298  34.269  31.032  1.00  0.00    -0.237 OA
ATOM     81  O   UNL A   1      35.370  33.021  29.131  1.00  0.00    -0.237 OA
ATOM     82  O   UNL A   1      34.376  32.791  31.383  1.00  0.00    -0.744 OA
ENDBRANCH  76  79
ENDBRANCH  58  72
BRANCH  59  83
ATOM     83  C   UNL A   1      48.882  26.528  27.223  1.00  0.00     0.023 A 
ATOM     84  C   UNL A   1      48.652  26.238  25.806  1.00  0.00     0.012 A 
ATOM     85  C   UNL A   1      50.190  26.384  27.687  1.00  0.00     0.148 A 
ATOM     86  C   UNL A   1      49.708  26.125  24.881  1.00  0.00     0.002 A 
ATOM     87  C   UNL A   1      51.230  26.351  26.748  1.00  0.00     0.091 A 
ATOM     88  F   UNL A   1      50.419  26.578  28.992  1.00  0.00    -0.205 F 
ATOM     89  C   UNL A   1      51.001  26.228  25.356  1.00  0.00     0.022 A 
BRANCH  87  90
ATOM     90  S   UNL A   1      52.811  27.064  27.213  1.00  0.00     0.127 S 
ATOM     91  O   UNL A   1      52.438  28.325  27.837  1.00  0.00    -0.237 OA
ATOM     92  O   UNL A   1      53.292  26.048  28.146  1.00  0.00    -0.237 OA
ATOM     93  O   UNL A   1      53.564  27.169  25.972  1.00  0.00    -0.744 OA
ENDBRANCH  87  90
ENDBRANCH  59  83
BRANCH  71  94
ATOM     94  C   UNL A   1      44.443  32.861  27.398  1.00  0.00     0.023 A 
ATOM     95  C   UNL A   1      43.994  33.011  26.080  1.00  0.00     0.012 A 
ATOM     96  C   UNL A   1      44.334  34.014  28.236  1.00  0.00     0.148 A 
ATOM     97  C   UNL A   1      43.508  34.225  25.604  1.00  0.00     0.002 A 
ATOM     98  C   UNL A   1      43.699  35.164  27.806  1.00  0.00     0.091 A 
ATOM     99  F   UNL A   1      44.857  34.045  29.463  1.00  0.00    -0.205 F 
ATOM    100  C   UNL A   1      43.319  35.287  26.475  1.00  0.00     0.022 A 
BRANCH  98 101
ATOM    101  S   UNL A   1      43.201  36.468  28.944  1.00  0.00     0.127 S 
ATOM    102  O   UNL A   1      42.660  35.690  30.058  1.00  0.00    -0.237 OA
ATOM    103  O   UNL A   1      44.482  37.121  29.219  1.00  0.00    -0.237 OA
ATOM    104  O   UNL A   1      42.238  37.301  28.240  1.00  0.00    -0.744 OA
ENDBRANCH  98 101
ENDBRANCH  71  94
ENDBRANCH  45  46
ENDBRANCH  38  40
ENDBRANCH  37  38
ENDBRANCH  36  37
ENDBRANCH  35  36
ENDBRANCH  34  35
ENDBRANCH  33  34
ENDBRANCH   1  33
TORSDOF 25
ENDMDL
MODEL 2
REMARK VINA RESULT:      -9.1      5.224      9.384
REMARK SMILES Cc1ccc(-c2cc(Cl)cc3c2O[C@@H](C(F)(F)F)C(C(=O)OCCOCCOCCOCCOC(=O)c2ccc(-c4c5nc(c(-c6cccc(S(=O)(=O)[O-])c6F)c6ccc([nH]6)c(-c6cccc(S(=O)(=O)[O-])c6F)c6nc(c(-c7cccc(S(=O)(=O)[O-])c7F)c7ccc4[nH]7)C=C6)C=C5)cc2)=C3)cc1
REMARK SMILES IDX 29 1 28 2 27 3 26 4 25 5 24 6 23 7 22 8 20 9 21 10 19 11
REMARK SMILES IDX 6 12 7 13 12 14 8 15 11 16 13 17 9 18 10 19 100 20 14 21
REMARK SMILES IDX 5 22 1 23 2 24 3 25 102 26 4 27 101 28 15 29 16 30 17 31
REMARK SMILES IDX 18 32 30 33 31 34 32 35 33 36 34 37 35 38 36 39 37 40 38 41
REMARK SMILES IDX 99 42 39 43 98 44 40 45 41 46 42 47 92 48 43 49 97 50 91 51
REMARK SMILES IDX 93 52 44 53 96 54 90 55 89 56 45 58 77 59 57 60 76 61 58 62
REMARK SMILES IDX 61 63 75 64 94 65 59 66 60 67 74 69 95 70 62 71 46 72 47 73
REMARK SMILES IDX 55 74 48 75 50 76 56 77 49 78 51 79 52 80 53 81 54 82 78 83
REMARK SMILES IDX 79 84 87 85 80 86 82 87 88 88 81 89 83 90 84 91 85 92 86 93
REMARK SMILES IDX 63 94 64 95 72 96 65 97 67 98 73 99 66 100 68 101 69 102
REMARK SMILES IDX 70 103 71 104
REMARK H PARENT 93 57 61 68
REMARK Flexibility Score: inf
ROOT
ATOM      1  C   UNL A   1      36.689  21.840  24.473  1.00  0.00     0.188 C 
ENDROOT
BRANCH   1   2
ATOM      2  O   UNL A   1      35.413  21.311  24.214  1.00  0.00    -0.377 OA
BRANCH   2   3
ATOM      3  C   UNL A   1      34.745  20.712  25.306  1.00  0.00     0.188 C 
BRANCH   3   4
ATOM      4  C   UNL A   1      34.362  21.439  26.599  1.00  0.00     0.188 C 
BRANCH   4   5
ATOM      5  O   UNL A   1      33.557  22.579  26.628  1.00  0.00    -0.376 OA
BRANCH   5   6
ATOM      6  C   UNL A   1      34.010  23.910  26.532  1.00  0.00     0.202 C 
BRANCH   6   7
ATOM      7  C   UNL A   1      34.616  24.727  25.290  1.00  0.00     0.261 C 
BRANCH   7   8
ATOM      8  O   UNL A   1      34.223  24.245  23.987  1.00  0.00    -0.460 OA
BRANCH   8   9
ATOM      9  C   UNL A   1      33.552  25.078  23.145  1.00  0.00     0.338 C 
ATOM     10  O   UNL A   1      33.804  26.235  22.854  1.00  0.00    -0.246 OA
BRANCH   9  11
ATOM     11  C   UNL A   1      32.664  24.185  22.272  1.00  0.00     0.087 C 
ATOM     12  C   UNL A   1      30.885  26.045  25.251  1.00  0.00     0.026 A 
ATOM     13  C   UNL A   1      30.492  25.213  26.312  1.00  0.00     0.033 A 
ATOM     14  C   UNL A   1      30.995  25.368  23.921  1.00  0.00     0.135 A 
ATOM     15  C   UNL A   1      30.341  23.836  26.160  1.00  0.00     0.042 A 
ATOM     16  C   UNL A   1      31.045  23.950  23.888  1.00  0.00     0.019 A 
ATOM     17  O   UNL A   1      31.168  25.953  22.583  1.00  0.00    -0.475 OA
ATOM     18  Cl  UNL A   1      29.972  22.877  27.535  1.00  0.00    -0.084 Cl
ATOM     19  C   UNL A   1      30.639  23.198  24.967  1.00  0.00     0.032 A 
ATOM     20  C   UNL A   1      31.848  23.271  22.832  1.00  0.00     0.027 C 
ATOM     21  C   UNL A   1      31.764  25.085  21.490  1.00  0.00     0.316 C 
BRANCH  12  22
ATOM     22  C   UNL A   1      31.532  27.336  25.814  1.00  0.00    -0.015 A 
ATOM     23  C   UNL A   1      31.473  32.531  26.666  1.00  0.00     0.044 C 
ATOM     24  C   UNL A   1      31.771  30.347  26.457  1.00  0.00    -0.051 A 
ATOM     25  C   UNL A   1      31.836  29.216  27.427  1.00  0.00     0.004 A 
ATOM     26  C   UNL A   1      32.426  29.539  25.378  1.00  0.00     0.004 A 
ATOM     27  C   UNL A   1      31.748  27.777  27.117  1.00  0.00     0.009 A 
ATOM     28  C   UNL A   1      32.219  28.187  24.983  1.00  0.00     0.009 A 
ENDBRANCH  12  22
BRANCH  21  29
ATOM     29  C   UNL A   1      32.579  25.435  20.184  1.00  0.00     0.430 C 
ATOM     30  F   UNL A   1      31.652  25.672  19.185  1.00  0.00    -0.167 F 
ATOM     31  F   UNL A   1      33.263  26.601  20.276  1.00  0.00    -0.167 F 
ATOM     32  F   UNL A   1      33.388  24.509  19.649  1.00  0.00    -0.167 F 
ENDBRANCH  21  29
ENDBRANCH   9  11
ENDBRANCH   8   9
ENDBRANCH   7   8
ENDBRANCH   6   7
ENDBRANCH   5   6
ENDBRANCH   4   5
ENDBRANCH   3   4
ENDBRANCH   2   3
ENDBRANCH   1   2
BRANCH   1  33
ATOM     33  C   UNL A   1      37.667  20.931  25.098  1.00  0.00     0.188 C 
BRANCH  33  34
ATOM     34  O   UNL A   1      38.567  21.749  25.804  1.00  0.00    -0.376 OA
BRANCH  34  35
ATOM     35  C   UNL A   1      38.155  23.073  26.003  1.00  0.00     0.202 C 
BRANCH  35  36
ATOM     36  C   UNL A   1      39.093  23.779  26.970  1.00  0.00     0.261 C 
BRANCH  36  37
ATOM     37  O   UNL A   1      40.466  23.433  26.560  1.00  0.00    -0.460 OA
BRANCH  37  38
ATOM     38  C   UNL A   1      41.325  22.708  27.366  1.00  0.00     0.338 C 
ATOM     39  O   UNL A   1      41.522  21.514  27.206  1.00  0.00    -0.246 OA
BRANCH  38  40
ATOM     40  C   UNL A   1      41.905  23.546  28.520  1.00  0.00     0.060 A 
ATOM     41  C   UNL A   1      41.995  24.949  28.521  1.00  0.00     0.016 A 
ATOM     42  C   UNL A   1      42.754  22.917  29.386  1.00  0.00     0.016 A 
ATOM     43  C   UNL A   1      43.139  25.640  29.075  1.00  0.00     0.010 A 
ATOM     44  C   UNL A   1      43.963  23.567  29.651  1.00  0.00     0.010 A 
ATOM     45  C   UNL A   1      44.261  24.918  29.435  1.00  0.00    -0.014 A 
BRANCH  45  46
ATOM     46  C   UNL A   1      45.701  25.296  29.801  1.00  0.00     0.031 A 
ATOM     47  C   UNL A   1      46.521  25.218  28.422  1.00  0.00     0.074 A 
ATOM     48  C   UNL A   1      46.091  25.972  31.005  1.00  0.00     0.049 A 
ATOM     49  N   UNL A   1      48.081  25.616  28.364  1.00  0.00    -0.248 NA
ATOM     50  C   UNL A   1      46.004  24.383  26.622  1.00  0.00     0.031 C 
ATOM     51  C   UNL A   1      47.132  27.028  31.313  1.00  0.00     0.029 A 
ATOM     52  N   UNL A   1      45.475  26.052  32.273  1.00  0.00    -0.354 N 
ATOM     53  C   UNL A   1      48.871  25.295  26.722  1.00  0.00     0.074 A 
ATOM     54  C   UNL A   1      47.414  24.526  25.624  1.00  0.00     0.031 C 
ATOM     55  C   UNL A   1      46.964  27.701  32.466  1.00  0.00     0.029 A 
ATOM     56  C   UNL A   1      46.152  26.854  33.218  1.00  0.00     0.049 A 
ATOM     57  H   UNL A   1      44.634  25.584  32.482  1.00  0.00     0.167 HD
ATOM     58  C   UNL A   1      50.132  25.863  26.605  1.00  0.00     0.034 A 
ATOM     59  C   UNL A   1      46.620  26.414  34.407  1.00  0.00     0.034 A 
ATOM     60  C   UNL A   1      50.541  26.422  27.966  1.00  0.00     0.049 A 
ATOM     61  C   UNL A   1      48.103  25.923  34.087  1.00  0.00     0.074 A 
ATOM     62  C   UNL A   1      50.884  27.694  28.391  1.00  0.00     0.029 A 
ATOM     63  N   UNL A   1      50.401  25.698  29.191  1.00  0.00    -0.354 N 
ATOM     64  N   UNL A   1      48.600  25.719  32.864  1.00  0.00    -0.248 NA
ATOM     65  C   UNL A   1      49.203  26.064  35.044  1.00  0.00     0.031 C 
ATOM     66  C   UNL A   1      50.855  27.754  29.824  1.00  0.00     0.029 A 
ATOM     67  C   UNL A   1      50.516  26.504  30.348  1.00  0.00     0.049 A 
ATOM     68  H   UNL A   1      50.240  24.728  29.226  1.00  0.00     0.167 HD
ATOM     69  C   UNL A   1      49.971  25.895  32.807  1.00  0.00     0.074 A 
ATOM     70  C   UNL A   1      50.285  26.070  34.235  1.00  0.00     0.031 C 
ATOM     71  C   UNL A   1      50.829  25.963  31.702  1.00  0.00     0.034 A 
BRANCH  58  72
ATOM     72  C   UNL A   1      50.725  26.392  25.229  1.00  0.00     0.023 A 
ATOM     73  C   UNL A   1      52.046  26.900  25.235  1.00  0.00     0.012 A 
ATOM     74  C   UNL A   1      50.013  26.642  24.013  1.00  0.00     0.148 A 
ATOM     75  C   UNL A   1      52.580  27.709  24.214  1.00  0.00     0.002 A 
ATOM     76  C   UNL A   1      50.548  27.453  22.981  1.00  0.00     0.091 A 
ATOM     77  F   UNL A   1      48.777  26.147  23.872  1.00  0.00    -0.205 F 
ATOM     78  C   UNL A   1      51.827  28.003  23.094  1.00  0.00     0.022 A 
BRANCH  76  79
ATOM     79  S   UNL A   1      49.621  27.931  21.499  1.00  0.00     0.127 S 
ATOM     80  O   UNL A   1      48.404  28.537  22.047  1.00  0.00    -0.237 OA
ATOM     81  O   UNL A   1      50.526  28.883  20.858  1.00  0.00    -0.237 OA
ATOM     82  O   UNL A   1      49.383  26.693  20.765  1.00  0.00    -0.744 OA
ENDBRANCH  76  79
ENDBRANCH  58  72
BRANCH  59  83
ATOM     83  C   UNL A   1      45.320  26.051  35.117  1.00  0.00     0.023 A 
ATOM     84  C   UNL A   1      45.057  24.611  35.154  1.00  0.00     0.012 A 
ATOM     85  C   UNL A   1      45.021  26.772  36.274  1.00  0.00     0.148 A 
ATOM     86  C   UNL A   1      44.817  23.921  36.358  1.00  0.00     0.002 A 
ATOM     87  C   UNL A   1      44.862  26.067  37.476  1.00  0.00     0.091 A 
ATOM     88  F   UNL A   1      45.189  28.100  36.249  1.00  0.00    -0.205 F 
ATOM     89  C   UNL A   1      44.764  24.655  37.528  1.00  0.00     0.022 A 
BRANCH  87  90
ATOM     90  S   UNL A   1      45.381  26.865  38.998  1.00  0.00     0.127 S 
ATOM     91  O   UNL A   1      44.594  28.089  39.019  1.00  0.00    -0.237 OA
ATOM     92  O   UNL A   1      44.963  25.861  39.974  1.00  0.00    -0.237 OA
ATOM     93  O   UNL A   1      46.820  27.038  38.868  1.00  0.00    -0.744 OA
ENDBRANCH  87  90
ENDBRANCH  59  83
BRANCH  71  94
ATOM     94  C   UNL A   1      52.287  25.488  31.804  1.00  0.00     0.023 A 
ATOM     95  C   UNL A   1      53.333  26.411  31.683  1.00  0.00     0.012 A 
ATOM     96  C   UNL A   1      52.644  24.192  32.294  1.00  0.00     0.148 A 
ATOM     97  C   UNL A   1      54.649  26.073  31.985  1.00  0.00     0.002 A 
ATOM     98  C   UNL A   1      53.920  23.916  32.747  1.00  0.00     0.091 A 
ATOM     99  F   UNL A   1      51.771  23.183  32.318  1.00  0.00    -0.205 F 
ATOM    100  C   UNL A   1      54.937  24.844  32.558  1.00  0.00     0.022 A 
BRANCH  98 101
ATOM    101  S   UNL A   1      54.294  22.448  33.721  1.00  0.00     0.127 S 
ATOM    102  O   UNL A   1      54.045  21.384  32.750  1.00  0.00    -0.237 OA
ATOM    103  O   UNL A   1      55.705  22.664  34.045  1.00  0.00    -0.237 OA
ATOM    104  O   UNL A   1      53.403  22.464  34.872  1.00  0.00    -0.744 OA
ENDBRANCH  98 101
ENDBRANCH  71  94
ENDBRANCH  45  46
ENDBRANCH  38  40
ENDBRANCH  37  38
ENDBRANCH  36  37
ENDBRANCH  35  36
ENDBRANCH  34  35
ENDBRANCH  33  34
ENDBRANCH   1  33
TORSDOF 25
ENDMDL
MODEL 3
REMARK VINA RESULT:      -9.1      4.529      9.719
REMARK SMILES Cc1ccc(-c2cc(Cl)cc3c2O[C@@H](C(F)(F)F)C(C(=O)OCCOCCOCCOCCOC(=O)c2ccc(-c4c5nc(c(-c6cccc(S(=O)(=O)[O-])c6F)c6ccc([nH]6)c(-c6cccc(S(=O)(=O)[O-])c6F)c6nc(c(-c7cccc(S(=O)(=O)[O-])c7F)c7ccc4[nH]7)C=C6)C=C5)cc2)=C3)cc1
REMARK SMILES IDX 29 1 28 2 27 3 26 4 25 5 24 6 23 7 22 8 20 9 21 10 19 11
REMARK SMILES IDX 6 12 7 13 12 14 8 15 11 16 13 17 9 18 10 19 100 20 14 21
REMARK SMILES IDX 5 22 1 23 2 24 3 25 102 26 4 27 101 28 15 29 16 30 17 31
REMARK SMILES IDX 18 32 30 33 31 34 32 35 33 36 34 37 35 38 36 39 37 40 38 41
REMARK SMILES IDX 99 42 39 43 98 44 40 45 41 46 42 47 92 48 43 49 97 50 91 51
REMARK SMILES IDX 93 52 44 53 96 54 90 55 89 56 45 58 77 59 57 60 76 61 58 62
REMARK SMILES IDX 61 63 75 64 94 65 59 66 60 67 74 69 95 70 62 71 46 72 47 73
REMARK SMILES IDX 55 74 48 75 50 76 56 77 49 78 51 79 52 80 53 81 54 82 78 83
REMARK SMILES IDX 79 84 87 85 80 86 82 87 88 88 81 89 83 90 84 91 85 92 86 93
REMARK SMILES IDX 63 94 64 95 72 96 65 97 67 98 73 99 66 100 68 101 69 102
REMARK SMILES IDX 70 103 71 104
REMARK H PARENT 93 57 61 68
REMARK Flexibility Score: inf
ROOT
ATOM      1  C   UNL A   1      35.930  21.553  24.574  1.00  0.00     0.188 C 
ENDROOT
BRANCH   1   2
ATOM      2  O   UNL A   1      34.617  21.133  24.299  1.00  0.00    -0.377 OA
BRANCH   2   3
ATOM      3  C   UNL A   1      33.816  20.797  25.414  1.00  0.00     0.188 C 
BRANCH   3   4
ATOM      4  C   UNL A   1      33.807  21.558  26.743  1.00  0.00     0.188 C 
BRANCH   4   5
ATOM      5  O   UNL A   1      33.535  22.924  26.843  1.00  0.00    -0.376 OA
BRANCH   5   6
ATOM      6  C   UNL A   1      34.425  23.967  26.519  1.00  0.00     0.202 C 
BRANCH   6   7
ATOM      7  C   UNL A   1      34.418  25.012  25.300  1.00  0.00     0.261 C 
BRANCH   7   8
ATOM      8  O   UNL A   1      34.127  24.444  24.005  1.00  0.00    -0.460 OA
BRANCH   8   9
ATOM      9  C   UNL A   1      33.533  25.221  23.058  1.00  0.00     0.338 C 
ATOM     10  O   UNL A   1      33.835  26.344  22.691  1.00  0.00    -0.246 OA
BRANCH   9  11
ATOM     11  C   UNL A   1      32.676  24.280  22.204  1.00  0.00     0.087 C 
ATOM     12  C   UNL A   1      30.843  26.110  25.169  1.00  0.00     0.026 A 
ATOM     13  C   UNL A   1      30.491  25.278  26.245  1.00  0.00     0.033 A 
ATOM     14  C   UNL A   1      30.971  25.419  23.848  1.00  0.00     0.135 A 
ATOM     15  C   UNL A   1      30.395  23.894  26.114  1.00  0.00     0.042 A 
ATOM     16  C   UNL A   1      31.078  24.003  23.835  1.00  0.00     0.019 A 
ATOM     17  O   UNL A   1      31.112  25.991  22.501  1.00  0.00    -0.475 OA
ATOM     18  Cl  UNL A   1      30.075  22.942  27.505  1.00  0.00    -0.084 Cl
ATOM     19  C   UNL A   1      30.711  23.251  24.928  1.00  0.00     0.032 A 
ATOM     20  C   UNL A   1      31.901  23.342  22.783  1.00  0.00     0.027 C 
ATOM     21  C   UNL A   1      31.735  25.131  21.416  1.00  0.00     0.316 C 
BRANCH  12  22
ATOM     22  C   UNL A   1      31.442  27.434  25.709  1.00  0.00    -0.015 A 
ATOM     23  C   UNL A   1      35.398  30.173  27.844  1.00  0.00     0.044 C 
ATOM     24  C   UNL A   1      33.577  29.289  26.948  1.00  0.00    -0.051 A 
ATOM     25  C   UNL A   1      32.867  29.482  25.649  1.00  0.00     0.004 A 
ATOM     26  C   UNL A   1      32.378  28.648  27.578  1.00  0.00     0.004 A 
ATOM     27  C   UNL A   1      31.829  28.609  25.071  1.00  0.00     0.009 A 
ATOM     28  C   UNL A   1      31.469  27.683  27.059  1.00  0.00     0.009 A 
ENDBRANCH  12  22
BRANCH  21  29
ATOM     29  C   UNL A   1      32.526  25.495  20.099  1.00  0.00     0.430 C 
ATOM     30  F   UNL A   1      33.375  24.435  19.837  1.00  0.00    -0.167 F 
ATOM     31  F   UNL A   1      31.737  25.558  19.000  1.00  0.00    -0.167 F 
ATOM     32  F   UNL A   1      33.342  26.560  20.099  1.00  0.00    -0.167 F 
ENDBRANCH  21  29
ENDBRANCH   9  11
ENDBRANCH   8   9
ENDBRANCH   7   8
ENDBRANCH   6   7
ENDBRANCH   5   6
ENDBRANCH   4   5
ENDBRANCH   3   4
ENDBRANCH   2   3
ENDBRANCH   1   2
BRANCH   1  33
ATOM     33  C   UNL A   1      36.939  20.494  24.750  1.00  0.00     0.188 C 
BRANCH  33  34
ATOM     34  O   UNL A   1      38.031  21.097  25.400  1.00  0.00    -0.376 OA
BRANCH  34  35
ATOM     35  C   UNL A   1      37.822  22.408  25.846  1.00  0.00     0.202 C 
BRANCH  35  36
ATOM     36  C   UNL A   1      39.068  22.935  26.542  1.00  0.00     0.261 C 
BRANCH  36  37
ATOM     37  O   UNL A   1      40.221  22.273  25.907  1.00  0.00    -0.460 OA
BRANCH  37  38
ATOM     38  C   UNL A   1      41.314  21.826  26.626  1.00  0.00     0.338 C 
ATOM     39  O   UNL A   1      41.845  20.748  26.408  1.00  0.00    -0.246 OA
BRANCH  38  40
ATOM     40  C   UNL A   1      41.704  22.780  27.769  1.00  0.00     0.060 A 
ATOM     41  C   UNL A   1      41.791  24.179  27.648  1.00  0.00     0.016 A 
ATOM     42  C   UNL A   1      42.407  22.252  28.815  1.00  0.00     0.016 A 
ATOM     43  C   UNL A   1      42.833  24.938  28.304  1.00  0.00     0.010 A 
ATOM     44  C   UNL A   1      43.557  22.944  29.202  1.00  0.00     0.010 A 
ATOM     45  C   UNL A   1      43.884  24.273  28.904  1.00  0.00    -0.014 A 
BRANCH  45  46
ATOM     46  C   UNL A   1      45.248  24.708  29.454  1.00  0.00     0.031 A 
ATOM     47  C   UNL A   1      46.211  24.796  28.172  1.00  0.00     0.074 A 
ATOM     48  C   UNL A   1      45.461  25.305  30.741  1.00  0.00     0.049 A 
ATOM     49  N   UNL A   1      47.737  25.294  28.314  1.00  0.00    -0.248 NA
ATOM     50  C   UNL A   1      45.945  24.082  26.267  1.00  0.00     0.031 C 
ATOM     51  C   UNL A   1      46.387  26.395  31.240  1.00  0.00     0.029 A 
ATOM     52  N   UNL A   1      44.712  25.241  31.936  1.00  0.00    -0.354 N 
ATOM     53  C   UNL A   1      48.713  25.160  26.750  1.00  0.00     0.074 A 
ATOM     54  C   UNL A   1      47.437  24.395  25.443  1.00  0.00     0.031 C 
ATOM     55  C   UNL A   1      46.053  26.958  32.416  1.00  0.00     0.029 A 
ATOM     56  C   UNL A   1      45.229  26.003  33.008  1.00  0.00     0.049 A 
ATOM     57  H   UNL A   1      43.890  24.705  32.016  1.00  0.00     0.167 HD
ATOM     58  C   UNL A   1      49.936  25.813  26.815  1.00  0.00     0.034 A 
ATOM     59  C   UNL A   1      45.600  25.495  34.204  1.00  0.00     0.034 A 
ATOM     60  C   UNL A   1      50.161  26.282  28.251  1.00  0.00     0.049 A 
ATOM     61  C   UNL A   1      47.139  25.126  34.013  1.00  0.00     0.074 A 
ATOM     62  C   UNL A   1      50.367  27.533  28.806  1.00  0.00     0.029 A 
ATOM     63  N   UNL A   1      49.946  25.452  29.395  1.00  0.00    -0.354 N 
ATOM     64  N   UNL A   1      47.775  25.055  32.840  1.00  0.00    -0.248 NA
ATOM     65  C   UNL A   1      48.121  25.255  35.092  1.00  0.00     0.031 C 
ATOM     66  C   UNL A   1      50.185  27.472  30.227  1.00  0.00     0.029 A 
ATOM     67  C   UNL A   1      49.882  26.164  30.615  1.00  0.00     0.049 A 
ATOM     68  H   UNL A   1      49.851  24.473  29.339  1.00  0.00     0.167 HD
ATOM     69  C   UNL A   1      49.128  25.321  32.946  1.00  0.00     0.074 A 
ATOM     70  C   UNL A   1      49.278  25.396  34.410  1.00  0.00     0.031 C 
ATOM     71  C   UNL A   1      50.090  25.533  31.950  1.00  0.00     0.034 A 
BRANCH  58  72
ATOM     72  C   UNL A   1      50.631  26.491  25.556  1.00  0.00     0.023 A 
ATOM     73  C   UNL A   1      49.802  26.869  24.473  1.00  0.00     0.012 A 
ATOM     74  C   UNL A   1      52.031  26.562  25.268  1.00  0.00     0.148 A 
ATOM     75  C   UNL A   1      50.280  27.146  23.178  1.00  0.00     0.002 A 
ATOM     76  C   UNL A   1      52.517  26.844  23.966  1.00  0.00     0.091 A 
ATOM     77  F   UNL A   1      52.907  26.290  26.241  1.00  0.00    -0.205 F 
ATOM     78  C   UNL A   1      51.637  27.116  22.917  1.00  0.00     0.022 A 
BRANCH  76  79
ATOM     79  S   UNL A   1      54.272  26.783  23.517  1.00  0.00     0.127 S 
ATOM     80  O   UNL A   1      54.757  25.595  24.225  1.00  0.00    -0.237 OA
ATOM     81  O   UNL A   1      54.216  26.631  22.064  1.00  0.00    -0.237 OA
ATOM     82  O   UNL A   1      54.848  28.032  24.001  1.00  0.00    -0.744 OA
ENDBRANCH  76  79
ENDBRANCH  58  72
BRANCH  59  83
ATOM     83  C   UNL A   1      44.262  24.995  34.738  1.00  0.00     0.023 A 
ATOM     84  C   UNL A   1      44.385  24.180  35.948  1.00  0.00     0.012 A 
ATOM     85  C   UNL A   1      43.199  25.898  34.697  1.00  0.00     0.148 A 
ATOM     86  C   UNL A   1      43.685  24.482  37.133  1.00  0.00     0.002 A 
ATOM     87  C   UNL A   1      42.568  26.240  35.901  1.00  0.00     0.091 A 
ATOM     88  F   UNL A   1      43.021  26.610  33.577  1.00  0.00    -0.205 F 
ATOM     89  C   UNL A   1      42.806  25.548  37.113  1.00  0.00     0.022 A 
BRANCH  87  90
ATOM     90  S   UNL A   1      41.925  27.908  36.074  1.00  0.00     0.127 S 
ATOM     91  O   UNL A   1      41.301  28.160  34.784  1.00  0.00    -0.237 OA
ATOM     92  O   UNL A   1      40.983  27.712  37.173  1.00  0.00    -0.237 OA
ATOM     93  O   UNL A   1      43.082  28.733  36.391  1.00  0.00    -0.744 OA
ENDBRANCH  87  90
ENDBRANCH  59  83
BRANCH  71  94
ATOM     94  C   UNL A   1      51.560  25.143  32.175  1.00  0.00     0.023 A 
ATOM     95  C   UNL A   1      52.521  26.137  32.387  1.00  0.00     0.012 A 
ATOM     96  C   UNL A   1      51.966  23.801  32.460  1.00  0.00     0.148 A 
ATOM     97  C   UNL A   1      53.812  25.833  32.810  1.00  0.00     0.002 A 
ATOM     98  C   UNL A   1      53.191  23.524  33.036  1.00  0.00     0.091 A 
ATOM     99  F   UNL A   1      51.195  22.754  32.163  1.00  0.00    -0.205 F 
ATOM    100  C   UNL A   1      54.134  24.535  33.177  1.00  0.00     0.022 A 
BRANCH  98 101
ATOM    101  S   UNL A   1      53.568  21.918  33.760  1.00  0.00     0.127 S 
ATOM    102  O   UNL A   1      53.795  21.107  32.565  1.00  0.00    -0.237 OA
ATOM    103  O   UNL A   1      54.774  22.222  34.532  1.00  0.00    -0.237 OA
ATOM    104  O   UNL A   1      52.417  21.536  34.565  1.00  0.00    -0.744 OA
ENDBRANCH  98 101
ENDBRANCH  71  94
ENDBRANCH  45  46
ENDBRANCH  38  40
ENDBRANCH  37  38
ENDBRANCH  36  37
ENDBRANCH  35  36
ENDBRANCH  34  35
ENDBRANCH  33  34
ENDBRANCH   1  33
TORSDOF 25
ENDMDL
