MODEL 1
REMARK VINA RESULT:      -9.6      0.000      0.000
REMARK SMILES C/C(=N\Nc1ccccc1C(=O)OCCOCCOCCOCCOC(=O)c1ccc(-c2c3nc(c(-c4cccc(S(=O)(=O)[O-])c4F)c4ccc([nH]4)c(-c4cccc(S(=O)(=O)[O-])c4F)c4nc(c(-c5cccc(S(=O)(=O)[O-])c5F)c5ccc2[nH]5)C=C4)C=C3)cc1)c1ccc(S(C)(=O)=O)cc1
REMARK SMILES IDX 18 1 17 2 16 3 15 4 14 5 13 6 11 7 12 8 10 9 5 10 6 11 7 12
REMARK SMILES IDX 9 13 8 14 4 15 3 17 1 18 2 19 91 20 92 21 100 22 93 23 99 24
REMARK SMILES IDX 94 25 95 26 96 27 97 28 98 29 19 30 20 31 21 32 22 33 23 34
REMARK SMILES IDX 24 35 25 36 26 37 27 38 28 39 29 40 90 41 30 42 89 43 31 44
REMARK SMILES IDX 32 45 33 46 83 47 34 48 88 49 82 50 84 51 35 52 87 53 81 54
REMARK SMILES IDX 80 55 36 57 68 58 48 59 67 60 49 61 52 62 66 63 85 64 50 65
REMARK SMILES IDX 51 66 65 68 86 69 53 70 37 71 38 72 46 73 39 74 41 75 47 76
REMARK SMILES IDX 40 77 42 78 43 79 44 80 45 81 69 82 70 83 78 84 71 85 73 86
REMARK SMILES IDX 79 87 72 88 74 89 75 90 76 91 77 92 54 93 55 94 63 95 56 96
REMARK SMILES IDX 58 97 64 98 57 99 59 100 60 101 61 102 62 103
REMARK H PARENT 4 16 84 56 52 67
REMARK Flexibility Score: inf
ROOT
ATOM      1  C   UNL A   1      38.085  22.099  25.742  1.00  0.00     0.188 C 
ENDROOT
BRANCH   1   2
ATOM      2  C   UNL A   1      37.243  23.393  25.679  1.00  0.00     0.188 C 
BRANCH   2   3
ATOM      3  O   UNL A   1      36.046  23.384  26.429  1.00  0.00    -0.376 OA
BRANCH   3   4
ATOM      4  C   UNL A   1      34.885  22.728  25.956  1.00  0.00     0.202 C 
BRANCH   4   5
ATOM      5  C   UNL A   1      33.729  23.434  25.239  1.00  0.00     0.261 C 
BRANCH   5   6
ATOM      6  O   UNL A   1      32.427  22.901  25.446  1.00  0.00    -0.460 OA
BRANCH   6   7
ATOM      7  C   UNL A   1      31.542  23.650  26.132  1.00  0.00     0.340 C 
ATOM      8  O   UNL A   1      31.285  23.567  27.324  1.00  0.00    -0.246 OA
BRANCH   7   9
ATOM      9  C   UNL A   1      31.058  24.748  25.262  1.00  0.00     0.085 A 
ATOM     10  C   UNL A   1      30.753  26.046  25.716  1.00  0.00     0.071 A 
ATOM     11  C   UNL A   1      30.244  26.960  24.769  1.00  0.00     0.028 A 
ATOM     12  C   UNL A   1      30.061  26.610  23.428  1.00  0.00     0.002 A 
ATOM     13  C   UNL A   1      30.878  24.401  23.908  1.00  0.00     0.018 A 
ATOM     14  C   UNL A   1      30.384  25.330  22.996  1.00  0.00     0.001 A 
BRANCH  10  15
ATOM     15  N   UNL A   1      31.064  26.590  26.986  1.00  0.00    -0.277 N 
ATOM     16  H   UNL A   1      30.880  26.038  27.781  1.00  0.00     0.190 HD
BRANCH  15  17
ATOM     17  N   UNL A   1      31.595  27.812  27.179  1.00  0.00    -0.180 NA
ATOM     18  C   UNL A   1      33.775  27.039  26.230  1.00  0.00     0.069 C 
ATOM     19  C   UNL A   1      32.835  28.052  26.859  1.00  0.00     0.065 C 
BRANCH  19  20
ATOM     20  C   UNL A   1      33.390  29.404  27.202  1.00  0.00    -0.002 A 
ATOM     21  C   UNL A   1      32.532  30.516  27.220  1.00  0.00     0.011 A 
ATOM     22  C   UNL A   1      34.731  29.567  27.572  1.00  0.00     0.011 A 
ATOM     23  C   UNL A   1      33.005  31.775  27.592  1.00  0.00     0.021 A 
ATOM     24  C   UNL A   1      35.216  30.828  27.925  1.00  0.00     0.021 A 
ATOM     25  C   UNL A   1      34.352  31.925  27.924  1.00  0.00     0.067 A 
BRANCH  25  26
ATOM     26  S   UNL A   1      34.986  33.536  28.318  1.00  0.00     0.175 S 
ATOM     27  C   UNL A   1      36.717  33.262  28.602  1.00  0.00     0.163 C 
ATOM     28  O   UNL A   1      34.824  34.357  27.134  1.00  0.00    -0.224 OA
ATOM     29  O   UNL A   1      34.397  33.936  29.584  1.00  0.00    -0.224 OA
ENDBRANCH  25  26
ENDBRANCH  19  20
ENDBRANCH  15  17
ENDBRANCH  10  15
ENDBRANCH   7   9
ENDBRANCH   6   7
ENDBRANCH   5   6
ENDBRANCH   4   5
ENDBRANCH   3   4
ENDBRANCH   2   3
ENDBRANCH   1   2
BRANCH   1  30
ATOM     30  O   UNL A   1      39.319  22.129  26.434  1.00  0.00    -0.377 OA
BRANCH  30  31
ATOM     31  C   UNL A   1      40.179  20.997  26.437  1.00  0.00     0.188 C 
BRANCH  31  32
ATOM     32  C   UNL A   1      41.242  20.760  27.534  1.00  0.00     0.188 C 
BRANCH  32  33
ATOM     33  O   UNL A   1      42.226  19.785  27.227  1.00  0.00    -0.376 OA
BRANCH  33  34
ATOM     34  C   UNL A   1      42.044  18.995  26.067  1.00  0.00     0.202 C 
BRANCH  34  35
ATOM     35  C   UNL A   1      43.301  18.333  25.486  1.00  0.00     0.261 C 
BRANCH  35  36
ATOM     36  O   UNL A   1      44.487  19.138  25.504  1.00  0.00    -0.460 OA
BRANCH  36  37
ATOM     37  C   UNL A   1      44.631  20.025  24.493  1.00  0.00     0.338 C 
ATOM     38  O   UNL A   1      44.642  19.789  23.302  1.00  0.00    -0.246 OA
BRANCH  37  39
ATOM     39  C   UNL A   1      44.585  21.378  25.079  1.00  0.00     0.060 A 
ATOM     40  C   UNL A   1      44.179  22.449  24.272  1.00  0.00     0.016 A 
ATOM     41  C   UNL A   1      44.960  21.586  26.408  1.00  0.00     0.016 A 
ATOM     42  C   UNL A   1      44.203  23.745  24.778  1.00  0.00     0.010 A 
ATOM     43  C   UNL A   1      45.004  22.888  26.908  1.00  0.00     0.010 A 
ATOM     44  C   UNL A   1      44.676  23.973  26.077  1.00  0.00    -0.014 A 
BRANCH  44  45
ATOM     45  C   UNL A   1      45.065  25.347  26.465  1.00  0.00     0.031 A 
ATOM     46  C   UNL A   1      43.994  26.251  27.015  1.00  0.00     0.074 A 
ATOM     47  C   UNL A   1      46.335  25.775  26.361  1.00  0.00     0.049 A 
ATOM     48  N   UNL A   1      44.083  27.487  27.424  1.00  0.00    -0.248 NA
ATOM     49  C   UNL A   1      42.640  25.679  27.115  1.00  0.00     0.031 C 
ATOM     50  C   UNL A   1      47.456  24.986  25.856  1.00  0.00     0.029 A 
ATOM     51  N   UNL A   1      46.885  26.995  26.662  1.00  0.00    -0.354 N 
ATOM     52  C   UNL A   1      42.796  27.851  27.805  1.00  0.00     0.074 A 
ATOM     53  C   UNL A   1      41.941  26.711  27.562  1.00  0.00     0.031 C 
ATOM     54  C   UNL A   1      48.562  25.752  25.859  1.00  0.00     0.029 A 
ATOM     55  C   UNL A   1      48.219  27.088  26.345  1.00  0.00     0.049 A 
ATOM     56  H   UNL A   1      46.374  27.732  27.068  1.00  0.00     0.167 HD
ATOM     57  C   UNL A   1      42.365  29.023  28.324  1.00  0.00     0.034 A 
ATOM     58  C   UNL A   1      49.057  28.141  26.422  1.00  0.00     0.034 A 
ATOM     59  C   UNL A   1      43.219  30.151  28.573  1.00  0.00     0.049 A 
ATOM     60  C   UNL A   1      48.545  29.446  26.980  1.00  0.00     0.074 A 
ATOM     61  C   UNL A   1      42.888  31.374  29.126  1.00  0.00     0.029 A 
ATOM     62  N   UNL A   1      44.570  30.198  28.272  1.00  0.00    -0.354 N 
ATOM     63  N   UNL A   1      47.351  29.742  27.434  1.00  0.00    -0.248 NA
ATOM     64  C   UNL A   1      49.510  30.552  27.073  1.00  0.00     0.031 C 
ATOM     65  C   UNL A   1      44.035  32.175  29.128  1.00  0.00     0.029 A 
ATOM     66  C   UNL A   1      45.089  31.433  28.618  1.00  0.00     0.049 A 
ATOM     67  H   UNL A   1      45.086  29.462  27.870  1.00  0.00     0.167 HD
ATOM     68  C   UNL A   1      47.432  31.049  27.906  1.00  0.00     0.074 A 
ATOM     69  C   UNL A   1      48.800  31.480  27.699  1.00  0.00     0.031 C 
ATOM     70  C   UNL A   1      46.465  31.827  28.454  1.00  0.00     0.034 A 
BRANCH  57  71
ATOM     71  C   UNL A   1      40.902  29.138  28.664  1.00  0.00     0.023 A 
ATOM     72  C   UNL A   1      39.963  29.408  27.646  1.00  0.00     0.012 A 
ATOM     73  C   UNL A   1      40.453  28.941  29.984  1.00  0.00     0.148 A 
ATOM     74  C   UNL A   1      38.605  29.514  27.944  1.00  0.00     0.002 A 
ATOM     75  C   UNL A   1      39.093  28.999  30.263  1.00  0.00     0.091 A 
ATOM     76  F   UNL A   1      41.364  28.713  30.941  1.00  0.00    -0.205 F 
ATOM     77  C   UNL A   1      38.170  29.298  29.249  1.00  0.00     0.022 A 
BRANCH  75  78
ATOM     78  S   UNL A   1      38.426  28.656  31.895  1.00  0.00     0.127 S 
ATOM     79  O   UNL A   1      39.218  29.557  32.732  1.00  0.00    -0.237 OA
ATOM     80  O   UNL A   1      37.024  29.041  31.740  1.00  0.00    -0.237 OA
ATOM     81  O   UNL A   1      38.645  27.235  32.130  1.00  0.00    -0.744 OA
ENDBRANCH  75  78
ENDBRANCH  57  71
BRANCH  58  82
ATOM     82  C   UNL A   1      50.478  28.002  25.994  1.00  0.00     0.023 A 
ATOM     83  C   UNL A   1      51.491  27.875  26.964  1.00  0.00     0.012 A 
ATOM     84  C   UNL A   1      50.830  27.995  24.630  1.00  0.00     0.148 A 
ATOM     85  C   UNL A   1      52.831  27.784  26.587  1.00  0.00     0.002 A 
ATOM     86  C   UNL A   1      52.161  27.843  24.259  1.00  0.00     0.091 A 
ATOM     87  F   UNL A   1      49.853  28.131  23.721  1.00  0.00    -0.205 F 
ATOM     88  C   UNL A   1      53.165  27.759  25.236  1.00  0.00     0.022 A 
BRANCH  86  89
ATOM     89  S   UNL A   1      52.672  27.663  22.547  1.00  0.00     0.127 S 
ATOM     90  O   UNL A   1      53.935  26.943  22.686  1.00  0.00    -0.237 OA
ATOM     91  O   UNL A   1      51.570  26.876  21.991  1.00  0.00    -0.237 OA
ATOM     92  O   UNL A   1      52.771  29.016  22.019  1.00  0.00    -0.744 OA
ENDBRANCH  86  89
ENDBRANCH  58  82
BRANCH  70  93
ATOM     93  C   UNL A   1      46.857  33.205  28.923  1.00  0.00     0.023 A 
ATOM     94  C   UNL A   1      47.384  33.391  30.216  1.00  0.00     0.012 A 
ATOM     95  C   UNL A   1      46.758  34.310  28.053  1.00  0.00     0.148 A 
ATOM     96  C   UNL A   1      47.761  34.661  30.652  1.00  0.00     0.002 A 
ATOM     97  C   UNL A   1      47.187  35.561  28.475  1.00  0.00     0.091 A 
ATOM     98  F   UNL A   1      46.239  34.117  26.831  1.00  0.00    -0.205 F 
ATOM     99  C   UNL A   1      47.674  35.743  29.779  1.00  0.00     0.022 A 
BRANCH  97 100
ATOM    100  S   UNL A   1      47.206  36.988  27.383  1.00  0.00     0.127 S 
ATOM    101  O   UNL A   1      48.044  36.511  26.284  1.00  0.00    -0.237 OA
ATOM    102  O   UNL A   1      45.790  37.142  27.049  1.00  0.00    -0.237 OA
ATOM    103  O   UNL A   1      47.762  38.084  28.166  1.00  0.00    -0.744 OA
ENDBRANCH  97 100
ENDBRANCH  70  93
ENDBRANCH  44  45
ENDBRANCH  37  39
ENDBRANCH  36  37
ENDBRANCH  35  36
ENDBRANCH  34  35
ENDBRANCH  33  34
ENDBRANCH  32  33
ENDBRANCH  31  32
ENDBRANCH  30  31
ENDBRANCH   1  30
TORSDOF 27
ENDMDL
MODEL 2
REMARK VINA RESULT:      -8.5      2.607      3.359
REMARK SMILES C/C(=N\Nc1ccccc1C(=O)OCCOCCOCCOCCOC(=O)c1ccc(-c2c3nc(c(-c4cccc(S(=O)(=O)[O-])c4F)c4ccc([nH]4)c(-c4cccc(S(=O)(=O)[O-])c4F)c4nc(c(-c5cccc(S(=O)(=O)[O-])c5F)c5ccc2[nH]5)C=C4)C=C3)cc1)c1ccc(S(C)(=O)=O)cc1
REMARK SMILES IDX 18 1 17 2 16 3 15 4 14 5 13 6 11 7 12 8 10 9 5 10 6 11 7 12
REMARK SMILES IDX 9 13 8 14 4 15 3 17 1 18 2 19 91 20 92 21 100 22 93 23 99 24
REMARK SMILES IDX 94 25 95 26 96 27 97 28 98 29 19 30 20 31 21 32 22 33 23 34
REMARK SMILES IDX 24 35 25 36 26 37 27 38 28 39 29 40 90 41 30 42 89 43 31 44
REMARK SMILES IDX 32 45 33 46 83 47 34 48 88 49 82 50 84 51 35 52 87 53 81 54
REMARK SMILES IDX 80 55 36 57 68 58 48 59 67 60 49 61 52 62 66 63 85 64 50 65
REMARK SMILES IDX 51 66 65 68 86 69 53 70 37 71 38 72 46 73 39 74 41 75 47 76
REMARK SMILES IDX 40 77 42 78 43 79 44 80 45 81 69 82 70 83 78 84 71 85 73 86
REMARK SMILES IDX 79 87 72 88 74 89 75 90 76 91 77 92 54 93 55 94 63 95 56 96
REMARK SMILES IDX 58 97 64 98 57 99 59 100 60 101 61 102 62 103
REMARK H PARENT 4 16 84 56 52 67
REMARK Flexibility Score: inf
ROOT
ATOM      1  C   UNL A   1      38.173  19.578  25.109  1.00  0.00     0.188 C 
ENDROOT
BRANCH   1   2
ATOM      2  C   UNL A   1      37.045  20.503  24.603  1.00  0.00     0.188 C 
BRANCH   2   3
ATOM      3  O   UNL A   1      35.728  20.064  24.865  1.00  0.00    -0.376 OA
BRANCH   3   4
ATOM      4  C   UNL A   1      35.450  18.711  25.171  1.00  0.00     0.202 C 
BRANCH   4   5
ATOM      5  C   UNL A   1      35.005  17.668  24.139  1.00  0.00     0.261 C 
BRANCH   5   6
ATOM      6  O   UNL A   1      33.644  17.260  24.188  1.00  0.00    -0.460 OA
BRANCH   6   7
ATOM      7  C   UNL A   1      32.733  18.155  24.615  1.00  0.00     0.340 C 
ATOM      8  O   UNL A   1      32.306  18.274  25.754  1.00  0.00    -0.246 OA
BRANCH   7   9
ATOM      9  C   UNL A   1      32.462  19.127  23.530  1.00  0.00     0.085 A 
ATOM     10  C   UNL A   1      32.438  20.525  23.704  1.00  0.00     0.071 A 
ATOM     11  C   UNL A   1      32.104  21.311  22.581  1.00  0.00     0.028 A 
ATOM     12  C   UNL A   1      31.823  20.740  21.336  1.00  0.00     0.002 A 
ATOM     13  C   UNL A   1      32.185  18.556  22.273  1.00  0.00     0.018 A 
ATOM     14  C   UNL A   1      31.869  19.361  21.181  1.00  0.00     0.001 A 
BRANCH  10  15
ATOM     15  N   UNL A   1      32.882  21.241  24.843  1.00  0.00    -0.277 N 
ATOM     16  H   UNL A   1      33.443  20.764  25.496  1.00  0.00     0.190 HD
BRANCH  15  17
ATOM     17  N   UNL A   1      32.587  22.532  25.090  1.00  0.00    -0.180 NA
ATOM     18  C   UNL A   1      34.746  23.246  24.051  1.00  0.00     0.069 C 
ATOM     19  C   UNL A   1      33.421  23.476  24.755  1.00  0.00     0.065 C 
BRANCH  19  20
ATOM     20  C   UNL A   1      33.076  24.880  25.158  1.00  0.00    -0.002 A 
ATOM     21  C   UNL A   1      31.743  25.200  25.465  1.00  0.00     0.011 A 
ATOM     22  C   UNL A   1      34.066  25.859  25.302  1.00  0.00     0.011 A 
ATOM     23  C   UNL A   1      31.400  26.482  25.901  1.00  0.00     0.021 A 
ATOM     24  C   UNL A   1      33.727  27.149  25.717  1.00  0.00     0.021 A 
ATOM     25  C   UNL A   1      32.395  27.454  26.004  1.00  0.00     0.067 A 
BRANCH  25  26
ATOM     26  S   UNL A   1      31.961  29.109  26.476  1.00  0.00     0.175 S 
ATOM     27  C   UNL A   1      33.523  29.909  26.738  1.00  0.00     0.163 C 
ATOM     28  O   UNL A   1      31.303  29.716  25.335  1.00  0.00    -0.224 OA
ATOM     29  O   UNL A   1      31.292  29.032  27.763  1.00  0.00    -0.224 OA
ENDBRANCH  25  26
ENDBRANCH  19  20
ENDBRANCH  15  17
ENDBRANCH  10  15
ENDBRANCH   7   9
ENDBRANCH   6   7
ENDBRANCH   5   6
ENDBRANCH   4   5
ENDBRANCH   3   4
ENDBRANCH   2   3
ENDBRANCH   1   2
BRANCH   1  30
ATOM     30  O   UNL A   1      39.372  20.167  25.576  1.00  0.00    -0.377 OA
BRANCH  30  31
ATOM     31  C   UNL A   1      40.416  19.366  26.114  1.00  0.00     0.188 C 
BRANCH  31  32
ATOM     32  C   UNL A   1      41.444  19.908  27.133  1.00  0.00     0.188 C 
BRANCH  32  33
ATOM     33  O   UNL A   1      42.805  19.752  26.767  1.00  0.00    -0.376 OA
BRANCH  33  34
ATOM     34  C   UNL A   1      43.102  19.002  25.603  1.00  0.00     0.202 C 
BRANCH  34  35
ATOM     35  C   UNL A   1      44.563  18.570  25.422  1.00  0.00     0.261 C 
BRANCH  35  36
ATOM     36  O   UNL A   1      45.478  19.615  25.069  1.00  0.00    -0.460 OA
BRANCH  36  37
ATOM     37  C   UNL A   1      45.038  20.525  24.169  1.00  0.00     0.338 C 
ATOM     38  O   UNL A   1      44.646  20.314  23.040  1.00  0.00    -0.246 OA
BRANCH  37  39
ATOM     39  C   UNL A   1      44.936  21.823  24.864  1.00  0.00     0.060 A 
ATOM     40  C   UNL A   1      44.468  22.934  24.150  1.00  0.00     0.016 A 
ATOM     41  C   UNL A   1      45.316  21.941  26.202  1.00  0.00     0.016 A 
ATOM     42  C   UNL A   1      44.437  24.185  24.759  1.00  0.00     0.010 A 
ATOM     43  C   UNL A   1      45.305  23.199  26.805  1.00  0.00     0.010 A 
ATOM     44  C   UNL A   1      44.915  24.331  26.068  1.00  0.00    -0.014 A 
BRANCH  44  45
ATOM     45  C   UNL A   1      45.243  25.686  26.563  1.00  0.00     0.031 A 
ATOM     46  C   UNL A   1      44.114  26.536  27.081  1.00  0.00     0.074 A 
ATOM     47  C   UNL A   1      46.507  26.142  26.580  1.00  0.00     0.049 A 
ATOM     48  N   UNL A   1      44.144  27.748  27.567  1.00  0.00    -0.248 NA
ATOM     49  C   UNL A   1      42.769  25.935  27.045  1.00  0.00     0.031 C 
ATOM     50  C   UNL A   1      47.681  25.405  26.117  1.00  0.00     0.029 A 
ATOM     51  N   UNL A   1      47.006  27.352  26.992  1.00  0.00    -0.354 N 
ATOM     52  C   UNL A   1      42.825  28.064  27.869  1.00  0.00     0.074 A 
ATOM     53  C   UNL A   1      42.016  26.926  27.497  1.00  0.00     0.031 C 
ATOM     54  C   UNL A   1      48.765  26.190  26.248  1.00  0.00     0.029 A 
ATOM     55  C   UNL A   1      48.357  27.488  26.783  1.00  0.00     0.049 A 
ATOM     56  H   UNL A   1      46.450  28.054  27.399  1.00  0.00     0.167 HD
ATOM     57  C   UNL A   1      42.330  29.196  28.421  1.00  0.00     0.034 A 
ATOM     58  C   UNL A   1      49.164  28.549  26.983  1.00  0.00     0.034 A 
ATOM     59  C   UNL A   1      43.137  30.323  28.798  1.00  0.00     0.049 A 
ATOM     60  C   UNL A   1      48.582  29.809  27.574  1.00  0.00     0.074 A 
ATOM     61  C   UNL A   1      42.739  31.505  29.394  1.00  0.00     0.029 A 
ATOM     62  N   UNL A   1      44.506  30.412  28.603  1.00  0.00    -0.354 N 
ATOM     63  N   UNL A   1      47.351  30.057  27.954  1.00  0.00    -0.248 NA
ATOM     64  C   UNL A   1      49.512  30.926  27.804  1.00  0.00     0.031 C 
ATOM     65  C   UNL A   1      43.864  32.325  29.529  1.00  0.00     0.029 A 
ATOM     66  C   UNL A   1      44.970  31.634  29.058  1.00  0.00     0.049 A 
ATOM     67  H   UNL A   1      45.067  29.710  28.200  1.00  0.00     0.167 HD
ATOM     68  C   UNL A   1      47.368  31.334  28.504  1.00  0.00     0.074 A 
ATOM     69  C   UNL A   1      48.737  31.801  28.427  1.00  0.00     0.031 C 
ATOM     70  C   UNL A   1      46.345  32.062  29.021  1.00  0.00     0.034 A 
BRANCH  57  71
ATOM     71  C   UNL A   1      40.843  29.264  28.655  1.00  0.00     0.023 A 
ATOM     72  C   UNL A   1      39.968  29.453  27.565  1.00  0.00     0.012 A 
ATOM     73  C   UNL A   1      40.311  29.103  29.949  1.00  0.00     0.148 A 
ATOM     74  C   UNL A   1      38.589  29.515  27.765  1.00  0.00     0.002 A 
ATOM     75  C   UNL A   1      38.935  29.116  30.132  1.00  0.00     0.091 A 
ATOM     76  F   UNL A   1      41.162  28.952  30.974  1.00  0.00    -0.205 F 
ATOM     77  C   UNL A   1      38.073  29.335  29.045  1.00  0.00     0.022 A 
BRANCH  75  78
ATOM     78  S   UNL A   1      38.169  28.813  31.728  1.00  0.00     0.127 S 
ATOM     79  O   UNL A   1      36.754  29.015  31.419  1.00  0.00    -0.237 OA
ATOM     80  O   UNL A   1      38.544  27.423  31.989  1.00  0.00    -0.237 OA
ATOM     81  O   UNL A   1      38.751  29.783  32.646  1.00  0.00    -0.744 OA
ENDBRANCH  75  78
ENDBRANCH  57  71
BRANCH  58  82
ATOM     82  C   UNL A   1      50.615  28.462  26.656  1.00  0.00     0.023 A 
ATOM     83  C   UNL A   1      51.067  28.841  25.377  1.00  0.00     0.012 A 
ATOM     84  C   UNL A   1      51.549  28.003  27.606  1.00  0.00     0.148 A 
ATOM     85  C   UNL A   1      52.415  28.729  25.036  1.00  0.00     0.002 A 
ATOM     86  C   UNL A   1      52.899  27.951  27.279  1.00  0.00     0.091 A 
ATOM     87  F   UNL A   1      51.098  27.633  28.813  1.00  0.00    -0.205 F 
ATOM     88  C   UNL A   1      53.331  28.293  25.989  1.00  0.00     0.022 A 
BRANCH  86  89
ATOM     89  S   UNL A   1      54.167  27.534  28.480  1.00  0.00     0.127 S 
ATOM     90  O   UNL A   1      53.540  26.433  29.208  1.00  0.00    -0.237 OA
ATOM     91  O   UNL A   1      55.280  27.145  27.612  1.00  0.00    -0.237 OA
ATOM     92  O   UNL A   1      54.400  28.749  29.249  1.00  0.00    -0.744 OA
ENDBRANCH  86  89
ENDBRANCH  58  82
BRANCH  70  93
ATOM     93  C   UNL A   1      46.670  33.416  29.598  1.00  0.00     0.023 A 
ATOM     94  C   UNL A   1      46.937  33.556  30.974  1.00  0.00     0.012 A 
ATOM     95  C   UNL A   1      46.769  34.543  28.757  1.00  0.00     0.148 A 
ATOM     96  C   UNL A   1      47.252  34.805  31.511  1.00  0.00     0.002 A 
ATOM     97  C   UNL A   1      47.137  35.772  29.291  1.00  0.00     0.091 A 
ATOM     98  F   UNL A   1      46.496  34.395  27.453  1.00  0.00    -0.205 F 
ATOM     99  C   UNL A   1      47.363  35.908  30.669  1.00  0.00     0.022 A 
BRANCH  97 100
ATOM    100  S   UNL A   1      47.403  37.222  28.265  1.00  0.00     0.127 S 
ATOM    101  O   UNL A   1      46.061  37.465  27.738  1.00  0.00    -0.237 OA
ATOM    102  O   UNL A   1      47.865  38.212  29.239  1.00  0.00    -0.237 OA
ATOM    103  O   UNL A   1      48.404  36.836  27.278  1.00  0.00    -0.744 OA
ENDBRANCH  97 100
ENDBRANCH  70  93
ENDBRANCH  44  45
ENDBRANCH  37  39
ENDBRANCH  36  37
ENDBRANCH  35  36
ENDBRANCH  34  35
ENDBRANCH  33  34
ENDBRANCH  32  33
ENDBRANCH  31  32
ENDBRANCH  30  31
ENDBRANCH   1  30
TORSDOF 27
ENDMDL
MODEL 3
REMARK VINA RESULT:      -8.3      5.442     11.015
REMARK SMILES C/C(=N\Nc1ccccc1C(=O)OCCOCCOCCOCCOC(=O)c1ccc(-c2c3nc(c(-c4cccc(S(=O)(=O)[O-])c4F)c4ccc([nH]4)c(-c4cccc(S(=O)(=O)[O-])c4F)c4nc(c(-c5cccc(S(=O)(=O)[O-])c5F)c5ccc2[nH]5)C=C4)C=C3)cc1)c1ccc(S(C)(=O)=O)cc1
REMARK SMILES IDX 18 1 17 2 16 3 15 4 14 5 13 6 11 7 12 8 10 9 5 10 6 11 7 12
REMARK SMILES IDX 9 13 8 14 4 15 3 17 1 18 2 19 91 20 92 21 100 22 93 23 99 24
REMARK SMILES IDX 94 25 95 26 96 27 97 28 98 29 19 30 20 31 21 32 22 33 23 34
REMARK SMILES IDX 24 35 25 36 26 37 27 38 28 39 29 40 90 41 30 42 89 43 31 44
REMARK SMILES IDX 32 45 33 46 83 47 34 48 88 49 82 50 84 51 35 52 87 53 81 54
REMARK SMILES IDX 80 55 36 57 68 58 48 59 67 60 49 61 52 62 66 63 85 64 50 65
REMARK SMILES IDX 51 66 65 68 86 69 53 70 37 71 38 72 46 73 39 74 41 75 47 76
REMARK SMILES IDX 40 77 42 78 43 79 44 80 45 81 69 82 70 83 78 84 71 85 73 86
REMARK SMILES IDX 79 87 72 88 74 89 75 90 76 91 77 92 54 93 55 94 63 95 56 96
REMARK SMILES IDX 58 97 64 98 57 99 59 100 60 101 61 102 62 103
REMARK H PARENT 4 16 84 56 52 67
REMARK Flexibility Score: inf
ROOT
ATOM      1  C   UNL A   1      39.033  29.051  31.101  1.00  0.00     0.188 C 
ENDROOT
BRANCH   1   2
ATOM      2  C   UNL A   1      39.385  29.979  29.917  1.00  0.00     0.188 C 
BRANCH   2   3
ATOM      3  O   UNL A   1      38.494  31.051  29.690  1.00  0.00    -0.376 OA
BRANCH   3   4
ATOM      4  C   UNL A   1      38.332  32.088  30.639  1.00  0.00     0.202 C 
BRANCH   4   5
ATOM      5  C   UNL A   1      37.138  32.201  31.595  1.00  0.00     0.261 C 
BRANCH   5   6
ATOM      6  O   UNL A   1      36.266  33.307  31.400  1.00  0.00    -0.460 OA
BRANCH   6   7
ATOM      7  C   UNL A   1      34.939  33.078  31.442  1.00  0.00     0.340 C 
ATOM      8  O   UNL A   1      34.343  32.396  32.263  1.00  0.00    -0.246 OA
BRANCH   7   9
ATOM      9  C   UNL A   1      34.264  33.948  30.452  1.00  0.00     0.085 A 
ATOM     10  C   UNL A   1      34.293  33.738  29.059  1.00  0.00     0.071 A 
ATOM     11  C   UNL A   1      33.648  34.695  28.247  1.00  0.00     0.028 A 
ATOM     12  C   UNL A   1      32.989  35.801  28.790  1.00  0.00     0.002 A 
ATOM     13  C   UNL A   1      33.593  35.061  30.995  1.00  0.00     0.018 A 
ATOM     14  C   UNL A   1      32.956  35.982  30.166  1.00  0.00     0.001 A 
BRANCH  10  15
ATOM     15  N   UNL A   1      34.752  32.576  28.391  1.00  0.00    -0.277 N 
ATOM     16  H   UNL A   1      35.720  32.402  28.384  1.00  0.00     0.190 HD
BRANCH  15  17
ATOM     17  N   UNL A   1      33.950  31.695  27.763  1.00  0.00    -0.180 NA
ATOM     18  C   UNL A   1      35.628  29.878  28.126  1.00  0.00     0.069 C 
ATOM     19  C   UNL A   1      34.322  30.456  27.611  1.00  0.00     0.065 C 
BRANCH  19  20
ATOM     20  C   UNL A   1      33.427  29.557  26.809  1.00  0.00    -0.002 A 
ATOM     21  C   UNL A   1      32.880  28.412  27.413  1.00  0.00     0.011 A 
ATOM     22  C   UNL A   1      33.068  29.874  25.493  1.00  0.00     0.011 A 
ATOM     23  C   UNL A   1      31.997  27.589  26.712  1.00  0.00     0.021 A 
ATOM     24  C   UNL A   1      32.202  29.043  24.779  1.00  0.00     0.021 A 
ATOM     25  C   UNL A   1      31.680  27.902  25.390  1.00  0.00     0.067 A 
BRANCH  25  26
ATOM     26  S   UNL A   1      30.624  26.819  24.460  1.00  0.00     0.175 S 
ATOM     27  C   UNL A   1      29.861  25.794  25.692  1.00  0.00     0.163 C 
ATOM     28  O   UNL A   1      29.610  27.647  23.838  1.00  0.00    -0.224 OA
ATOM     29  O   UNL A   1      31.480  25.965  23.655  1.00  0.00    -0.224 OA
ENDBRANCH  25  26
ENDBRANCH  19  20
ENDBRANCH  15  17
ENDBRANCH  10  15
ENDBRANCH   7   9
ENDBRANCH   6   7
ENDBRANCH   5   6
ENDBRANCH   4   5
ENDBRANCH   3   4
ENDBRANCH   2   3
ENDBRANCH   1   2
BRANCH   1  30
ATOM     30  O   UNL A   1      39.892  29.034  32.225  1.00  0.00    -0.377 OA
BRANCH  30  31
ATOM     31  C   UNL A   1      39.706  29.948  33.298  1.00  0.00     0.188 C 
BRANCH  31  32
ATOM     32  C   UNL A   1      40.439  29.807  34.651  1.00  0.00     0.188 C 
BRANCH  32  33
ATOM     33  O   UNL A   1      39.637  30.011  35.803  1.00  0.00    -0.376 OA
BRANCH  33  34
ATOM     34  C   UNL A   1      38.413  30.706  35.649  1.00  0.00     0.202 C 
BRANCH  34  35
ATOM     35  C   UNL A   1      37.918  31.496  36.868  1.00  0.00     0.261 C 
BRANCH  35  36
ATOM     36  O   UNL A   1      38.940  32.116  37.659  1.00  0.00    -0.460 OA
BRANCH  36  37
ATOM     37  C   UNL A   1      38.858  33.458  37.808  1.00  0.00     0.338 C 
ATOM     38  O   UNL A   1      38.233  34.070  38.650  1.00  0.00    -0.246 OA
BRANCH  37  39
ATOM     39  C   UNL A   1      39.823  34.068  36.872  1.00  0.00     0.060 A 
ATOM     40  C   UNL A   1      39.336  34.700  35.720  1.00  0.00     0.016 A 
ATOM     41  C   UNL A   1      41.194  33.998  37.125  1.00  0.00     0.016 A 
ATOM     42  C   UNL A   1      40.229  35.213  34.783  1.00  0.00     0.010 A 
ATOM     43  C   UNL A   1      42.088  34.493  36.175  1.00  0.00     0.010 A 
ATOM     44  C   UNL A   1      41.607  35.054  34.979  1.00  0.00    -0.014 A 
BRANCH  44  45
ATOM     45  C   UNL A   1      42.519  35.240  33.828  1.00  0.00     0.031 A 
ATOM     46  C   UNL A   1      43.147  36.595  33.642  1.00  0.00     0.074 A 
ATOM     47  C   UNL A   1      42.806  34.231  32.988  1.00  0.00     0.049 A 
ATOM     48  N   UNL A   1      43.975  37.006  32.720  1.00  0.00    -0.248 NA
ATOM     49  C   UNL A   1      42.789  37.626  34.633  1.00  0.00     0.031 C 
ATOM     50  C   UNL A   1      42.269  32.875  33.077  1.00  0.00     0.029 A 
ATOM     51  N   UNL A   1      43.613  34.206  31.879  1.00  0.00    -0.354 N 
ATOM     52  C   UNL A   1      44.217  38.345  33.002  1.00  0.00     0.074 A 
ATOM     53  C   UNL A   1      43.436  38.685  34.169  1.00  0.00     0.031 C 
ATOM     54  C   UNL A   1      42.744  32.152  32.046  1.00  0.00     0.029 A 
ATOM     55  C   UNL A   1      43.599  33.001  31.218  1.00  0.00     0.049 A 
ATOM     56  H   UNL A   1      44.152  34.976  31.586  1.00  0.00     0.167 HD
ATOM     57  C   UNL A   1      45.028  39.214  32.355  1.00  0.00     0.034 A 
ATOM     58  C   UNL A   1      44.194  32.638  30.063  1.00  0.00     0.034 A 
ATOM     59  C   UNL A   1      45.811  38.871  31.200  1.00  0.00     0.049 A 
ATOM     60  C   UNL A   1      45.072  33.634  29.348  1.00  0.00     0.074 A 
ATOM     61  C   UNL A   1      46.690  39.668  30.490  1.00  0.00     0.029 A 
ATOM     62  N   UNL A   1      45.798  37.633  30.578  1.00  0.00    -0.354 N 
ATOM     63  N   UNL A   1      45.376  34.865  29.684  1.00  0.00    -0.248 NA
ATOM     64  C   UNL A   1      45.724  33.176  28.111  1.00  0.00     0.031 C 
ATOM     65  C   UNL A   1      47.183  38.920  29.416  1.00  0.00     0.029 A 
ATOM     66  C   UNL A   1      46.645  37.644  29.485  1.00  0.00     0.049 A 
ATOM     67  H   UNL A   1      45.263  36.859  30.870  1.00  0.00     0.167 HD
ATOM     68  C   UNL A   1      46.284  35.311  28.729  1.00  0.00     0.074 A 
ATOM     69  C   UNL A   1      46.496  34.210  27.812  1.00  0.00     0.031 C 
ATOM     70  C   UNL A   1      46.885  36.523  28.613  1.00  0.00     0.034 A 
BRANCH  57  71
ATOM     71  C   UNL A   1      45.113  40.619  32.893  1.00  0.00     0.023 A 
ATOM     72  C   UNL A   1      46.020  40.921  33.930  1.00  0.00     0.012 A 
ATOM     73  C   UNL A   1      44.323  41.647  32.344  1.00  0.00     0.148 A 
ATOM     74  C   UNL A   1      46.113  42.217  34.436  1.00  0.00     0.002 A 
ATOM     75  C   UNL A   1      44.458  42.945  32.819  1.00  0.00     0.091 A 
ATOM     76  F   UNL A   1      43.449  41.334  31.377  1.00  0.00    -0.205 F 
ATOM     77  C   UNL A   1      45.341  43.230  33.873  1.00  0.00     0.022 A 
BRANCH  75  78
ATOM     78  S   UNL A   1      43.569  44.333  32.106  1.00  0.00     0.127 S 
ATOM     79  O   UNL A   1      44.009  44.280  30.712  1.00  0.00    -0.237 OA
ATOM     80  O   UNL A   1      42.175  43.947  32.321  1.00  0.00    -0.237 OA
ATOM     81  O   UNL A   1      43.997  45.511  32.849  1.00  0.00    -0.744 OA
ENDBRANCH  75  78
ENDBRANCH  57  71
BRANCH  58  82
ATOM     82  C   UNL A   1      44.011  31.261  29.526  1.00  0.00     0.023 A 
ATOM     83  C   UNL A   1      42.950  30.992  28.639  1.00  0.00     0.012 A 
ATOM     84  C   UNL A   1      44.882  30.215  29.890  1.00  0.00     0.148 A 
ATOM     85  C   UNL A   1      42.736  29.701  28.156  1.00  0.00     0.002 A 
ATOM     86  C   UNL A   1      44.699  28.944  29.358  1.00  0.00     0.091 A 
ATOM     87  F   UNL A   1      45.877  30.487  30.747  1.00  0.00    -0.205 F 
ATOM     88  C   UNL A   1      43.614  28.680  28.507  1.00  0.00     0.022 A 
BRANCH  86  89
ATOM     89  S   UNL A   1      45.856  27.602  29.644  1.00  0.00     0.127 S 
ATOM     90  O   UNL A   1      45.868  27.522  31.103  1.00  0.00    -0.237 OA
ATOM     91  O   UNL A   1      45.189  26.486  28.971  1.00  0.00    -0.237 OA
ATOM     92  O   UNL A   1      47.106  28.017  29.024  1.00  0.00    -0.744 OA
ENDBRANCH  86  89
ENDBRANCH  58  82
BRANCH  70  93
ATOM     93  C   UNL A   1      47.874  36.710  27.491  1.00  0.00     0.023 A 
ATOM     94  C   UNL A   1      47.467  37.297  26.277  1.00  0.00     0.012 A 
ATOM     95  C   UNL A   1      49.227  36.355  27.667  1.00  0.00     0.148 A 
ATOM     96  C   UNL A   1      48.381  37.484  25.239  1.00  0.00     0.002 A 
ATOM     97  C   UNL A   1      50.141  36.596  26.650  1.00  0.00     0.091 A 
ATOM     98  F   UNL A   1      49.593  35.783  28.823  1.00  0.00    -0.205 F 
ATOM     99  C   UNL A   1      49.718  37.145  25.430  1.00  0.00     0.022 A 
BRANCH  97 100
ATOM    100  S   UNL A   1      51.900  36.285  26.847  1.00  0.00     0.127 S 
ATOM    101  O   UNL A   1      52.419  36.662  25.533  1.00  0.00    -0.237 OA
ATOM    102  O   UNL A   1      52.258  37.201  27.930  1.00  0.00    -0.237 OA
ATOM    103  O   UNL A   1      52.021  34.873  27.188  1.00  0.00    -0.744 OA
ENDBRANCH  97 100
ENDBRANCH  70  93
ENDBRANCH  44  45
ENDBRANCH  37  39
ENDBRANCH  36  37
ENDBRANCH  35  36
ENDBRANCH  34  35
ENDBRANCH  33  34
ENDBRANCH  32  33
ENDBRANCH  31  32
ENDBRANCH  30  31
ENDBRANCH   1  30
TORSDOF 27
ENDMDL
