MODEL 1
REMARK VINA RESULT:      -8.0      0.000      0.000
REMARK SMILES COCCS(=O)(=O)Cc1ccc(C(=O)OCCOCCOCCOCCOC(=O)c2ccc(-c3c4nc(c(-c5cccc(S(=O)(=O)[O-])c5F)c5ccc([nH]5)c(-c5cccc(S(=O)(=O)[O-])c5F)c5nc(c(-c6cccc(S(=O)(=O)[O-])c6F)c6ccc3[nH]6)C=C5)C=C4)cc2)cn1
REMARK SMILES IDX 20 1 19 2 18 3 17 4 16 5 15 6 13 7 14 8 12 9 9 10 10 11
REMARK SMILES IDX 94 12 11 13 93 14 8 15 5 16 6 17 7 18 4 19 3 20 2 21 1 22
REMARK SMILES IDX 21 23 22 24 23 25 24 26 25 27 26 28 27 29 28 30 29 31 30 32
REMARK SMILES IDX 31 33 92 34 32 35 91 36 33 37 34 38 35 39 85 40 36 41 90 42
REMARK SMILES IDX 84 43 86 44 37 45 89 46 83 47 82 48 38 50 70 51 50 52 69 53
REMARK SMILES IDX 51 54 54 55 68 56 87 57 52 58 53 59 67 61 88 62 55 63 39 64
REMARK SMILES IDX 40 65 48 66 41 67 43 68 49 69 42 70 44 71 45 72 46 73 47 74
REMARK SMILES IDX 71 75 72 76 80 77 73 78 75 79 81 80 74 81 76 82 77 83 78 84
REMARK SMILES IDX 79 85 56 86 57 87 65 88 58 89 60 90 66 91 59 92 61 93 62 94
REMARK SMILES IDX 63 95 64 96
REMARK H PARENT 86 49 54 60
REMARK Flexibility Score: inf
ROOT
ATOM      1  C   UNL A   1      33.863  34.906  29.702  1.00  0.00     0.188 C 
ENDROOT
BRANCH   1   2
ATOM      2  C   UNL A   1      33.748  34.500  28.218  1.00  0.00     0.188 C 
BRANCH   2   3
ATOM      3  O   UNL A   1      34.901  33.858  27.701  1.00  0.00    -0.376 OA
BRANCH   3   4
ATOM      4  C   UNL A   1      35.042  32.454  27.843  1.00  0.00     0.202 C 
BRANCH   4   5
ATOM      5  C   UNL A   1      33.782  31.597  28.041  1.00  0.00     0.261 C 
BRANCH   5   6
ATOM      6  O   UNL A   1      33.414  30.792  26.918  1.00  0.00    -0.460 OA
BRANCH   6   7
ATOM      7  C   UNL A   1      32.102  30.749  26.610  1.00  0.00     0.339 C 
ATOM      8  O   UNL A   1      31.323  31.686  26.587  1.00  0.00    -0.246 OA
BRANCH   7   9
ATOM      9  C   UNL A   1      31.805  29.412  26.070  1.00  0.00     0.078 A 
ATOM     10  C   UNL A   1      31.305  26.836  25.268  1.00  0.00     0.055 A 
ATOM     11  C   UNL A   1      30.950  27.889  24.425  1.00  0.00     0.026 A 
ATOM     12  N   UNL A   1      31.774  27.043  26.521  1.00  0.00    -0.259 NA
ATOM     13  C   UNL A   1      31.235  29.193  24.818  1.00  0.00     0.019 A 
ATOM     14  C   UNL A   1      32.014  28.321  26.894  1.00  0.00     0.127 A 
BRANCH  10  15
ATOM     15  C   UNL A   1      31.242  25.417  24.808  1.00  0.00     0.193 C 
BRANCH  15  16
ATOM     16  S   UNL A   1      32.839  24.915  24.157  1.00  0.00     0.158 S 
ATOM     17  O   UNL A   1      33.727  26.062  24.292  1.00  0.00    -0.228 OA
ATOM     18  O   UNL A   1      32.641  24.357  22.829  1.00  0.00    -0.228 OA
BRANCH  16  19
ATOM     19  C   UNL A   1      33.511  23.596  25.164  1.00  0.00     0.165 C 
BRANCH  19  20
ATOM     20  C   UNL A   1      33.690  22.294  24.411  1.00  0.00     0.176 C 
BRANCH  20  21
ATOM     21  O   UNL A   1      34.128  21.258  25.285  1.00  0.00    -0.384 OA
ATOM     22  C   UNL A   1      35.249  21.620  26.081  1.00  0.00     0.194 C 
ENDBRANCH  20  21
ENDBRANCH  19  20
ENDBRANCH  16  19
ENDBRANCH  15  16
ENDBRANCH  10  15
ENDBRANCH   7   9
ENDBRANCH   6   7
ENDBRANCH   5   6
ENDBRANCH   4   5
ENDBRANCH   3   4
ENDBRANCH   2   3
ENDBRANCH   1   2
BRANCH   1  23
ATOM     23  O   UNL A   1      32.669  35.051  30.451  1.00  0.00    -0.377 OA
BRANCH  23  24
ATOM     24  C   UNL A   1      32.538  36.128  31.380  1.00  0.00     0.188 C 
BRANCH  24  25
ATOM     25  C   UNL A   1      33.682  37.142  31.631  1.00  0.00     0.188 C 
BRANCH  25  26
ATOM     26  O   UNL A   1      34.427  36.924  32.817  1.00  0.00    -0.376 OA
BRANCH  26  27
ATOM     27  C   UNL A   1      34.586  35.588  33.257  1.00  0.00     0.202 C 
BRANCH  27  28
ATOM     28  C   UNL A   1      35.851  34.852  32.797  1.00  0.00     0.261 C 
BRANCH  28  29
ATOM     29  O   UNL A   1      35.940  33.464  33.154  1.00  0.00    -0.460 OA
BRANCH  29  30
ATOM     30  C   UNL A   1      36.529  33.160  34.329  1.00  0.00     0.338 C 
ATOM     31  O   UNL A   1      36.051  33.289  35.446  1.00  0.00    -0.246 OA
BRANCH  30  32
ATOM     32  C   UNL A   1      37.790  32.452  34.026  1.00  0.00     0.060 A 
ATOM     33  C   UNL A   1      38.943  32.757  34.764  1.00  0.00     0.016 A 
ATOM     34  C   UNL A   1      37.823  31.472  33.034  1.00  0.00     0.016 A 
ATOM     35  C   UNL A   1      40.142  32.102  34.485  1.00  0.00     0.010 A 
ATOM     36  C   UNL A   1      39.030  30.833  32.741  1.00  0.00     0.010 A 
ATOM     37  C   UNL A   1      40.202  31.170  33.442  1.00  0.00    -0.014 A 
BRANCH  37  38
ATOM     38  C   UNL A   1      41.517  30.693  32.951  1.00  0.00     0.031 A 
ATOM     39  C   UNL A   1      42.216  31.501  31.892  1.00  0.00     0.074 A 
ATOM     40  C   UNL A   1      42.078  29.567  33.424  1.00  0.00     0.049 A 
ATOM     41  N   UNL A   1      43.341  31.261  31.274  1.00  0.00    -0.248 NA
ATOM     42  C   UNL A   1      41.550  32.745  31.470  1.00  0.00     0.031 C 
ATOM     43  C   UNL A   1      41.505  28.704  34.457  1.00  0.00     0.029 A 
ATOM     44  N   UNL A   1      43.249  28.941  33.072  1.00  0.00    -0.354 N 
ATOM     45  C   UNL A   1      43.504  32.304  30.369  1.00  0.00     0.074 A 
ATOM     46  C   UNL A   1      42.356  33.172  30.511  1.00  0.00     0.031 C 
ATOM     47  C   UNL A   1      42.313  27.644  34.632  1.00  0.00     0.029 A 
ATOM     48  C   UNL A   1      43.440  27.736  33.706  1.00  0.00     0.049 A 
ATOM     49  H   UNL A   1      43.889  29.319  32.427  1.00  0.00     0.167 HD
ATOM     50  C   UNL A   1      44.522  32.526  29.505  1.00  0.00     0.034 A 
ATOM     51  C   UNL A   1      44.399  26.804  33.533  1.00  0.00     0.034 A 
ATOM     52  C   UNL A   1      45.666  31.666  29.372  1.00  0.00     0.049 A 
ATOM     53  C   UNL A   1      45.503  27.055  32.536  1.00  0.00     0.074 A 
ATOM     54  C   UNL A   1      46.773  31.829  28.558  1.00  0.00     0.029 A 
ATOM     55  N   UNL A   1      45.842  30.472  30.053  1.00  0.00    -0.354 N 
ATOM     56  N   UNL A   1      45.703  28.101  31.770  1.00  0.00    -0.248 NA
ATOM     57  C   UNL A   1      46.530  26.012  32.404  1.00  0.00     0.031 C 
ATOM     58  C   UNL A   1      47.598  30.711  28.715  1.00  0.00     0.029 A 
ATOM     59  C   UNL A   1      47.029  29.877  29.664  1.00  0.00     0.049 A 
ATOM     60  H   UNL A   1      45.214  30.101  30.715  1.00  0.00     0.167 HD
ATOM     61  C   UNL A   1      46.896  27.858  31.094  1.00  0.00     0.074 A 
ATOM     62  C   UNL A   1      47.382  26.575  31.558  1.00  0.00     0.031 C 
ATOM     63  C   UNL A   1      47.527  28.621  30.168  1.00  0.00     0.034 A 
BRANCH  50  64
ATOM     64  C   UNL A   1      44.444  33.754  28.636  1.00  0.00     0.023 A 
ATOM     65  C   UNL A   1      43.929  33.659  27.327  1.00  0.00     0.012 A 
ATOM     66  C   UNL A   1      44.839  35.010  29.134  1.00  0.00     0.148 A 
ATOM     67  C   UNL A   1      43.842  34.789  26.515  1.00  0.00     0.002 A 
ATOM     68  C   UNL A   1      44.704  36.140  28.337  1.00  0.00     0.091 A 
ATOM     69  F   UNL A   1      45.348  35.076  30.372  1.00  0.00    -0.205 F 
ATOM     70  C   UNL A   1      44.218  36.029  27.023  1.00  0.00     0.022 A 
BRANCH  68  71
ATOM     71  S   UNL A   1      45.084  37.792  28.926  1.00  0.00     0.127 S 
ATOM     72  O   UNL A   1      46.455  37.626  29.407  1.00  0.00    -0.237 OA
ATOM     73  O   UNL A   1      44.958  38.589  27.706  1.00  0.00    -0.237 OA
ATOM     74  O   UNL A   1      44.096  38.091  29.954  1.00  0.00    -0.744 OA
ENDBRANCH  68  71
ENDBRANCH  50  64
BRANCH  51  75
ATOM     75  C   UNL A   1      44.373  25.547  34.335  1.00  0.00     0.023 A 
ATOM     76  C   UNL A   1      43.703  24.413  33.836  1.00  0.00     0.012 A 
ATOM     77  C   UNL A   1      45.012  25.469  35.588  1.00  0.00     0.148 A 
ATOM     78  C   UNL A   1      43.637  23.238  34.585  1.00  0.00     0.002 A 
ATOM     79  C   UNL A   1      44.994  24.277  36.303  1.00  0.00     0.091 A 
ATOM     80  F   UNL A   1      45.632  26.562  36.053  1.00  0.00    -0.205 F 
ATOM     81  C   UNL A   1      44.290  23.166  35.812  1.00  0.00     0.022 A 
BRANCH  79  82
ATOM     82  S   UNL A   1      45.912  24.052  37.830  1.00  0.00     0.127 S 
ATOM     83  O   UNL A   1      45.266  25.021  38.713  1.00  0.00    -0.237 OA
ATOM     84  O   UNL A   1      45.633  22.650  38.143  1.00  0.00    -0.237 OA
ATOM     85  O   UNL A   1      47.303  24.330  37.501  1.00  0.00    -0.744 OA
ENDBRANCH  79  82
ENDBRANCH  51  75
BRANCH  63  86
ATOM     86  C   UNL A   1      48.841  28.123  29.620  1.00  0.00     0.023 A 
ATOM     87  C   UNL A   1      50.055  28.548  30.194  1.00  0.00     0.012 A 
ATOM     88  C   UNL A   1      48.865  27.171  28.579  1.00  0.00     0.148 A 
ATOM     89  C   UNL A   1      51.272  28.062  29.717  1.00  0.00     0.002 A 
ATOM     90  C   UNL A   1      50.078  26.651  28.147  1.00  0.00     0.091 A 
ATOM     91  F   UNL A   1      47.699  26.789  28.036  1.00  0.00    -0.205 F 
ATOM     92  C   UNL A   1      51.284  27.107  28.704  1.00  0.00     0.022 A 
BRANCH  90  93
ATOM     93  S   UNL A   1      50.186  25.345  26.918  1.00  0.00     0.127 S 
ATOM     94  O   UNL A   1      51.627  25.100  26.870  1.00  0.00    -0.237 OA
ATOM     95  O   UNL A   1      49.406  24.274  27.537  1.00  0.00    -0.237 OA
ATOM     96  O   UNL A   1      49.606  25.890  25.698  1.00  0.00    -0.744 OA
ENDBRANCH  90  93
ENDBRANCH  63  86
ENDBRANCH  37  38
ENDBRANCH  30  32
ENDBRANCH  29  30
ENDBRANCH  28  29
ENDBRANCH  27  28
ENDBRANCH  26  27
ENDBRANCH  25  26
ENDBRANCH  24  25
ENDBRANCH  23  24
ENDBRANCH   1  23
TORSDOF 28
ENDMDL
MODEL 2
REMARK VINA RESULT:      -7.5      4.269     11.752
REMARK SMILES COCCS(=O)(=O)Cc1ccc(C(=O)OCCOCCOCCOCCOC(=O)c2ccc(-c3c4nc(c(-c5cccc(S(=O)(=O)[O-])c5F)c5ccc([nH]5)c(-c5cccc(S(=O)(=O)[O-])c5F)c5nc(c(-c6cccc(S(=O)(=O)[O-])c6F)c6ccc3[nH]6)C=C5)C=C4)cc2)cn1
REMARK SMILES IDX 20 1 19 2 18 3 17 4 16 5 15 6 13 7 14 8 12 9 9 10 10 11
REMARK SMILES IDX 94 12 11 13 93 14 8 15 5 16 6 17 7 18 4 19 3 20 2 21 1 22
REMARK SMILES IDX 21 23 22 24 23 25 24 26 25 27 26 28 27 29 28 30 29 31 30 32
REMARK SMILES IDX 31 33 92 34 32 35 91 36 33 37 34 38 35 39 85 40 36 41 90 42
REMARK SMILES IDX 84 43 86 44 37 45 89 46 83 47 82 48 38 50 70 51 50 52 69 53
REMARK SMILES IDX 51 54 54 55 68 56 87 57 52 58 53 59 67 61 88 62 55 63 39 64
REMARK SMILES IDX 40 65 48 66 41 67 43 68 49 69 42 70 44 71 45 72 46 73 47 74
REMARK SMILES IDX 71 75 72 76 80 77 73 78 75 79 81 80 74 81 76 82 77 83 78 84
REMARK SMILES IDX 79 85 56 86 57 87 65 88 58 89 60 90 66 91 59 92 61 93 62 94
REMARK SMILES IDX 63 95 64 96
REMARK H PARENT 86 49 54 60
REMARK Flexibility Score: inf
ROOT
ATOM      1  C   UNL A   1      39.008  21.604  25.623  1.00  0.00     0.188 C 
ENDROOT
BRANCH   1   2
ATOM      2  C   UNL A   1      37.776  20.712  25.367  1.00  0.00     0.188 C 
BRANCH   2   3
ATOM      3  O   UNL A   1      36.547  21.417  25.325  1.00  0.00    -0.376 OA
BRANCH   3   4
ATOM      4  C   UNL A   1      35.331  20.695  25.240  1.00  0.00     0.202 C 
BRANCH   4   5
ATOM      5  C   UNL A   1      34.200  21.242  24.356  1.00  0.00     0.261 C 
BRANCH   5   6
ATOM      6  O   UNL A   1      33.966  22.648  24.472  1.00  0.00    -0.460 OA
BRANCH   6   7
ATOM      7  C   UNL A   1      34.396  23.418  23.453  1.00  0.00     0.339 C 
ATOM      8  O   UNL A   1      35.388  23.242  22.768  1.00  0.00    -0.246 OA
BRANCH   7   9
ATOM      9  C   UNL A   1      33.336  24.390  23.139  1.00  0.00     0.078 A 
ATOM     10  C   UNL A   1      31.513  26.315  22.430  1.00  0.00     0.055 A 
ATOM     11  C   UNL A   1      31.067  25.171  23.089  1.00  0.00     0.026 A 
ATOM     12  N   UNL A   1      32.795  26.456  22.017  1.00  0.00    -0.259 NA
ATOM     13  C   UNL A   1      31.997  24.211  23.479  1.00  0.00     0.019 A 
ATOM     14  C   UNL A   1      33.676  25.495  22.378  1.00  0.00     0.127 A 
BRANCH  10  15
ATOM     15  C   UNL A   1      30.610  27.480  22.196  1.00  0.00     0.193 C 
BRANCH  15  16
ATOM     16  S   UNL A   1      30.876  28.724  23.465  1.00  0.00     0.158 S 
ATOM     17  O   UNL A   1      32.175  29.327  23.195  1.00  0.00    -0.228 OA
ATOM     18  O   UNL A   1      30.666  28.109  24.766  1.00  0.00    -0.228 OA
BRANCH  16  19
ATOM     19  C   UNL A   1      29.645  30.014  23.311  1.00  0.00     0.165 C 
BRANCH  19  20
ATOM     20  C   UNL A   1      28.395  29.570  22.579  1.00  0.00     0.176 C 
BRANCH  20  21
ATOM     21  O   UNL A   1      28.389  30.061  21.242  1.00  0.00    -0.384 OA
ATOM     22  C   UNL A   1      28.277  31.476  21.154  1.00  0.00     0.194 C 
ENDBRANCH  20  21
ENDBRANCH  19  20
ENDBRANCH  16  19
ENDBRANCH  15  16
ENDBRANCH  10  15
ENDBRANCH   7   9
ENDBRANCH   6   7
ENDBRANCH   5   6
ENDBRANCH   4   5
ENDBRANCH   3   4
ENDBRANCH   2   3
ENDBRANCH   1   2
BRANCH   1  23
ATOM     23  O   UNL A   1      39.294  21.987  26.957  1.00  0.00    -0.377 OA
BRANCH  23  24
ATOM     24  C   UNL A   1      40.634  22.299  27.337  1.00  0.00     0.188 C 
BRANCH  24  25
ATOM     25  C   UNL A   1      41.692  21.199  27.600  1.00  0.00     0.188 C 
BRANCH  25  26
ATOM     26  O   UNL A   1      42.484  20.848  26.478  1.00  0.00    -0.376 OA
BRANCH  26  27
ATOM     27  C   UNL A   1      42.758  21.859  25.525  1.00  0.00     0.202 C 
BRANCH  27  28
ATOM     28  C   UNL A   1      43.769  22.939  25.929  1.00  0.00     0.261 C 
BRANCH  28  29
ATOM     29  O   UNL A   1      43.934  24.028  25.009  1.00  0.00    -0.460 OA
BRANCH  29  30
ATOM     30  C   UNL A   1      45.080  24.737  25.082  1.00  0.00     0.338 C 
ATOM     31  O   UNL A   1      46.089  24.573  24.414  1.00  0.00    -0.246 OA
BRANCH  30  32
ATOM     32  C   UNL A   1      44.837  25.886  25.979  1.00  0.00     0.060 A 
ATOM     33  C   UNL A   1      45.905  26.423  26.710  1.00  0.00     0.016 A 
ATOM     34  C   UNL A   1      43.561  26.444  26.074  1.00  0.00     0.016 A 
ATOM     35  C   UNL A   1      45.689  27.504  27.566  1.00  0.00     0.010 A 
ATOM     36  C   UNL A   1      43.343  27.511  26.948  1.00  0.00     0.010 A 
ATOM     37  C   UNL A   1      44.399  28.023  27.724  1.00  0.00    -0.014 A 
BRANCH  37  38
ATOM     38  C   UNL A   1      44.110  28.962  28.834  1.00  0.00     0.031 A 
ATOM     39  C   UNL A   1      43.892  28.392  30.209  1.00  0.00     0.074 A 
ATOM     40  C   UNL A   1      44.033  30.289  28.631  1.00  0.00     0.049 A 
ATOM     41  N   UNL A   1      43.578  29.002  31.320  1.00  0.00    -0.248 NA
ATOM     42  C   UNL A   1      44.044  26.933  30.345  1.00  0.00     0.031 C 
ATOM     43  C   UNL A   1      44.235  30.963  27.349  1.00  0.00     0.029 A 
ATOM     44  N   UNL A   1      43.735  31.306  29.504  1.00  0.00    -0.354 N 
ATOM     45  C   UNL A   1      43.463  28.003  32.279  1.00  0.00     0.074 A 
ATOM     46  C   UNL A   1      43.730  26.746  31.617  1.00  0.00     0.031 C 
ATOM     47  C   UNL A   1      44.024  32.280  27.514  1.00  0.00     0.029 A 
ATOM     48  C   UNL A   1      43.643  32.538  28.902  1.00  0.00     0.049 A 
ATOM     49  H   UNL A   1      43.600  31.165  30.469  1.00  0.00     0.167 HD
ATOM     50  C   UNL A   1      43.172  28.121  33.596  1.00  0.00     0.034 A 
ATOM     51  C   UNL A   1      43.265  33.729  29.409  1.00  0.00     0.034 A 
ATOM     52  C   UNL A   1      42.915  29.373  34.254  1.00  0.00     0.049 A 
ATOM     53  C   UNL A   1      42.907  33.830  30.871  1.00  0.00     0.074 A 
ATOM     54  C   UNL A   1      42.657  29.602  35.593  1.00  0.00     0.029 A 
ATOM     55  N   UNL A   1      42.862  30.604  33.619  1.00  0.00    -0.354 N 
ATOM     56  N   UNL A   1      42.914  32.895  31.791  1.00  0.00    -0.248 NA
ATOM     57  C   UNL A   1      42.520  35.157  31.372  1.00  0.00     0.031 C 
ATOM     58  C   UNL A   1      42.405  30.968  35.761  1.00  0.00     0.029 A 
ATOM     59  C   UNL A   1      42.555  31.595  34.535  1.00  0.00     0.049 A 
ATOM     60  H   UNL A   1      43.019  30.752  32.658  1.00  0.00     0.167 HD
ATOM     61  C   UNL A   1      42.571  33.526  32.983  1.00  0.00     0.074 A 
ATOM     62  C   UNL A   1      42.382  34.928  32.670  1.00  0.00     0.031 C 
ATOM     63  C   UNL A   1      42.417  32.995  34.221  1.00  0.00     0.034 A 
BRANCH  50  64
ATOM     64  C   UNL A   1      43.120  26.858  34.415  1.00  0.00     0.023 A 
ATOM     65  C   UNL A   1      41.875  26.291  34.756  1.00  0.00     0.012 A 
ATOM     66  C   UNL A   1      44.306  26.210  34.807  1.00  0.00     0.148 A 
ATOM     67  C   UNL A   1      41.812  25.117  35.506  1.00  0.00     0.002 A 
ATOM     68  C   UNL A   1      44.236  25.014  35.511  1.00  0.00     0.091 A 
ATOM     69  F   UNL A   1      45.479  26.777  34.494  1.00  0.00    -0.205 F 
ATOM     70  C   UNL A   1      42.990  24.474  35.872  1.00  0.00     0.022 A 
BRANCH  68  71
ATOM     71  S   UNL A   1      45.694  24.067  35.959  1.00  0.00     0.127 S 
ATOM     72  O   UNL A   1      46.069  23.479  34.675  1.00  0.00    -0.237 OA
ATOM     73  O   UNL A   1      46.600  25.109  36.441  1.00  0.00    -0.237 OA
ATOM     74  O   UNL A   1      45.262  23.118  36.976  1.00  0.00    -0.744 OA
ENDBRANCH  68  71
ENDBRANCH  50  64
BRANCH  51  75
ATOM     75  C   UNL A   1      43.219  34.935  28.533  1.00  0.00     0.023 A 
ATOM     76  C   UNL A   1      41.996  35.339  27.964  1.00  0.00     0.012 A 
ATOM     77  C   UNL A   1      44.381  35.683  28.263  1.00  0.00     0.148 A 
ATOM     78  C   UNL A   1      41.937  36.444  27.113  1.00  0.00     0.002 A 
ATOM     79  C   UNL A   1      44.306  36.817  27.463  1.00  0.00     0.091 A 
ATOM     80  F   UNL A   1      45.539  35.274  28.801  1.00  0.00    -0.205 F 
ATOM     81  C   UNL A   1      43.089  37.188  26.871  1.00  0.00     0.022 A 
BRANCH  79  82
ATOM     82  S   UNL A   1      45.708  37.908  27.198  1.00  0.00     0.127 S 
ATOM     83  O   UNL A   1      45.105  38.989  26.423  1.00  0.00    -0.237 OA
ATOM     84  O   UNL A   1      46.075  38.261  28.569  1.00  0.00    -0.237 OA
ATOM     85  O   UNL A   1      46.704  37.110  26.495  1.00  0.00    -0.744 OA
ENDBRANCH  79  82
ENDBRANCH  51  75
BRANCH  63  86
ATOM     86  C   UNL A   1      42.070  33.931  35.352  1.00  0.00     0.023 A 
ATOM     87  C   UNL A   1      40.722  34.170  35.686  1.00  0.00     0.012 A 
ATOM     88  C   UNL A   1      43.089  34.515  36.133  1.00  0.00     0.148 A 
ATOM     89  C   UNL A   1      40.394  35.004  36.755  1.00  0.00     0.002 A 
ATOM     90  C   UNL A   1      42.755  35.300  37.229  1.00  0.00     0.091 A 
ATOM     91  F   UNL A   1      44.365  34.286  35.791  1.00  0.00    -0.205 F 
ATOM     92  C   UNL A   1      41.408  35.558  37.532  1.00  0.00     0.022 A 
BRANCH  90  93
ATOM     93  S   UNL A   1      43.989  35.973  38.347  1.00  0.00     0.127 S 
ATOM     94  O   UNL A   1      43.163  36.752  39.268  1.00  0.00    -0.237 OA
ATOM     95  O   UNL A   1      44.573  34.764  38.926  1.00  0.00    -0.237 OA
ATOM     96  O   UNL A   1      44.901  36.751  37.519  1.00  0.00    -0.744 OA
ENDBRANCH  90  93
ENDBRANCH  63  86
ENDBRANCH  37  38
ENDBRANCH  30  32
ENDBRANCH  29  30
ENDBRANCH  28  29
ENDBRANCH  27  28
ENDBRANCH  26  27
ENDBRANCH  25  26
ENDBRANCH  24  25
ENDBRANCH  23  24
ENDBRANCH   1  23
TORSDOF 28
ENDMDL
MODEL 3
REMARK VINA RESULT:      -7.3      4.267      6.759
REMARK SMILES COCCS(=O)(=O)Cc1ccc(C(=O)OCCOCCOCCOCCOC(=O)c2ccc(-c3c4nc(c(-c5cccc(S(=O)(=O)[O-])c5F)c5ccc([nH]5)c(-c5cccc(S(=O)(=O)[O-])c5F)c5nc(c(-c6cccc(S(=O)(=O)[O-])c6F)c6ccc3[nH]6)C=C5)C=C4)cc2)cn1
REMARK SMILES IDX 20 1 19 2 18 3 17 4 16 5 15 6 13 7 14 8 12 9 9 10 10 11
REMARK SMILES IDX 94 12 11 13 93 14 8 15 5 16 6 17 7 18 4 19 3 20 2 21 1 22
REMARK SMILES IDX 21 23 22 24 23 25 24 26 25 27 26 28 27 29 28 30 29 31 30 32
REMARK SMILES IDX 31 33 92 34 32 35 91 36 33 37 34 38 35 39 85 40 36 41 90 42
REMARK SMILES IDX 84 43 86 44 37 45 89 46 83 47 82 48 38 50 70 51 50 52 69 53
REMARK SMILES IDX 51 54 54 55 68 56 87 57 52 58 53 59 67 61 88 62 55 63 39 64
REMARK SMILES IDX 40 65 48 66 41 67 43 68 49 69 42 70 44 71 45 72 46 73 47 74
REMARK SMILES IDX 71 75 72 76 80 77 73 78 75 79 81 80 74 81 76 82 77 83 78 84
REMARK SMILES IDX 79 85 56 86 57 87 65 88 58 89 60 90 66 91 59 92 61 93 62 94
REMARK SMILES IDX 63 95 64 96
REMARK H PARENT 86 49 54 60
REMARK Flexibility Score: inf
ROOT
ATOM      1  C   UNL A   1      34.426  34.345  30.436  1.00  0.00     0.188 C 
ENDROOT
BRANCH   1   2
ATOM      2  C   UNL A   1      34.252  34.294  28.905  1.00  0.00     0.188 C 
BRANCH   2   3
ATOM      3  O   UNL A   1      35.078  33.342  28.257  1.00  0.00    -0.376 OA
BRANCH   3   4
ATOM      4  C   UNL A   1      34.642  31.997  28.149  1.00  0.00     0.202 C 
BRANCH   4   5
ATOM      5  C   UNL A   1      33.334  31.697  27.401  1.00  0.00     0.261 C 
BRANCH   5   6
ATOM      6  O   UNL A   1      33.233  30.375  26.865  1.00  0.00    -0.460 OA
BRANCH   6   7
ATOM      7  C   UNL A   1      32.174  30.126  26.069  1.00  0.00     0.339 C 
ATOM      8  O   UNL A   1      31.257  30.884  25.809  1.00  0.00    -0.246 OA
BRANCH   7   9
ATOM      9  C   UNL A   1      32.424  28.857  25.364  1.00  0.00     0.078 A 
ATOM     10  C   UNL A   1      32.714  26.545  23.915  1.00  0.00     0.055 A 
ATOM     11  C   UNL A   1      33.698  26.892  24.840  1.00  0.00     0.026 A 
ATOM     12  N   UNL A   1      31.682  27.368  23.617  1.00  0.00    -0.259 NA
ATOM     13  C   UNL A   1      33.533  28.047  25.599  1.00  0.00     0.019 A 
ATOM     14  C   UNL A   1      31.559  28.503  24.344  1.00  0.00     0.127 A 
BRANCH  10  15
ATOM     15  C   UNL A   1      32.714  25.211  23.245  1.00  0.00     0.193 C 
BRANCH  15  16
ATOM     16  S   UNL A   1      31.747  24.043  24.208  1.00  0.00     0.158 S 
ATOM     17  O   UNL A   1      30.931  23.293  23.263  1.00  0.00    -0.228 OA
ATOM     18  O   UNL A   1      31.067  24.771  25.269  1.00  0.00    -0.228 OA
BRANCH  16  19
ATOM     19  C   UNL A   1      32.839  22.877  25.015  1.00  0.00     0.165 C 
BRANCH  19  20
ATOM     20  C   UNL A   1      33.728  22.119  24.051  1.00  0.00     0.176 C 
BRANCH  20  21
ATOM     21  O   UNL A   1      35.091  22.179  24.462  1.00  0.00    -0.384 OA
ATOM     22  C   UNL A   1      35.351  21.484  25.675  1.00  0.00     0.194 C 
ENDBRANCH  20  21
ENDBRANCH  19  20
ENDBRANCH  16  19
ENDBRANCH  15  16
ENDBRANCH  10  15
ENDBRANCH   7   9
ENDBRANCH   6   7
ENDBRANCH   5   6
ENDBRANCH   4   5
ENDBRANCH   3   4
ENDBRANCH   2   3
ENDBRANCH   1   2
BRANCH   1  23
ATOM     23  O   UNL A   1      33.269  34.505  31.238  1.00  0.00    -0.377 OA
BRANCH  23  24
ATOM     24  C   UNL A   1      33.112  35.680  32.034  1.00  0.00     0.188 C 
BRANCH  24  25
ATOM     25  C   UNL A   1      34.312  36.579  32.421  1.00  0.00     0.188 C 
BRANCH  25  26
ATOM     26  O   UNL A   1      35.142  36.063  33.448  1.00  0.00    -0.376 OA
BRANCH  26  27
ATOM     27  C   UNL A   1      35.552  34.712  33.345  1.00  0.00     0.202 C 
BRANCH  27  28
ATOM     28  C   UNL A   1      37.061  34.440  33.385  1.00  0.00     0.261 C 
BRANCH  28  29
ATOM     29  O   UNL A   1      37.475  33.113  33.026  1.00  0.00    -0.460 OA
BRANCH  29  30
ATOM     30  C   UNL A   1      37.756  32.256  34.031  1.00  0.00     0.338 C 
ATOM     31  O   UNL A   1      37.081  32.045  35.027  1.00  0.00    -0.246 OA
BRANCH  30  32
ATOM     32  C   UNL A   1      38.932  31.461  33.622  1.00  0.00     0.060 A 
ATOM     33  C   UNL A   1      38.992  30.102  33.959  1.00  0.00     0.016 A 
ATOM     34  C   UNL A   1      39.959  32.055  32.886  1.00  0.00     0.016 A 
ATOM     35  C   UNL A   1      40.099  29.340  33.587  1.00  0.00     0.010 A 
ATOM     36  C   UNL A   1      41.077  31.295  32.534  1.00  0.00     0.010 A 
ATOM     37  C   UNL A   1      41.167  29.944  32.912  1.00  0.00    -0.014 A 
BRANCH  37  38
ATOM     38  C   UNL A   1      42.456  29.225  32.775  1.00  0.00     0.031 A 
ATOM     39  C   UNL A   1      43.432  29.289  33.918  1.00  0.00     0.074 A 
ATOM     40  C   UNL A   1      42.762  28.536  31.661  1.00  0.00     0.049 A 
ATOM     41  N   UNL A   1      44.635  28.789  34.011  1.00  0.00    -0.248 NA
ATOM     42  C   UNL A   1      42.991  30.025  35.116  1.00  0.00     0.031 C 
ATOM     43  C   UNL A   1      41.898  28.390  30.491  1.00  0.00     0.029 A 
ATOM     44  N   UNL A   1      43.905  27.852  31.325  1.00  0.00    -0.354 N 
ATOM     45  C   UNL A   1      45.107  29.173  35.261  1.00  0.00     0.074 A 
ATOM     46  C   UNL A   1      44.066  29.958  35.885  1.00  0.00     0.031 C 
ATOM     47  C   UNL A   1      42.555  27.687  29.552  1.00  0.00     0.029 A 
ATOM     48  C   UNL A   1      43.893  27.361  30.041  1.00  0.00     0.049 A 
ATOM     49  H   UNL A   1      44.660  27.726  31.944  1.00  0.00     0.167 HD
ATOM     50  C   UNL A   1      46.296  28.890  35.842  1.00  0.00     0.034 A 
ATOM     51  C   UNL A   1      44.864  26.746  29.335  1.00  0.00     0.034 A 
ATOM     52  C   UNL A   1      47.327  28.101  35.223  1.00  0.00     0.049 A 
ATOM     53  C   UNL A   1      46.195  26.475  29.990  1.00  0.00     0.074 A 
ATOM     54  C   UNL A   1      48.548  27.720  35.747  1.00  0.00     0.029 A 
ATOM     55  N   UNL A   1      47.267  27.593  33.934  1.00  0.00    -0.354 N 
ATOM     56  N   UNL A   1      46.586  26.745  31.213  1.00  0.00    -0.248 NA
ATOM     57  C   UNL A   1      47.209  25.786  29.178  1.00  0.00     0.031 C 
ATOM     58  C   UNL A   1      49.245  27.016  34.761  1.00  0.00     0.029 A 
ATOM     59  C   UNL A   1      48.438  26.918  33.639  1.00  0.00     0.049 A 
ATOM     60  H   UNL A   1      46.505  27.697  33.320  1.00  0.00     0.167 HD
ATOM     61  C   UNL A   1      47.872  26.227  31.328  1.00  0.00     0.074 A 
ATOM     62  C   UNL A   1      48.186  25.609  30.056  1.00  0.00     0.031 C 
ATOM     63  C   UNL A   1      48.721  26.265  32.385  1.00  0.00     0.034 A 
BRANCH  50  64
ATOM     64  C   UNL A   1      46.545  29.435  37.223  1.00  0.00     0.023 A 
ATOM     65  C   UNL A   1      46.999  30.760  37.387  1.00  0.00     0.012 A 
ATOM     66  C   UNL A   1      46.285  28.647  38.362  1.00  0.00     0.148 A 
ATOM     67  C   UNL A   1      47.224  31.281  38.661  1.00  0.00     0.002 A 
ATOM     68  C   UNL A   1      46.465  29.189  39.628  1.00  0.00     0.091 A 
ATOM     69  F   UNL A   1      45.877  27.383  38.185  1.00  0.00    -0.205 F 
ATOM     70  C   UNL A   1      46.946  30.500  39.779  1.00  0.00     0.022 A 
BRANCH  68  71
ATOM     71  S   UNL A   1      46.059  28.295  41.131  1.00  0.00     0.127 S 
ATOM     72  O   UNL A   1      44.639  28.010  40.929  1.00  0.00    -0.237 OA
ATOM     73  O   UNL A   1      46.934  27.127  41.038  1.00  0.00    -0.237 OA
ATOM     74  O   UNL A   1      46.362  29.197  42.233  1.00  0.00    -0.744 OA
ENDBRANCH  68  71
ENDBRANCH  50  64
BRANCH  51  75
ATOM     75  C   UNL A   1      44.613  26.325  27.927  1.00  0.00     0.023 A 
ATOM     76  C   UNL A   1      45.002  27.165  26.866  1.00  0.00     0.012 A 
ATOM     77  C   UNL A   1      43.991  25.096  27.634  1.00  0.00     0.148 A 
ATOM     78  C   UNL A   1      44.746  26.807  25.542  1.00  0.00     0.002 A 
ATOM     79  C   UNL A   1      43.791  24.717  26.312  1.00  0.00     0.091 A 
ATOM     80  F   UNL A   1      43.613  24.317  28.657  1.00  0.00    -0.205 F 
ATOM     81  C   UNL A   1      44.150  25.579  25.265  1.00  0.00     0.022 A 
BRANCH  79  82
ATOM     82  S   UNL A   1      43.148  23.103  25.856  1.00  0.00     0.127 S 
ATOM     83  O   UNL A   1      41.734  23.236  26.198  1.00  0.00    -0.237 OA
ATOM     84  O   UNL A   1      43.435  23.061  24.422  1.00  0.00    -0.237 OA
ATOM     85  O   UNL A   1      43.899  22.138  26.648  1.00  0.00    -0.744 OA
ENDBRANCH  79  82
ENDBRANCH  51  75
BRANCH  63  86
ATOM     86  C   UNL A   1      50.059  25.583  32.241  1.00  0.00     0.023 A 
ATOM     87  C   UNL A   1      51.138  26.260  31.641  1.00  0.00     0.012 A 
ATOM     88  C   UNL A   1      50.263  24.293  32.774  1.00  0.00     0.148 A 
ATOM     89  C   UNL A   1      52.389  25.650  31.539  1.00  0.00     0.002 A 
ATOM     90  C   UNL A   1      51.524  23.715  32.718  1.00  0.00     0.091 A 
ATOM     91  F   UNL A   1      49.220  23.659  33.330  1.00  0.00    -0.205 F 
ATOM     92  C   UNL A   1      52.585  24.385  32.087  1.00  0.00     0.022 A 
BRANCH  90  93
ATOM     93  S   UNL A   1      51.896  22.133  33.484  1.00  0.00     0.127 S 
ATOM     94  O   UNL A   1      51.574  22.398  34.885  1.00  0.00    -0.237 OA
ATOM     95  O   UNL A   1      50.966  21.234  32.803  1.00  0.00    -0.237 OA
ATOM     96  O   UNL A   1      53.303  21.873  33.208  1.00  0.00    -0.744 OA
ENDBRANCH  90  93
ENDBRANCH  63  86
ENDBRANCH  37  38
ENDBRANCH  30  32
ENDBRANCH  29  30
ENDBRANCH  28  29
ENDBRANCH  27  28
ENDBRANCH  26  27
ENDBRANCH  25  26
ENDBRANCH  24  25
ENDBRANCH  23  24
ENDBRANCH   1  23
TORSDOF 28
ENDMDL
