MODEL 1
REMARK VINA RESULT:      -7.7      0.000      0.000
REMARK SMILES CC(C)C[C@@H](CNC(=O)[C@@H]1CCOC1)C(=O)OCCOCCOCCOCCOC(=O)c1ccc(-c2c3nc(c(-c4cccc(S(=O)(=O)[O-])c4F)c4ccc([nH]4)c(-c4cccc(S(=O)(=O)[O-])c4F)c4nc(c(-c5cccc(S(=O)(=O)[O-])c5F)c5ccc2[nH]5)C=C4)C=C3)cc1
REMARK SMILES IDX 23 1 22 2 21 3 20 4 19 5 18 6 17 7 15 8 16 9 5 10 4 11 2 12
REMARK SMILES IDX 1 13 3 14 6 15 7 16 8 17 9 19 10 20 11 21 14 22 12 23 13 24
REMARK SMILES IDX 24 25 25 26 26 27 27 28 28 29 29 30 30 31 31 32 32 33 33 34
REMARK SMILES IDX 94 35 34 36 93 37 35 38 36 39 37 40 87 41 38 42 92 43 86 44
REMARK SMILES IDX 88 45 39 46 91 47 85 48 84 49 40 51 72 52 52 53 71 54 53 55
REMARK SMILES IDX 56 56 70 57 89 58 54 59 55 60 69 62 90 63 57 64 41 65 42 66
REMARK SMILES IDX 50 67 43 68 45 69 51 70 44 71 46 72 47 73 48 74 49 75 73 76
REMARK SMILES IDX 74 77 82 78 75 79 77 80 83 81 76 82 78 83 79 84 80 85 81 86
REMARK SMILES IDX 58 87 59 88 67 89 60 90 62 91 68 92 61 93 63 94 64 95 65 96
REMARK SMILES IDX 66 97
REMARK H PARENT 7 18 88 50 56 61
REMARK Flexibility Score: inf
ROOT
ATOM      1  O   UNL A   1      32.936  37.494  31.083  1.00  0.00    -0.377 OA
ENDROOT
BRANCH   1   2
ATOM      2  C   UNL A   1      32.729  36.140  30.745  1.00  0.00     0.188 C 
BRANCH   2   3
ATOM      3  C   UNL A   1      32.721  35.826  29.243  1.00  0.00     0.188 C 
BRANCH   3   4
ATOM      4  O   UNL A   1      33.863  36.035  28.432  1.00  0.00    -0.376 OA
BRANCH   4   5
ATOM      5  C   UNL A   1      34.896  35.068  28.327  1.00  0.00     0.202 C 
BRANCH   5   6
ATOM      6  C   UNL A   1      34.655  33.565  28.524  1.00  0.00     0.261 C 
BRANCH   6   7
ATOM      7  O   UNL A   1      35.397  32.648  27.697  1.00  0.00    -0.463 OA
BRANCH   7   8
ATOM      8  C   UNL A   1      36.530  32.155  28.238  1.00  0.00     0.310 C 
ATOM      9  O   UNL A   1      37.435  32.851  28.696  1.00  0.00    -0.252 OA
BRANCH   8  10
ATOM     10  C   UNL A   1      36.692  30.647  28.161  1.00  0.00     0.118 C 
BRANCH  10  11
ATOM     11  C   UNL A   1      37.495  29.883  29.240  1.00  0.00     0.020 C 
BRANCH  11  12
ATOM     12  C   UNL A   1      36.663  29.516  30.500  1.00  0.00    -0.017 C 
ATOM     13  C   UNL A   1      37.443  28.688  31.529  1.00  0.00     0.007 C 
ATOM     14  C   UNL A   1      36.142  30.779  31.194  1.00  0.00     0.007 C 
ENDBRANCH  11  12
ENDBRANCH  10  11
BRANCH  10  15
ATOM     15  C   UNL A   1      35.298  30.050  27.926  1.00  0.00     0.131 C 
BRANCH  15  16
ATOM     16  N   UNL A   1      35.141  29.530  26.580  1.00  0.00    -0.355 N 
ATOM     17  C   UNL A   1      34.045  28.981  25.983  1.00  0.00     0.225 C 
ATOM     18  H   UNL A   1      35.945  29.582  26.014  1.00  0.00     0.163 HD
ATOM     19  O   UNL A   1      34.215  28.371  24.930  1.00  0.00    -0.275 OA
BRANCH  17  20
ATOM     20  C   UNL A   1      32.670  29.184  26.600  1.00  0.00     0.106 C 
ATOM     21  C   UNL A   1      31.736  28.023  26.335  1.00  0.00     0.044 C 
ATOM     22  C   UNL A   1      31.971  30.351  25.928  1.00  0.00     0.173 C 
ATOM     23  C   UNL A   1      31.105  28.396  25.015  1.00  0.00     0.161 C 
ATOM     24  O   UNL A   1      30.966  29.823  25.048  1.00  0.00    -0.381 OA
ENDBRANCH  17  20
ENDBRANCH  15  16
ENDBRANCH  10  15
ENDBRANCH   8  10
ENDBRANCH   7   8
ENDBRANCH   6   7
ENDBRANCH   5   6
ENDBRANCH   4   5
ENDBRANCH   3   4
ENDBRANCH   2   3
ENDBRANCH   1   2
BRANCH   1  25
ATOM     25  C   UNL A   1      33.711  37.795  32.240  1.00  0.00     0.188 C 
BRANCH  25  26
ATOM     26  C   UNL A   1      33.874  36.707  33.318  1.00  0.00     0.188 C 
BRANCH  26  27
ATOM     27  O   UNL A   1      35.154  36.086  33.327  1.00  0.00    -0.376 OA
BRANCH  27  28
ATOM     28  C   UNL A   1      35.260  34.742  32.879  1.00  0.00     0.202 C 
BRANCH  28  29
ATOM     29  C   UNL A   1      34.876  33.620  33.860  1.00  0.00     0.261 C 
BRANCH  29  30
ATOM     30  O   UNL A   1      35.811  32.535  33.990  1.00  0.00    -0.460 OA
BRANCH  30  31
ATOM     31  C   UNL A   1      36.888  32.717  34.783  1.00  0.00     0.338 C 
ATOM     32  O   UNL A   1      36.913  33.263  35.867  1.00  0.00    -0.246 OA
BRANCH  31  33
ATOM     33  C   UNL A   1      38.015  31.950  34.211  1.00  0.00     0.060 A 
ATOM     34  C   UNL A   1      38.244  30.654  34.687  1.00  0.00     0.016 A 
ATOM     35  C   UNL A   1      38.858  32.510  33.247  1.00  0.00     0.016 A 
ATOM     36  C   UNL A   1      39.354  29.937  34.249  1.00  0.00     0.010 A 
ATOM     37  C   UNL A   1      39.983  31.796  32.823  1.00  0.00     0.010 A 
ATOM     38  C   UNL A   1      40.262  30.526  33.360  1.00  0.00    -0.014 A 
BRANCH  38  39
ATOM     39  C   UNL A   1      41.587  29.889  33.170  1.00  0.00     0.031 A 
ATOM     40  C   UNL A   1      41.812  29.045  31.943  1.00  0.00     0.074 A 
ATOM     41  C   UNL A   1      42.595  30.107  34.033  1.00  0.00     0.049 A 
ATOM     42  N   UNL A   1      42.895  28.430  31.546  1.00  0.00    -0.248 NA
ATOM     43  C   UNL A   1      40.660  28.875  31.040  1.00  0.00     0.031 C 
ATOM     44  C   UNL A   1      42.506  30.908  35.253  1.00  0.00     0.029 A 
ATOM     45  N   UNL A   1      43.892  29.658  34.018  1.00  0.00    -0.354 N 
ATOM     46  C   UNL A   1      42.555  27.792  30.358  1.00  0.00     0.074 A 
ATOM     47  C   UNL A   1      41.158  28.071  30.112  1.00  0.00     0.031 C 
ATOM     48  C   UNL A   1      43.692  30.871  35.886  1.00  0.00     0.029 A 
ATOM     49  C   UNL A   1      44.617  30.032  35.125  1.00  0.00     0.049 A 
ATOM     50  H   UNL A   1      44.268  29.120  33.284  1.00  0.00     0.167 HD
ATOM     51  C   UNL A   1      43.340  27.063  29.530  1.00  0.00     0.034 A 
ATOM     52  C   UNL A   1      45.876  29.715  35.489  1.00  0.00     0.034 A 
ATOM     53  C   UNL A   1      44.730  26.788  29.771  1.00  0.00     0.049 A 
ATOM     54  C   UNL A   1      46.718  28.870  34.567  1.00  0.00     0.074 A 
ATOM     55  C   UNL A   1      45.615  26.071  28.986  1.00  0.00     0.029 A 
ATOM     56  N   UNL A   1      45.437  27.209  30.886  1.00  0.00    -0.354 N 
ATOM     57  N   UNL A   1      46.413  28.361  33.398  1.00  0.00    -0.248 NA
ATOM     58  C   UNL A   1      48.096  28.590  35.000  1.00  0.00     0.031 C 
ATOM     59  C   UNL A   1      46.851  26.035  29.640  1.00  0.00     0.029 A 
ATOM     60  C   UNL A   1      46.747  26.764  30.814  1.00  0.00     0.049 A 
ATOM     61  H   UNL A   1      45.064  27.746  31.622  1.00  0.00     0.167 HD
ATOM     62  C   UNL A   1      47.567  27.734  32.940  1.00  0.00     0.074 A 
ATOM     63  C   UNL A   1      48.585  27.952  33.945  1.00  0.00     0.031 C 
ATOM     64  C   UNL A   1      47.763  27.029  31.798  1.00  0.00     0.034 A 
BRANCH  51  65
ATOM     65  C   UNL A   1      42.714  26.531  28.266  1.00  0.00     0.023 A 
ATOM     66  C   UNL A   1      42.623  27.363  27.131  1.00  0.00     0.012 A 
ATOM     67  C   UNL A   1      42.267  25.197  28.183  1.00  0.00     0.148 A 
ATOM     68  C   UNL A   1      42.067  26.888  25.944  1.00  0.00     0.002 A 
ATOM     69  C   UNL A   1      41.758  24.717  26.983  1.00  0.00     0.091 A 
ATOM     70  F   UNL A   1      42.344  24.429  29.278  1.00  0.00    -0.205 F 
ATOM     71  C   UNL A   1      41.645  25.563  25.866  1.00  0.00     0.022 A 
BRANCH  69  72
ATOM     72  S   UNL A   1      41.258  23.007  26.754  1.00  0.00     0.127 S 
ATOM     73  O   UNL A   1      42.144  22.584  25.670  1.00  0.00    -0.237 OA
ATOM     74  O   UNL A   1      41.568  22.421  28.058  1.00  0.00    -0.237 OA
ATOM     75  O   UNL A   1      39.842  23.042  26.421  1.00  0.00    -0.744 OA
ENDBRANCH  69  72
ENDBRANCH  51  65
BRANCH  52  76
ATOM     76  C   UNL A   1      46.426  30.202  36.786  1.00  0.00     0.023 A 
ATOM     77  C   UNL A   1      47.211  31.371  36.826  1.00  0.00     0.012 A 
ATOM     78  C   UNL A   1      46.184  29.496  37.980  1.00  0.00     0.148 A 
ATOM     79  C   UNL A   1      47.780  31.804  38.026  1.00  0.00     0.002 A 
ATOM     80  C   UNL A   1      46.705  29.964  39.179  1.00  0.00     0.091 A 
ATOM     81  F   UNL A   1      45.451  28.376  37.917  1.00  0.00    -0.205 F 
ATOM     82  C   UNL A   1      47.519  31.107  39.202  1.00  0.00     0.022 A 
BRANCH  80  83
ATOM     83  S   UNL A   1      46.320  29.199  40.757  1.00  0.00     0.127 S 
ATOM     84  O   UNL A   1      47.105  27.968  40.690  1.00  0.00    -0.237 OA
ATOM     85  O   UNL A   1      46.818  30.198  41.703  1.00  0.00    -0.237 OA
ATOM     86  O   UNL A   1      44.873  29.027  40.766  1.00  0.00    -0.744 OA
ENDBRANCH  80  83
ENDBRANCH  52  76
BRANCH  64  87
ATOM     87  C   UNL A   1      49.146  26.479  31.547  1.00  0.00     0.023 A 
ATOM     88  C   UNL A   1      49.496  25.200  32.024  1.00  0.00     0.012 A 
ATOM     89  C   UNL A   1      50.084  27.215  30.796  1.00  0.00     0.148 A 
ATOM     90  C   UNL A   1      50.772  24.683  31.800  1.00  0.00     0.002 A 
ATOM     91  C   UNL A   1      51.335  26.671  30.530  1.00  0.00     0.091 A 
ATOM     92  F   UNL A   1      49.740  28.436  30.362  1.00  0.00    -0.205 F 
ATOM     93  C   UNL A   1      51.687  25.414  31.045  1.00  0.00     0.022 A 
BRANCH  91  94
ATOM     94  S   UNL A   1      52.540  27.495  29.484  1.00  0.00     0.127 S 
ATOM     95  O   UNL A   1      52.765  28.742  30.213  1.00  0.00    -0.237 OA
ATOM     96  O   UNL A   1      53.666  26.561  29.511  1.00  0.00    -0.237 OA
ATOM     97  O   UNL A   1      51.908  27.639  28.179  1.00  0.00    -0.744 OA
ENDBRANCH  91  94
ENDBRANCH  64  87
ENDBRANCH  38  39
ENDBRANCH  31  33
ENDBRANCH  30  31
ENDBRANCH  29  30
ENDBRANCH  28  29
ENDBRANCH  27  28
ENDBRANCH  26  27
ENDBRANCH  25  26
ENDBRANCH   1  25
TORSDOF 28
ENDMDL
MODEL 2
REMARK VINA RESULT:      -7.7      4.783      8.257
REMARK SMILES CC(C)C[C@@H](CNC(=O)[C@@H]1CCOC1)C(=O)OCCOCCOCCOCCOC(=O)c1ccc(-c2c3nc(c(-c4cccc(S(=O)(=O)[O-])c4F)c4ccc([nH]4)c(-c4cccc(S(=O)(=O)[O-])c4F)c4nc(c(-c5cccc(S(=O)(=O)[O-])c5F)c5ccc2[nH]5)C=C4)C=C3)cc1
REMARK SMILES IDX 23 1 22 2 21 3 20 4 19 5 18 6 17 7 15 8 16 9 5 10 4 11 2 12
REMARK SMILES IDX 1 13 3 14 6 15 7 16 8 17 9 19 10 20 11 21 14 22 12 23 13 24
REMARK SMILES IDX 24 25 25 26 26 27 27 28 28 29 29 30 30 31 31 32 32 33 33 34
REMARK SMILES IDX 94 35 34 36 93 37 35 38 36 39 37 40 87 41 38 42 92 43 86 44
REMARK SMILES IDX 88 45 39 46 91 47 85 48 84 49 40 51 72 52 52 53 71 54 53 55
REMARK SMILES IDX 56 56 70 57 89 58 54 59 55 60 69 62 90 63 57 64 41 65 42 66
REMARK SMILES IDX 50 67 43 68 45 69 51 70 44 71 46 72 47 73 48 74 49 75 73 76
REMARK SMILES IDX 74 77 82 78 75 79 77 80 83 81 76 82 78 83 79 84 80 85 81 86
REMARK SMILES IDX 58 87 59 88 67 89 60 90 62 91 68 92 61 93 63 94 64 95 65 96
REMARK SMILES IDX 66 97
REMARK H PARENT 7 18 88 50 56 61
REMARK Flexibility Score: inf
ROOT
ATOM      1  O   UNL A   1      33.134  37.646  31.055  1.00  0.00    -0.377 OA
ENDROOT
BRANCH   1   2
ATOM      2  C   UNL A   1      32.758  36.411  30.483  1.00  0.00     0.188 C 
BRANCH   2   3
ATOM      3  C   UNL A   1      33.059  36.256  28.987  1.00  0.00     0.188 C 
BRANCH   3   4
ATOM      4  O   UNL A   1      34.376  36.042  28.510  1.00  0.00    -0.376 OA
BRANCH   4   5
ATOM      5  C   UNL A   1      34.870  34.741  28.228  1.00  0.00     0.202 C 
BRANCH   5   6
ATOM      6  C   UNL A   1      34.020  33.654  27.559  1.00  0.00     0.261 C 
BRANCH   6   7
ATOM      7  O   UNL A   1      33.690  32.483  28.332  1.00  0.00    -0.463 OA
BRANCH   7   8
ATOM      8  C   UNL A   1      34.705  31.938  29.033  1.00  0.00     0.310 C 
ATOM      9  O   UNL A   1      35.155  32.411  30.075  1.00  0.00    -0.252 OA
BRANCH   8  10
ATOM     10  C   UNL A   1      35.362  30.724  28.400  1.00  0.00     0.118 C 
BRANCH  10  11
ATOM     11  C   UNL A   1      35.955  29.598  29.281  1.00  0.00     0.020 C 
BRANCH  11  12
ATOM     12  C   UNL A   1      37.411  29.207  28.905  1.00  0.00    -0.017 C 
ATOM     13  C   UNL A   1      38.192  30.338  28.223  1.00  0.00     0.007 C 
ATOM     14  C   UNL A   1      38.192  28.763  30.146  1.00  0.00     0.007 C 
ENDBRANCH  11  12
ENDBRANCH  10  11
BRANCH  10  15
ATOM     15  C   UNL A   1      34.401  30.193  27.327  1.00  0.00     0.131 C 
BRANCH  15  16
ATOM     16  N   UNL A   1      33.372  29.335  27.887  1.00  0.00    -0.355 N 
ATOM     17  C   UNL A   1      32.625  28.367  27.283  1.00  0.00     0.225 C 
ATOM     18  H   UNL A   1      33.186  29.472  28.844  1.00  0.00     0.163 HD
ATOM     19  O   UNL A   1      31.636  27.955  27.883  1.00  0.00    -0.275 OA
BRANCH  17  20
ATOM     20  C   UNL A   1      33.063  27.805  25.940  1.00  0.00     0.106 C 
ATOM     21  C   UNL A   1      32.209  28.302  24.794  1.00  0.00     0.044 C 
ATOM     22  C   UNL A   1      32.841  26.305  25.912  1.00  0.00     0.173 C 
ATOM     23  C   UNL A   1      31.086  27.294  24.753  1.00  0.00     0.161 C 
ATOM     24  O   UNL A   1      31.685  26.039  25.101  1.00  0.00    -0.381 OA
ENDBRANCH  17  20
ENDBRANCH  15  16
ENDBRANCH  10  15
ENDBRANCH   8  10
ENDBRANCH   7   8
ENDBRANCH   6   7
ENDBRANCH   5   6
ENDBRANCH   4   5
ENDBRANCH   3   4
ENDBRANCH   2   3
ENDBRANCH   1   2
BRANCH   1  25
ATOM     25  C   UNL A   1      33.767  37.638  32.332  1.00  0.00     0.188 C 
BRANCH  25  26
ATOM     26  C   UNL A   1      33.728  36.342  33.163  1.00  0.00     0.188 C 
BRANCH  26  27
ATOM     27  O   UNL A   1      35.004  35.896  33.604  1.00  0.00    -0.376 OA
BRANCH  27  28
ATOM     28  C   UNL A   1      35.584  34.764  32.971  1.00  0.00     0.202 C 
BRANCH  28  29
ATOM     29  C   UNL A   1      35.030  33.373  33.329  1.00  0.00     0.261 C 
BRANCH  29  30
ATOM     30  O   UNL A   1      35.924  32.262  33.152  1.00  0.00    -0.460 OA
BRANCH  30  31
ATOM     31  C   UNL A   1      37.031  32.210  33.924  1.00  0.00     0.338 C 
ATOM     32  O   UNL A   1      37.076  32.210  35.137  1.00  0.00    -0.246 OA
BRANCH  31  33
ATOM     33  C   UNL A   1      38.191  31.936  33.047  1.00  0.00     0.060 A 
ATOM     34  C   UNL A   1      39.213  31.117  33.538  1.00  0.00     0.016 A 
ATOM     35  C   UNL A   1      38.288  32.507  31.776  1.00  0.00     0.016 A 
ATOM     36  C   UNL A   1      40.368  30.917  32.786  1.00  0.00     0.010 A 
ATOM     37  C   UNL A   1      39.457  32.321  31.030  1.00  0.00     0.010 A 
ATOM     38  C   UNL A   1      40.521  31.565  31.555  1.00  0.00    -0.014 A 
BRANCH  38  39
ATOM     39  C   UNL A   1      41.868  31.609  30.936  1.00  0.00     0.031 A 
ATOM     40  C   UNL A   1      42.769  32.773  31.252  1.00  0.00     0.074 A 
ATOM     41  C   UNL A   1      42.311  30.603  30.160  1.00  0.00     0.049 A 
ATOM     42  N   UNL A   1      43.997  33.001  30.866  1.00  0.00    -0.248 NA
ATOM     43  C   UNL A   1      42.211  33.820  32.126  1.00  0.00     0.031 C 
ATOM     44  C   UNL A   1      41.538  29.421  29.785  1.00  0.00     0.029 A 
ATOM     45  N   UNL A   1      43.522  30.427  29.538  1.00  0.00    -0.354 N 
ATOM     46  C   UNL A   1      44.355  34.218  31.437  1.00  0.00     0.074 A 
ATOM     47  C   UNL A   1      43.206  34.694  32.173  1.00  0.00     0.031 C 
ATOM     48  C   UNL A   1      42.285  28.653  28.972  1.00  0.00     0.029 A 
ATOM     49  C   UNL A   1      43.580  29.297  28.758  1.00  0.00     0.049 A 
ATOM     50  H   UNL A   1      44.276  31.051  29.641  1.00  0.00     0.167 HD
ATOM     51  C   UNL A   1      45.541  34.868  31.378  1.00  0.00     0.034 A 
ATOM     52  C   UNL A   1      44.560  28.847  27.949  1.00  0.00     0.034 A 
ATOM     53  C   UNL A   1      46.685  34.394  30.650  1.00  0.00     0.049 A 
ATOM     54  C   UNL A   1      45.859  29.609  27.872  1.00  0.00     0.074 A 
ATOM     55  C   UNL A   1      47.937  34.973  30.540  1.00  0.00     0.029 A 
ATOM     56  N   UNL A   1      46.717  33.230  29.897  1.00  0.00    -0.354 N 
ATOM     57  N   UNL A   1      46.217  30.704  28.499  1.00  0.00    -0.248 NA
ATOM     58  C   UNL A   1      46.905  29.050  27.002  1.00  0.00     0.031 C 
ATOM     59  C   UNL A   1      48.717  34.173  29.698  1.00  0.00     0.029 A 
ATOM     60  C   UNL A   1      47.964  33.075  29.316  1.00  0.00     0.049 A 
ATOM     61  H   UNL A   1      45.963  32.606  29.792  1.00  0.00     0.167 HD
ATOM     62  C   UNL A   1      47.537  30.942  28.130  1.00  0.00     0.074 A 
ATOM     63  C   UNL A   1      47.924  29.862  27.248  1.00  0.00     0.031 C 
ATOM     64  C   UNL A   1      48.352  31.969  28.478  1.00  0.00     0.034 A 
BRANCH  51  65
ATOM     65  C   UNL A   1      45.667  36.158  32.149  1.00  0.00     0.023 A 
ATOM     66  C   UNL A   1      46.208  36.140  33.452  1.00  0.00     0.012 A 
ATOM     67  C   UNL A   1      45.303  37.389  31.569  1.00  0.00     0.148 A 
ATOM     68  C   UNL A   1      46.354  37.322  34.177  1.00  0.00     0.002 A 
ATOM     69  C   UNL A   1      45.496  38.566  32.279  1.00  0.00     0.091 A 
ATOM     70  F   UNL A   1      44.772  37.382  30.338  1.00  0.00    -0.205 F 
ATOM     71  C   UNL A   1      46.008  38.535  33.588  1.00  0.00     0.022 A 
BRANCH  69  72
ATOM     72  S   UNL A   1      45.156  40.187  31.584  1.00  0.00     0.127 S 
ATOM     73  O   UNL A   1      43.823  40.465  32.120  1.00  0.00    -0.237 OA
ATOM     74  O   UNL A   1      46.226  40.999  32.164  1.00  0.00    -0.237 OA
ATOM     75  O   UNL A   1      45.223  40.029  30.139  1.00  0.00    -0.744 OA
ENDBRANCH  69  72
ENDBRANCH  51  65
BRANCH  52  76
ATOM     76  C   UNL A   1      44.360  27.606  27.147  1.00  0.00     0.023 A 
ATOM     77  C   UNL A   1      43.624  27.652  25.947  1.00  0.00     0.012 A 
ATOM     78  C   UNL A   1      44.886  26.376  27.585  1.00  0.00     0.148 A 
ATOM     79  C   UNL A   1      43.381  26.485  25.219  1.00  0.00     0.002 A 
ATOM     80  C   UNL A   1      44.689  25.230  26.825  1.00  0.00     0.091 A 
ATOM     81  F   UNL A   1      45.565  26.350  28.739  1.00  0.00    -0.205 F 
ATOM     82  C   UNL A   1      43.921  25.278  25.652  1.00  0.00     0.022 A 
BRANCH  80  83
ATOM     83  S   UNL A   1      45.449  23.658  27.244  1.00  0.00     0.127 S 
ATOM     84  O   UNL A   1      44.820  23.357  28.528  1.00  0.00    -0.237 OA
ATOM     85  O   UNL A   1      45.017  22.811  26.132  1.00  0.00    -0.237 OA
ATOM     86  O   UNL A   1      46.882  23.915  27.286  1.00  0.00    -0.744 OA
ENDBRANCH  80  83
ENDBRANCH  52  76
BRANCH  64  87
ATOM     87  C   UNL A   1      49.763  31.953  27.943  1.00  0.00     0.023 A 
ATOM     88  C   UNL A   1      50.765  31.222  28.614  1.00  0.00     0.012 A 
ATOM     89  C   UNL A   1      50.083  32.625  26.748  1.00  0.00     0.148 A 
ATOM     90  C   UNL A   1      52.072  31.203  28.129  1.00  0.00     0.002 A 
ATOM     91  C   UNL A   1      51.375  32.556  26.241  1.00  0.00     0.091 A 
ATOM     92  F   UNL A   1      49.122  33.327  26.130  1.00  0.00    -0.205 F 
ATOM     93  C   UNL A   1      52.375  31.860  26.939  1.00  0.00     0.022 A 
BRANCH  91  94
ATOM     94  S   UNL A   1      51.833  33.286  24.666  1.00  0.00     0.127 S 
ATOM     95  O   UNL A   1      53.176  33.790  24.950  1.00  0.00    -0.237 OA
ATOM     96  O   UNL A   1      51.793  32.134  23.765  1.00  0.00    -0.237 OA
ATOM     97  O   UNL A   1      50.829  34.305  24.389  1.00  0.00    -0.744 OA
ENDBRANCH  91  94
ENDBRANCH  64  87
ENDBRANCH  38  39
ENDBRANCH  31  33
ENDBRANCH  30  31
ENDBRANCH  29  30
ENDBRANCH  28  29
ENDBRANCH  27  28
ENDBRANCH  26  27
ENDBRANCH  25  26
ENDBRANCH   1  25
TORSDOF 28
ENDMDL
MODEL 3
REMARK VINA RESULT:      -7.3      4.318      6.518
REMARK SMILES CC(C)C[C@@H](CNC(=O)[C@@H]1CCOC1)C(=O)OCCOCCOCCOCCOC(=O)c1ccc(-c2c3nc(c(-c4cccc(S(=O)(=O)[O-])c4F)c4ccc([nH]4)c(-c4cccc(S(=O)(=O)[O-])c4F)c4nc(c(-c5cccc(S(=O)(=O)[O-])c5F)c5ccc2[nH]5)C=C4)C=C3)cc1
REMARK SMILES IDX 23 1 22 2 21 3 20 4 19 5 18 6 17 7 15 8 16 9 5 10 4 11 2 12
REMARK SMILES IDX 1 13 3 14 6 15 7 16 8 17 9 19 10 20 11 21 14 22 12 23 13 24
REMARK SMILES IDX 24 25 25 26 26 27 27 28 28 29 29 30 30 31 31 32 32 33 33 34
REMARK SMILES IDX 94 35 34 36 93 37 35 38 36 39 37 40 87 41 38 42 92 43 86 44
REMARK SMILES IDX 88 45 39 46 91 47 85 48 84 49 40 51 72 52 52 53 71 54 53 55
REMARK SMILES IDX 56 56 70 57 89 58 54 59 55 60 69 62 90 63 57 64 41 65 42 66
REMARK SMILES IDX 50 67 43 68 45 69 51 70 44 71 46 72 47 73 48 74 49 75 73 76
REMARK SMILES IDX 74 77 82 78 75 79 77 80 83 81 76 82 78 83 79 84 80 85 81 86
REMARK SMILES IDX 58 87 59 88 67 89 60 90 62 91 68 92 61 93 63 94 64 95 65 96
REMARK SMILES IDX 66 97
REMARK H PARENT 7 18 88 50 56 61
REMARK Flexibility Score: inf
ROOT
ATOM      1  O   UNL A   1      32.763  37.202  30.682  1.00  0.00    -0.377 OA
ENDROOT
BRANCH   1   2
ATOM      2  C   UNL A   1      32.741  35.873  30.208  1.00  0.00     0.188 C 
BRANCH   2   3
ATOM      3  C   UNL A   1      33.076  35.694  28.722  1.00  0.00     0.188 C 
BRANCH   3   4
ATOM      4  O   UNL A   1      34.401  35.467  28.278  1.00  0.00    -0.376 OA
BRANCH   4   5
ATOM      5  C   UNL A   1      34.934  34.158  28.144  1.00  0.00     0.202 C 
BRANCH   5   6
ATOM      6  C   UNL A   1      34.517  32.992  29.048  1.00  0.00     0.261 C 
BRANCH   6   7
ATOM      7  O   UNL A   1      34.977  31.671  28.702  1.00  0.00    -0.463 OA
BRANCH   7   8
ATOM      8  C   UNL A   1      34.236  31.013  27.786  1.00  0.00     0.310 C 
ATOM      9  O   UNL A   1      33.232  31.478  27.249  1.00  0.00    -0.252 OA
BRANCH   8  10
ATOM     10  C   UNL A   1      34.652  29.578  27.513  1.00  0.00     0.118 C 
BRANCH  10  11
ATOM     11  C   UNL A   1      34.124  28.826  26.269  1.00  0.00     0.020 C 
BRANCH  11  12
ATOM     12  C   UNL A   1      33.364  27.512  26.605  1.00  0.00    -0.017 C 
ATOM     13  C   UNL A   1      31.913  27.740  27.050  1.00  0.00     0.007 C 
ATOM     14  C   UNL A   1      33.355  26.566  25.400  1.00  0.00     0.007 C 
ENDBRANCH  11  12
ENDBRANCH  10  11
BRANCH  10  15
ATOM     15  C   UNL A   1      36.181  29.516  27.638  1.00  0.00     0.131 C 
BRANCH  15  16
ATOM     16  N   UNL A   1      36.612  29.259  29.000  1.00  0.00    -0.355 N 
ATOM     17  C   UNL A   1      37.869  29.268  29.530  1.00  0.00     0.225 C 
ATOM     18  H   UNL A   1      35.891  29.050  29.636  1.00  0.00     0.163 HD
ATOM     19  O   UNL A   1      38.021  28.765  30.641  1.00  0.00    -0.275 OA
BRANCH  17  20
ATOM     20  C   UNL A   1      39.004  29.932  28.767  1.00  0.00     0.106 C 
ATOM     21  C   UNL A   1      39.477  29.105  27.591  1.00  0.00     0.044 C 
ATOM     22  C   UNL A   1      40.236  30.016  29.649  1.00  0.00     0.173 C 
ATOM     23  C   UNL A   1      40.527  28.214  28.209  1.00  0.00     0.161 C 
ATOM     24  O   UNL A   1      41.169  29.017  29.209  1.00  0.00    -0.381 OA
ENDBRANCH  17  20
ENDBRANCH  15  16
ENDBRANCH  10  15
ENDBRANCH   8  10
ENDBRANCH   7   8
ENDBRANCH   6   7
ENDBRANCH   5   6
ENDBRANCH   4   5
ENDBRANCH   3   4
ENDBRANCH   2   3
ENDBRANCH   1   2
BRANCH   1  25
ATOM     25  C   UNL A   1      33.547  37.500  31.833  1.00  0.00     0.188 C 
BRANCH  25  26
ATOM     26  C   UNL A   1      33.846  36.366  32.832  1.00  0.00     0.188 C 
BRANCH  26  27
ATOM     27  O   UNL A   1      35.233  36.127  33.040  1.00  0.00    -0.376 OA
BRANCH  27  28
ATOM     28  C   UNL A   1      35.730  34.809  32.856  1.00  0.00     0.202 C 
BRANCH  28  29
ATOM     29  C   UNL A   1      35.223  33.706  33.803  1.00  0.00     0.261 C 
BRANCH  29  30
ATOM     30  O   UNL A   1      36.131  32.623  34.068  1.00  0.00    -0.460 OA
BRANCH  30  31
ATOM     31  C   UNL A   1      37.024  32.775  35.069  1.00  0.00     0.338 C 
ATOM     32  O   UNL A   1      36.797  33.155  36.199  1.00  0.00    -0.246 OA
BRANCH  31  33
ATOM     33  C   UNL A   1      38.312  32.198  34.627  1.00  0.00     0.060 A 
ATOM     34  C   UNL A   1      39.495  32.787  35.089  1.00  0.00     0.016 A 
ATOM     35  C   UNL A   1      38.357  31.117  33.744  1.00  0.00     0.016 A 
ATOM     36  C   UNL A   1      40.726  32.339  34.617  1.00  0.00     0.010 A 
ATOM     37  C   UNL A   1      39.593  30.681  33.256  1.00  0.00     0.010 A 
ATOM     38  C   UNL A   1      40.779  31.323  33.655  1.00  0.00    -0.014 A 
BRANCH  38  39
ATOM     39  C   UNL A   1      42.053  31.095  32.930  1.00  0.00     0.031 A 
ATOM     40  C   UNL A   1      42.430  32.040  31.820  1.00  0.00     0.074 A 
ATOM     41  C   UNL A   1      42.893  30.109  33.292  1.00  0.00     0.049 A 
ATOM     42  N   UNL A   1      43.508  32.064  31.081  1.00  0.00    -0.248 NA
ATOM     43  C   UNL A   1      41.461  33.104  31.502  1.00  0.00     0.031 C 
ATOM     44  C   UNL A   1      42.646  29.134  34.353  1.00  0.00     0.029 A 
ATOM     45  N   UNL A   1      44.123  29.760  32.793  1.00  0.00    -0.354 N 
ATOM     46  C   UNL A   1      43.345  33.133  30.206  1.00  0.00     0.074 A 
ATOM     47  C   UNL A   1      42.052  33.715  30.486  1.00  0.00     0.031 C 
ATOM     48  C   UNL A   1      43.681  28.277  34.406  1.00  0.00     0.029 A 
ATOM     49  C   UNL A   1      44.654  28.634  33.374  1.00  0.00     0.049 A 
ATOM     50  H   UNL A   1      44.581  30.269  32.085  1.00  0.00     0.167 HD
ATOM     51  C   UNL A   1      44.204  33.606  29.272  1.00  0.00     0.034 A 
ATOM     52  C   UNL A   1      45.786  27.959  33.091  1.00  0.00     0.034 A 
ATOM     53  C   UNL A   1      45.491  33.030  28.996  1.00  0.00     0.049 A 
ATOM     54  C   UNL A   1      46.708  28.485  32.021  1.00  0.00     0.074 A 
ATOM     55  C   UNL A   1      46.441  33.444  28.079  1.00  0.00     0.029 A 
ATOM     56  N   UNL A   1      46.008  31.909  29.626  1.00  0.00    -0.354 N 
ATOM     57  N   UNL A   1      46.587  29.555  31.273  1.00  0.00    -0.248 NA
ATOM     58  C   UNL A   1      47.947  27.727  31.783  1.00  0.00     0.031 C 
ATOM     59  C   UNL A   1      47.521  32.556  28.136  1.00  0.00     0.029 A 
ATOM     60  C   UNL A   1      47.261  31.613  29.116  1.00  0.00     0.049 A 
ATOM     61  H   UNL A   1      45.551  31.398  30.333  1.00  0.00     0.167 HD
ATOM     62  C   UNL A   1      47.745  29.621  30.506  1.00  0.00     0.074 A 
ATOM     63  C   UNL A   1      48.569  28.497  30.900  1.00  0.00     0.031 C 
ATOM     64  C   UNL A   1      48.091  30.520  29.551  1.00  0.00     0.034 A 
BRANCH  51  65
ATOM     65  C   UNL A   1      43.785  34.829  28.496  1.00  0.00     0.023 A 
ATOM     66  C   UNL A   1      42.988  34.681  27.342  1.00  0.00     0.012 A 
ATOM     67  C   UNL A   1      44.134  36.121  28.935  1.00  0.00     0.148 A 
ATOM     68  C   UNL A   1      42.571  35.798  26.619  1.00  0.00     0.002 A 
ATOM     69  C   UNL A   1      43.675  37.230  28.236  1.00  0.00     0.091 A 
ATOM     70  F   UNL A   1      44.909  36.239  30.022  1.00  0.00    -0.205 F 
ATOM     71  C   UNL A   1      42.905  37.072  27.071  1.00  0.00     0.022 A 
BRANCH  69  72
ATOM     72  S   UNL A   1      43.983  38.915  28.777  1.00  0.00     0.127 S 
ATOM     73  O   UNL A   1      45.427  39.032  28.569  1.00  0.00    -0.237 OA
ATOM     74  O   UNL A   1      43.169  39.691  27.841  1.00  0.00    -0.237 OA
ATOM     75  O   UNL A   1      43.549  38.980  30.164  1.00  0.00    -0.744 OA
ENDBRANCH  69  72
ENDBRANCH  51  65
BRANCH  52  76
ATOM     76  C   UNL A   1      46.120  26.711  33.835  1.00  0.00     0.023 A 
ATOM     77  C   UNL A   1      47.102  26.731  34.844  1.00  0.00     0.012 A 
ATOM     78  C   UNL A   1      45.475  25.497  33.528  1.00  0.00     0.148 A 
ATOM     79  C   UNL A   1      47.465  25.556  35.506  1.00  0.00     0.002 A 
ATOM     80  C   UNL A   1      45.800  24.344  34.231  1.00  0.00     0.091 A 
ATOM     81  F   UNL A   1      44.559  25.495  32.551  1.00  0.00    -0.205 F 
ATOM     82  C   UNL A   1      46.807  24.366  35.207  1.00  0.00     0.022 A 
BRANCH  80  83
ATOM     83  S   UNL A   1      44.920  22.796  33.995  1.00  0.00     0.127 S 
ATOM     84  O   UNL A   1      43.852  22.908  34.986  1.00  0.00    -0.237 OA
ATOM     85  O   UNL A   1      44.485  22.909  32.603  1.00  0.00    -0.237 OA
ATOM     86  O   UNL A   1      45.902  21.748  34.238  1.00  0.00    -0.744 OA
ENDBRANCH  80  83
ENDBRANCH  52  76
BRANCH  64  87
ATOM     87  C   UNL A   1      49.441  30.357  28.896  1.00  0.00     0.023 A 
ATOM     88  C   UNL A   1      50.568  31.017  29.425  1.00  0.00     0.012 A 
ATOM     89  C   UNL A   1      49.598  29.510  27.781  1.00  0.00     0.148 A 
ATOM     90  C   UNL A   1      51.819  30.875  28.825  1.00  0.00     0.002 A 
ATOM     91  C   UNL A   1      50.857  29.331  27.222  1.00  0.00     0.091 A 
ATOM     92  F   UNL A   1      48.513  28.901  27.281  1.00  0.00    -0.205 F 
ATOM     93  C   UNL A   1      51.966  30.025  27.732  1.00  0.00     0.022 A 
BRANCH  91  94
ATOM     94  S   UNL A   1      51.159  28.180  25.876  1.00  0.00     0.127 S 
ATOM     95  O   UNL A   1      52.501  28.570  25.447  1.00  0.00    -0.237 OA
ATOM     96  O   UNL A   1      51.088  26.884  26.552  1.00  0.00    -0.237 OA
ATOM     97  O   UNL A   1      50.099  28.413  24.904  1.00  0.00    -0.744 OA
ENDBRANCH  91  94
ENDBRANCH  64  87
ENDBRANCH  38  39
ENDBRANCH  31  33
ENDBRANCH  30  31
ENDBRANCH  29  30
ENDBRANCH  28  29
ENDBRANCH  27  28
ENDBRANCH  26  27
ENDBRANCH  25  26
ENDBRANCH   1  25
TORSDOF 28
ENDMDL
