MODEL 1
REMARK VINA RESULT:      -7.7      0.000      0.000
REMARK SMILES O=C1NC(=S)S/C1=C\c1ccc(OCc2cn(-c3ccc(C(=O)OCCOCCOCCOCCOC(=O)c4ccc(-c5c6nc(c(-c7cccc(S(=O)(=O)[O-])c7F)c7ccc([nH]7)c(-c7cccc(S(=O)(=O)[O-])c7F)c7nc(c(-c8cccc(S(=O)(=O)[O-])c8F)c8ccc5[nH]8)C=C7)C=C6)cc4)cc3)nn2)cc1
REMARK SMILES IDX 29 1 28 2 27 3 26 4 25 5 24 6 22 7 23 8 21 9 18 10 19 11
REMARK SMILES IDX 103 12 20 13 102 14 17 15 15 16 16 17 105 18 104 19 14 20
REMARK SMILES IDX 13 21 12 22 9 23 10 24 107 25 11 26 106 27 8 28 1 29 2 30
REMARK SMILES IDX 3 31 7 32 4 33 6 35 5 36 30 37 31 38 32 39 33 40 34 41 35 42
REMARK SMILES IDX 36 43 37 44 38 45 39 46 40 47 101 48 41 49 100 50 42 51
REMARK SMILES IDX 43 52 44 53 94 54 45 55 99 56 93 57 95 58 46 59 98 60 92 61
REMARK SMILES IDX 91 62 47 64 79 65 59 66 78 67 60 68 63 69 77 70 96 71 61 72
REMARK SMILES IDX 62 73 76 75 97 76 64 77 48 78 49 79 57 80 50 81 52 82 58 83
REMARK SMILES IDX 51 84 53 85 54 86 55 87 56 88 80 89 81 90 89 91 82 92 84 93
REMARK SMILES IDX 90 94 83 95 85 96 86 97 87 98 88 99 65 100 66 101 74 102
REMARK SMILES IDX 67 103 69 104 75 105 68 106 70 107 71 108 72 109 73 110
REMARK H PARENT 3 34 95 63 63 74
REMARK Flexibility Score: inf
ROOT
ATOM      1  C   UNL A   1      51.440  22.546  37.857  1.00  0.00     0.188 C 
ENDROOT
BRANCH   1   2
ATOM      2  C   UNL A   1      52.834  22.651  37.201  1.00  0.00     0.188 C 
BRANCH   2   3
ATOM      3  O   UNL A   1      53.280  21.724  36.219  1.00  0.00    -0.376 OA
BRANCH   3   4
ATOM      4  C   UNL A   1      54.195  22.072  35.195  1.00  0.00     0.202 C 
BRANCH   4   5
ATOM      5  C   UNL A   1      53.784  22.693  33.849  1.00  0.00     0.261 C 
BRANCH   5   6
ATOM      6  O   UNL A   1      52.740  23.662  33.869  1.00  0.00    -0.460 OA
BRANCH   6   7
ATOM      7  C   UNL A   1      53.085  24.890  33.435  1.00  0.00     0.338 C 
ATOM      8  O   UNL A   1      53.992  25.595  33.845  1.00  0.00    -0.246 OA
BRANCH   7   9
ATOM      9  C   UNL A   1      52.287  25.194  32.231  1.00  0.00     0.060 A 
ATOM     10  C   UNL A   1      50.761  25.595  29.945  1.00  0.00     0.066 A 
ATOM     11  C   UNL A   1      50.232  24.852  31.009  1.00  0.00     0.029 A 
ATOM     12  C   UNL A   1      52.004  26.232  30.069  1.00  0.00     0.029 A 
ATOM     13  C   UNL A   1      51.016  24.616  32.131  1.00  0.00     0.018 A 
ATOM     14  C   UNL A   1      52.758  26.050  31.231  1.00  0.00     0.018 A 
BRANCH  10  15
ATOM     15  N   UNL A   1      50.078  25.568  28.708  1.00  0.00    -0.220 N 
ATOM     16  C   UNL A   1      49.290  26.170  26.766  1.00  0.00     0.120 A 
ATOM     17  C   UNL A   1      49.481  26.624  28.054  1.00  0.00     0.144 A 
ATOM     18  N   UNL A   1      49.697  24.865  26.695  1.00  0.00    -0.131 NA
ATOM     19  N   UNL A   1      50.163  24.505  27.877  1.00  0.00    -0.062 NA
BRANCH  16  20
ATOM     20  C   UNL A   1      48.869  26.897  25.534  1.00  0.00     0.289 C 
BRANCH  20  21
ATOM     21  O   UNL A   1      49.129  26.218  24.298  1.00  0.00    -0.487 OA
BRANCH  21  22
ATOM     22  C   UNL A   1      49.606  26.954  23.249  1.00  0.00     0.119 A 
ATOM     23  C   UNL A   1      50.655  28.750  21.365  1.00  0.00    -0.024 A 
ATOM     24  C   UNL A   1      51.347  28.496  22.550  1.00  0.00     0.012 A 
ATOM     25  C   UNL A   1      49.487  28.036  21.088  1.00  0.00     0.012 A 
ATOM     26  C   UNL A   1      50.821  27.601  23.489  1.00  0.00     0.047 A 
ATOM     27  C   UNL A   1      48.978  27.127  22.018  1.00  0.00     0.047 A 
BRANCH  23  28
ATOM     28  C   UNL A   1      51.127  29.774  20.431  1.00  0.00     0.029 C 
ATOM     29  O   UNL A   1      52.213  31.819  18.667  1.00  0.00    -0.268 OA
ATOM     30  C   UNL A   1      52.412  30.626  18.495  1.00  0.00     0.263 C 
ATOM     31  N   UNL A   1      53.190  30.100  17.503  1.00  0.00    -0.307 N 
ATOM     32  C   UNL A   1      51.913  29.533  19.372  1.00  0.00     0.080 C 
ATOM     33  C   UNL A   1      53.402  28.755  17.497  1.00  0.00     0.145 C 
ATOM     34  H   UNL A   1      53.587  30.677  16.812  1.00  0.00     0.171 HD
ATOM     35  S   UNL A   1      52.524  28.015  18.815  1.00  0.00    -0.055 SA
ATOM     36  S   UNL A   1      54.397  27.990  16.417  1.00  0.00    -0.052 S 
ENDBRANCH  23  28
ENDBRANCH  21  22
ENDBRANCH  20  21
ENDBRANCH  16  20
ENDBRANCH  10  15
ENDBRANCH   7   9
ENDBRANCH   6   7
ENDBRANCH   5   6
ENDBRANCH   4   5
ENDBRANCH   3   4
ENDBRANCH   2   3
ENDBRANCH   1   2
BRANCH   1  37
ATOM     37  O   UNL A   1      51.424  22.946  39.216  1.00  0.00    -0.377 OA
BRANCH  37  38
ATOM     38  C   UNL A   1      50.394  22.366  40.014  1.00  0.00     0.188 C 
BRANCH  38  39
ATOM     39  C   UNL A   1      49.104  21.871  39.305  1.00  0.00     0.188 C 
BRANCH  39  40
ATOM     40  O   UNL A   1      48.873  22.440  38.021  1.00  0.00    -0.376 OA
BRANCH  40  41
ATOM     41  C   UNL A   1      47.762  23.278  37.751  1.00  0.00     0.202 C 
BRANCH  41  42
ATOM     42  C   UNL A   1      48.041  24.771  37.618  1.00  0.00     0.261 C 
BRANCH  42  43
ATOM     43  O   UNL A   1      48.307  25.155  36.288  1.00  0.00    -0.460 OA
BRANCH  43  44
ATOM     44  C   UNL A   1      47.404  25.986  35.746  1.00  0.00     0.338 C 
ATOM     45  O   UNL A   1      47.028  27.069  36.189  1.00  0.00    -0.246 OA
BRANCH  44  46
ATOM     46  C   UNL A   1      46.849  25.334  34.566  1.00  0.00     0.060 A 
ATOM     47  C   UNL A   1      47.437  25.705  33.359  1.00  0.00     0.016 A 
ATOM     48  C   UNL A   1      45.544  24.825  34.665  1.00  0.00     0.016 A 
ATOM     49  C   UNL A   1      46.592  25.920  32.308  1.00  0.00     0.010 A 
ATOM     50  C   UNL A   1      44.696  25.073  33.627  1.00  0.00     0.010 A 
ATOM     51  C   UNL A   1      45.223  25.721  32.516  1.00  0.00    -0.014 A 
BRANCH  51  52
ATOM     52  C   UNL A   1      44.330  26.153  31.479  1.00  0.00     0.031 A 
ATOM     53  C   UNL A   1      44.241  25.146  30.408  1.00  0.00     0.074 A 
ATOM     54  C   UNL A   1      43.641  27.301  31.584  1.00  0.00     0.049 A 
ATOM     55  N   UNL A   1      44.715  25.232  29.212  1.00  0.00    -0.248 NA
ATOM     56  C   UNL A   1      43.804  23.793  30.794  1.00  0.00     0.031 C 
ATOM     57  C   UNL A   1      43.495  28.162  32.763  1.00  0.00     0.029 A 
ATOM     58  N   UNL A   1      42.783  27.853  30.691  1.00  0.00    -0.354 N 
ATOM     59  C   UNL A   1      44.370  24.025  28.618  1.00  0.00     0.074 A 
ATOM     60  C   UNL A   1      44.084  23.108  29.687  1.00  0.00     0.031 C 
ATOM     61  C   UNL A   1      42.407  28.949  32.596  1.00  0.00     0.029 A 
ATOM     62  C   UNL A   1      41.865  28.723  31.268  1.00  0.00     0.049 A 
ATOM     63  H   UNL A   1      42.808  27.658  29.727  1.00  0.00     0.167 HD
ATOM     64  C   UNL A   1      43.999  23.983  27.313  1.00  0.00     0.034 A 
ATOM     65  C   UNL A   1      40.687  29.108  30.717  1.00  0.00     0.034 A 
ATOM     66  C   UNL A   1      44.449  25.155  26.604  1.00  0.00     0.049 A 
ATOM     67  C   UNL A   1      40.760  28.811  29.264  1.00  0.00     0.074 A 
ATOM     68  C   UNL A   1      45.678  25.747  26.386  1.00  0.00     0.029 A 
ATOM     69  N   UNL A   1      43.505  26.116  26.334  1.00  0.00    -0.354 N 
ATOM     70  N   UNL A   1      41.564  29.423  28.441  1.00  0.00    -0.248 NA
ATOM     71  C   UNL A   1      40.266  27.519  28.808  1.00  0.00     0.031 C 
ATOM     72  C   UNL A   1      45.425  27.149  26.427  1.00  0.00     0.029 A 
ATOM     73  C   UNL A   1      44.052  27.340  26.608  1.00  0.00     0.049 A 
ATOM     74  H   UNL A   1      42.593  25.952  26.000  1.00  0.00     0.167 HD
ATOM     75  C   UNL A   1      42.034  28.418  27.602  1.00  0.00     0.074 A 
ATOM     76  C   UNL A   1      41.115  27.298  27.801  1.00  0.00     0.031 C 
ATOM     77  C   UNL A   1      43.287  28.481  27.063  1.00  0.00     0.034 A 
BRANCH  64  78
ATOM     78  C   UNL A   1      42.871  23.118  26.796  1.00  0.00     0.023 A 
ATOM     79  C   UNL A   1      41.573  23.663  26.868  1.00  0.00     0.012 A 
ATOM     80  C   UNL A   1      42.969  21.733  26.517  1.00  0.00     0.148 A 
ATOM     81  C   UNL A   1      40.436  22.859  26.739  1.00  0.00     0.002 A 
ATOM     82  C   UNL A   1      41.840  20.957  26.302  1.00  0.00     0.091 A 
ATOM     83  F   UNL A   1      44.144  21.104  26.592  1.00  0.00    -0.205 F 
ATOM     84  C   UNL A   1      40.568  21.507  26.448  1.00  0.00     0.022 A 
BRANCH  82  85
ATOM     85  S   UNL A   1      41.970  19.214  25.877  1.00  0.00     0.127 S 
ATOM     86  O   UNL A   1      40.577  18.878  25.600  1.00  0.00    -0.237 OA
ATOM     87  O   UNL A   1      42.845  19.259  24.706  1.00  0.00    -0.237 OA
ATOM     88  O   UNL A   1      42.567  18.569  27.039  1.00  0.00    -0.744 OA
ENDBRANCH  82  85
ENDBRANCH  64  78
BRANCH  65  89
ATOM     89  C   UNL A   1      39.401  29.413  31.388  1.00  0.00     0.023 A 
ATOM     90  C   UNL A   1      38.708  28.384  32.056  1.00  0.00     0.012 A 
ATOM     91  C   UNL A   1      38.985  30.746  31.607  1.00  0.00     0.148 A 
ATOM     92  C   UNL A   1      37.656  28.674  32.933  1.00  0.00     0.002 A 
ATOM     93  C   UNL A   1      37.929  31.028  32.468  1.00  0.00     0.091 A 
ATOM     94  F   UNL A   1      39.682  31.743  31.048  1.00  0.00    -0.205 F 
ATOM     95  C   UNL A   1      37.270  29.995  33.144  1.00  0.00     0.022 A 
BRANCH  93  96
ATOM     96  S   UNL A   1      37.388  32.713  32.799  1.00  0.00     0.127 S 
ATOM     97  O   UNL A   1      37.028  33.183  31.461  1.00  0.00    -0.237 OA
ATOM     98  O   UNL A   1      36.257  32.497  33.696  1.00  0.00    -0.237 OA
ATOM     99  O   UNL A   1      38.538  33.393  33.382  1.00  0.00    -0.744 OA
ENDBRANCH  93  96
ENDBRANCH  65  89
BRANCH  77 100
ATOM    100  C   UNL A   1      44.041  29.783  27.172  1.00  0.00     0.023 A 
ATOM    101  C   UNL A   1      43.817  30.865  26.294  1.00  0.00     0.012 A 
ATOM    102  C   UNL A   1      44.863  29.977  28.293  1.00  0.00     0.148 A 
ATOM    103  C   UNL A   1      44.420  32.106  26.522  1.00  0.00     0.002 A 
ATOM    104  C   UNL A   1      45.420  31.224  28.543  1.00  0.00     0.091 A 
ATOM    105  F   UNL A   1      45.061  28.939  29.120  1.00  0.00    -0.205 F 
ATOM    106  C   UNL A   1      45.210  32.290  27.654  1.00  0.00     0.022 A 
BRANCH 104 107
ATOM    107  S   UNL A   1      46.334  31.554  30.050  1.00  0.00     0.127 S 
ATOM    108  O   UNL A   1      47.562  30.791  29.835  1.00  0.00    -0.237 OA
ATOM    109  O   UNL A   1      46.501  33.007  30.007  1.00  0.00    -0.237 OA
ATOM    110  O   UNL A   1      45.487  31.087  31.141  1.00  0.00    -0.744 OA
ENDBRANCH 104 107
ENDBRANCH  77 100
ENDBRANCH  51  52
ENDBRANCH  44  46
ENDBRANCH  43  44
ENDBRANCH  42  43
ENDBRANCH  41  42
ENDBRANCH  40  41
ENDBRANCH  39  40
ENDBRANCH  38  39
ENDBRANCH  37  38
ENDBRANCH   1  37
TORSDOF 28
ENDMDL
MODEL 2
REMARK VINA RESULT:      -7.5      6.566     12.368
REMARK SMILES O=C1NC(=S)S/C1=C\c1ccc(OCc2cn(-c3ccc(C(=O)OCCOCCOCCOCCOC(=O)c4ccc(-c5c6nc(c(-c7cccc(S(=O)(=O)[O-])c7F)c7ccc([nH]7)c(-c7cccc(S(=O)(=O)[O-])c7F)c7nc(c(-c8cccc(S(=O)(=O)[O-])c8F)c8ccc5[nH]8)C=C7)C=C6)cc4)cc3)nn2)cc1
REMARK SMILES IDX 29 1 28 2 27 3 26 4 25 5 24 6 22 7 23 8 21 9 18 10 19 11
REMARK SMILES IDX 103 12 20 13 102 14 17 15 15 16 16 17 105 18 104 19 14 20
REMARK SMILES IDX 13 21 12 22 9 23 10 24 107 25 11 26 106 27 8 28 1 29 2 30
REMARK SMILES IDX 3 31 7 32 4 33 6 35 5 36 30 37 31 38 32 39 33 40 34 41 35 42
REMARK SMILES IDX 36 43 37 44 38 45 39 46 40 47 101 48 41 49 100 50 42 51
REMARK SMILES IDX 43 52 44 53 94 54 45 55 99 56 93 57 95 58 46 59 98 60 92 61
REMARK SMILES IDX 91 62 47 64 79 65 59 66 78 67 60 68 63 69 77 70 96 71 61 72
REMARK SMILES IDX 62 73 76 75 97 76 64 77 48 78 49 79 57 80 50 81 52 82 58 83
REMARK SMILES IDX 51 84 53 85 54 86 55 87 56 88 80 89 81 90 89 91 82 92 84 93
REMARK SMILES IDX 90 94 83 95 85 96 86 97 87 98 88 99 65 100 66 101 74 102
REMARK SMILES IDX 67 103 69 104 75 105 68 106 70 107 71 108 72 109 73 110
REMARK H PARENT 3 34 95 63 63 74
REMARK Flexibility Score: inf
ROOT
ATOM      1  C   UNL A   1      44.845  38.720  34.228  1.00  0.00     0.188 C 
ENDROOT
BRANCH   1   2
ATOM      2  C   UNL A   1      44.191  40.040  34.694  1.00  0.00     0.188 C 
BRANCH   2   3
ATOM      3  O   UNL A   1      43.775  41.043  33.775  1.00  0.00    -0.376 OA
BRANCH   3   4
ATOM      4  C   UNL A   1      42.536  41.719  33.888  1.00  0.00     0.202 C 
BRANCH   4   5
ATOM      5  C   UNL A   1      42.401  43.240  34.074  1.00  0.00     0.261 C 
BRANCH   5   6
ATOM      6  O   UNL A   1      43.577  43.961  34.430  1.00  0.00    -0.460 OA
BRANCH   6   7
ATOM      7  C   UNL A   1      43.903  44.976  33.605  1.00  0.00     0.338 C 
ATOM      8  O   UNL A   1      43.803  46.172  33.823  1.00  0.00    -0.246 OA
BRANCH   7   9
ATOM      9  C   UNL A   1      44.587  44.409  32.426  1.00  0.00     0.060 A 
ATOM     10  C   UNL A   1      45.722  43.281  30.155  1.00  0.00     0.066 A 
ATOM     11  C   UNL A   1      44.648  44.173  30.024  1.00  0.00     0.029 A 
ATOM     12  C   UNL A   1      46.300  43.043  31.410  1.00  0.00     0.029 A 
ATOM     13  C   UNL A   1      44.055  44.699  31.164  1.00  0.00     0.018 A 
ATOM     14  C   UNL A   1      45.744  43.632  32.548  1.00  0.00     0.018 A 
BRANCH  10  15
ATOM     15  N   UNL A   1      46.108  42.531  29.021  1.00  0.00    -0.220 N 
ATOM     16  C   UNL A   1      47.143  41.102  27.741  1.00  0.00     0.120 A 
ATOM     17  C   UNL A   1      47.362  42.046  28.723  1.00  0.00     0.144 A 
ATOM     18  N   UNL A   1      45.811  41.094  27.429  1.00  0.00    -0.131 NA
ATOM     19  N   UNL A   1      45.193  41.969  28.201  1.00  0.00    -0.062 NA
BRANCH  16  20
ATOM     20  C   UNL A   1      48.065  40.095  27.141  1.00  0.00     0.289 C 
BRANCH  20  21
ATOM     21  O   UNL A   1      47.686  38.724  27.328  1.00  0.00    -0.487 OA
BRANCH  21  22
ATOM     22  C   UNL A   1      48.497  37.757  26.800  1.00  0.00     0.119 A 
ATOM     23  C   UNL A   1      49.832  35.549  25.698  1.00  0.00    -0.024 A 
ATOM     24  C   UNL A   1      48.654  36.016  25.115  1.00  0.00     0.012 A 
ATOM     25  C   UNL A   1      50.385  36.245  26.776  1.00  0.00     0.012 A 
ATOM     26  C   UNL A   1      47.989  37.117  25.667  1.00  0.00     0.047 A 
ATOM     27  C   UNL A   1      49.730  37.356  27.310  1.00  0.00     0.047 A 
BRANCH  23  28
ATOM     28  C   UNL A   1      50.472  34.326  25.210  1.00  0.00     0.029 C 
ATOM     29  O   UNL A   1      51.658  31.917  24.088  1.00  0.00    -0.268 OA
ATOM     30  C   UNL A   1      52.153  33.024  23.943  1.00  0.00     0.263 C 
ATOM     31  N   UNL A   1      53.279  33.287  23.215  1.00  0.00    -0.307 N 
ATOM     32  C   UNL A   1      51.586  34.296  24.464  1.00  0.00     0.080 C 
ATOM     33  C   UNL A   1      53.656  34.586  23.060  1.00  0.00     0.145 C 
ATOM     34  H   UNL A   1      53.802  32.557  22.813  1.00  0.00     0.171 HD
ATOM     35  S   UNL A   1      52.554  35.626  23.932  1.00  0.00    -0.055 SA
ATOM     36  S   UNL A   1      54.938  35.061  22.128  1.00  0.00    -0.052 S 
ENDBRANCH  23  28
ENDBRANCH  21  22
ENDBRANCH  20  21
ENDBRANCH  16  20
ENDBRANCH  10  15
ENDBRANCH   7   9
ENDBRANCH   6   7
ENDBRANCH   5   6
ENDBRANCH   4   5
ENDBRANCH   3   4
ENDBRANCH   2   3
ENDBRANCH   1   2
BRANCH   1  37
ATOM     37  O   UNL A   1      43.912  37.761  33.763  1.00  0.00    -0.377 OA
BRANCH  37  38
ATOM     38  C   UNL A   1      43.526  37.892  32.397  1.00  0.00     0.188 C 
BRANCH  38  39
ATOM     39  C   UNL A   1      44.411  37.218  31.314  1.00  0.00     0.188 C 
BRANCH  39  40
ATOM     40  O   UNL A   1      43.883  36.008  30.780  1.00  0.00    -0.376 OA
BRANCH  40  41
ATOM     41  C   UNL A   1      44.317  34.732  31.217  1.00  0.00     0.202 C 
BRANCH  41  42
ATOM     42  C   UNL A   1      45.330  34.009  30.337  1.00  0.00     0.261 C 
BRANCH  42  43
ATOM     43  O   UNL A   1      45.010  34.090  28.966  1.00  0.00    -0.460 OA
BRANCH  43  44
ATOM     44  C   UNL A   1      45.855  34.825  28.228  1.00  0.00     0.338 C 
ATOM     45  O   UNL A   1      45.810  36.037  28.031  1.00  0.00    -0.246 OA
BRANCH  44  46
ATOM     46  C   UNL A   1      46.805  33.916  27.598  1.00  0.00     0.060 A 
ATOM     47  C   UNL A   1      46.275  33.124  26.582  1.00  0.00     0.016 A 
ATOM     48  C   UNL A   1      47.946  33.563  28.336  1.00  0.00     0.016 A 
ATOM     49  C   UNL A   1      46.661  31.815  26.562  1.00  0.00     0.010 A 
ATOM     50  C   UNL A   1      48.306  32.249  28.340  1.00  0.00     0.010 A 
ATOM     51  C   UNL A   1      47.573  31.386  27.533  1.00  0.00    -0.014 A 
BRANCH  51  52
ATOM     52  C   UNL A   1      47.807  29.974  27.639  1.00  0.00     0.031 A 
ATOM     53  C   UNL A   1      49.062  29.597  26.968  1.00  0.00     0.074 A 
ATOM     54  C   UNL A   1      46.983  29.181  28.343  1.00  0.00     0.049 A 
ATOM     55  N   UNL A   1      49.193  28.931  25.871  1.00  0.00    -0.248 NA
ATOM     56  C   UNL A   1      50.295  30.256  27.432  1.00  0.00     0.031 C 
ATOM     57  C   UNL A   1      45.902  29.580  29.252  1.00  0.00     0.029 A 
ATOM     58  N   UNL A   1      47.053  27.838  28.519  1.00  0.00    -0.354 N 
ATOM     59  C   UNL A   1      50.567  28.859  25.676  1.00  0.00     0.074 A 
ATOM     60  C   UNL A   1      51.150  29.900  26.476  1.00  0.00     0.031 C 
ATOM     61  C   UNL A   1      45.618  28.543  30.073  1.00  0.00     0.029 A 
ATOM     62  C   UNL A   1      46.409  27.394  29.668  1.00  0.00     0.049 A 
ATOM     63  H   UNL A   1      47.514  27.235  27.893  1.00  0.00     0.167 HD
ATOM     64  C   UNL A   1      51.129  27.733  25.167  1.00  0.00     0.034 A 
ATOM     65  C   UNL A   1      46.630  26.211  30.291  1.00  0.00     0.034 A 
ATOM     66  C   UNL A   1      50.152  26.927  24.479  1.00  0.00     0.049 A 
ATOM     67  C   UNL A   1      47.317  25.321  29.320  1.00  0.00     0.074 A 
ATOM     68  C   UNL A   1      49.279  27.139  23.430  1.00  0.00     0.029 A 
ATOM     69  N   UNL A   1      49.696  25.810  25.138  1.00  0.00    -0.354 N 
ATOM     70  N   UNL A   1      46.754  24.864  28.236  1.00  0.00    -0.248 NA
ATOM     71  C   UNL A   1      48.773  25.310  29.320  1.00  0.00     0.031 C 
ATOM     72  C   UNL A   1      48.103  26.412  23.774  1.00  0.00     0.029 A 
ATOM     73  C   UNL A   1      48.338  25.747  24.980  1.00  0.00     0.049 A 
ATOM     74  H   UNL A   1      50.250  25.168  25.637  1.00  0.00     0.167 HD
ATOM     75  C   UNL A   1      47.750  24.944  27.268  1.00  0.00     0.074 A 
ATOM     76  C   UNL A   1      48.994  25.114  28.017  1.00  0.00     0.031 C 
ATOM     77  C   UNL A   1      47.439  25.173  25.958  1.00  0.00     0.034 A 
BRANCH  64  78
ATOM     78  C   UNL A   1      52.436  27.158  25.663  1.00  0.00     0.023 A 
ATOM     79  C   UNL A   1      52.440  26.638  26.973  1.00  0.00     0.012 A 
ATOM     80  C   UNL A   1      53.697  27.352  25.047  1.00  0.00     0.148 A 
ATOM     81  C   UNL A   1      53.635  26.389  27.656  1.00  0.00     0.002 A 
ATOM     82  C   UNL A   1      54.878  27.021  25.697  1.00  0.00     0.091 A 
ATOM     83  F   UNL A   1      53.795  27.989  23.879  1.00  0.00    -0.205 F 
ATOM     84  C   UNL A   1      54.855  26.573  27.017  1.00  0.00     0.022 A 
BRANCH  82  85
ATOM     85  S   UNL A   1      56.473  27.199  24.886  1.00  0.00     0.127 S 
ATOM     86  O   UNL A   1      56.283  26.388  23.689  1.00  0.00    -0.237 OA
ATOM     87  O   UNL A   1      56.530  28.643  24.659  1.00  0.00    -0.237 OA
ATOM     88  O   UNL A   1      57.458  26.711  25.843  1.00  0.00    -0.744 OA
ENDBRANCH  82  85
ENDBRANCH  64  78
BRANCH  65  89
ATOM     89  C   UNL A   1      46.585  25.897  31.739  1.00  0.00     0.023 A 
ATOM     90  C   UNL A   1      47.521  26.493  32.607  1.00  0.00     0.012 A 
ATOM     91  C   UNL A   1      45.474  25.236  32.312  1.00  0.00     0.148 A 
ATOM     92  C   UNL A   1      47.344  26.457  33.995  1.00  0.00     0.002 A 
ATOM     93  C   UNL A   1      45.311  25.189  33.694  1.00  0.00     0.091 A 
ATOM     94  F   UNL A   1      44.530  24.735  31.506  1.00  0.00    -0.205 F 
ATOM     95  C   UNL A   1      46.237  25.811  34.538  1.00  0.00     0.022 A 
BRANCH  93  96
ATOM     96  S   UNL A   1      43.896  24.385  34.462  1.00  0.00     0.127 S 
ATOM     97  O   UNL A   1      44.403  24.100  35.805  1.00  0.00    -0.237 OA
ATOM     98  O   UNL A   1      42.882  25.434  34.401  1.00  0.00    -0.237 OA
ATOM     99  O   UNL A   1      43.628  23.198  33.661  1.00  0.00    -0.744 OA
ENDBRANCH  93  96
ENDBRANCH  65  89
BRANCH  77 100
ATOM    100  C   UNL A   1      45.993  25.061  25.543  1.00  0.00     0.023 A 
ATOM    101  C   UNL A   1      45.400  23.833  25.181  1.00  0.00     0.012 A 
ATOM    102  C   UNL A   1      45.175  26.193  25.694  1.00  0.00     0.148 A 
ATOM    103  C   UNL A   1      44.023  23.744  24.954  1.00  0.00     0.002 A 
ATOM    104  C   UNL A   1      43.802  26.089  25.515  1.00  0.00     0.091 A 
ATOM    105  F   UNL A   1      45.754  27.351  26.043  1.00  0.00    -0.205 F 
ATOM    106  C   UNL A   1      43.222  24.868  25.135  1.00  0.00     0.022 A 
BRANCH 104 107
ATOM    107  S   UNL A   1      42.709  27.468  25.863  1.00  0.00     0.127 S 
ATOM    108  O   UNL A   1      43.366  28.097  27.006  1.00  0.00    -0.237 OA
ATOM    109  O   UNL A   1      42.768  28.239  24.621  1.00  0.00    -0.237 OA
ATOM    110  O   UNL A   1      41.401  26.883  26.135  1.00  0.00    -0.744 OA
ENDBRANCH 104 107
ENDBRANCH  77 100
ENDBRANCH  51  52
ENDBRANCH  44  46
ENDBRANCH  43  44
ENDBRANCH  42  43
ENDBRANCH  41  42
ENDBRANCH  40  41
ENDBRANCH  39  40
ENDBRANCH  38  39
ENDBRANCH  37  38
ENDBRANCH   1  37
TORSDOF 28
ENDMDL
MODEL 3
REMARK VINA RESULT:      -7.4      6.812     12.071
REMARK SMILES O=C1NC(=S)S/C1=C\c1ccc(OCc2cn(-c3ccc(C(=O)OCCOCCOCCOCCOC(=O)c4ccc(-c5c6nc(c(-c7cccc(S(=O)(=O)[O-])c7F)c7ccc([nH]7)c(-c7cccc(S(=O)(=O)[O-])c7F)c7nc(c(-c8cccc(S(=O)(=O)[O-])c8F)c8ccc5[nH]8)C=C7)C=C6)cc4)cc3)nn2)cc1
REMARK SMILES IDX 29 1 28 2 27 3 26 4 25 5 24 6 22 7 23 8 21 9 18 10 19 11
REMARK SMILES IDX 103 12 20 13 102 14 17 15 15 16 16 17 105 18 104 19 14 20
REMARK SMILES IDX 13 21 12 22 9 23 10 24 107 25 11 26 106 27 8 28 1 29 2 30
REMARK SMILES IDX 3 31 7 32 4 33 6 35 5 36 30 37 31 38 32 39 33 40 34 41 35 42
REMARK SMILES IDX 36 43 37 44 38 45 39 46 40 47 101 48 41 49 100 50 42 51
REMARK SMILES IDX 43 52 44 53 94 54 45 55 99 56 93 57 95 58 46 59 98 60 92 61
REMARK SMILES IDX 91 62 47 64 79 65 59 66 78 67 60 68 63 69 77 70 96 71 61 72
REMARK SMILES IDX 62 73 76 75 97 76 64 77 48 78 49 79 57 80 50 81 52 82 58 83
REMARK SMILES IDX 51 84 53 85 54 86 55 87 56 88 80 89 81 90 89 91 82 92 84 93
REMARK SMILES IDX 90 94 83 95 85 96 86 97 87 98 88 99 65 100 66 101 74 102
REMARK SMILES IDX 67 103 69 104 75 105 68 106 70 107 71 108 72 109 73 110
REMARK H PARENT 3 34 95 63 63 74
REMARK Flexibility Score: inf
ROOT
ATOM      1  C   UNL A   1      48.243  27.989  36.252  1.00  0.00     0.188 C 
ENDROOT
BRANCH   1   2
ATOM      2  C   UNL A   1      48.170  28.028  34.710  1.00  0.00     0.188 C 
BRANCH   2   3
ATOM      3  O   UNL A   1      48.191  29.249  33.982  1.00  0.00    -0.376 OA
BRANCH   3   4
ATOM      4  C   UNL A   1      47.054  29.759  33.307  1.00  0.00     0.202 C 
BRANCH   4   5
ATOM      5  C   UNL A   1      46.660  31.246  33.291  1.00  0.00     0.261 C 
BRANCH   5   6
ATOM      6  O   UNL A   1      45.629  31.658  34.184  1.00  0.00    -0.460 OA
BRANCH   6   7
ATOM      7  C   UNL A   1      46.044  32.341  35.269  1.00  0.00     0.338 C 
ATOM      8  O   UNL A   1      46.720  31.926  36.195  1.00  0.00    -0.246 OA
BRANCH   7   9
ATOM      9  C   UNL A   1      45.698  33.764  35.076  1.00  0.00     0.060 A 
ATOM     10  C   UNL A   1      44.924  36.420  34.834  1.00  0.00     0.066 A 
ATOM     11  C   UNL A   1      45.288  35.917  36.090  1.00  0.00     0.029 A 
ATOM     12  C   UNL A   1      45.056  35.630  33.683  1.00  0.00     0.029 A 
ATOM     13  C   UNL A   1      45.631  34.576  36.214  1.00  0.00     0.018 A 
ATOM     14  C   UNL A   1      45.471  34.301  33.805  1.00  0.00     0.018 A 
BRANCH  10  15
ATOM     15  N   UNL A   1      44.295  37.685  34.780  1.00  0.00    -0.220 N 
ATOM     16  C   UNL A   1      43.991  39.842  34.695  1.00  0.00     0.120 A 
ATOM     17  C   UNL A   1      44.743  38.870  35.320  1.00  0.00     0.144 A 
ATOM     18  N   UNL A   1      43.083  39.233  33.871  1.00  0.00    -0.131 NA
ATOM     19  N   UNL A   1      43.267  37.927  33.936  1.00  0.00    -0.062 NA
BRANCH  16  20
ATOM     20  C   UNL A   1      44.128  41.327  34.699  1.00  0.00     0.289 C 
BRANCH  20  21
ATOM     21  O   UNL A   1      45.313  41.840  34.076  1.00  0.00    -0.487 OA
BRANCH  21  22
ATOM     22  C   UNL A   1      45.530  41.534  32.761  1.00  0.00     0.119 A 
ATOM     23  C   UNL A   1      45.583  40.847  30.040  1.00  0.00    -0.024 A 
ATOM     24  C   UNL A   1      44.665  41.790  30.506  1.00  0.00     0.012 A 
ATOM     25  C   UNL A   1      46.530  40.321  30.922  1.00  0.00     0.012 A 
ATOM     26  C   UNL A   1      44.640  42.130  31.863  1.00  0.00     0.047 A 
ATOM     27  C   UNL A   1      46.515  40.680  32.271  1.00  0.00     0.047 A 
BRANCH  23  28
ATOM     28  C   UNL A   1      45.541  40.389  28.651  1.00  0.00     0.029 C 
ATOM     29  O   UNL A   1      45.565  39.348  25.933  1.00  0.00    -0.268 OA
ATOM     30  C   UNL A   1      44.774  38.963  26.779  1.00  0.00     0.263 C 
ATOM     31  N   UNL A   1      43.842  37.982  26.588  1.00  0.00    -0.307 N 
ATOM     32  C   UNL A   1      44.725  39.430  28.190  1.00  0.00     0.080 C 
ATOM     33  C   UNL A   1      43.094  37.588  27.656  1.00  0.00     0.145 C 
ATOM     34  H   UNL A   1      43.715  37.571  25.703  1.00  0.00     0.171 HD
ATOM     35  S   UNL A   1      43.523  38.540  29.057  1.00  0.00    -0.055 SA
ATOM     36  S   UNL A   1      41.998  36.349  27.597  1.00  0.00    -0.052 S 
ENDBRANCH  23  28
ENDBRANCH  21  22
ENDBRANCH  20  21
ENDBRANCH  16  20
ENDBRANCH  10  15
ENDBRANCH   7   9
ENDBRANCH   6   7
ENDBRANCH   5   6
ENDBRANCH   4   5
ENDBRANCH   3   4
ENDBRANCH   2   3
ENDBRANCH   1   2
BRANCH   1  37
ATOM     37  O   UNL A   1      47.616  26.852  36.820  1.00  0.00    -0.377 OA
BRANCH  37  38
ATOM     38  C   UNL A   1      48.426  26.085  37.707  1.00  0.00     0.188 C 
BRANCH  38  39
ATOM     39  C   UNL A   1      47.829  24.784  38.310  1.00  0.00     0.188 C 
BRANCH  39  40
ATOM     40  O   UNL A   1      47.183  23.932  37.369  1.00  0.00    -0.376 OA
BRANCH  40  41
ATOM     41  C   UNL A   1      45.786  23.981  37.135  1.00  0.00     0.202 C 
BRANCH  41  42
ATOM     42  C   UNL A   1      44.915  24.511  38.268  1.00  0.00     0.261 C 
BRANCH  42  43
ATOM     43  O   UNL A   1      43.773  25.193  37.799  1.00  0.00    -0.460 OA
BRANCH  43  44
ATOM     44  C   UNL A   1      43.915  26.520  37.677  1.00  0.00     0.338 C 
ATOM     45  O   UNL A   1      44.241  27.319  38.553  1.00  0.00    -0.246 OA
BRANCH  44  46
ATOM     46  C   UNL A   1      43.513  26.890  36.325  1.00  0.00     0.060 A 
ATOM     47  C   UNL A   1      44.488  27.550  35.581  1.00  0.00     0.016 A 
ATOM     48  C   UNL A   1      42.136  27.010  36.073  1.00  0.00     0.016 A 
ATOM     49  C   UNL A   1      44.072  28.615  34.835  1.00  0.00     0.010 A 
ATOM     50  C   UNL A   1      41.725  28.095  35.357  1.00  0.00     0.010 A 
ATOM     51  C   UNL A   1      42.710  28.935  34.852  1.00  0.00    -0.014 A 
BRANCH  51  52
ATOM     52  C   UNL A   1      42.317  30.175  34.244  1.00  0.00     0.031 A 
ATOM     53  C   UNL A   1      41.734  31.088  35.242  1.00  0.00     0.074 A 
ATOM     54  C   UNL A   1      42.557  30.423  32.946  1.00  0.00     0.049 A 
ATOM     55  N   UNL A   1      40.498  31.440  35.353  1.00  0.00    -0.248 NA
ATOM     56  C   UNL A   1      42.575  31.443  36.397  1.00  0.00     0.031 C 
ATOM     57  C   UNL A   1      43.390  29.650  32.018  1.00  0.00     0.029 A 
ATOM     58  N   UNL A   1      42.231  31.524  32.225  1.00  0.00    -0.354 N 
ATOM     59  C   UNL A   1      40.482  32.296  36.446  1.00  0.00     0.074 A 
ATOM     60  C   UNL A   1      41.683  32.034  37.190  1.00  0.00     0.031 C 
ATOM     61  C   UNL A   1      43.721  30.439  30.970  1.00  0.00     0.029 A 
ATOM     62  C   UNL A   1      43.033  31.712  31.106  1.00  0.00     0.049 A 
ATOM     63  H   UNL A   1      41.496  32.131  32.469  1.00  0.00     0.167 HD
ATOM     64  C   UNL A   1      39.676  33.388  36.451  1.00  0.00     0.034 A 
ATOM     65  C   UNL A   1      43.198  32.880  30.438  1.00  0.00     0.034 A 
ATOM     66  C   UNL A   1      38.610  33.254  35.489  1.00  0.00     0.049 A 
ATOM     67  C   UNL A   1      42.072  33.770  30.820  1.00  0.00     0.074 A 
ATOM     68  C   UNL A   1      37.605  32.332  35.273  1.00  0.00     0.029 A 
ATOM     69  N   UNL A   1      38.740  33.963  34.319  1.00  0.00    -0.354 N 
ATOM     70  N   UNL A   1      40.829  33.540  30.498  1.00  0.00    -0.248 NA
ATOM     71  C   UNL A   1      42.268  34.672  31.945  1.00  0.00     0.031 C 
ATOM     72  C   UNL A   1      37.489  32.237  33.856  1.00  0.00     0.029 A 
ATOM     73  C   UNL A   1      38.384  33.144  33.282  1.00  0.00     0.049 A 
ATOM     74  H   UNL A   1      39.037  34.899  34.240  1.00  0.00     0.167 HD
ATOM     75  C   UNL A   1      40.107  33.883  31.636  1.00  0.00     0.074 A 
ATOM     76  C   UNL A   1      41.030  34.678  32.445  1.00  0.00     0.031 C 
ATOM     77  C   UNL A   1      38.945  33.238  31.952  1.00  0.00     0.034 A 
BRANCH  64  78
ATOM     78  C   UNL A   1      40.099  34.734  36.995  1.00  0.00     0.023 A 
ATOM     79  C   UNL A   1      41.194  35.355  36.360  1.00  0.00     0.012 A 
ATOM     80  C   UNL A   1      39.686  35.277  38.236  1.00  0.00     0.148 A 
ATOM     81  C   UNL A   1      41.881  36.415  36.961  1.00  0.00     0.002 A 
ATOM     82  C   UNL A   1      40.316  36.384  38.786  1.00  0.00     0.091 A 
ATOM     83  F   UNL A   1      38.771  34.655  38.982  1.00  0.00    -0.205 F 
ATOM     84  C   UNL A   1      41.438  36.935  38.171  1.00  0.00     0.022 A 
BRANCH  82  85
ATOM     85  S   UNL A   1      39.744  37.116  40.326  1.00  0.00     0.127 S 
ATOM     86  O   UNL A   1      40.028  36.049  41.279  1.00  0.00    -0.237 OA
ATOM     87  O   UNL A   1      40.606  38.293  40.433  1.00  0.00    -0.237 OA
ATOM     88  O   UNL A   1      38.336  37.430  40.114  1.00  0.00    -0.744 OA
ENDBRANCH  82  85
ENDBRANCH  64  78
BRANCH  65  89
ATOM     89  C   UNL A   1      44.406  33.401  29.754  1.00  0.00     0.023 A 
ATOM     90  C   UNL A   1      45.617  33.501  30.468  1.00  0.00     0.012 A 
ATOM     91  C   UNL A   1      44.449  33.544  28.348  1.00  0.00     0.148 A 
ATOM     92  C   UNL A   1      46.831  33.709  29.803  1.00  0.00     0.002 A 
ATOM     93  C   UNL A   1      45.657  33.766  27.694  1.00  0.00     0.091 A 
ATOM     94  F   UNL A   1      43.324  33.369  27.644  1.00  0.00    -0.205 F 
ATOM     95  C   UNL A   1      46.853  33.835  28.417  1.00  0.00     0.022 A 
BRANCH  93  96
ATOM     96  S   UNL A   1      45.760  33.922  25.904  1.00  0.00     0.127 S 
ATOM     97  O   UNL A   1      44.980  35.137  25.661  1.00  0.00    -0.237 OA
ATOM     98  O   UNL A   1      47.197  34.066  25.695  1.00  0.00    -0.237 OA
ATOM     99  O   UNL A   1      45.159  32.710  25.363  1.00  0.00    -0.744 OA
ENDBRANCH  93  96
ENDBRANCH  65  89
BRANCH  77 100
ATOM    100  C   UNL A   1      38.323  32.347  30.906  1.00  0.00     0.023 A 
ATOM    101  C   UNL A   1      37.495  32.846  29.878  1.00  0.00     0.012 A 
ATOM    102  C   UNL A   1      38.728  31.003  30.860  1.00  0.00     0.148 A 
ATOM    103  C   UNL A   1      37.066  32.015  28.839  1.00  0.00     0.002 A 
ATOM    104  C   UNL A   1      38.339  30.194  29.801  1.00  0.00     0.091 A 
ATOM    105  F   UNL A   1      39.518  30.545  31.843  1.00  0.00    -0.205 F 
ATOM    106  C   UNL A   1      37.499  30.692  28.793  1.00  0.00     0.022 A 
BRANCH 104 107
ATOM    107  S   UNL A   1      38.972  28.526  29.619  1.00  0.00     0.127 S 
ATOM    108  O   UNL A   1      38.532  28.177  28.271  1.00  0.00    -0.237 OA
ATOM    109  O   UNL A   1      40.416  28.719  29.761  1.00  0.00    -0.237 OA
ATOM    110  O   UNL A   1      38.371  27.750  30.697  1.00  0.00    -0.744 OA
ENDBRANCH 104 107
ENDBRANCH  77 100
ENDBRANCH  51  52
ENDBRANCH  44  46
ENDBRANCH  43  44
ENDBRANCH  42  43
ENDBRANCH  41  42
ENDBRANCH  40  41
ENDBRANCH  39  40
ENDBRANCH  38  39
ENDBRANCH  37  38
ENDBRANCH   1  37
TORSDOF 28
ENDMDL
