MODEL 1
REMARK VINA RESULT:      -8.9      0.000      0.000
REMARK SMILES CC(C)C[C@H](CNC(=O)N[C@@H](C)C1CCCCC1)C(=O)OCCOCCOCCOCCOC(=O)c1ccc(-c2c3nc(c(-c4cccc(S(=O)(=O)[O-])c4F)c4ccc([nH]4)c(-c4cccc(S(=O)(=O)[O-])c4F)c4nc(c(-c5cccc(S(=O)(=O)[O-])c5F)c5ccc2[nH]5)C=C4)C=C3)cc1
REMARK SMILES IDX 26 1 25 2 24 3 23 4 22 5 21 6 19 7 20 8 5 9 4 10 2 11 1 12
REMARK SMILES IDX 3 13 6 14 7 15 8 16 9 18 10 19 11 21 12 22 13 23 14 24 18 25
REMARK SMILES IDX 15 26 17 27 16 28 27 29 28 30 29 31 30 32 31 33 32 34 33 35
REMARK SMILES IDX 34 36 35 37 36 38 37 39 98 40 38 41 97 42 39 43 40 44 41 45
REMARK SMILES IDX 91 46 42 47 96 48 90 49 92 50 43 51 95 52 89 53 88 54 44 56
REMARK SMILES IDX 76 57 56 58 75 59 57 60 60 61 74 62 93 63 58 64 59 65 73 67
REMARK SMILES IDX 94 68 61 69 45 70 46 71 54 72 47 73 49 74 55 75 48 76 50 77
REMARK SMILES IDX 51 78 52 79 53 80 77 81 78 82 86 83 79 84 81 85 87 86 80 87
REMARK SMILES IDX 82 88 83 89 84 90 85 91 62 92 63 93 71 94 64 95 66 96 72 97
REMARK SMILES IDX 65 98 67 99 68 100 69 101 70 102
REMARK H PARENT 7 17 10 20 92 55 60 66
REMARK Flexibility Score: inf
ROOT
ATOM      1  C   UNL A   1      40.263  20.487  26.289  1.00  0.00     0.188 C 
ENDROOT
BRANCH   1   2
ATOM      2  C   UNL A   1      39.924  21.908  26.762  1.00  0.00     0.188 C 
BRANCH   2   3
ATOM      3  O   UNL A   1      39.051  22.789  26.066  1.00  0.00    -0.376 OA
BRANCH   3   4
ATOM      4  C   UNL A   1      37.666  22.556  25.869  1.00  0.00     0.202 C 
BRANCH   4   5
ATOM      5  C   UNL A   1      36.842  23.331  24.825  1.00  0.00     0.261 C 
BRANCH   5   6
ATOM      6  O   UNL A   1      35.511  22.877  24.546  1.00  0.00    -0.463 OA
BRANCH   6   7
ATOM      7  C   UNL A   1      34.585  23.857  24.494  1.00  0.00     0.310 C 
ATOM      8  O   UNL A   1      34.835  25.038  24.718  1.00  0.00    -0.252 OA
BRANCH   7   9
ATOM      9  C   UNL A   1      33.163  23.369  24.233  1.00  0.00     0.119 C 
BRANCH   9  10
ATOM     10  C   UNL A   1      33.195  22.033  23.456  1.00  0.00     0.020 C 
BRANCH  10  11
ATOM     11  C   UNL A   1      32.302  20.884  23.975  1.00  0.00    -0.017 C 
ATOM     12  C   UNL A   1      32.691  19.497  23.452  1.00  0.00     0.007 C 
ATOM     13  C   UNL A   1      32.322  20.871  25.503  1.00  0.00     0.007 C 
ENDBRANCH  10  11
ENDBRANCH   9  10
BRANCH   9  14
ATOM     14  C   UNL A   1      32.226  24.434  23.603  1.00  0.00     0.133 C 
BRANCH  14  15
ATOM     15  N   UNL A   1      32.414  24.677  22.178  1.00  0.00    -0.337 N 
ATOM     16  C   UNL A   1      32.521  25.738  21.379  1.00  0.00     0.315 C 
ATOM     17  H   UNL A   1      32.478  23.835  21.672  1.00  0.00     0.165 HD
ATOM     18  O   UNL A   1      32.946  25.551  20.236  1.00  0.00    -0.249 OA
ATOM     19  N   UNL A   1      32.193  26.992  21.694  1.00  0.00    -0.335 N 
ATOM     20  H   UNL A   1      32.515  27.634  21.021  1.00  0.00     0.165 HD
BRANCH  19  21
ATOM     21  C   UNL A   1      31.483  27.656  22.780  1.00  0.00     0.083 C 
ATOM     22  C   UNL A   1      32.360  28.819  23.268  1.00  0.00     0.031 C 
BRANCH  21  23
ATOM     23  C   UNL A   1      30.078  28.168  22.334  1.00  0.00     0.011 C 
ATOM     24  C   UNL A   1      28.996  27.901  23.396  1.00  0.00     0.006 C 
ATOM     25  C   UNL A   1      30.143  29.674  21.998  1.00  0.00     0.006 C 
ATOM     26  C   UNL A   1      27.645  28.513  23.044  1.00  0.00     0.000 C 
ATOM     27  C   UNL A   1      28.778  30.274  21.670  1.00  0.00     0.000 C 
ATOM     28  C   UNL A   1      27.766  30.006  22.775  1.00  0.00     0.000 C 
ENDBRANCH  21  23
ENDBRANCH  19  21
ENDBRANCH  14  15
ENDBRANCH   9  14
ENDBRANCH   7   9
ENDBRANCH   6   7
ENDBRANCH   5   6
ENDBRANCH   4   5
ENDBRANCH   3   4
ENDBRANCH   2   3
ENDBRANCH   1   2
BRANCH   1  29
ATOM     29  O   UNL A   1      41.538  20.013  26.655  1.00  0.00    -0.377 OA
BRANCH  29  30
ATOM     30  C   UNL A   1      42.179  19.103  25.769  1.00  0.00     0.188 C 
BRANCH  30  31
ATOM     31  C   UNL A   1      43.467  18.409  26.256  1.00  0.00     0.188 C 
BRANCH  31  32
ATOM     32  O   UNL A   1      44.436  18.219  25.234  1.00  0.00    -0.376 OA
BRANCH  32  33
ATOM     33  C   UNL A   1      45.785  18.577  25.495  1.00  0.00     0.202 C 
BRANCH  33  34
ATOM     34  C   UNL A   1      46.313  19.896  24.909  1.00  0.00     0.261 C 
BRANCH  34  35
ATOM     35  O   UNL A   1      45.969  21.106  25.601  1.00  0.00    -0.460 OA
BRANCH  35  36
ATOM     36  C   UNL A   1      44.952  21.855  25.119  1.00  0.00     0.338 C 
ATOM     37  O   UNL A   1      43.973  21.458  24.526  1.00  0.00    -0.246 OA
BRANCH  36  38
ATOM     38  C   UNL A   1      45.127  23.233  25.638  1.00  0.00     0.060 A 
ATOM     39  C   UNL A   1      45.461  23.409  26.988  1.00  0.00     0.016 A 
ATOM     40  C   UNL A   1      44.967  24.339  24.801  1.00  0.00     0.016 A 
ATOM     41  C   UNL A   1      45.591  24.694  27.516  1.00  0.00     0.010 A 
ATOM     42  C   UNL A   1      45.071  25.626  25.337  1.00  0.00     0.010 A 
ATOM     43  C   UNL A   1      45.342  25.808  26.705  1.00  0.00    -0.014 A 
BRANCH  43  44
ATOM     44  C   UNL A   1      45.142  27.137  27.333  1.00  0.00     0.031 A 
ATOM     45  C   UNL A   1      46.333  28.052  27.449  1.00  0.00     0.074 A 
ATOM     46  C   UNL A   1      43.940  27.533  27.784  1.00  0.00     0.049 A 
ATOM     47  N   UNL A   1      46.421  29.235  27.994  1.00  0.00    -0.248 NA
ATOM     48  C   UNL A   1      47.596  27.558  26.871  1.00  0.00     0.031 C 
ATOM     49  C   UNL A   1      42.708  26.751  27.712  1.00  0.00     0.029 A 
ATOM     50  N   UNL A   1      43.567  28.692  28.420  1.00  0.00    -0.354 N 
ATOM     51  C   UNL A   1      47.752  29.614  27.858  1.00  0.00     0.074 A 
ATOM     52  C   UNL A   1      48.437  28.532  27.187  1.00  0.00     0.031 C 
ATOM     53  C   UNL A   1      41.720  27.440  28.312  1.00  0.00     0.029 A 
ATOM     54  C   UNL A   1      42.257  28.695  28.836  1.00  0.00     0.049 A 
ATOM     55  H   UNL A   1      44.180  29.450  28.563  1.00  0.00     0.167 HD
ATOM     56  C   UNL A   1      48.351  30.763  28.248  1.00  0.00     0.034 A 
ATOM     57  C   UNL A   1      41.581  29.593  29.581  1.00  0.00     0.034 A 
ATOM     58  C   UNL A   1      47.669  31.842  28.908  1.00  0.00     0.049 A 
ATOM     59  C   UNL A   1      42.281  30.847  30.042  1.00  0.00     0.074 A 
ATOM     60  C   UNL A   1      48.177  33.066  29.304  1.00  0.00     0.029 A 
ATOM     61  N   UNL A   1      46.336  31.819  29.289  1.00  0.00    -0.354 N 
ATOM     62  N   UNL A   1      43.511  31.241  29.811  1.00  0.00    -0.248 NA
ATOM     63  C   UNL A   1      41.491  31.795  30.842  1.00  0.00     0.031 C 
ATOM     64  C   UNL A   1      47.162  33.766  29.965  1.00  0.00     0.029 A 
ATOM     65  C   UNL A   1      46.008  32.999  29.935  1.00  0.00     0.049 A 
ATOM     66  H   UNL A   1      45.715  31.074  29.125  1.00  0.00     0.167 HD
ATOM     67  C   UNL A   1      43.628  32.496  30.403  1.00  0.00     0.074 A 
ATOM     68  C   UNL A   1      42.339  32.805  30.984  1.00  0.00     0.031 C 
ATOM     69  C   UNL A   1      44.708  33.315  30.466  1.00  0.00     0.034 A 
BRANCH  56  70
ATOM     70  C   UNL A   1      49.823  30.914  27.968  1.00  0.00     0.023 A 
ATOM     71  C   UNL A   1      50.765  30.225  28.759  1.00  0.00     0.012 A 
ATOM     72  C   UNL A   1      50.270  31.703  26.890  1.00  0.00     0.148 A 
ATOM     73  C   UNL A   1      52.131  30.348  28.503  1.00  0.00     0.002 A 
ATOM     74  C   UNL A   1      51.629  31.781  26.612  1.00  0.00     0.091 A 
ATOM     75  F   UNL A   1      49.360  32.370  26.166  1.00  0.00    -0.205 F 
ATOM     76  C   UNL A   1      52.561  31.116  27.425  1.00  0.00     0.022 A 
BRANCH  74  77
ATOM     77  S   UNL A   1      52.277  32.678  25.198  1.00  0.00     0.127 S 
ATOM     78  O   UNL A   1      51.807  34.037  25.469  1.00  0.00    -0.237 OA
ATOM     79  O   UNL A   1      53.720  32.491  25.352  1.00  0.00    -0.237 OA
ATOM     80  O   UNL A   1      51.702  32.045  24.020  1.00  0.00    -0.744 OA
ENDBRANCH  74  77
ENDBRANCH  56  70
BRANCH  57  81
ATOM     81  C   UNL A   1      40.152  29.352  29.931  1.00  0.00     0.023 A 
ATOM     82  C   UNL A   1      39.828  28.673  31.121  1.00  0.00     0.012 A 
ATOM     83  C   UNL A   1      39.113  29.786  29.085  1.00  0.00     0.148 A 
ATOM     84  C   UNL A   1      38.498  28.401  31.447  1.00  0.00     0.002 A 
ATOM     85  C   UNL A   1      37.789  29.564  29.443  1.00  0.00     0.091 A 
ATOM     86  F   UNL A   1      39.442  30.416  27.948  1.00  0.00    -0.205 F 
ATOM     87  C   UNL A   1      37.479  28.854  30.614  1.00  0.00     0.022 A 
BRANCH  85  88
ATOM     88  S   UNL A   1      36.409  30.219  28.498  1.00  0.00     0.127 S 
ATOM     89  O   UNL A   1      35.270  29.842  29.333  1.00  0.00    -0.237 OA
ATOM     90  O   UNL A   1      36.714  31.650  28.480  1.00  0.00    -0.237 OA
ATOM     91  O   UNL A   1      36.479  29.570  27.197  1.00  0.00    -0.744 OA
ENDBRANCH  85  88
ENDBRANCH  57  81
BRANCH  69  92
ATOM     92  C   UNL A   1      44.539  34.652  31.144  1.00  0.00     0.023 A 
ATOM     93  C   UNL A   1      44.597  34.747  32.549  1.00  0.00     0.012 A 
ATOM     94  C   UNL A   1      44.399  35.828  30.378  1.00  0.00     0.148 A 
ATOM     95  C   UNL A   1      44.480  35.985  33.182  1.00  0.00     0.002 A 
ATOM     96  C   UNL A   1      44.338  37.062  31.013  1.00  0.00     0.091 A 
ATOM     97  F   UNL A   1      44.333  35.717  29.044  1.00  0.00    -0.205 F 
ATOM     98  C   UNL A   1      44.363  37.142  32.415  1.00  0.00     0.022 A 
BRANCH  96  99
ATOM     99  S   UNL A   1      44.288  38.613  30.106  1.00  0.00     0.127 S 
ATOM    100  O   UNL A   1      45.515  38.532  29.313  1.00  0.00    -0.237 OA
ATOM    101  O   UNL A   1      43.053  38.480  29.334  1.00  0.00    -0.237 OA
ATOM    102  O   UNL A   1      44.265  39.667  31.110  1.00  0.00    -0.744 OA
ENDBRANCH  96  99
ENDBRANCH  69  92
ENDBRANCH  43  44
ENDBRANCH  36  38
ENDBRANCH  35  36
ENDBRANCH  34  35
ENDBRANCH  33  34
ENDBRANCH  32  33
ENDBRANCH  31  32
ENDBRANCH  30  31
ENDBRANCH  29  30
ENDBRANCH   1  29
TORSDOF 29
ENDMDL
MODEL 2
REMARK VINA RESULT:      -8.6      1.650      2.166
REMARK SMILES CC(C)C[C@H](CNC(=O)N[C@@H](C)C1CCCCC1)C(=O)OCCOCCOCCOCCOC(=O)c1ccc(-c2c3nc(c(-c4cccc(S(=O)(=O)[O-])c4F)c4ccc([nH]4)c(-c4cccc(S(=O)(=O)[O-])c4F)c4nc(c(-c5cccc(S(=O)(=O)[O-])c5F)c5ccc2[nH]5)C=C4)C=C3)cc1
REMARK SMILES IDX 26 1 25 2 24 3 23 4 22 5 21 6 19 7 20 8 5 9 4 10 2 11 1 12
REMARK SMILES IDX 3 13 6 14 7 15 8 16 9 18 10 19 11 21 12 22 13 23 14 24 18 25
REMARK SMILES IDX 15 26 17 27 16 28 27 29 28 30 29 31 30 32 31 33 32 34 33 35
REMARK SMILES IDX 34 36 35 37 36 38 37 39 98 40 38 41 97 42 39 43 40 44 41 45
REMARK SMILES IDX 91 46 42 47 96 48 90 49 92 50 43 51 95 52 89 53 88 54 44 56
REMARK SMILES IDX 76 57 56 58 75 59 57 60 60 61 74 62 93 63 58 64 59 65 73 67
REMARK SMILES IDX 94 68 61 69 45 70 46 71 54 72 47 73 49 74 55 75 48 76 50 77
REMARK SMILES IDX 51 78 52 79 53 80 77 81 78 82 86 83 79 84 81 85 87 86 80 87
REMARK SMILES IDX 82 88 83 89 84 90 85 91 62 92 63 93 71 94 64 95 66 96 72 97
REMARK SMILES IDX 65 98 67 99 68 100 69 101 70 102
REMARK H PARENT 7 17 10 20 92 55 60 66
REMARK Flexibility Score: inf
ROOT
ATOM      1  C   UNL A   1      40.206  20.554  26.315  1.00  0.00     0.188 C 
ENDROOT
BRANCH   1   2
ATOM      2  C   UNL A   1      39.917  21.985  26.788  1.00  0.00     0.188 C 
BRANCH   2   3
ATOM      3  O   UNL A   1      38.927  22.828  26.212  1.00  0.00    -0.376 OA
BRANCH   3   4
ATOM      4  C   UNL A   1      37.660  22.381  25.757  1.00  0.00     0.202 C 
BRANCH   4   5
ATOM      5  C   UNL A   1      36.702  23.290  24.967  1.00  0.00     0.261 C 
BRANCH   5   6
ATOM      6  O   UNL A   1      35.350  22.848  24.785  1.00  0.00    -0.463 OA
BRANCH   6   7
ATOM      7  C   UNL A   1      34.490  23.817  24.408  1.00  0.00     0.310 C 
ATOM      8  O   UNL A   1      34.791  25.006  24.356  1.00  0.00    -0.252 OA
BRANCH   7   9
ATOM      9  C   UNL A   1      33.069  23.332  24.145  1.00  0.00     0.119 C 
BRANCH   9  10
ATOM     10  C   UNL A   1      33.099  21.986  23.385  1.00  0.00     0.020 C 
BRANCH  10  11
ATOM     11  C   UNL A   1      32.580  20.735  24.129  1.00  0.00    -0.017 C 
ATOM     12  C   UNL A   1      33.672  19.729  24.509  1.00  0.00     0.007 C 
ATOM     13  C   UNL A   1      31.827  21.163  25.388  1.00  0.00     0.007 C 
ENDBRANCH  10  11
ENDBRANCH   9  10
BRANCH   9  14
ATOM     14  C   UNL A   1      32.140  24.393  23.495  1.00  0.00     0.133 C 
BRANCH  14  15
ATOM     15  N   UNL A   1      32.418  24.706  22.099  1.00  0.00    -0.337 N 
ATOM     16  C   UNL A   1      32.658  25.800  21.378  1.00  0.00     0.315 C 
ATOM     17  H   UNL A   1      32.432  23.894  21.542  1.00  0.00     0.165 HD
ATOM     18  O   UNL A   1      33.120  25.646  20.244  1.00  0.00    -0.249 OA
ATOM     19  N   UNL A   1      32.427  27.056  21.761  1.00  0.00    -0.335 N 
ATOM     20  H   UNL A   1      32.836  27.707  21.146  1.00  0.00     0.165 HD
BRANCH  19  21
ATOM     21  C   UNL A   1      31.725  27.714  22.857  1.00  0.00     0.083 C 
ATOM     22  C   UNL A   1      30.256  27.265  22.805  1.00  0.00     0.031 C 
BRANCH  21  23
ATOM     23  C   UNL A   1      32.359  27.380  24.243  1.00  0.00     0.011 C 
ATOM     24  C   UNL A   1      33.518  28.331  24.597  1.00  0.00     0.006 C 
ATOM     25  C   UNL A   1      31.279  27.415  25.345  1.00  0.00     0.006 C 
ATOM     26  C   UNL A   1      34.064  28.113  26.004  1.00  0.00     0.000 C 
ATOM     27  C   UNL A   1      31.847  27.217  26.748  1.00  0.00     0.000 C 
ATOM     28  C   UNL A   1      32.962  28.210  27.047  1.00  0.00     0.000 C 
ENDBRANCH  21  23
ENDBRANCH  19  21
ENDBRANCH  14  15
ENDBRANCH   9  14
ENDBRANCH   7   9
ENDBRANCH   6   7
ENDBRANCH   5   6
ENDBRANCH   4   5
ENDBRANCH   3   4
ENDBRANCH   2   3
ENDBRANCH   1   2
BRANCH   1  29
ATOM     29  O   UNL A   1      41.464  20.036  26.678  1.00  0.00    -0.377 OA
BRANCH  29  30
ATOM     30  C   UNL A   1      42.140  19.226  25.723  1.00  0.00     0.188 C 
BRANCH  30  31
ATOM     31  C   UNL A   1      43.390  18.451  26.190  1.00  0.00     0.188 C 
BRANCH  31  32
ATOM     32  O   UNL A   1      44.369  18.278  25.173  1.00  0.00    -0.376 OA
BRANCH  32  33
ATOM     33  C   UNL A   1      45.732  18.514  25.490  1.00  0.00     0.202 C 
BRANCH  33  34
ATOM     34  C   UNL A   1      46.409  19.762  24.900  1.00  0.00     0.261 C 
BRANCH  34  35
ATOM     35  O   UNL A   1      46.143  21.018  25.542  1.00  0.00    -0.460 OA
BRANCH  35  36
ATOM     36  C   UNL A   1      45.221  21.839  24.990  1.00  0.00     0.338 C 
ATOM     37  O   UNL A   1      44.294  21.519  24.279  1.00  0.00    -0.246 OA
BRANCH  36  38
ATOM     38  C   UNL A   1      45.405  23.184  25.589  1.00  0.00     0.060 A 
ATOM     39  C   UNL A   1      45.692  23.280  26.958  1.00  0.00     0.016 A 
ATOM     40  C   UNL A   1      45.300  24.336  24.807  1.00  0.00     0.016 A 
ATOM     41  C   UNL A   1      45.828  24.532  27.558  1.00  0.00     0.010 A 
ATOM     42  C   UNL A   1      45.409  25.590  25.416  1.00  0.00     0.010 A 
ATOM     43  C   UNL A   1      45.633  25.693  26.800  1.00  0.00    -0.014 A 
BRANCH  43  44
ATOM     44  C   UNL A   1      45.437  26.991  27.491  1.00  0.00     0.031 A 
ATOM     45  C   UNL A   1      46.633  27.890  27.661  1.00  0.00     0.074 A 
ATOM     46  C   UNL A   1      44.233  27.373  27.951  1.00  0.00     0.049 A 
ATOM     47  N   UNL A   1      46.725  29.044  28.265  1.00  0.00    -0.248 NA
ATOM     48  C   UNL A   1      47.897  27.416  27.071  1.00  0.00     0.031 C 
ATOM     49  C   UNL A   1      42.997  26.605  27.831  1.00  0.00     0.029 A 
ATOM     50  N   UNL A   1      43.864  28.503  28.640  1.00  0.00    -0.354 N 
ATOM     51  C   UNL A   1      48.059  29.420  28.159  1.00  0.00     0.074 A 
ATOM     52  C   UNL A   1      48.743  28.367  27.441  1.00  0.00     0.031 C 
ATOM     53  C   UNL A   1      42.009  27.271  28.456  1.00  0.00     0.029 A 
ATOM     54  C   UNL A   1      42.550  28.495  29.045  1.00  0.00     0.049 A 
ATOM     55  H   UNL A   1      44.481  29.248  28.826  1.00  0.00     0.167 HD
ATOM     56  C   UNL A   1      48.664  30.544  28.609  1.00  0.00     0.034 A 
ATOM     57  C   UNL A   1      41.874  29.361  29.828  1.00  0.00     0.034 A 
ATOM     58  C   UNL A   1      47.983  31.594  29.315  1.00  0.00     0.049 A 
ATOM     59  C   UNL A   1      42.579  30.585  30.356  1.00  0.00     0.074 A 
ATOM     60  C   UNL A   1      48.497  32.793  29.776  1.00  0.00     0.029 A 
ATOM     61  N   UNL A   1      46.647  31.562  29.685  1.00  0.00    -0.354 N 
ATOM     62  N   UNL A   1      43.814  30.981  30.155  1.00  0.00    -0.248 NA
ATOM     63  C   UNL A   1      41.789  31.498  31.194  1.00  0.00     0.031 C 
ATOM     64  C   UNL A   1      47.481  33.467  30.462  1.00  0.00     0.029 A 
ATOM     65  C   UNL A   1      46.322  32.712  30.385  1.00  0.00     0.049 A 
ATOM     66  H   UNL A   1      46.022  30.831  29.479  1.00  0.00     0.167 HD
ATOM     67  C   UNL A   1      43.935  32.204  30.808  1.00  0.00     0.074 A 
ATOM     68  C   UNL A   1      42.643  32.494  31.393  1.00  0.00     0.031 C 
ATOM     69  C   UNL A   1      45.020  33.011  30.920  1.00  0.00     0.034 A 
BRANCH  56  70
ATOM     70  C   UNL A   1      50.139  30.697  28.349  1.00  0.00     0.023 A 
ATOM     71  C   UNL A   1      51.075  30.158  29.255  1.00  0.00     0.012 A 
ATOM     72  C   UNL A   1      50.597  31.337  27.180  1.00  0.00     0.148 A 
ATOM     73  C   UNL A   1      52.443  30.284  29.020  1.00  0.00     0.002 A 
ATOM     74  C   UNL A   1      51.961  31.415  26.929  1.00  0.00     0.091 A 
ATOM     75  F   UNL A   1      49.692  31.864  26.344  1.00  0.00    -0.205 F 
ATOM     76  C   UNL A   1      52.886  30.902  27.854  1.00  0.00     0.022 A 
BRANCH  74  77
ATOM     77  S   UNL A   1      52.628  32.118  25.417  1.00  0.00     0.127 S 
ATOM     78  O   UNL A   1      53.008  33.460  25.860  1.00  0.00    -0.237 OA
ATOM     79  O   UNL A   1      53.754  31.227  25.137  1.00  0.00    -0.237 OA
ATOM     80  O   UNL A   1      51.552  32.067  24.439  1.00  0.00    -0.744 OA
ENDBRANCH  74  77
ENDBRANCH  56  70
BRANCH  57  81
ATOM     81  C   UNL A   1      40.440  29.113  30.154  1.00  0.00     0.023 A 
ATOM     82  C   UNL A   1      40.102  28.356  31.292  1.00  0.00     0.012 A 
ATOM     83  C   UNL A   1      39.411  29.619  29.337  1.00  0.00     0.148 A 
ATOM     84  C   UNL A   1      38.768  28.078  31.592  1.00  0.00     0.002 A 
ATOM     85  C   UNL A   1      38.083  29.388  29.673  1.00  0.00     0.091 A 
ATOM     86  F   UNL A   1      39.754  30.323  28.248  1.00  0.00    -0.205 F 
ATOM     87  C   UNL A   1      37.758  28.602  30.789  1.00  0.00     0.022 A 
BRANCH  85  88
ATOM     88  S   UNL A   1      36.716  30.125  28.770  1.00  0.00     0.127 S 
ATOM     89  O   UNL A   1      35.563  29.493  29.407  1.00  0.00    -0.237 OA
ATOM     90  O   UNL A   1      36.888  31.546  29.077  1.00  0.00    -0.237 OA
ATOM     91  O   UNL A   1      36.933  29.779  27.373  1.00  0.00    -0.744 OA
ENDBRANCH  85  88
ENDBRANCH  57  81
BRANCH  69  92
ATOM     92  C   UNL A   1      44.855  34.314  31.662  1.00  0.00     0.023 A 
ATOM     93  C   UNL A   1      44.425  35.469  30.979  1.00  0.00     0.012 A 
ATOM     94  C   UNL A   1      45.053  34.370  33.057  1.00  0.00     0.148 A 
ATOM     95  C   UNL A   1      44.234  36.669  31.666  1.00  0.00     0.002 A 
ATOM     96  C   UNL A   1      44.807  35.554  33.742  1.00  0.00     0.091 A 
ATOM     97  F   UNL A   1      45.474  33.265  33.688  1.00  0.00    -0.205 F 
ATOM     98  C   UNL A   1      44.412  36.708  33.047  1.00  0.00     0.022 A 
BRANCH  96  99
ATOM     99  S   UNL A   1      44.912  35.673  35.533  1.00  0.00     0.127 S 
ATOM    100  O   UNL A   1      46.336  35.428  35.763  1.00  0.00    -0.237 OA
ATOM    101  O   UNL A   1      44.483  37.050  35.776  1.00  0.00    -0.237 OA
ATOM    102  O   UNL A   1      44.012  34.655  36.058  1.00  0.00    -0.744 OA
ENDBRANCH  96  99
ENDBRANCH  69  92
ENDBRANCH  43  44
ENDBRANCH  36  38
ENDBRANCH  35  36
ENDBRANCH  34  35
ENDBRANCH  33  34
ENDBRANCH  32  33
ENDBRANCH  31  32
ENDBRANCH  30  31
ENDBRANCH  29  30
ENDBRANCH   1  29
TORSDOF 29
ENDMDL
MODEL 3
REMARK VINA RESULT:      -8.6      5.350      8.304
REMARK SMILES CC(C)C[C@H](CNC(=O)N[C@@H](C)C1CCCCC1)C(=O)OCCOCCOCCOCCOC(=O)c1ccc(-c2c3nc(c(-c4cccc(S(=O)(=O)[O-])c4F)c4ccc([nH]4)c(-c4cccc(S(=O)(=O)[O-])c4F)c4nc(c(-c5cccc(S(=O)(=O)[O-])c5F)c5ccc2[nH]5)C=C4)C=C3)cc1
REMARK SMILES IDX 26 1 25 2 24 3 23 4 22 5 21 6 19 7 20 8 5 9 4 10 2 11 1 12
REMARK SMILES IDX 3 13 6 14 7 15 8 16 9 18 10 19 11 21 12 22 13 23 14 24 18 25
REMARK SMILES IDX 15 26 17 27 16 28 27 29 28 30 29 31 30 32 31 33 32 34 33 35
REMARK SMILES IDX 34 36 35 37 36 38 37 39 98 40 38 41 97 42 39 43 40 44 41 45
REMARK SMILES IDX 91 46 42 47 96 48 90 49 92 50 43 51 95 52 89 53 88 54 44 56
REMARK SMILES IDX 76 57 56 58 75 59 57 60 60 61 74 62 93 63 58 64 59 65 73 67
REMARK SMILES IDX 94 68 61 69 45 70 46 71 54 72 47 73 49 74 55 75 48 76 50 77
REMARK SMILES IDX 51 78 52 79 53 80 77 81 78 82 86 83 79 84 81 85 87 86 80 87
REMARK SMILES IDX 82 88 83 89 84 90 85 91 62 92 63 93 71 94 64 95 66 96 72 97
REMARK SMILES IDX 65 98 67 99 68 100 69 101 70 102
REMARK H PARENT 7 17 10 20 92 55 60 66
REMARK Flexibility Score: inf
ROOT
ATOM      1  C   UNL A   1      39.068  21.885  26.086  1.00  0.00     0.188 C 
ENDROOT
BRANCH   1   2
ATOM      2  C   UNL A   1      38.357  23.213  26.381  1.00  0.00     0.188 C 
BRANCH   2   3
ATOM      3  O   UNL A   1      37.449  23.843  25.486  1.00  0.00    -0.376 OA
BRANCH   3   4
ATOM      4  C   UNL A   1      37.154  23.374  24.181  1.00  0.00     0.202 C 
BRANCH   4   5
ATOM      5  C   UNL A   1      35.727  22.990  23.748  1.00  0.00     0.261 C 
BRANCH   5   6
ATOM      6  O   UNL A   1      35.058  23.840  22.807  1.00  0.00    -0.463 OA
BRANCH   6   7
ATOM      7  C   UNL A   1      34.088  24.612  23.339  1.00  0.00     0.310 C 
ATOM      8  O   UNL A   1      34.293  25.443  24.219  1.00  0.00    -0.252 OA
BRANCH   7   9
ATOM      9  C   UNL A   1      32.683  24.301  22.834  1.00  0.00     0.119 C 
BRANCH   9  10
ATOM     10  C   UNL A   1      32.650  22.896  22.190  1.00  0.00     0.020 C 
BRANCH  10  11
ATOM     11  C   UNL A   1      31.877  21.786  22.938  1.00  0.00    -0.017 C 
ATOM     12  C   UNL A   1      32.128  20.372  22.403  1.00  0.00     0.007 C 
ATOM     13  C   UNL A   1      32.228  21.832  24.425  1.00  0.00     0.007 C 
ENDBRANCH  10  11
ENDBRANCH   9  10
BRANCH   9  14
ATOM     14  C   UNL A   1      32.064  25.410  21.941  1.00  0.00     0.133 C 
BRANCH  14  15
ATOM     15  N   UNL A   1      32.929  26.547  21.655  1.00  0.00    -0.337 N 
ATOM     16  C   UNL A   1      33.244  27.700  22.243  1.00  0.00     0.315 C 
ATOM     17  H   UNL A   1      33.405  26.434  20.801  1.00  0.00     0.165 HD
ATOM     18  O   UNL A   1      34.235  28.303  21.823  1.00  0.00    -0.249 OA
ATOM     19  N   UNL A   1      32.573  28.280  23.239  1.00  0.00    -0.335 N 
ATOM     20  H   UNL A   1      33.076  29.030  23.631  1.00  0.00     0.165 HD
BRANCH  19  21
ATOM     21  C   UNL A   1      31.286  28.089  23.898  1.00  0.00     0.083 C 
ATOM     22  C   UNL A   1      31.441  28.534  25.360  1.00  0.00     0.031 C 
BRANCH  21  23
ATOM     23  C   UNL A   1      30.143  28.882  23.192  1.00  0.00     0.011 C 
ATOM     24  C   UNL A   1      28.782  28.171  23.308  1.00  0.00     0.006 C 
ATOM     25  C   UNL A   1      30.053  30.312  23.769  1.00  0.00     0.006 C 
ATOM     26  C   UNL A   1      27.626  28.991  22.747  1.00  0.00     0.000 C 
ATOM     27  C   UNL A   1      28.877  31.110  23.212  1.00  0.00     0.000 C 
ATOM     28  C   UNL A   1      27.560  30.367  23.390  1.00  0.00     0.000 C 
ENDBRANCH  21  23
ENDBRANCH  19  21
ENDBRANCH  14  15
ENDBRANCH   9  14
ENDBRANCH   7   9
ENDBRANCH   6   7
ENDBRANCH   5   6
ENDBRANCH   4   5
ENDBRANCH   3   4
ENDBRANCH   2   3
ENDBRANCH   1   2
BRANCH   1  29
ATOM     29  O   UNL A   1      39.954  21.435  27.083  1.00  0.00    -0.377 OA
BRANCH  29  30
ATOM     30  C   UNL A   1      40.910  20.447  26.715  1.00  0.00     0.188 C 
BRANCH  30  31
ATOM     31  C   UNL A   1      42.377  20.891  26.546  1.00  0.00     0.188 C 
BRANCH  31  32
ATOM     32  O   UNL A   1      42.594  21.731  25.420  1.00  0.00    -0.376 OA
BRANCH  32  33
ATOM     33  C   UNL A   1      43.880  22.300  25.229  1.00  0.00     0.202 C 
BRANCH  33  34
ATOM     34  C   UNL A   1      43.967  23.728  24.669  1.00  0.00     0.261 C 
BRANCH  34  35
ATOM     35  O   UNL A   1      44.023  24.803  25.620  1.00  0.00    -0.460 OA
BRANCH  35  36
ATOM     36  C   UNL A   1      42.927  25.578  25.778  1.00  0.00     0.338 C 
ATOM     37  O   UNL A   1      41.985  25.671  25.021  1.00  0.00    -0.246 OA
BRANCH  36  38
ATOM     38  C   UNL A   1      42.966  26.132  27.153  1.00  0.00     0.060 A 
ATOM     39  C   UNL A   1      41.954  25.773  28.055  1.00  0.00     0.016 A 
ATOM     40  C   UNL A   1      43.992  26.992  27.550  1.00  0.00     0.016 A 
ATOM     41  C   UNL A   1      41.941  26.311  29.343  1.00  0.00     0.010 A 
ATOM     42  C   UNL A   1      43.962  27.552  28.831  1.00  0.00     0.010 A 
ATOM     43  C   UNL A   1      42.913  27.246  29.718  1.00  0.00    -0.014 A 
BRANCH  43  44
ATOM     44  C   UNL A   1      42.708  28.064  30.937  1.00  0.00     0.031 A 
ATOM     45  C   UNL A   1      41.724  29.203  30.868  1.00  0.00     0.074 A 
ATOM     46  C   UNL A   1      43.366  27.809  32.081  1.00  0.00     0.049 A 
ATOM     47  N   UNL A   1      41.407  30.082  31.780  1.00  0.00    -0.248 NA
ATOM     48  C   UNL A   1      41.004  29.370  29.594  1.00  0.00     0.031 C 
ATOM     49  C   UNL A   1      44.327  26.726  32.281  1.00  0.00     0.029 A 
ATOM     50  N   UNL A   1      43.341  28.466  33.286  1.00  0.00    -0.354 N 
ATOM     51  C   UNL A   1      40.479  30.927  31.182  1.00  0.00     0.074 A 
ATOM     52  C   UNL A   1      40.290  30.461  29.826  1.00  0.00     0.031 C 
ATOM     53  C   UNL A   1      44.825  26.813  33.528  1.00  0.00     0.029 A 
ATOM     54  C   UNL A   1      44.243  27.974  34.200  1.00  0.00     0.049 A 
ATOM     55  H   UNL A   1      42.735  29.219  33.478  1.00  0.00     0.167 HD
ATOM     56  C   UNL A   1      39.833  31.991  31.713  1.00  0.00     0.034 A 
ATOM     57  C   UNL A   1      44.580  28.429  35.424  1.00  0.00     0.034 A 
ATOM     58  C   UNL A   1      40.015  32.449  33.063  1.00  0.00     0.049 A 
ATOM     59  C   UNL A   1      43.878  29.644  35.980  1.00  0.00     0.074 A 
ATOM     60  C   UNL A   1      39.376  33.491  33.710  1.00  0.00     0.029 A 
ATOM     61  N   UNL A   1      40.917  31.910  33.967  1.00  0.00    -0.354 N 
ATOM     62  N   UNL A   1      42.924  30.366  35.443  1.00  0.00    -0.248 NA
ATOM     63  C   UNL A   1      44.279  30.087  37.323  1.00  0.00     0.031 C 
ATOM     64  C   UNL A   1      39.922  33.609  34.992  1.00  0.00     0.029 A 
ATOM     65  C   UNL A   1      40.867  32.609  35.161  1.00  0.00     0.049 A 
ATOM     66  H   UNL A   1      41.507  31.143  33.786  1.00  0.00     0.167 HD
ATOM     67  C   UNL A   1      42.585  31.323  36.396  1.00  0.00     0.074 A 
ATOM     68  C   UNL A   1      43.422  31.074  37.551  1.00  0.00     0.031 C 
ATOM     69  C   UNL A   1      41.670  32.321  36.320  1.00  0.00     0.034 A 
BRANCH  56  70
ATOM     70  C   UNL A   1      38.865  32.734  30.830  1.00  0.00     0.023 A 
ATOM     71  C   UNL A   1      39.308  33.830  30.064  1.00  0.00     0.012 A 
ATOM     72  C   UNL A   1      37.524  32.314  30.727  1.00  0.00     0.148 A 
ATOM     73  C   UNL A   1      38.425  34.520  29.234  1.00  0.00     0.002 A 
ATOM     74  C   UNL A   1      36.662  32.976  29.862  1.00  0.00     0.091 A 
ATOM     75  F   UNL A   1      37.117  31.285  31.483  1.00  0.00    -0.205 F 
ATOM     76  C   UNL A   1      37.106  34.086  29.125  1.00  0.00     0.022 A 
BRANCH  74  77
ATOM     77  S   UNL A   1      34.968  32.445  29.589  1.00  0.00     0.127 S 
ATOM     78  O   UNL A   1      34.410  32.539  30.938  1.00  0.00    -0.237 OA
ATOM     79  O   UNL A   1      34.477  33.457  28.654  1.00  0.00    -0.237 OA
ATOM     80  O   UNL A   1      35.051  31.098  29.043  1.00  0.00    -0.744 OA
ENDBRANCH  74  77
ENDBRANCH  56  70
BRANCH  57  81
ATOM     81  C   UNL A   1      45.626  27.728  36.222  1.00  0.00     0.023 A 
ATOM     82  C   UNL A   1      46.974  28.117  36.104  1.00  0.00     0.012 A 
ATOM     83  C   UNL A   1      45.291  26.673  37.093  1.00  0.00     0.148 A 
ATOM     84  C   UNL A   1      47.973  27.447  36.811  1.00  0.00     0.002 A 
ATOM     85  C   UNL A   1      46.283  26.048  37.838  1.00  0.00     0.091 A 
ATOM     86  F   UNL A   1      44.004  26.307  37.178  1.00  0.00    -0.205 F 
ATOM     87  C   UNL A   1      47.627  26.420  37.685  1.00  0.00     0.022 A 
BRANCH  85  88
ATOM     88  S   UNL A   1      45.918  24.802  39.078  1.00  0.00     0.127 S 
ATOM     89  O   UNL A   1      45.108  25.558  40.031  1.00  0.00    -0.237 OA
ATOM     90  O   UNL A   1      45.182  23.808  38.295  1.00  0.00    -0.237 OA
ATOM     91  O   UNL A   1      47.209  24.346  39.572  1.00  0.00    -0.744 OA
ENDBRANCH  85  88
ENDBRANCH  57  81
BRANCH  69  92
ATOM     92  C   UNL A   1      41.481  33.198  37.533  1.00  0.00     0.023 A 
ATOM     93  C   UNL A   1      40.569  32.827  38.541  1.00  0.00     0.012 A 
ATOM     94  C   UNL A   1      42.269  34.354  37.707  1.00  0.00     0.148 A 
ATOM     95  C   UNL A   1      40.417  33.613  39.684  1.00  0.00     0.002 A 
ATOM     96  C   UNL A   1      42.151  35.101  38.873  1.00  0.00     0.091 A 
ATOM     97  F   UNL A   1      43.123  34.698  36.732  1.00  0.00    -0.205 F 
ATOM     98  C   UNL A   1      41.215  34.741  39.855  1.00  0.00     0.022 A 
BRANCH  96  99
ATOM     99  S   UNL A   1      43.208  36.511  39.227  1.00  0.00     0.127 S 
ATOM    100  O   UNL A   1      44.282  36.330  38.251  1.00  0.00    -0.237 OA
ATOM    101  O   UNL A   1      42.319  37.640  38.953  1.00  0.00    -0.237 OA
ATOM    102  O   UNL A   1      43.605  36.377  40.622  1.00  0.00    -0.744 OA
ENDBRANCH  96  99
ENDBRANCH  69  92
ENDBRANCH  43  44
ENDBRANCH  36  38
ENDBRANCH  35  36
ENDBRANCH  34  35
ENDBRANCH  33  34
ENDBRANCH  32  33
ENDBRANCH  31  32
ENDBRANCH  30  31
ENDBRANCH  29  30
ENDBRANCH   1  29
TORSDOF 29
ENDMDL
