MODEL 1
REMARK VINA RESULT:      -7.5      0.000      0.000
REMARK SMILES Cc1ccc(C(=O)Nc2ccc(C(=O)OCCOCCOCCOCCOC(=O)c3ccc(-c4c5nc(c(-c6cccc(S(=O)(=O)[O-])c6F)c6ccc([nH]6)c(-c6cccc(S(=O)(=O)[O-])c6F)c6nc(c(-c7cccc(S(=O)(=O)[O-])c7F)c7ccc4[nH]7)C=C6)C=C5)cc3)c(Cl)c2)cc1C
REMARK SMILES IDX 22 1 21 2 20 3 19 4 18 5 17 6 16 7 15 8 13 9 14 10 12 11
REMARK SMILES IDX 9 12 10 13 95 14 11 15 93 16 94 17 8 18 6 19 7 20 5 22 1 23
REMARK SMILES IDX 2 24 3 25 97 26 4 27 96 28 98 29 23 30 24 31 25 32 26 33
REMARK SMILES IDX 27 34 28 35 29 36 30 37 31 38 92 39 32 40 91 41 33 42 34 43
REMARK SMILES IDX 35 44 85 45 36 46 90 47 84 48 86 49 37 50 89 51 83 52 82 53
REMARK SMILES IDX 38 55 70 56 50 57 69 58 51 59 54 60 68 61 87 62 52 63 53 64
REMARK SMILES IDX 67 66 88 67 55 68 39 69 40 70 48 71 41 72 43 73 49 74 42 75
REMARK SMILES IDX 44 76 45 77 46 78 47 79 71 80 72 81 80 82 73 83 75 84 81 85
REMARK SMILES IDX 74 86 76 87 77 88 78 89 79 90 56 91 57 92 65 93 58 94 60 95
REMARK SMILES IDX 66 96 59 97 61 98 62 99 63 100 64 101
REMARK H PARENT 8 21 86 54 54 65
REMARK Flexibility Score: inf
ROOT
ATOM      1  C   UNL A   1      44.114  23.284  31.062  1.00  0.00     0.188 C 
ENDROOT
BRANCH   1   2
ATOM      2  O   UNL A   1      44.180  24.385  31.962  1.00  0.00    -0.377 OA
BRANCH   2   3
ATOM      3  C   UNL A   1      45.038  24.346  33.092  1.00  0.00     0.188 C 
BRANCH   3   4
ATOM      4  C   UNL A   1      46.121  25.427  33.307  1.00  0.00     0.188 C 
BRANCH   4   5
ATOM      5  O   UNL A   1      45.753  26.464  34.195  1.00  0.00    -0.376 OA
BRANCH   5   6
ATOM      6  C   UNL A   1      44.467  26.450  34.787  1.00  0.00     0.202 C 
BRANCH   6   7
ATOM      7  C   UNL A   1      43.410  27.457  34.315  1.00  0.00     0.261 C 
BRANCH   7   8
ATOM      8  O   UNL A   1      42.694  28.125  35.358  1.00  0.00    -0.460 OA
BRANCH   8   9
ATOM      9  C   UNL A   1      42.982  29.421  35.595  1.00  0.00     0.339 C 
ATOM     10  O   UNL A   1      44.064  29.881  35.915  1.00  0.00    -0.246 OA
BRANCH   9  11
ATOM     11  C   UNL A   1      41.832  30.240  35.145  1.00  0.00     0.078 A 
ATOM     12  C   UNL A   1      39.589  31.833  34.575  1.00  0.00     0.043 A 
ATOM     13  C   UNL A   1      39.460  30.727  35.416  1.00  0.00     0.027 A 
ATOM     14  C   UNL A   1      40.820  32.097  33.966  1.00  0.00     0.047 A 
ATOM     15  C   UNL A   1      40.577  29.931  35.697  1.00  0.00     0.019 A 
ATOM     16  C   UNL A   1      41.948  31.322  34.266  1.00  0.00     0.057 A 
ATOM     17  Cl  UNL A   1      43.431  31.765  33.506  1.00  0.00    -0.083 Cl
BRANCH  12  18
ATOM     18  N   UNL A   1      38.527  32.701  34.284  1.00  0.00    -0.322 N 
ATOM     19  C   UNL A   1      38.024  33.803  34.942  1.00  0.00     0.255 C 
ATOM     20  O   UNL A   1      36.872  34.157  34.682  1.00  0.00    -0.269 OA
ATOM     21  H   UNL A   1      38.050  32.482  33.451  1.00  0.00     0.170 HD
BRANCH  19  22
ATOM     22  C   UNL A   1      38.851  34.659  35.850  1.00  0.00     0.040 A 
ATOM     23  C   UNL A   1      41.229  37.008  38.608  1.00  0.00     0.044 C 
ATOM     24  C   UNL A   1      40.350  36.206  37.690  1.00  0.00    -0.048 A 
ATOM     25  C   UNL A   1      40.409  36.460  36.313  1.00  0.00     0.004 A 
ATOM     26  C   UNL A   1      39.443  35.243  38.164  1.00  0.00    -0.047 A 
ATOM     27  C   UNL A   1      39.632  35.729  35.413  1.00  0.00     0.014 A 
ATOM     28  C   UNL A   1      38.733  34.456  37.235  1.00  0.00     0.017 A 
ATOM     29  C   UNL A   1      39.128  35.062  39.625  1.00  0.00     0.044 C 
ENDBRANCH  19  22
ENDBRANCH  12  18
ENDBRANCH   9  11
ENDBRANCH   8   9
ENDBRANCH   7   8
ENDBRANCH   6   7
ENDBRANCH   5   6
ENDBRANCH   4   5
ENDBRANCH   3   4
ENDBRANCH   2   3
ENDBRANCH   1   2
BRANCH   1  30
ATOM     30  C   UNL A   1      44.066  23.516  29.535  1.00  0.00     0.188 C 
BRANCH  30  31
ATOM     31  O   UNL A   1      42.944  22.934  28.890  1.00  0.00    -0.376 OA
BRANCH  31  32
ATOM     32  C   UNL A   1      42.963  22.909  27.474  1.00  0.00     0.202 C 
BRANCH  32  33
ATOM     33  C   UNL A   1      42.152  21.797  26.792  1.00  0.00     0.261 C 
BRANCH  33  34
ATOM     34  O   UNL A   1      41.160  22.226  25.847  1.00  0.00    -0.460 OA
BRANCH  34  35
ATOM     35  C   UNL A   1      39.941  22.555  26.336  1.00  0.00     0.338 C 
ATOM     36  O   UNL A   1      38.996  21.814  26.506  1.00  0.00    -0.246 OA
BRANCH  35  37
ATOM     37  C   UNL A   1      40.019  23.953  26.816  1.00  0.00     0.060 A 
ATOM     38  C   UNL A   1      40.422  24.956  25.926  1.00  0.00     0.016 A 
ATOM     39  C   UNL A   1      39.684  24.268  28.135  1.00  0.00     0.016 A 
ATOM     40  C   UNL A   1      40.531  26.276  26.367  1.00  0.00     0.010 A 
ATOM     41  C   UNL A   1      39.810  25.587  28.579  1.00  0.00     0.010 A 
ATOM     42  C   UNL A   1      40.268  26.590  27.708  1.00  0.00    -0.014 A 
BRANCH  42  43
ATOM     43  C   UNL A   1      40.646  27.924  28.236  1.00  0.00     0.031 A 
ATOM     44  C   UNL A   1      42.107  28.274  28.323  1.00  0.00     0.074 A 
ATOM     45  C   UNL A   1      39.714  28.813  28.622  1.00  0.00     0.049 A 
ATOM     46  N   UNL A   1      42.673  29.370  28.753  1.00  0.00    -0.248 NA
ATOM     47  C   UNL A   1      43.056  27.245  27.866  1.00  0.00     0.031 C 
ATOM     48  C   UNL A   1      38.269  28.596  28.586  1.00  0.00     0.029 A 
ATOM     49  N   UNL A   1      39.852  30.076  29.143  1.00  0.00    -0.354 N 
ATOM     50  C   UNL A   1      44.042  29.155  28.646  1.00  0.00     0.074 A 
ATOM     51  C   UNL A   1      44.222  27.818  28.125  1.00  0.00     0.031 C 
ATOM     52  C   UNL A   1      37.653  29.680  29.088  1.00  0.00     0.029 A 
ATOM     53  C   UNL A   1      38.659  30.656  29.504  1.00  0.00     0.049 A 
ATOM     54  H   UNL A   1      40.723  30.523  29.248  1.00  0.00     0.167 HD
ATOM     55  C   UNL A   1      45.059  29.998  28.942  1.00  0.00     0.034 A 
ATOM     56  C   UNL A   1      38.412  31.830  30.119  1.00  0.00     0.034 A 
ATOM     57  C   UNL A   1      44.881  31.329  29.454  1.00  0.00     0.049 A 
ATOM     58  C   UNL A   1      39.563  32.739  30.465  1.00  0.00     0.074 A 
ATOM     59  C   UNL A   1      45.845  32.278  29.740  1.00  0.00     0.029 A 
ATOM     60  N   UNL A   1      43.657  31.895  29.777  1.00  0.00    -0.354 N 
ATOM     61  N   UNL A   1      40.846  32.573  30.246  1.00  0.00    -0.248 NA
ATOM     62  C   UNL A   1      39.229  34.018  31.111  1.00  0.00     0.031 C 
ATOM     63  C   UNL A   1      45.208  33.403  30.273  1.00  0.00     0.029 A 
ATOM     64  C   UNL A   1      43.843  33.173  30.276  1.00  0.00     0.049 A 
ATOM     65  H   UNL A   1      42.784  31.454  29.667  1.00  0.00     0.167 HD
ATOM     66  C   UNL A   1      41.466  33.736  30.692  1.00  0.00     0.074 A 
ATOM     67  C   UNL A   1      40.414  34.609  31.172  1.00  0.00     0.031 C 
ATOM     68  C   UNL A   1      42.785  34.051  30.713  1.00  0.00     0.034 A 
BRANCH  55  69
ATOM     69  C   UNL A   1      46.464  29.503  28.712  1.00  0.00     0.023 A 
ATOM     70  C   UNL A   1      47.083  29.699  27.461  1.00  0.00     0.012 A 
ATOM     71  C   UNL A   1      47.185  28.881  29.749  1.00  0.00     0.148 A 
ATOM     72  C   UNL A   1      48.384  29.252  27.234  1.00  0.00     0.002 A 
ATOM     73  C   UNL A   1      48.499  28.482  29.532  1.00  0.00     0.091 A 
ATOM     74  F   UNL A   1      46.572  28.682  30.925  1.00  0.00    -0.205 F 
ATOM     75  C   UNL A   1      49.095  28.654  28.272  1.00  0.00     0.022 A 
BRANCH  73  76
ATOM     76  S   UNL A   1      49.524  27.777  30.826  1.00  0.00     0.127 S 
ATOM     77  O   UNL A   1      49.270  28.694  31.936  1.00  0.00    -0.237 OA
ATOM     78  O   UNL A   1      48.939  26.446  30.989  1.00  0.00    -0.237 OA
ATOM     79  O   UNL A   1      50.886  27.783  30.310  1.00  0.00    -0.744 OA
ENDBRANCH  73  76
ENDBRANCH  55  69
BRANCH  56  80
ATOM     80  C   UNL A   1      37.009  32.229  30.429  1.00  0.00     0.023 A 
ATOM     81  C   UNL A   1      36.467  31.953  31.699  1.00  0.00     0.012 A 
ATOM     82  C   UNL A   1      36.211  32.884  29.471  1.00  0.00     0.148 A 
ATOM     83  C   UNL A   1      35.147  32.292  31.999  1.00  0.00     0.002 A 
ATOM     84  C   UNL A   1      34.916  33.270  29.794  1.00  0.00     0.091 A 
ATOM     85  F   UNL A   1      36.739  33.122  28.262  1.00  0.00    -0.205 F 
ATOM     86  C   UNL A   1      34.376  32.958  31.051  1.00  0.00     0.022 A 
BRANCH  84  87
ATOM     87  S   UNL A   1      33.891  34.239  28.683  1.00  0.00     0.127 S 
ATOM     88  O   UNL A   1      33.561  33.261  27.649  1.00  0.00    -0.237 OA
ATOM     89  O   UNL A   1      32.778  34.613  29.555  1.00  0.00    -0.237 OA
ATOM     90  O   UNL A   1      34.721  35.355  28.251  1.00  0.00    -0.744 OA
ENDBRANCH  84  87
ENDBRANCH  56  80
BRANCH  68  91
ATOM     91  C   UNL A   1      43.173  35.413  31.231  1.00  0.00     0.023 A 
ATOM     92  C   UNL A   1      43.351  35.620  32.614  1.00  0.00     0.012 A 
ATOM     93  C   UNL A   1      43.419  36.476  30.338  1.00  0.00     0.148 A 
ATOM     94  C   UNL A   1      43.720  36.874  33.102  1.00  0.00     0.002 A 
ATOM     95  C   UNL A   1      43.841  37.706  30.828  1.00  0.00     0.091 A 
ATOM     96  F   UNL A   1      43.232  36.267  29.027  1.00  0.00    -0.205 F 
ATOM     97  C   UNL A   1      43.976  37.912  32.210  1.00  0.00     0.022 A 
BRANCH  95  98
ATOM     98  S   UNL A   1      44.289  39.071  29.748  1.00  0.00     0.127 S 
ATOM     99  O   UNL A   1      42.989  39.687  29.492  1.00  0.00    -0.237 OA
ATOM    100  O   UNL A   1      45.180  39.860  30.599  1.00  0.00    -0.237 OA
ATOM    101  O   UNL A   1      44.936  38.471  28.590  1.00  0.00    -0.744 OA
ENDBRANCH  95  98
ENDBRANCH  68  91
ENDBRANCH  42  43
ENDBRANCH  35  37
ENDBRANCH  34  35
ENDBRANCH  33  34
ENDBRANCH  32  33
ENDBRANCH  31  32
ENDBRANCH  30  31
ENDBRANCH   1  30
TORSDOF 25
ENDMDL
MODEL 2
REMARK VINA RESULT:      -7.2      7.458     15.560
REMARK SMILES Cc1ccc(C(=O)Nc2ccc(C(=O)OCCOCCOCCOCCOC(=O)c3ccc(-c4c5nc(c(-c6cccc(S(=O)(=O)[O-])c6F)c6ccc([nH]6)c(-c6cccc(S(=O)(=O)[O-])c6F)c6nc(c(-c7cccc(S(=O)(=O)[O-])c7F)c7ccc4[nH]7)C=C6)C=C5)cc3)c(Cl)c2)cc1C
REMARK SMILES IDX 22 1 21 2 20 3 19 4 18 5 17 6 16 7 15 8 13 9 14 10 12 11
REMARK SMILES IDX 9 12 10 13 95 14 11 15 93 16 94 17 8 18 6 19 7 20 5 22 1 23
REMARK SMILES IDX 2 24 3 25 97 26 4 27 96 28 98 29 23 30 24 31 25 32 26 33
REMARK SMILES IDX 27 34 28 35 29 36 30 37 31 38 92 39 32 40 91 41 33 42 34 43
REMARK SMILES IDX 35 44 85 45 36 46 90 47 84 48 86 49 37 50 89 51 83 52 82 53
REMARK SMILES IDX 38 55 70 56 50 57 69 58 51 59 54 60 68 61 87 62 52 63 53 64
REMARK SMILES IDX 67 66 88 67 55 68 39 69 40 70 48 71 41 72 43 73 49 74 42 75
REMARK SMILES IDX 44 76 45 77 46 78 47 79 71 80 72 81 80 82 73 83 75 84 81 85
REMARK SMILES IDX 74 86 76 87 77 88 78 89 79 90 56 91 57 92 65 93 58 94 60 95
REMARK SMILES IDX 66 96 59 97 61 98 62 99 63 100 64 101
REMARK H PARENT 8 21 86 54 54 65
REMARK Flexibility Score: inf
ROOT
ATOM      1  C   UNL A   1      45.605  41.723  26.237  1.00  0.00     0.188 C 
ENDROOT
BRANCH   1   2
ATOM      2  O   UNL A   1      45.609  42.915  25.458  1.00  0.00    -0.377 OA
BRANCH   2   3
ATOM      3  C   UNL A   1      45.713  44.186  26.081  1.00  0.00     0.188 C 
BRANCH   3   4
ATOM      4  C   UNL A   1      46.804  44.468  27.138  1.00  0.00     0.188 C 
BRANCH   4   5
ATOM      5  O   UNL A   1      48.122  44.168  26.723  1.00  0.00    -0.376 OA
BRANCH   5   6
ATOM      6  C   UNL A   1      48.923  45.190  26.160  1.00  0.00     0.202 C 
BRANCH   6   7
ATOM      7  C   UNL A   1      48.568  45.749  24.777  1.00  0.00     0.261 C 
BRANCH   7   8
ATOM      8  O   UNL A   1      48.386  44.770  23.750  1.00  0.00    -0.460 OA
BRANCH   8   9
ATOM      9  C   UNL A   1      48.304  45.198  22.474  1.00  0.00     0.339 C 
ATOM     10  O   UNL A   1      49.125  45.874  21.877  1.00  0.00    -0.246 OA
BRANCH   9  11
ATOM     11  C   UNL A   1      47.177  44.493  21.819  1.00  0.00     0.078 A 
ATOM     12  C   UNL A   1      44.925  43.418  20.527  1.00  0.00     0.043 A 
ATOM     13  C   UNL A   1      44.759  44.315  21.584  1.00  0.00     0.027 A 
ATOM     14  C   UNL A   1      46.213  43.007  20.169  1.00  0.00     0.047 A 
ATOM     15  C   UNL A   1      45.881  44.847  22.230  1.00  0.00     0.019 A 
ATOM     16  C   UNL A   1      47.341  43.558  20.791  1.00  0.00     0.057 A 
ATOM     17  Cl  UNL A   1      48.884  43.026  20.235  1.00  0.00    -0.083 Cl
BRANCH  12  18
ATOM     18  N   UNL A   1      43.852  42.879  19.805  1.00  0.00    -0.322 N 
ATOM     19  C   UNL A   1      42.839  43.465  19.076  1.00  0.00     0.255 C 
ATOM     20  O   UNL A   1      41.824  42.799  18.857  1.00  0.00    -0.269 OA
ATOM     21  H   UNL A   1      43.815  41.895  19.821  1.00  0.00     0.170 HD
BRANCH  19  22
ATOM     22  C   UNL A   1      42.969  44.810  18.432  1.00  0.00     0.040 A 
ATOM     23  C   UNL A   1      43.517  48.656  16.512  1.00  0.00     0.044 C 
ATOM     24  C   UNL A   1      43.373  47.341  17.224  1.00  0.00    -0.048 A 
ATOM     25  C   UNL A   1      42.085  46.881  17.530  1.00  0.00     0.004 A 
ATOM     26  C   UNL A   1      44.480  46.577  17.632  1.00  0.00    -0.047 A 
ATOM     27  C   UNL A   1      41.892  45.655  18.169  1.00  0.00     0.014 A 
ATOM     28  C   UNL A   1      44.263  45.304  18.197  1.00  0.00     0.017 A 
ATOM     29  C   UNL A   1      45.895  47.087  17.570  1.00  0.00     0.044 C 
ENDBRANCH  19  22
ENDBRANCH  12  18
ENDBRANCH   9  11
ENDBRANCH   8   9
ENDBRANCH   7   8
ENDBRANCH   6   7
ENDBRANCH   5   6
ENDBRANCH   4   5
ENDBRANCH   3   4
ENDBRANCH   2   3
ENDBRANCH   1   2
BRANCH   1  30
ATOM     30  C   UNL A   1      46.513  40.532  25.858  1.00  0.00     0.188 C 
BRANCH  30  31
ATOM     31  O   UNL A   1      46.529  39.482  26.814  1.00  0.00    -0.376 OA
BRANCH  31  32
ATOM     32  C   UNL A   1      46.100  39.805  28.125  1.00  0.00     0.202 C 
BRANCH  32  33
ATOM     33  C   UNL A   1      45.282  38.738  28.867  1.00  0.00     0.261 C 
BRANCH  33  34
ATOM     34  O   UNL A   1      45.999  37.943  29.823  1.00  0.00    -0.460 OA
BRANCH  34  35
ATOM     35  C   UNL A   1      46.848  37.007  29.338  1.00  0.00     0.338 C 
ATOM     36  O   UNL A   1      48.043  37.123  29.162  1.00  0.00    -0.246 OA
BRANCH  35  37
ATOM     37  C   UNL A   1      46.096  35.736  29.237  1.00  0.00     0.060 A 
ATOM     38  C   UNL A   1      46.359  34.715  30.160  1.00  0.00     0.016 A 
ATOM     39  C   UNL A   1      45.131  35.562  28.243  1.00  0.00     0.016 A 
ATOM     40  C   UNL A   1      45.681  33.499  30.064  1.00  0.00     0.010 A 
ATOM     41  C   UNL A   1      44.466  34.337  28.138  1.00  0.00     0.010 A 
ATOM     42  C   UNL A   1      44.764  33.288  29.025  1.00  0.00    -0.014 A 
BRANCH  42  43
ATOM     43  C   UNL A   1      44.257  31.919  28.762  1.00  0.00     0.031 A 
ATOM     44  C   UNL A   1      42.884  31.554  29.260  1.00  0.00     0.074 A 
ATOM     45  C   UNL A   1      44.992  31.019  28.087  1.00  0.00     0.049 A 
ATOM     46  N   UNL A   1      42.237  30.424  29.154  1.00  0.00    -0.248 NA
ATOM     47  C   UNL A   1      42.145  32.607  29.977  1.00  0.00     0.031 C 
ATOM     48  C   UNL A   1      46.333  31.248  27.553  1.00  0.00     0.029 A 
ATOM     49  N   UNL A   1      44.716  29.715  27.755  1.00  0.00    -0.354 N 
ATOM     50  C   UNL A   1      41.029  30.618  29.813  1.00  0.00     0.074 A 
ATOM     51  C   UNL A   1      41.039  31.969  30.329  1.00  0.00     0.031 C 
ATOM     52  C   UNL A   1      46.774  30.115  26.981  1.00  0.00     0.029 A 
ATOM     53  C   UNL A   1      45.759  29.073  27.130  1.00  0.00     0.049 A 
ATOM     54  H   UNL A   1      43.853  29.281  27.947  1.00  0.00     0.167 HD
ATOM     55  C   UNL A   1      39.996  29.755  29.965  1.00  0.00     0.034 A 
ATOM     56  C   UNL A   1      45.886  27.788  26.744  1.00  0.00     0.034 A 
ATOM     57  C   UNL A   1      39.983  28.415  29.446  1.00  0.00     0.049 A 
ATOM     58  C   UNL A   1      44.734  26.838  26.950  1.00  0.00     0.074 A 
ATOM     59  C   UNL A   1      38.966  27.479  29.506  1.00  0.00     0.029 A 
ATOM     60  N   UNL A   1      41.044  27.810  28.791  1.00  0.00    -0.354 N 
ATOM     61  N   UNL A   1      43.550  27.070  27.466  1.00  0.00    -0.248 NA
ATOM     62  C   UNL A   1      44.921  25.455  26.485  1.00  0.00     0.031 C 
ATOM     63  C   UNL A   1      39.427  26.295  28.922  1.00  0.00     0.029 A 
ATOM     64  C   UNL A   1      40.714  26.507  28.456  1.00  0.00     0.049 A 
ATOM     65  H   UNL A   1      41.906  28.242  28.591  1.00  0.00     0.167 HD
ATOM     66  C   UNL A   1      42.842  25.877  27.356  1.00  0.00     0.074 A 
ATOM     67  C   UNL A   1      43.722  24.931  26.701  1.00  0.00     0.031 C 
ATOM     68  C   UNL A   1      41.583  25.586  27.766  1.00  0.00     0.034 A 
BRANCH  55  69
ATOM     69  C   UNL A   1      38.788  30.241  30.722  1.00  0.00     0.023 A 
ATOM     70  C   UNL A   1      38.704  30.042  32.115  1.00  0.00     0.012 A 
ATOM     71  C   UNL A   1      37.756  30.934  30.060  1.00  0.00     0.148 A 
ATOM     72  C   UNL A   1      37.594  30.491  32.832  1.00  0.00     0.002 A 
ATOM     73  C   UNL A   1      36.677  31.423  30.788  1.00  0.00     0.091 A 
ATOM     74  F   UNL A   1      37.842  31.094  28.732  1.00  0.00    -0.205 F 
ATOM     75  C   UNL A   1      36.588  31.190  32.170  1.00  0.00     0.022 A 
BRANCH  73  76
ATOM     76  S   UNL A   1      35.371  32.404  30.043  1.00  0.00     0.127 S 
ATOM     77  O   UNL A   1      36.125  33.529  29.491  1.00  0.00    -0.237 OA
ATOM     78  O   UNL A   1      34.829  31.484  29.044  1.00  0.00    -0.237 OA
ATOM     79  O   UNL A   1      34.453  32.739  31.123  1.00  0.00    -0.744 OA
ENDBRANCH  73  76
ENDBRANCH  55  69
BRANCH  56  80
ATOM     80  C   UNL A   1      47.147  27.323  26.099  1.00  0.00     0.023 A 
ATOM     81  C   UNL A   1      48.100  26.613  26.854  1.00  0.00     0.012 A 
ATOM     82  C   UNL A   1      47.404  27.580  24.738  1.00  0.00     0.148 A 
ATOM     83  C   UNL A   1      49.300  26.196  26.276  1.00  0.00     0.002 A 
ATOM     84  C   UNL A   1      48.575  27.112  24.154  1.00  0.00     0.091 A 
ATOM     85  F   UNL A   1      46.493  28.272  24.040  1.00  0.00    -0.205 F 
ATOM     86  C   UNL A   1      49.532  26.436  24.926  1.00  0.00     0.022 A 
BRANCH  84  87
ATOM     87  S   UNL A   1      48.906  27.266  22.395  1.00  0.00     0.127 S 
ATOM     88  O   UNL A   1      48.134  28.457  22.049  1.00  0.00    -0.237 OA
ATOM     89  O   UNL A   1      50.358  27.446  22.381  1.00  0.00    -0.237 OA
ATOM     90  O   UNL A   1      48.447  26.021  21.795  1.00  0.00    -0.744 OA
ENDBRANCH  84  87
ENDBRANCH  56  80
BRANCH  68  91
ATOM     91  C   UNL A   1      41.055  24.201  27.484  1.00  0.00     0.023 A 
ATOM     92  C   UNL A   1      41.689  23.075  28.046  1.00  0.00     0.012 A 
ATOM     93  C   UNL A   1      39.893  24.022  26.707  1.00  0.00     0.148 A 
ATOM     94  C   UNL A   1      41.202  21.791  27.800  1.00  0.00     0.002 A 
ATOM     95  C   UNL A   1      39.382  22.744  26.512  1.00  0.00     0.091 A 
ATOM     96  F   UNL A   1      39.310  25.103  26.168  1.00  0.00    -0.205 F 
ATOM     97  C   UNL A   1      40.044  21.626  27.044  1.00  0.00     0.022 A 
BRANCH  95  98
ATOM     98  S   UNL A   1      37.841  22.445  25.637  1.00  0.00     0.127 S 
ATOM     99  O   UNL A   1      36.850  22.848  26.633  1.00  0.00    -0.237 OA
ATOM    100  O   UNL A   1      37.956  23.348  24.491  1.00  0.00    -0.237 OA
ATOM    101  O   UNL A   1      37.843  21.031  25.293  1.00  0.00    -0.744 OA
ENDBRANCH  95  98
ENDBRANCH  68  91
ENDBRANCH  42  43
ENDBRANCH  35  37
ENDBRANCH  34  35
ENDBRANCH  33  34
ENDBRANCH  32  33
ENDBRANCH  31  32
ENDBRANCH  30  31
ENDBRANCH   1  30
TORSDOF 25
ENDMDL
MODEL 3
REMARK VINA RESULT:      -6.9      5.410     10.998
REMARK SMILES Cc1ccc(C(=O)Nc2ccc(C(=O)OCCOCCOCCOCCOC(=O)c3ccc(-c4c5nc(c(-c6cccc(S(=O)(=O)[O-])c6F)c6ccc([nH]6)c(-c6cccc(S(=O)(=O)[O-])c6F)c6nc(c(-c7cccc(S(=O)(=O)[O-])c7F)c7ccc4[nH]7)C=C6)C=C5)cc3)c(Cl)c2)cc1C
REMARK SMILES IDX 22 1 21 2 20 3 19 4 18 5 17 6 16 7 15 8 13 9 14 10 12 11
REMARK SMILES IDX 9 12 10 13 95 14 11 15 93 16 94 17 8 18 6 19 7 20 5 22 1 23
REMARK SMILES IDX 2 24 3 25 97 26 4 27 96 28 98 29 23 30 24 31 25 32 26 33
REMARK SMILES IDX 27 34 28 35 29 36 30 37 31 38 92 39 32 40 91 41 33 42 34 43
REMARK SMILES IDX 35 44 85 45 36 46 90 47 84 48 86 49 37 50 89 51 83 52 82 53
REMARK SMILES IDX 38 55 70 56 50 57 69 58 51 59 54 60 68 61 87 62 52 63 53 64
REMARK SMILES IDX 67 66 88 67 55 68 39 69 40 70 48 71 41 72 43 73 49 74 42 75
REMARK SMILES IDX 44 76 45 77 46 78 47 79 71 80 72 81 80 82 73 83 75 84 81 85
REMARK SMILES IDX 74 86 76 87 77 88 78 89 79 90 56 91 57 92 65 93 58 94 60 95
REMARK SMILES IDX 66 96 59 97 61 98 62 99 63 100 64 101
REMARK H PARENT 8 21 86 54 54 65
REMARK Flexibility Score: inf
ROOT
ATOM      1  C   UNL A   1      43.757  23.097  29.575  1.00  0.00     0.188 C 
ENDROOT
BRANCH   1   2
ATOM      2  O   UNL A   1      42.616  22.598  28.885  1.00  0.00    -0.377 OA
BRANCH   2   3
ATOM      3  C   UNL A   1      42.752  21.973  27.618  1.00  0.00     0.188 C 
BRANCH   3   4
ATOM      4  C   UNL A   1      41.841  22.368  26.434  1.00  0.00     0.188 C 
BRANCH   4   5
ATOM      5  O   UNL A   1      40.843  21.420  26.114  1.00  0.00    -0.376 OA
BRANCH   5   6
ATOM      6  C   UNL A   1      39.486  21.823  26.081  1.00  0.00     0.202 C 
BRANCH   6   7
ATOM      7  C   UNL A   1      38.471  20.984  25.295  1.00  0.00     0.261 C 
BRANCH   7   8
ATOM      8  O   UNL A   1      37.098  21.320  25.517  1.00  0.00    -0.460 OA
BRANCH   8   9
ATOM      9  C   UNL A   1      36.444  21.988  24.544  1.00  0.00     0.339 C 
ATOM     10  O   UNL A   1      36.887  22.310  23.456  1.00  0.00    -0.246 OA
BRANCH   9  11
ATOM     11  C   UNL A   1      35.006  22.038  24.902  1.00  0.00     0.078 A 
ATOM     12  C   UNL A   1      32.367  22.166  25.857  1.00  0.00     0.043 A 
ATOM     13  C   UNL A   1      33.267  21.260  26.420  1.00  0.00     0.027 A 
ATOM     14  C   UNL A   1      32.769  22.952  24.772  1.00  0.00     0.047 A 
ATOM     15  C   UNL A   1      34.581  21.193  25.942  1.00  0.00     0.019 A 
ATOM     16  C   UNL A   1      34.090  22.911  24.308  1.00  0.00     0.057 A 
ATOM     17  Cl  UNL A   1      34.497  23.962  23.002  1.00  0.00    -0.083 Cl
BRANCH  12  18
ATOM     18  N   UNL A   1      31.051  22.321  26.313  1.00  0.00    -0.322 N 
ATOM     19  C   UNL A   1      30.342  23.423  26.740  1.00  0.00     0.255 C 
ATOM     20  O   UNL A   1      29.340  23.234  27.433  1.00  0.00    -0.269 OA
ATOM     21  H   UNL A   1      30.534  21.483  26.331  1.00  0.00     0.170 HD
BRANCH  19  22
ATOM     22  C   UNL A   1      30.655  24.818  26.293  1.00  0.00     0.040 A 
ATOM     23  C   UNL A   1      31.387  28.868  24.939  1.00  0.00     0.044 C 
ATOM     24  C   UNL A   1      31.129  27.445  25.344  1.00  0.00    -0.048 A 
ATOM     25  C   UNL A   1      31.977  26.851  26.288  1.00  0.00     0.004 A 
ATOM     26  C   UNL A   1      30.098  26.674  24.779  1.00  0.00    -0.047 A 
ATOM     27  C   UNL A   1      31.770  25.539  26.718  1.00  0.00     0.014 A 
ATOM     28  C   UNL A   1      29.851  25.383  25.289  1.00  0.00     0.017 A 
ATOM     29  C   UNL A   1      29.289  27.129  23.595  1.00  0.00     0.044 C 
ENDBRANCH  19  22
ENDBRANCH  12  18
ENDBRANCH   9  11
ENDBRANCH   8   9
ENDBRANCH   7   8
ENDBRANCH   6   7
ENDBRANCH   5   6
ENDBRANCH   4   5
ENDBRANCH   3   4
ENDBRANCH   2   3
ENDBRANCH   1   2
BRANCH   1  30
ATOM     30  C   UNL A   1      44.059  24.612  29.606  1.00  0.00     0.188 C 
BRANCH  30  31
ATOM     31  O   UNL A   1      43.572  25.328  28.481  1.00  0.00    -0.376 OA
BRANCH  31  32
ATOM     32  C   UNL A   1      43.004  26.601  28.730  1.00  0.00     0.202 C 
BRANCH  32  33
ATOM     33  C   UNL A   1      41.480  26.719  28.579  1.00  0.00     0.261 C 
BRANCH  33  34
ATOM     34  O   UNL A   1      40.976  28.018  28.236  1.00  0.00    -0.460 OA
BRANCH  34  35
ATOM     35  C   UNL A   1      40.066  28.570  29.073  1.00  0.00     0.338 C 
ATOM     36  O   UNL A   1      39.095  28.028  29.558  1.00  0.00    -0.246 OA
BRANCH  35  37
ATOM     37  C   UNL A   1      40.570  29.908  29.456  1.00  0.00     0.060 A 
ATOM     38  C   UNL A   1      41.947  30.158  29.400  1.00  0.00     0.016 A 
ATOM     39  C   UNL A   1      39.683  30.909  29.858  1.00  0.00     0.016 A 
ATOM     40  C   UNL A   1      42.445  31.404  29.785  1.00  0.00     0.010 A 
ATOM     41  C   UNL A   1      40.186  32.150  30.259  1.00  0.00     0.010 A 
ATOM     42  C   UNL A   1      41.570  32.391  30.259  1.00  0.00    -0.014 A 
BRANCH  42  43
ATOM     43  C   UNL A   1      42.119  33.600  30.920  1.00  0.00     0.031 A 
ATOM     44  C   UNL A   1      42.277  33.591  32.417  1.00  0.00     0.074 A 
ATOM     45  C   UNL A   1      42.480  34.683  30.211  1.00  0.00     0.049 A 
ATOM     46  N   UNL A   1      42.727  34.527  33.210  1.00  0.00    -0.248 NA
ATOM     47  C   UNL A   1      41.869  32.358  33.112  1.00  0.00     0.031 C 
ATOM     48  C   UNL A   1      42.377  34.817  28.759  1.00  0.00     0.029 A 
ATOM     49  N   UNL A   1      42.987  35.889  30.625  1.00  0.00    -0.354 N 
ATOM     50  C   UNL A   1      42.630  34.010  34.497  1.00  0.00     0.074 A 
ATOM     51  C   UNL A   1      42.066  32.684  34.380  1.00  0.00     0.031 C 
ATOM     52  C   UNL A   1      42.786  36.048  28.405  1.00  0.00     0.029 A 
ATOM     53  C   UNL A   1      43.154  36.796  29.605  1.00  0.00     0.049 A 
ATOM     54  H   UNL A   1      43.211  36.086  31.564  1.00  0.00     0.167 HD
ATOM     55  C   UNL A   1      42.992  34.582  35.670  1.00  0.00     0.034 A 
ATOM     56  C   UNL A   1      43.539  38.088  29.642  1.00  0.00     0.034 A 
ATOM     57  C   UNL A   1      43.560  35.897  35.785  1.00  0.00     0.049 A 
ATOM     58  C   UNL A   1      43.909  38.711  30.964  1.00  0.00     0.074 A 
ATOM     59  C   UNL A   1      44.003  36.547  36.923  1.00  0.00     0.029 A 
ATOM     60  N   UNL A   1      43.744  36.774  34.728  1.00  0.00    -0.354 N 
ATOM     61  N   UNL A   1      43.928  38.171  32.159  1.00  0.00    -0.248 NA
ATOM     62  C   UNL A   1      44.346  40.115  30.938  1.00  0.00     0.031 C 
ATOM     63  C   UNL A   1      44.418  37.831  36.560  1.00  0.00     0.029 A 
ATOM     64  C   UNL A   1      44.277  37.966  35.189  1.00  0.00     0.049 A 
ATOM     65  H   UNL A   1      43.528  36.579  33.787  1.00  0.00     0.167 HD
ATOM     66  C   UNL A   1      44.412  39.152  33.017  1.00  0.00     0.074 A 
ATOM     67  C   UNL A   1      44.697  40.315  32.201  1.00  0.00     0.031 C 
ATOM     68  C   UNL A   1      44.596  39.103  34.360  1.00  0.00     0.034 A 
BRANCH  55  69
ATOM     69  C   UNL A   1      42.787  33.778  36.928  1.00  0.00     0.023 A 
ATOM     70  C   UNL A   1      43.840  32.993  37.440  1.00  0.00     0.012 A 
ATOM     71  C   UNL A   1      41.565  33.835  37.626  1.00  0.00     0.148 A 
ATOM     72  C   UNL A   1      43.668  32.249  38.608  1.00  0.00     0.002 A 
ATOM     73  C   UNL A   1      41.417  33.130  38.814  1.00  0.00     0.091 A 
ATOM     74  F   UNL A   1      40.568  34.568  37.111  1.00  0.00    -0.205 F 
ATOM     75  C   UNL A   1      42.462  32.326  39.299  1.00  0.00     0.022 A 
BRANCH  73  76
ATOM     76  S   UNL A   1      39.934  33.227  39.820  1.00  0.00     0.127 S 
ATOM     77  O   UNL A   1      40.141  32.125  40.760  1.00  0.00    -0.237 OA
ATOM     78  O   UNL A   1      40.050  34.561  40.410  1.00  0.00    -0.237 OA
ATOM     79  O   UNL A   1      38.813  33.063  38.904  1.00  0.00    -0.744 OA
ENDBRANCH  73  76
ENDBRANCH  55  69
BRANCH  56  80
ATOM     80  C   UNL A   1      43.620  38.879  28.381  1.00  0.00     0.023 A 
ATOM     81  C   UNL A   1      42.476  39.542  27.896  1.00  0.00     0.012 A 
ATOM     82  C   UNL A   1      44.827  38.979  27.661  1.00  0.00     0.148 A 
ATOM     83  C   UNL A   1      42.523  40.263  26.702  1.00  0.00     0.002 A 
ATOM     84  C   UNL A   1      44.882  39.745  26.503  1.00  0.00     0.091 A 
ATOM     85  F   UNL A   1      45.900  38.326  28.129  1.00  0.00    -0.205 F 
ATOM     86  C   UNL A   1      43.727  40.372  26.012  1.00  0.00     0.022 A 
BRANCH  84  87
ATOM     87  S   UNL A   1      46.414  40.044  25.614  1.00  0.00     0.127 S 
ATOM     88  O   UNL A   1      46.745  38.706  25.131  1.00  0.00    -0.237 OA
ATOM     89  O   UNL A   1      45.979  40.984  24.581  1.00  0.00    -0.237 OA
ATOM     90  O   UNL A   1      47.335  40.606  26.593  1.00  0.00    -0.744 OA
ENDBRANCH  84  87
ENDBRANCH  56  80
BRANCH  68  91
ATOM     91  C   UNL A   1      45.172  40.323  35.035  1.00  0.00     0.023 A 
ATOM     92  C   UNL A   1      44.315  41.310  35.562  1.00  0.00     0.012 A 
ATOM     93  C   UNL A   1      46.565  40.461  35.199  1.00  0.00     0.148 A 
ATOM     94  C   UNL A   1      44.837  42.437  36.198  1.00  0.00     0.002 A 
ATOM     95  C   UNL A   1      47.075  41.559  35.882  1.00  0.00     0.091 A 
ATOM     96  F   UNL A   1      47.367  39.520  34.680  1.00  0.00    -0.205 F 
ATOM     97  C   UNL A   1      46.214  42.556  36.368  1.00  0.00     0.022 A 
BRANCH  95  98
ATOM     98  S   UNL A   1      48.827  41.745  36.236  1.00  0.00     0.127 S 
ATOM     99  O   UNL A   1      49.073  40.612  37.127  1.00  0.00    -0.237 OA
ATOM    100  O   UNL A   1      49.427  41.617  34.908  1.00  0.00    -0.237 OA
ATOM    101  O   UNL A   1      48.977  43.060  36.842  1.00  0.00    -0.744 OA
ENDBRANCH  95  98
ENDBRANCH  68  91
ENDBRANCH  42  43
ENDBRANCH  35  37
ENDBRANCH  34  35
ENDBRANCH  33  34
ENDBRANCH  32  33
ENDBRANCH  31  32
ENDBRANCH  30  31
ENDBRANCH   1  30
TORSDOF 25
ENDMDL
