MODEL 1
REMARK VINA RESULT:      -8.8      0.000      0.000
REMARK SMILES O=C(Nc1cccc(C(=O)OCCOCCOCCOCCOC(=O)c2ccc(-c3c4nc(c(-c5cccc(S(=O)(=O)[O-])c5F)c5ccc([nH]5)c(-c5cccc(S(=O)(=O)[O-])c5F)c5nc(c(-c6cccc(S(=O)(=O)[O-])c6F)c6ccc3[nH]6)C=C5)C=C4)cc2)c1)Nc1cc(Cl)c(Cl)cc1Cl
REMARK SMILES IDX 18 1 17 2 16 3 15 4 14 5 13 6 12 7 11 8 9 9 10 10 8 11 4 12
REMARK SMILES IDX 5 13 89 14 6 15 7 16 3 17 1 18 2 19 90 20 91 23 92 24 98 25
REMARK SMILES IDX 93 26 97 27 99 28 94 29 95 30 96 31 19 32 20 33 21 34 22 35
REMARK SMILES IDX 23 36 24 37 25 38 26 39 27 40 88 41 28 42 87 43 29 44 30 45
REMARK SMILES IDX 31 46 81 47 32 48 86 49 80 50 82 51 33 52 85 53 79 54 78 55
REMARK SMILES IDX 34 57 66 58 46 59 65 60 47 61 50 62 64 63 83 64 48 65 49 66
REMARK SMILES IDX 63 68 84 69 51 70 35 71 36 72 44 73 37 74 39 75 45 76 38 77
REMARK SMILES IDX 40 78 41 79 42 80 43 81 67 82 68 83 76 84 69 85 71 86 77 87
REMARK SMILES IDX 70 88 72 89 73 90 74 91 75 92 52 93 53 94 61 95 54 96 56 97
REMARK SMILES IDX 62 98 55 99 57 100 58 101 59 102 60 103
REMARK H PARENT 3 21 90 22 82 56 50 67
REMARK Flexibility Score: inf
ROOT
ATOM      1  C   UNL A   1      36.394  31.667  28.247  1.00  0.00     0.188 C 
ENDROOT
BRANCH   1   2
ATOM      2  O   UNL A   1      36.047  30.344  27.836  1.00  0.00    -0.377 OA
BRANCH   2   3
ATOM      3  C   UNL A   1      34.678  29.987  27.770  1.00  0.00     0.188 C 
BRANCH   3   4
ATOM      4  C   UNL A   1      34.389  28.795  26.839  1.00  0.00     0.188 C 
BRANCH   4   5
ATOM      5  O   UNL A   1      33.073  28.283  26.977  1.00  0.00    -0.376 OA
BRANCH   5   6
ATOM      6  C   UNL A   1      31.962  29.162  26.941  1.00  0.00     0.202 C 
BRANCH   6   7
ATOM      7  C   UNL A   1      31.748  30.165  25.795  1.00  0.00     0.261 C 
BRANCH   7   8
ATOM      8  O   UNL A   1      31.751  29.637  24.468  1.00  0.00    -0.460 OA
BRANCH   8   9
ATOM      9  C   UNL A   1      30.578  29.400  23.851  1.00  0.00     0.338 C 
ATOM     10  O   UNL A   1      29.807  30.220  23.383  1.00  0.00    -0.246 OA
BRANCH   9  11
ATOM     11  C   UNL A   1      30.492  27.932  23.651  1.00  0.00     0.062 A 
ATOM     12  C   UNL A   1      31.314  25.899  22.610  1.00  0.00     0.043 A 
ATOM     13  C   UNL A   1      30.194  25.216  23.097  1.00  0.00     0.026 A 
ATOM     14  C   UNL A   1      31.415  27.273  22.832  1.00  0.00     0.041 A 
ATOM     15  C   UNL A   1      29.251  25.875  23.891  1.00  0.00     0.003 A 
ATOM     16  C   UNL A   1      29.416  27.227  24.198  1.00  0.00     0.016 A 
BRANCH  12  17
ATOM     17  N   UNL A   1      32.288  25.158  21.919  1.00  0.00    -0.308 N 
ATOM     18  O   UNL A   1      33.669  23.476  21.408  1.00  0.00    -0.248 OA
ATOM     19  C   UNL A   1      32.751  23.877  22.118  1.00  0.00     0.323 C 
ATOM     20  N   UNL A   1      32.014  23.108  22.976  1.00  0.00    -0.306 N 
ATOM     21  H   UNL A   1      32.710  25.635  21.168  1.00  0.00     0.171 HD
ATOM     22  H   UNL A   1      31.146  23.485  23.249  1.00  0.00     0.171 HD
BRANCH  20  23
ATOM     23  C   UNL A   1      32.331  21.846  23.522  1.00  0.00     0.063 A 
ATOM     24  C   UNL A   1      32.885  21.892  24.811  1.00  0.00     0.049 A 
ATOM     25  C   UNL A   1      32.163  20.596  22.904  1.00  0.00     0.066 A 
ATOM     26  C   UNL A   1      33.119  20.722  25.534  1.00  0.00     0.061 A 
ATOM     27  C   UNL A   1      32.392  19.422  23.635  1.00  0.00     0.044 A 
ATOM     28  Cl  UNL A   1      31.824  20.417  21.219  1.00  0.00    -0.082 Cl
ATOM     29  Cl  UNL A   1      33.738  20.896  27.141  1.00  0.00    -0.083 Cl
ATOM     30  C   UNL A   1      32.821  19.483  24.965  1.00  0.00     0.061 A 
ATOM     31  Cl  UNL A   1      32.903  18.028  25.889  1.00  0.00    -0.083 Cl
ENDBRANCH  20  23
ENDBRANCH  12  17
ENDBRANCH   9  11
ENDBRANCH   8   9
ENDBRANCH   7   8
ENDBRANCH   6   7
ENDBRANCH   5   6
ENDBRANCH   4   5
ENDBRANCH   3   4
ENDBRANCH   2   3
ENDBRANCH   1   2
BRANCH   1  32
ATOM     32  C   UNL A   1      35.500  32.898  27.952  1.00  0.00     0.188 C 
BRANCH  32  33
ATOM     33  O   UNL A   1      35.402  33.842  29.011  1.00  0.00    -0.376 OA
BRANCH  33  34
ATOM     34  C   UNL A   1      34.221  33.830  29.796  1.00  0.00     0.202 C 
BRANCH  34  35
ATOM     35  C   UNL A   1      34.440  33.955  31.308  1.00  0.00     0.261 C 
BRANCH  35  36
ATOM     36  O   UNL A   1      35.584  34.725  31.702  1.00  0.00    -0.460 OA
BRANCH  36  37
ATOM     37  C   UNL A   1      35.620  35.168  32.978  1.00  0.00     0.338 C 
ATOM     38  O   UNL A   1      34.808  35.886  33.531  1.00  0.00    -0.246 OA
BRANCH  37  39
ATOM     39  C   UNL A   1      36.730  34.473  33.658  1.00  0.00     0.060 A 
ATOM     40  C   UNL A   1      36.477  33.795  34.858  1.00  0.00     0.016 A 
ATOM     41  C   UNL A   1      38.010  34.481  33.100  1.00  0.00     0.016 A 
ATOM     42  C   UNL A   1      37.520  33.155  35.526  1.00  0.00     0.010 A 
ATOM     43  C   UNL A   1      39.055  33.854  33.779  1.00  0.00     0.010 A 
ATOM     44  C   UNL A   1      38.822  33.220  35.012  1.00  0.00    -0.014 A 
BRANCH  44  45
ATOM     45  C   UNL A   1      39.971  32.801  35.848  1.00  0.00     0.031 A 
ATOM     46  C   UNL A   1      40.592  33.817  36.766  1.00  0.00     0.074 A 
ATOM     47  C   UNL A   1      40.468  31.553  35.786  1.00  0.00     0.049 A 
ATOM     48  N   UNL A   1      41.631  33.703  37.549  1.00  0.00    -0.248 NA
ATOM     49  C   UNL A   1      39.955  35.146  36.800  1.00  0.00     0.031 C 
ATOM     50  C   UNL A   1      39.952  30.476  34.944  1.00  0.00     0.029 A 
ATOM     51  N   UNL A   1      41.543  30.995  36.432  1.00  0.00    -0.354 N 
ATOM     52  C   UNL A   1      41.797  34.949  38.142  1.00  0.00     0.074 A 
ATOM     53  C   UNL A   1      40.754  35.807  37.625  1.00  0.00     0.031 C 
ATOM     54  C   UNL A   1      40.730  29.391  35.105  1.00  0.00     0.029 A 
ATOM     55  C   UNL A   1      41.813  29.707  36.035  1.00  0.00     0.049 A 
ATOM     56  H   UNL A   1      42.070  31.472  37.114  1.00  0.00     0.167 HD
ATOM     57  C   UNL A   1      42.726  35.342  39.043  1.00  0.00     0.034 A 
ATOM     58  C   UNL A   1      42.835  28.892  36.366  1.00  0.00     0.034 A 
ATOM     59  C   UNL A   1      43.753  34.486  39.569  1.00  0.00     0.049 A 
ATOM     60  C   UNL A   1      43.882  29.370  37.339  1.00  0.00     0.074 A 
ATOM     61  C   UNL A   1      44.705  34.778  40.530  1.00  0.00     0.029 A 
ATOM     62  N   UNL A   1      43.977  33.180  39.166  1.00  0.00    -0.354 N 
ATOM     63  N   UNL A   1      43.955  30.507  37.985  1.00  0.00    -0.248 NA
ATOM     64  C   UNL A   1      44.975  28.435  37.650  1.00  0.00     0.031 C 
ATOM     65  C   UNL A   1      45.531  33.660  40.679  1.00  0.00     0.029 A 
ATOM     66  C   UNL A   1      45.065  32.657  39.842  1.00  0.00     0.049 A 
ATOM     67  H   UNL A   1      43.442  32.696  38.496  1.00  0.00     0.167 HD
ATOM     68  C   UNL A   1      45.070  30.408  38.810  1.00  0.00     0.074 A 
ATOM     69  C   UNL A   1      45.635  29.093  38.594  1.00  0.00     0.031 C 
ATOM     70  C   UNL A   1      45.586  31.327  39.662  1.00  0.00     0.034 A 
BRANCH  57  71
ATOM     71  C   UNL A   1      42.669  36.765  39.527  1.00  0.00     0.023 A 
ATOM     72  C   UNL A   1      43.440  37.756  38.886  1.00  0.00     0.012 A 
ATOM     73  C   UNL A   1      41.810  37.131  40.581  1.00  0.00     0.148 A 
ATOM     74  C   UNL A   1      43.380  39.084  39.307  1.00  0.00     0.002 A 
ATOM     75  C   UNL A   1      41.720  38.462  40.965  1.00  0.00     0.091 A 
ATOM     76  F   UNL A   1      41.105  36.168  41.193  1.00  0.00    -0.205 F 
ATOM     77  C   UNL A   1      42.512  39.438  40.337  1.00  0.00     0.022 A 
BRANCH  75  78
ATOM     78  S   UNL A   1      40.573  39.031  42.224  1.00  0.00     0.127 S 
ATOM     79  O   UNL A   1      39.285  38.693  41.622  1.00  0.00    -0.237 OA
ATOM     80  O   UNL A   1      40.945  38.205  43.373  1.00  0.00    -0.237 OA
ATOM     81  O   UNL A   1      40.830  40.455  42.389  1.00  0.00    -0.744 OA
ENDBRANCH  75  78
ENDBRANCH  57  71
BRANCH  58  82
ATOM     82  C   UNL A   1      42.923  27.525  35.784  1.00  0.00     0.023 A 
ATOM     83  C   UNL A   1      42.170  26.477  36.352  1.00  0.00     0.012 A 
ATOM     84  C   UNL A   1      43.751  27.258  34.680  1.00  0.00     0.148 A 
ATOM     85  C   UNL A   1      42.273  25.178  35.855  1.00  0.00     0.002 A 
ATOM     86  C   UNL A   1      43.797  25.978  34.150  1.00  0.00     0.091 A 
ATOM     87  F   UNL A   1      44.464  28.267  34.160  1.00  0.00    -0.205 F 
ATOM     88  C   UNL A   1      43.079  24.930  34.749  1.00  0.00     0.022 A 
BRANCH  86  89
ATOM     89  S   UNL A   1      44.653  25.595  32.626  1.00  0.00     0.127 S 
ATOM     90  O   UNL A   1      44.121  26.603  31.714  1.00  0.00    -0.237 OA
ATOM     91  O   UNL A   1      46.044  25.790  33.035  1.00  0.00    -0.237 OA
ATOM     92  O   UNL A   1      44.311  24.218  32.299  1.00  0.00    -0.744 OA
ENDBRANCH  86  89
ENDBRANCH  58  82
BRANCH  70  93
ATOM     93  C   UNL A   1      46.790  30.933  40.478  1.00  0.00     0.023 A 
ATOM     94  C   UNL A   1      48.087  31.255  40.029  1.00  0.00     0.012 A 
ATOM     95  C   UNL A   1      46.629  30.310  41.731  1.00  0.00     0.148 A 
ATOM     96  C   UNL A   1      49.204  30.931  40.798  1.00  0.00     0.002 A 
ATOM     97  C   UNL A   1      47.742  30.039  42.517  1.00  0.00     0.091 A 
ATOM     98  F   UNL A   1      45.388  29.997  42.134  1.00  0.00    -0.205 F 
ATOM     99  C   UNL A   1      49.031  30.336  42.046  1.00  0.00     0.022 A 
BRANCH  97 100
ATOM    100  S   UNL A   1      47.610  29.366  44.178  1.00  0.00     0.127 S 
ATOM    101  O   UNL A   1      46.855  30.414  44.863  1.00  0.00    -0.237 OA
ATOM    102  O   UNL A   1      46.865  28.127  43.950  1.00  0.00    -0.237 OA
ATOM    103  O   UNL A   1      48.975  29.174  44.644  1.00  0.00    -0.744 OA
ENDBRANCH  97 100
ENDBRANCH  70  93
ENDBRANCH  44  45
ENDBRANCH  37  39
ENDBRANCH  36  37
ENDBRANCH  35  36
ENDBRANCH  34  35
ENDBRANCH  33  34
ENDBRANCH  32  33
ENDBRANCH   1  32
TORSDOF 25
ENDMDL
MODEL 2
REMARK VINA RESULT:      -8.7      8.981     10.582
REMARK SMILES O=C(Nc1cccc(C(=O)OCCOCCOCCOCCOC(=O)c2ccc(-c3c4nc(c(-c5cccc(S(=O)(=O)[O-])c5F)c5ccc([nH]5)c(-c5cccc(S(=O)(=O)[O-])c5F)c5nc(c(-c6cccc(S(=O)(=O)[O-])c6F)c6ccc3[nH]6)C=C5)C=C4)cc2)c1)Nc1cc(Cl)c(Cl)cc1Cl
REMARK SMILES IDX 18 1 17 2 16 3 15 4 14 5 13 6 12 7 11 8 9 9 10 10 8 11 4 12
REMARK SMILES IDX 5 13 89 14 6 15 7 16 3 17 1 18 2 19 90 20 91 23 92 24 98 25
REMARK SMILES IDX 93 26 97 27 99 28 94 29 95 30 96 31 19 32 20 33 21 34 22 35
REMARK SMILES IDX 23 36 24 37 25 38 26 39 27 40 88 41 28 42 87 43 29 44 30 45
REMARK SMILES IDX 31 46 81 47 32 48 86 49 80 50 82 51 33 52 85 53 79 54 78 55
REMARK SMILES IDX 34 57 66 58 46 59 65 60 47 61 50 62 64 63 83 64 48 65 49 66
REMARK SMILES IDX 63 68 84 69 51 70 35 71 36 72 44 73 37 74 39 75 45 76 38 77
REMARK SMILES IDX 40 78 41 79 42 80 43 81 67 82 68 83 76 84 69 85 71 86 77 87
REMARK SMILES IDX 70 88 72 89 73 90 74 91 75 92 52 93 53 94 61 95 54 96 56 97
REMARK SMILES IDX 62 98 55 99 57 100 58 101 59 102 60 103
REMARK H PARENT 3 21 90 22 82 56 50 67
REMARK Flexibility Score: inf
ROOT
ATOM      1  C   UNL A   1      35.284  31.222  27.994  1.00  0.00     0.188 C 
ENDROOT
BRANCH   1   2
ATOM      2  O   UNL A   1      34.880  30.022  27.332  1.00  0.00    -0.377 OA
BRANCH   2   3
ATOM      3  C   UNL A   1      33.517  29.861  26.985  1.00  0.00     0.188 C 
BRANCH   3   4
ATOM      4  C   UNL A   1      33.009  28.413  27.110  1.00  0.00     0.188 C 
BRANCH   4   5
ATOM      5  O   UNL A   1      31.823  28.169  26.369  1.00  0.00    -0.376 OA
BRANCH   5   6
ATOM      6  C   UNL A   1      31.905  27.705  25.033  1.00  0.00     0.202 C 
BRANCH   6   7
ATOM      7  C   UNL A   1      33.247  27.570  24.293  1.00  0.00     0.261 C 
BRANCH   7   8
ATOM      8  O   UNL A   1      34.052  26.437  24.622  1.00  0.00    -0.460 OA
BRANCH   8   9
ATOM      9  C   UNL A   1      33.759  25.241  24.081  1.00  0.00     0.338 C 
ATOM     10  O   UNL A   1      33.347  25.016  22.956  1.00  0.00    -0.246 OA
BRANCH   9  11
ATOM     11  C   UNL A   1      34.236  24.213  25.040  1.00  0.00     0.062 A 
ATOM     12  C   UNL A   1      35.788  22.441  25.625  1.00  0.00     0.043 A 
ATOM     13  C   UNL A   1      34.994  22.133  26.735  1.00  0.00     0.026 A 
ATOM     14  C   UNL A   1      35.361  23.435  24.744  1.00  0.00     0.041 A 
ATOM     15  C   UNL A   1      33.850  22.886  27.019  1.00  0.00     0.003 A 
ATOM     16  C   UNL A   1      33.488  23.949  26.191  1.00  0.00     0.016 A 
BRANCH  12  17
ATOM     17  N   UNL A   1      36.988  21.729  25.457  1.00  0.00    -0.308 N 
ATOM     18  O   UNL A   1      39.176  21.273  25.489  1.00  0.00    -0.248 OA
ATOM     19  C   UNL A   1      38.280  22.047  25.810  1.00  0.00     0.323 C 
ATOM     20  N   UNL A   1      38.416  23.119  26.650  1.00  0.00    -0.306 N 
ATOM     21  H   UNL A   1      36.888  20.857  25.010  1.00  0.00     0.171 HD
ATOM     22  H   UNL A   1      37.581  23.463  27.042  1.00  0.00     0.171 HD
BRANCH  20  23
ATOM     23  C   UNL A   1      39.594  23.796  27.030  1.00  0.00     0.063 A 
ATOM     24  C   UNL A   1      39.658  25.133  26.609  1.00  0.00     0.049 A 
ATOM     25  C   UNL A   1      40.675  23.263  27.751  1.00  0.00     0.066 A 
ATOM     26  C   UNL A   1      40.695  25.969  27.027  1.00  0.00     0.061 A 
ATOM     27  C   UNL A   1      41.712  24.107  28.176  1.00  0.00     0.044 A 
ATOM     28  Cl  UNL A   1      40.880  21.570  28.026  1.00  0.00    -0.082 Cl
ATOM     29  Cl  UNL A   1      40.638  27.618  26.506  1.00  0.00    -0.083 Cl
ATOM     30  C   UNL A   1      41.697  25.468  27.858  1.00  0.00     0.061 A 
ATOM     31  Cl  UNL A   1      42.881  26.508  28.562  1.00  0.00    -0.083 Cl
ENDBRANCH  20  23
ENDBRANCH  12  17
ENDBRANCH   9  11
ENDBRANCH   8   9
ENDBRANCH   7   8
ENDBRANCH   6   7
ENDBRANCH   5   6
ENDBRANCH   4   5
ENDBRANCH   3   4
ENDBRANCH   2   3
ENDBRANCH   1   2
BRANCH   1  32
ATOM     32  C   UNL A   1      34.303  32.382  28.300  1.00  0.00     0.188 C 
BRANCH  32  33
ATOM     33  O   UNL A   1      34.862  33.473  29.022  1.00  0.00    -0.376 OA
BRANCH  33  34
ATOM     34  C   UNL A   1      34.718  33.471  30.433  1.00  0.00     0.202 C 
BRANCH  34  35
ATOM     35  C   UNL A   1      36.015  33.263  31.222  1.00  0.00     0.261 C 
BRANCH  35  36
ATOM     36  O   UNL A   1      37.137  34.038  30.776  1.00  0.00    -0.460 OA
BRANCH  36  37
ATOM     37  C   UNL A   1      38.031  34.424  31.713  1.00  0.00     0.338 C 
ATOM     38  O   UNL A   1      37.808  34.683  32.881  1.00  0.00    -0.246 OA
BRANCH  37  39
ATOM     39  C   UNL A   1      39.377  34.295  31.120  1.00  0.00     0.060 A 
ATOM     40  C   UNL A   1      40.487  34.178  31.968  1.00  0.00     0.016 A 
ATOM     41  C   UNL A   1      39.534  34.275  29.733  1.00  0.00     0.016 A 
ATOM     42  C   UNL A   1      41.767  34.081  31.424  1.00  0.00     0.010 A 
ATOM     43  C   UNL A   1      40.818  34.195  29.192  1.00  0.00     0.010 A 
ATOM     44  C   UNL A   1      41.941  34.134  30.035  1.00  0.00    -0.014 A 
BRANCH  44  45
ATOM     45  C   UNL A   1      43.295  34.325  29.464  1.00  0.00     0.031 A 
ATOM     46  C   UNL A   1      43.761  35.728  29.189  1.00  0.00     0.074 A 
ATOM     47  C   UNL A   1      44.091  33.280  29.179  1.00  0.00     0.049 A 
ATOM     48  N   UNL A   1      44.875  36.141  28.646  1.00  0.00    -0.248 NA
ATOM     49  C   UNL A   1      42.840  36.813  29.573  1.00  0.00     0.031 C 
ATOM     50  C   UNL A   1      43.760  31.875  29.405  1.00  0.00     0.029 A 
ATOM     51  N   UNL A   1      45.339  33.247  28.607  1.00  0.00    -0.354 N 
ATOM     52  C   UNL A   1      44.778  37.526  28.591  1.00  0.00     0.074 A 
ATOM     53  C   UNL A   1      43.493  37.884  29.150  1.00  0.00     0.031 C 
ATOM     54  C   UNL A   1      44.770  31.113  28.950  1.00  0.00     0.029 A 
ATOM     55  C   UNL A   1      45.802  31.974  28.374  1.00  0.00     0.049 A 
ATOM     56  H   UNL A   1      45.851  34.058  28.384  1.00  0.00     0.167 HD
ATOM     57  C   UNL A   1      45.680  38.421  28.127  1.00  0.00     0.034 A 
ATOM     58  C   UNL A   1      46.918  31.558  27.743  1.00  0.00     0.034 A 
ATOM     59  C   UNL A   1      46.963  38.067  27.585  1.00  0.00     0.049 A 
ATOM     60  C   UNL A   1      47.886  32.575  27.196  1.00  0.00     0.074 A 
ATOM     61  C   UNL A   1      47.969  38.907  27.141  1.00  0.00     0.029 A 
ATOM     62  N   UNL A   1      47.410  36.770  27.392  1.00  0.00    -0.354 N 
ATOM     63  N   UNL A   1      47.839  33.883  27.261  1.00  0.00    -0.248 NA
ATOM     64  C   UNL A   1      49.079  32.054  26.510  1.00  0.00     0.031 C 
ATOM     65  C   UNL A   1      49.010  38.117  26.644  1.00  0.00     0.029 A 
ATOM     66  C   UNL A   1      48.669  36.784  26.818  1.00  0.00     0.049 A 
ATOM     67  H   UNL A   1      46.906  35.958  27.629  1.00  0.00     0.167 HD
ATOM     68  C   UNL A   1      49.012  34.338  26.669  1.00  0.00     0.074 A 
ATOM     69  C   UNL A   1      49.758  33.167  26.264  1.00  0.00     0.031 C 
ATOM     70  C   UNL A   1      49.429  35.613  26.470  1.00  0.00     0.034 A 
BRANCH  57  71
ATOM     71  C   UNL A   1      45.313  39.879  28.191  1.00  0.00     0.023 A 
ATOM     72  C   UNL A   1      44.489  40.440  27.195  1.00  0.00     0.012 A 
ATOM     73  C   UNL A   1      45.739  40.678  29.269  1.00  0.00     0.148 A 
ATOM     74  C   UNL A   1      44.120  41.783  27.254  1.00  0.00     0.002 A 
ATOM     75  C   UNL A   1      45.329  42.002  29.346  1.00  0.00     0.091 A 
ATOM     76  F   UNL A   1      46.543  40.130  30.192  1.00  0.00    -0.205 F 
ATOM     77  C   UNL A   1      44.530  42.560  28.334  1.00  0.00     0.022 A 
BRANCH  75  78
ATOM     78  S   UNL A   1      45.736  43.061  30.738  1.00  0.00     0.127 S 
ATOM     79  O   UNL A   1      47.196  43.091  30.668  1.00  0.00    -0.237 OA
ATOM     80  O   UNL A   1      45.082  44.317  30.370  1.00  0.00    -0.237 OA
ATOM     81  O   UNL A   1      45.181  42.409  31.916  1.00  0.00    -0.744 OA
ENDBRANCH  75  78
ENDBRANCH  57  71
BRANCH  58  82
ATOM     82  C   UNL A   1      47.200  30.104  27.599  1.00  0.00     0.023 A 
ATOM     83  C   UNL A   1      47.888  29.423  28.623  1.00  0.00     0.012 A 
ATOM     84  C   UNL A   1      46.797  29.397  26.452  1.00  0.00     0.148 A 
ATOM     85  C   UNL A   1      48.207  28.071  28.489  1.00  0.00     0.002 A 
ATOM     86  C   UNL A   1      47.059  28.038  26.356  1.00  0.00     0.091 A 
ATOM     87  F   UNL A   1      46.151  30.065  25.486  1.00  0.00    -0.205 F 
ATOM     88  C   UNL A   1      47.784  27.377  27.360  1.00  0.00     0.022 A 
BRANCH  86  89
ATOM     89  S   UNL A   1      46.401  27.021  25.039  1.00  0.00     0.127 S 
ATOM     90  O   UNL A   1      46.904  27.698  23.848  1.00  0.00    -0.237 OA
ATOM     91  O   UNL A   1      47.028  25.736  25.343  1.00  0.00    -0.237 OA
ATOM     92  O   UNL A   1      44.953  27.034  25.196  1.00  0.00    -0.744 OA
ENDBRANCH  86  89
ENDBRANCH  58  82
BRANCH  70  93
ATOM     93  C   UNL A   1      50.781  35.820  25.838  1.00  0.00     0.023 A 
ATOM     94  C   UNL A   1      50.889  36.032  24.449  1.00  0.00     0.012 A 
ATOM     95  C   UNL A   1      51.939  35.882  26.638  1.00  0.00     0.148 A 
ATOM     96  C   UNL A   1      52.132  36.267  23.862  1.00  0.00     0.002 A 
ATOM     97  C   UNL A   1      53.167  36.171  26.055  1.00  0.00     0.091 A 
ATOM     98  F   UNL A   1      51.818  35.663  27.956  1.00  0.00    -0.205 F 
ATOM     99  C   UNL A   1      53.268  36.349  24.666  1.00  0.00     0.022 A 
BRANCH  97 100
ATOM    100  S   UNL A   1      54.664  36.396  27.022  1.00  0.00     0.127 S 
ATOM    101  O   UNL A   1      55.531  37.088  26.070  1.00  0.00    -0.237 OA
ATOM    102  O   UNL A   1      54.193  37.224  28.133  1.00  0.00    -0.237 OA
ATOM    103  O   UNL A   1      55.100  35.061  27.406  1.00  0.00    -0.744 OA
ENDBRANCH  97 100
ENDBRANCH  70  93
ENDBRANCH  44  45
ENDBRANCH  37  39
ENDBRANCH  36  37
ENDBRANCH  35  36
ENDBRANCH  34  35
ENDBRANCH  33  34
ENDBRANCH  32  33
ENDBRANCH   1  32
TORSDOF 25
ENDMDL
MODEL 3
REMARK VINA RESULT:      -8.3      6.681     12.251
REMARK SMILES O=C(Nc1cccc(C(=O)OCCOCCOCCOCCOC(=O)c2ccc(-c3c4nc(c(-c5cccc(S(=O)(=O)[O-])c5F)c5ccc([nH]5)c(-c5cccc(S(=O)(=O)[O-])c5F)c5nc(c(-c6cccc(S(=O)(=O)[O-])c6F)c6ccc3[nH]6)C=C5)C=C4)cc2)c1)Nc1cc(Cl)c(Cl)cc1Cl
REMARK SMILES IDX 18 1 17 2 16 3 15 4 14 5 13 6 12 7 11 8 9 9 10 10 8 11 4 12
REMARK SMILES IDX 5 13 89 14 6 15 7 16 3 17 1 18 2 19 90 20 91 23 92 24 98 25
REMARK SMILES IDX 93 26 97 27 99 28 94 29 95 30 96 31 19 32 20 33 21 34 22 35
REMARK SMILES IDX 23 36 24 37 25 38 26 39 27 40 88 41 28 42 87 43 29 44 30 45
REMARK SMILES IDX 31 46 81 47 32 48 86 49 80 50 82 51 33 52 85 53 79 54 78 55
REMARK SMILES IDX 34 57 66 58 46 59 65 60 47 61 50 62 64 63 83 64 48 65 49 66
REMARK SMILES IDX 63 68 84 69 51 70 35 71 36 72 44 73 37 74 39 75 45 76 38 77
REMARK SMILES IDX 40 78 41 79 42 80 43 81 67 82 68 83 76 84 69 85 71 86 77 87
REMARK SMILES IDX 70 88 72 89 73 90 74 91 75 92 52 93 53 94 61 95 54 96 56 97
REMARK SMILES IDX 62 98 55 99 57 100 58 101 59 102 60 103
REMARK H PARENT 3 21 90 22 82 56 50 67
REMARK Flexibility Score: inf
ROOT
ATOM      1  C   UNL A   1      37.473  32.314  39.037  1.00  0.00     0.188 C 
ENDROOT
BRANCH   1   2
ATOM      2  O   UNL A   1      37.816  32.231  37.652  1.00  0.00    -0.377 OA
BRANCH   2   3
ATOM      3  C   UNL A   1      37.801  33.414  36.874  1.00  0.00     0.188 C 
BRANCH   3   4
ATOM      4  C   UNL A   1      37.137  33.246  35.495  1.00  0.00     0.188 C 
BRANCH   4   5
ATOM      5  O   UNL A   1      35.784  33.672  35.470  1.00  0.00    -0.376 OA
BRANCH   5   6
ATOM      6  C   UNL A   1      35.055  33.645  34.254  1.00  0.00     0.202 C 
BRANCH   6   7
ATOM      7  C   UNL A   1      35.395  32.668  33.117  1.00  0.00     0.261 C 
BRANCH   7   8
ATOM      8  O   UNL A   1      36.056  33.214  31.975  1.00  0.00    -0.460 OA
BRANCH   8   9
ATOM      9  C   UNL A   1      36.862  34.282  32.128  1.00  0.00     0.338 C 
ATOM     10  O   UNL A   1      36.660  35.271  32.811  1.00  0.00    -0.246 OA
BRANCH   9  11
ATOM     11  C   UNL A   1      38.151  33.939  31.478  1.00  0.00     0.062 A 
ATOM     12  C   UNL A   1      40.161  32.583  31.376  1.00  0.00     0.043 A 
ATOM     13  C   UNL A   1      40.673  33.442  30.398  1.00  0.00     0.026 A 
ATOM     14  C   UNL A   1      38.930  32.882  31.961  1.00  0.00     0.041 A 
ATOM     15  C   UNL A   1      39.912  34.518  29.932  1.00  0.00     0.003 A 
ATOM     16  C   UNL A   1      38.635  34.749  30.446  1.00  0.00     0.016 A 
BRANCH  12  17
ATOM     17  N   UNL A   1      40.919  31.450  31.720  1.00  0.00    -0.308 N 
ATOM     18  O   UNL A   1      41.740  29.373  31.631  1.00  0.00    -0.248 OA
ATOM     19  C   UNL A   1      41.058  30.235  31.087  1.00  0.00     0.323 C 
ATOM     20  N   UNL A   1      40.563  30.172  29.813  1.00  0.00    -0.306 N 
ATOM     21  H   UNL A   1      41.438  31.540  32.552  1.00  0.00     0.171 HD
ATOM     22  H   UNL A   1      40.296  31.033  29.416  1.00  0.00     0.171 HD
BRANCH  20  23
ATOM     23  C   UNL A   1      40.385  29.039  28.993  1.00  0.00     0.063 A 
ATOM     24  C   UNL A   1      41.055  29.101  27.760  1.00  0.00     0.049 A 
ATOM     25  C   UNL A   1      39.609  27.904  29.282  1.00  0.00     0.066 A 
ATOM     26  C   UNL A   1      41.087  27.999  26.904  1.00  0.00     0.061 A 
ATOM     27  C   UNL A   1      39.650  26.796  28.423  1.00  0.00     0.044 A 
ATOM     28  Cl  UNL A   1      38.475  27.846  30.584  1.00  0.00    -0.082 Cl
ATOM     29  Cl  UNL A   1      42.002  28.161  25.444  1.00  0.00    -0.083 Cl
ATOM     30  C   UNL A   1      40.427  26.823  27.261  1.00  0.00     0.061 A 
ATOM     31  Cl  UNL A   1      40.606  25.378  26.336  1.00  0.00    -0.083 Cl
ENDBRANCH  20  23
ENDBRANCH  12  17
ENDBRANCH   9  11
ENDBRANCH   8   9
ENDBRANCH   7   8
ENDBRANCH   6   7
ENDBRANCH   5   6
ENDBRANCH   4   5
ENDBRANCH   3   4
ENDBRANCH   2   3
ENDBRANCH   1   2
BRANCH   1  32
ATOM     32  C   UNL A   1      38.515  32.618  40.142  1.00  0.00     0.188 C 
BRANCH  32  33
ATOM     33  O   UNL A   1      39.027  33.945  40.143  1.00  0.00    -0.376 OA
BRANCH  33  34
ATOM     34  C   UNL A   1      39.704  34.388  41.307  1.00  0.00     0.202 C 
BRANCH  34  35
ATOM     35  C   UNL A   1      41.224  34.536  41.164  1.00  0.00     0.261 C 
BRANCH  35  36
ATOM     36  O   UNL A   1      41.807  33.835  40.058  1.00  0.00    -0.460 OA
BRANCH  36  37
ATOM     37  C   UNL A   1      42.120  34.562  38.962  1.00  0.00     0.338 C 
ATOM     38  O   UNL A   1      42.221  35.773  38.886  1.00  0.00    -0.246 OA
BRANCH  37  39
ATOM     39  C   UNL A   1      42.507  33.616  37.898  1.00  0.00     0.060 A 
ATOM     40  C   UNL A   1      43.864  33.326  37.705  1.00  0.00     0.016 A 
ATOM     41  C   UNL A   1      41.529  33.011  37.106  1.00  0.00     0.016 A 
ATOM     42  C   UNL A   1      44.249  32.454  36.687  1.00  0.00     0.010 A 
ATOM     43  C   UNL A   1      41.918  32.152  36.077  1.00  0.00     0.010 A 
ATOM     44  C   UNL A   1      43.280  31.899  35.841  1.00  0.00    -0.014 A 
BRANCH  44  45
ATOM     45  C   UNL A   1      43.691  31.214  34.593  1.00  0.00     0.031 A 
ATOM     46  C   UNL A   1      43.917  29.728  34.637  1.00  0.00     0.074 A 
ATOM     47  C   UNL A   1      43.877  31.892  33.447  1.00  0.00     0.049 A 
ATOM     48  N   UNL A   1      44.328  28.923  33.694  1.00  0.00    -0.248 NA
ATOM     49  C   UNL A   1      43.647  29.061  35.923  1.00  0.00     0.031 C 
ATOM     50  C   UNL A   1      43.685  33.331  33.272  1.00  0.00     0.029 A 
ATOM     51  N   UNL A   1      44.301  31.454  32.217  1.00  0.00    -0.354 N 
ATOM     52  C   UNL A   1      44.401  27.663  34.277  1.00  0.00     0.074 A 
ATOM     53  C   UNL A   1      43.996  27.811  35.658  1.00  0.00     0.031 C 
ATOM     54  C   UNL A   1      44.016  33.661  32.012  1.00  0.00     0.029 A 
ATOM     55  C   UNL A   1      44.472  32.466  31.303  1.00  0.00     0.049 A 
ATOM     56  H   UNL A   1      44.466  30.505  32.010  1.00  0.00     0.167 HD
ATOM     57  C   UNL A   1      44.761  26.488  33.713  1.00  0.00     0.034 A 
ATOM     58  C   UNL A   1      44.968  32.431  30.050  1.00  0.00     0.034 A 
ATOM     59  C   UNL A   1      45.148  26.338  32.337  1.00  0.00     0.049 A 
ATOM     60  C   UNL A   1      45.404  31.114  29.460  1.00  0.00     0.074 A 
ATOM     61  C   UNL A   1      45.476  25.176  31.660  1.00  0.00     0.029 A 
ATOM     62  N   UNL A   1      45.283  27.380  31.435  1.00  0.00    -0.354 N 
ATOM     63  N   UNL A   1      45.350  29.914  29.982  1.00  0.00    -0.248 NA
ATOM     64  C   UNL A   1      45.944  31.146  28.092  1.00  0.00     0.031 C 
ATOM     65  C   UNL A   1      45.846  25.522  30.357  1.00  0.00     0.029 A 
ATOM     66  C   UNL A   1      45.707  26.893  30.211  1.00  0.00     0.049 A 
ATOM     67  H   UNL A   1      45.102  28.327  31.635  1.00  0.00     0.167 HD
ATOM     68  C   UNL A   1      45.804  29.046  28.995  1.00  0.00     0.074 A 
ATOM     69  C   UNL A   1      46.115  29.856  27.837  1.00  0.00     0.031 C 
ATOM     70  C   UNL A   1      45.959  27.700  29.047  1.00  0.00     0.034 A 
BRANCH  57  71
ATOM     71  C   UNL A   1      44.747  25.262  34.586  1.00  0.00     0.023 A 
ATOM     72  C   UNL A   1      43.601  24.441  34.624  1.00  0.00     0.012 A 
ATOM     73  C   UNL A   1      45.888  24.894  35.323  1.00  0.00     0.148 A 
ATOM     74  C   UNL A   1      43.582  23.289  35.409  1.00  0.00     0.002 A 
ATOM     75  C   UNL A   1      45.877  23.721  36.066  1.00  0.00     0.091 A 
ATOM     76  F   UNL A   1      46.957  25.703  35.292  1.00  0.00    -0.205 F 
ATOM     77  C   UNL A   1      44.722  22.923  36.119  1.00  0.00     0.022 A 
BRANCH  75  78
ATOM     78  S   UNL A   1      47.322  23.121  36.948  1.00  0.00     0.127 S 
ATOM     79  O   UNL A   1      46.722  22.171  37.884  1.00  0.00    -0.237 OA
ATOM     80  O   UNL A   1      48.104  22.508  35.875  1.00  0.00    -0.237 OA
ATOM     81  O   UNL A   1      47.937  24.292  37.557  1.00  0.00    -0.744 OA
ENDBRANCH  75  78
ENDBRANCH  57  71
BRANCH  58  82
ATOM     82  C   UNL A   1      45.072  33.680  29.248  1.00  0.00     0.023 A 
ATOM     83  C   UNL A   1      46.279  34.407  29.243  1.00  0.00     0.012 A 
ATOM     84  C   UNL A   1      43.980  34.154  28.499  1.00  0.00     0.148 A 
ATOM     85  C   UNL A   1      46.385  35.605  28.538  1.00  0.00     0.002 A 
ATOM     86  C   UNL A   1      44.114  35.312  27.748  1.00  0.00     0.091 A 
ATOM     87  F   UNL A   1      42.838  33.453  28.524  1.00  0.00    -0.205 F 
ATOM     88  C   UNL A   1      45.306  36.054  27.784  1.00  0.00     0.022 A 
BRANCH  86  89
ATOM     89  S   UNL A   1      42.855  35.870  26.605  1.00  0.00     0.127 S 
ATOM     90  O   UNL A   1      41.635  35.702  27.387  1.00  0.00    -0.237 OA
ATOM     91  O   UNL A   1      43.275  37.254  26.386  1.00  0.00    -0.237 OA
ATOM     92  O   UNL A   1      42.963  35.017  25.429  1.00  0.00    -0.744 OA
ENDBRANCH  86  89
ENDBRANCH  58  82
BRANCH  70  93
ATOM     93  C   UNL A   1      46.431  26.998  27.800  1.00  0.00     0.023 A 
ATOM     94  C   UNL A   1      47.776  27.103  27.393  1.00  0.00     0.012 A 
ATOM     95  C   UNL A   1      45.553  26.169  27.074  1.00  0.00     0.148 A 
ATOM     96  C   UNL A   1      48.230  26.421  26.264  1.00  0.00     0.002 A 
ATOM     97  C   UNL A   1      46.024  25.451  25.982  1.00  0.00     0.091 A 
ATOM     98  F   UNL A   1      44.272  26.095  27.466  1.00  0.00    -0.205 F 
ATOM     99  C   UNL A   1      47.360  25.586  25.567  1.00  0.00     0.022 A 
BRANCH  97 100
ATOM    100  S   UNL A   1      45.003  24.276  25.086  1.00  0.00     0.127 S 
ATOM    101  O   UNL A   1      43.866  25.108  24.696  1.00  0.00    -0.237 OA
ATOM    102  O   UNL A   1      45.880  23.884  23.981  1.00  0.00    -0.237 OA
ATOM    103  O   UNL A   1      44.700  23.206  26.026  1.00  0.00    -0.744 OA
ENDBRANCH  97 100
ENDBRANCH  70  93
ENDBRANCH  44  45
ENDBRANCH  37  39
ENDBRANCH  36  37
ENDBRANCH  35  36
ENDBRANCH  34  35
ENDBRANCH  33  34
ENDBRANCH  32  33
ENDBRANCH   1  32
TORSDOF 25
ENDMDL
