MODEL 1
REMARK VINA RESULT:      -8.8      0.000      0.000
REMARK SMILES Cc1cccc([C@@H](CC(=O)OCCOCCOCCOCCOC(=O)c2ccc(-c3c4nc(c(-c5cccc(S(=O)(=O)[O-])c5F)c5ccc([nH]5)c(-c5cccc(S(=O)(=O)[O-])c5F)c5nc(c(-c6cccc(S(=O)(=O)[O-])c6F)c6ccc3[nH]6)C=C5)C=C4)cc2)NC(=O)OC(C)(C)C)c1
REMARK SMILES IDX 16 1 15 2 14 3 13 4 12 5 11 6 9 7 10 8 8 9 7 10 6 11 1 12
REMARK SMILES IDX 2 13 3 14 97 15 4 16 5 17 89 18 90 19 91 21 92 22 93 23
REMARK SMILES IDX 94 24 95 25 96 26 17 27 18 28 19 29 20 30 21 31 22 32 23 33
REMARK SMILES IDX 24 34 25 35 26 36 27 37 88 38 28 39 87 40 29 41 30 42 31 43
REMARK SMILES IDX 81 44 32 45 86 46 80 47 82 48 33 49 85 50 79 51 78 52 34 54
REMARK SMILES IDX 66 55 46 56 65 57 47 58 50 59 64 60 83 61 48 62 49 63 63 65
REMARK SMILES IDX 84 66 51 67 35 68 36 69 44 70 37 71 39 72 45 73 38 74 40 75
REMARK SMILES IDX 41 76 42 77 43 78 67 79 68 80 76 81 69 82 71 83 77 84 70 85
REMARK SMILES IDX 72 86 73 87 74 88 75 89 52 90 53 91 61 92 54 93 56 94 62 95
REMARK SMILES IDX 55 96 57 97 58 98 59 99 60 100
REMARK H PARENT 89 20 82 53 50 64
REMARK Flexibility Score: inf
ROOT
ATOM      1  C   UNL A   1      37.693  31.615  30.694  1.00  0.00     0.188 C 
ENDROOT
BRANCH   1   2
ATOM      2  C   UNL A   1      37.819  31.259  29.212  1.00  0.00     0.188 C 
BRANCH   2   3
ATOM      3  O   UNL A   1      36.800  31.680  28.339  1.00  0.00    -0.376 OA
BRANCH   3   4
ATOM      4  C   UNL A   1      35.569  31.021  28.559  1.00  0.00     0.202 C 
BRANCH   4   5
ATOM      5  C   UNL A   1      35.319  29.679  27.892  1.00  0.00     0.261 C 
BRANCH   5   6
ATOM      6  O   UNL A   1      34.107  29.821  27.073  1.00  0.00    -0.463 OA
BRANCH   6   7
ATOM      7  C   UNL A   1      33.187  28.897  26.785  1.00  0.00     0.308 C 
ATOM      8  O   UNL A   1      32.003  29.021  27.089  1.00  0.00    -0.252 OA
BRANCH   7   9
ATOM      9  C   UNL A   1      33.762  27.600  26.128  1.00  0.00     0.152 C 
BRANCH   9  10
ATOM     10  C   UNL A   1      33.215  26.056  26.082  1.00  0.00     0.127 C 
BRANCH  10  11
ATOM     11  C   UNL A   1      33.753  24.723  25.140  1.00  0.00    -0.025 A 
ATOM     12  C   UNL A   1      37.670  23.066  26.093  1.00  0.00     0.044 C 
ATOM     13  C   UNL A   1      36.645  23.581  25.088  1.00  0.00    -0.051 A 
ATOM     14  C   UNL A   1      36.469  22.985  23.420  1.00  0.00     0.003 A 
ATOM     15  C   UNL A   1      35.387  24.494  25.863  1.00  0.00     0.009 A 
ATOM     16  C   UNL A   1      34.923  23.284  22.465  1.00  0.00     0.001 A 
ATOM     17  C   UNL A   1      33.447  23.991  23.406  1.00  0.00     0.006 A 
ENDBRANCH  10  11
BRANCH  10  18
ATOM     18  N   UNL A   1      31.872  25.793  26.518  1.00  0.00    -0.314 N 
ATOM     19  C   UNL A   1      30.613  25.979  26.076  1.00  0.00     0.408 C 
ATOM     20  H   UNL A   1      31.871  25.346  27.395  1.00  0.00     0.167 HD
ATOM     21  O   UNL A   1      29.733  25.282  26.571  1.00  0.00    -0.225 OA
BRANCH  19  22
ATOM     22  O   UNL A   1      30.401  26.946  25.148  1.00  0.00    -0.444 OA
BRANCH  22  23
ATOM     23  C   UNL A   1      29.786  26.496  23.899  1.00  0.00     0.106 C 
ATOM     24  C   UNL A   1      30.258  25.088  23.490  1.00  0.00     0.056 C 
ATOM     25  C   UNL A   1      28.246  26.570  23.978  1.00  0.00     0.056 C 
ATOM     26  C   UNL A   1      30.231  27.484  22.810  1.00  0.00     0.056 C 
ENDBRANCH  22  23
ENDBRANCH  19  22
ENDBRANCH  10  18
ENDBRANCH   9  10
ENDBRANCH   7   9
ENDBRANCH   6   7
ENDBRANCH   5   6
ENDBRANCH   4   5
ENDBRANCH   3   4
ENDBRANCH   2   3
ENDBRANCH   1   2
BRANCH   1  27
ATOM     27  O   UNL A   1      37.224  30.625  31.604  1.00  0.00    -0.377 OA
BRANCH  27  28
ATOM     28  C   UNL A   1      36.965  31.077  32.914  1.00  0.00     0.188 C 
BRANCH  28  29
ATOM     29  C   UNL A   1      37.232  32.483  33.301  1.00  0.00     0.188 C 
BRANCH  29  30
ATOM     30  O   UNL A   1      37.022  32.376  34.694  1.00  0.00    -0.376 OA
BRANCH  30  31
ATOM     31  C   UNL A   1      37.793  31.387  35.287  1.00  0.00     0.202 C 
BRANCH  31  32
ATOM     32  C   UNL A   1      38.731  32.077  36.253  1.00  0.00     0.261 C 
BRANCH  32  33
ATOM     33  O   UNL A   1      39.855  31.151  36.567  1.00  0.00    -0.460 OA
BRANCH  33  34
ATOM     34  C   UNL A   1      40.636  30.322  35.778  1.00  0.00     0.338 C 
ATOM     35  O   UNL A   1      40.519  29.106  35.926  1.00  0.00    -0.246 OA
BRANCH  34  36
ATOM     36  C   UNL A   1      41.357  30.812  34.512  1.00  0.00     0.060 A 
ATOM     37  C   UNL A   1      42.761  30.858  34.418  1.00  0.00     0.016 A 
ATOM     38  C   UNL A   1      40.728  31.180  33.344  1.00  0.00     0.016 A 
ATOM     39  C   UNL A   1      43.457  31.711  33.490  1.00  0.00     0.010 A 
ATOM     40  C   UNL A   1      41.441  31.931  32.362  1.00  0.00     0.010 A 
ATOM     41  C   UNL A   1      42.754  32.449  32.547  1.00  0.00    -0.014 A 
BRANCH  41  42
ATOM     42  C   UNL A   1      43.303  33.582  31.611  1.00  0.00     0.031 A 
ATOM     43  C   UNL A   1      42.897  34.933  32.136  1.00  0.00     0.074 A 
ATOM     44  C   UNL A   1      44.354  33.546  30.666  1.00  0.00     0.049 A 
ATOM     45  N   UNL A   1      43.299  36.037  31.632  1.00  0.00    -0.248 NA
ATOM     46  C   UNL A   1      42.269  35.156  33.442  1.00  0.00     0.031 C 
ATOM     47  C   UNL A   1      45.182  34.493  29.895  1.00  0.00     0.029 A 
ATOM     48  N   UNL A   1      45.161  32.513  30.252  1.00  0.00    -0.354 N 
ATOM     49  C   UNL A   1      43.489  36.934  32.671  1.00  0.00     0.074 A 
ATOM     50  C   UNL A   1      42.751  36.364  33.770  1.00  0.00     0.031 C 
ATOM     51  C   UNL A   1      45.950  33.967  28.880  1.00  0.00     0.029 A 
ATOM     52  C   UNL A   1      45.591  32.575  28.844  1.00  0.00     0.049 A 
ATOM     53  H   UNL A   1      45.432  31.784  30.854  1.00  0.00     0.167 HD
ATOM     54  C   UNL A   1      44.422  37.920  32.482  1.00  0.00     0.034 A 
ATOM     55  C   UNL A   1      45.184  31.558  27.779  1.00  0.00     0.034 A 
ATOM     56  C   UNL A   1      44.958  37.855  31.048  1.00  0.00     0.049 A 
ATOM     57  C   UNL A   1      44.313  33.054  27.087  1.00  0.00     0.074 A 
ATOM     58  C   UNL A   1      46.206  37.827  30.435  1.00  0.00     0.029 A 
ATOM     59  N   UNL A   1      44.066  37.526  29.988  1.00  0.00    -0.354 N 
ATOM     60  N   UNL A   1      43.843  34.089  27.820  1.00  0.00    -0.248 NA
ATOM     61  C   UNL A   1      44.098  33.451  25.682  1.00  0.00     0.031 C 
ATOM     62  C   UNL A   1      46.050  37.374  29.069  1.00  0.00     0.029 A 
ATOM     63  C   UNL A   1      44.709  37.031  28.834  1.00  0.00     0.049 A 
ATOM     64  H   UNL A   1      43.090  37.634  30.053  1.00  0.00     0.167 HD
ATOM     65  C   UNL A   1      43.776  35.300  27.124  1.00  0.00     0.074 A 
ATOM     66  C   UNL A   1      43.676  34.744  25.769  1.00  0.00     0.031 C 
ATOM     67  C   UNL A   1      43.928  36.635  27.610  1.00  0.00     0.034 A 
BRANCH  54  68
ATOM     68  C   UNL A   1      45.036  38.835  33.599  1.00  0.00     0.023 A 
ATOM     69  C   UNL A   1      46.071  38.258  34.372  1.00  0.00     0.012 A 
ATOM     70  C   UNL A   1      44.744  40.194  33.948  1.00  0.00     0.148 A 
ATOM     71  C   UNL A   1      46.774  38.926  35.387  1.00  0.00     0.002 A 
ATOM     72  C   UNL A   1      45.474  40.883  34.953  1.00  0.00     0.091 A 
ATOM     73  F   UNL A   1      43.778  40.859  33.310  1.00  0.00    -0.205 F 
ATOM     74  C   UNL A   1      46.489  40.244  35.667  1.00  0.00     0.022 A 
BRANCH  72  75
ATOM     75  S   UNL A   1      45.236  42.624  35.407  1.00  0.00     0.127 S 
ATOM     76  O   UNL A   1      46.316  42.850  36.372  1.00  0.00    -0.237 OA
ATOM     77  O   UNL A   1      45.429  43.308  34.128  1.00  0.00    -0.237 OA
ATOM     78  O   UNL A   1      43.897  42.719  35.972  1.00  0.00    -0.744 OA
ENDBRANCH  72  75
ENDBRANCH  54  68
BRANCH  55  79
ATOM     79  C   UNL A   1      44.621  29.480  27.983  1.00  0.00     0.023 A 
ATOM     80  C   UNL A   1      44.732  28.507  29.173  1.00  0.00     0.012 A 
ATOM     81  C   UNL A   1      43.280  28.712  27.279  1.00  0.00     0.148 A 
ATOM     82  C   UNL A   1      43.706  27.620  29.727  1.00  0.00     0.002 A 
ATOM     83  C   UNL A   1      42.284  27.891  27.876  1.00  0.00     0.091 A 
ATOM     84  F   UNL A   1      42.909  28.958  25.999  1.00  0.00    -0.205 F 
ATOM     85  C   UNL A   1      42.475  27.392  29.137  1.00  0.00     0.022 A 
BRANCH  83  86
ATOM     86  S   UNL A   1      40.552  27.847  27.250  1.00  0.00     0.127 S 
ATOM     87  O   UNL A   1      40.337  29.212  26.782  1.00  0.00    -0.237 OA
ATOM     88  O   UNL A   1      40.702  26.863  26.180  1.00  0.00    -0.237 OA
ATOM     89  O   UNL A   1      39.696  27.419  28.350  1.00  0.00    -0.744 OA
ENDBRANCH  83  86
ENDBRANCH  55  79
BRANCH  67  90
ATOM     90  C   UNL A   1      43.355  37.925  26.973  1.00  0.00     0.023 A 
ATOM     91  C   UNL A   1      42.004  38.239  27.018  1.00  0.00     0.012 A 
ATOM     92  C   UNL A   1      44.220  38.973  26.473  1.00  0.00     0.148 A 
ATOM     93  C   UNL A   1      41.545  39.514  26.660  1.00  0.00     0.002 A 
ATOM     94  C   UNL A   1      43.785  40.267  26.266  1.00  0.00     0.091 A 
ATOM     95  F   UNL A   1      45.478  38.727  26.091  1.00  0.00    -0.205 F 
ATOM     96  C   UNL A   1      42.432  40.540  26.345  1.00  0.00     0.022 A 
BRANCH  94  97
ATOM     97  S   UNL A   1      44.941  41.612  25.942  1.00  0.00     0.127 S 
ATOM     98  O   UNL A   1      46.083  41.217  26.763  1.00  0.00    -0.237 OA
ATOM     99  O   UNL A   1      45.149  41.488  24.499  1.00  0.00    -0.237 OA
ATOM    100  O   UNL A   1      44.264  42.838  26.344  1.00  0.00    -0.744 OA
ENDBRANCH  94  97
ENDBRANCH  67  90
ENDBRANCH  41  42
ENDBRANCH  34  36
ENDBRANCH  33  34
ENDBRANCH  32  33
ENDBRANCH  31  32
ENDBRANCH  30  31
ENDBRANCH  29  30
ENDBRANCH  28  29
ENDBRANCH  27  28
ENDBRANCH   1  27
TORSDOF 28
ENDMDL
MODEL 2
REMARK VINA RESULT:      -8.3      1.221      2.969
REMARK SMILES Cc1cccc([C@@H](CC(=O)OCCOCCOCCOCCOC(=O)c2ccc(-c3c4nc(c(-c5cccc(S(=O)(=O)[O-])c5F)c5ccc([nH]5)c(-c5cccc(S(=O)(=O)[O-])c5F)c5nc(c(-c6cccc(S(=O)(=O)[O-])c6F)c6ccc3[nH]6)C=C5)C=C4)cc2)NC(=O)OC(C)(C)C)c1
REMARK SMILES IDX 16 1 15 2 14 3 13 4 12 5 11 6 9 7 10 8 8 9 7 10 6 11 1 12
REMARK SMILES IDX 2 13 3 14 97 15 4 16 5 17 89 18 90 19 91 21 92 22 93 23
REMARK SMILES IDX 94 24 95 25 96 26 17 27 18 28 19 29 20 30 21 31 22 32 23 33
REMARK SMILES IDX 24 34 25 35 26 36 27 37 88 38 28 39 87 40 29 41 30 42 31 43
REMARK SMILES IDX 81 44 32 45 86 46 80 47 82 48 33 49 85 50 79 51 78 52 34 54
REMARK SMILES IDX 66 55 46 56 65 57 47 58 50 59 64 60 83 61 48 62 49 63 63 65
REMARK SMILES IDX 84 66 51 67 35 68 36 69 44 70 37 71 39 72 45 73 38 74 40 75
REMARK SMILES IDX 41 76 42 77 43 78 67 79 68 80 76 81 69 82 71 83 77 84 70 85
REMARK SMILES IDX 72 86 73 87 74 88 75 89 52 90 53 91 61 92 54 93 56 94 62 95
REMARK SMILES IDX 55 96 57 97 58 98 59 99 60 100
REMARK H PARENT 89 20 82 53 50 64
REMARK Flexibility Score: inf
ROOT
ATOM      1  C   UNL A   1      37.456  31.922  30.739  1.00  0.00     0.188 C 
ENDROOT
BRANCH   1   2
ATOM      2  C   UNL A   1      37.613  31.540  29.267  1.00  0.00     0.188 C 
BRANCH   2   3
ATOM      3  O   UNL A   1      36.710  32.088  28.339  1.00  0.00    -0.376 OA
BRANCH   3   4
ATOM      4  C   UNL A   1      35.470  31.412  28.302  1.00  0.00     0.202 C 
BRANCH   4   5
ATOM      5  C   UNL A   1      35.414  29.997  27.752  1.00  0.00     0.261 C 
BRANCH   5   6
ATOM      6  O   UNL A   1      34.424  29.993  26.665  1.00  0.00    -0.463 OA
BRANCH   6   7
ATOM      7  C   UNL A   1      33.520  29.056  26.369  1.00  0.00     0.308 C 
ATOM      8  O   UNL A   1      33.377  28.036  27.038  1.00  0.00    -0.252 OA
BRANCH   7   9
ATOM      9  C   UNL A   1      32.734  29.317  25.043  1.00  0.00     0.152 C 
BRANCH   9  10
ATOM     10  C   UNL A   1      32.260  28.319  23.833  1.00  0.00     0.127 C 
BRANCH  10  11
ATOM     11  C   UNL A   1      30.684  27.795  23.389  1.00  0.00    -0.025 A 
ATOM     12  C   UNL A   1      28.054  30.742  21.545  1.00  0.00     0.044 C 
ATOM     13  C   UNL A   1      28.319  29.639  22.564  1.00  0.00    -0.051 A 
ATOM     14  C   UNL A   1      27.102  28.476  23.141  1.00  0.00     0.003 A 
ATOM     15  C   UNL A   1      30.019  29.354  22.777  1.00  0.00     0.009 A 
ATOM     16  C   UNL A   1      27.606  26.902  23.954  1.00  0.00     0.001 A 
ATOM     17  C   UNL A   1      29.437  26.447  23.901  1.00  0.00     0.006 A 
ENDBRANCH  10  11
BRANCH  10  18
ATOM     18  N   UNL A   1      33.216  27.390  23.297  1.00  0.00    -0.314 N 
ATOM     19  C   UNL A   1      33.315  26.068  23.064  1.00  0.00     0.408 C 
ATOM     20  H   UNL A   1      34.037  27.857  23.020  1.00  0.00     0.167 HD
ATOM     21  O   UNL A   1      34.158  25.701  22.250  1.00  0.00    -0.225 OA
BRANCH  19  22
ATOM     22  O   UNL A   1      32.510  25.235  23.769  1.00  0.00    -0.444 OA
BRANCH  22  23
ATOM     23  C   UNL A   1      33.118  24.622  24.950  1.00  0.00     0.106 C 
ATOM     24  C   UNL A   1      32.238  24.771  26.204  1.00  0.00     0.056 C 
ATOM     25  C   UNL A   1      33.475  23.142  24.688  1.00  0.00     0.056 C 
ATOM     26  C   UNL A   1      34.438  25.367  25.201  1.00  0.00     0.056 C 
ENDBRANCH  22  23
ENDBRANCH  19  22
ENDBRANCH  10  18
ENDBRANCH   9  10
ENDBRANCH   7   9
ENDBRANCH   6   7
ENDBRANCH   5   6
ENDBRANCH   4   5
ENDBRANCH   3   4
ENDBRANCH   2   3
ENDBRANCH   1   2
BRANCH   1  27
ATOM     27  O   UNL A   1      36.762  31.036  31.611  1.00  0.00    -0.377 OA
BRANCH  27  28
ATOM     28  C   UNL A   1      36.641  31.468  32.947  1.00  0.00     0.188 C 
BRANCH  28  29
ATOM     29  C   UNL A   1      37.202  32.770  33.380  1.00  0.00     0.188 C 
BRANCH  29  30
ATOM     30  O   UNL A   1      37.022  32.639  34.775  1.00  0.00    -0.376 OA
BRANCH  30  31
ATOM     31  C   UNL A   1      37.800  31.636  35.333  1.00  0.00     0.202 C 
BRANCH  31  32
ATOM     32  C   UNL A   1      38.819  32.310  36.226  1.00  0.00     0.261 C 
BRANCH  32  33
ATOM     33  O   UNL A   1      39.891  31.328  36.550  1.00  0.00    -0.460 OA
BRANCH  33  34
ATOM     34  C   UNL A   1      40.662  30.489  35.763  1.00  0.00     0.338 C 
ATOM     35  O   UNL A   1      40.503  29.274  35.885  1.00  0.00    -0.246 OA
BRANCH  34  36
ATOM     36  C   UNL A   1      41.429  30.977  34.523  1.00  0.00     0.060 A 
ATOM     37  C   UNL A   1      42.833  31.086  34.503  1.00  0.00     0.016 A 
ATOM     38  C   UNL A   1      40.848  31.283  33.313  1.00  0.00     0.016 A 
ATOM     39  C   UNL A   1      43.539  31.945  33.588  1.00  0.00     0.010 A 
ATOM     40  C   UNL A   1      41.579  32.040  32.349  1.00  0.00     0.010 A 
ATOM     41  C   UNL A   1      42.856  32.623  32.588  1.00  0.00    -0.014 A 
BRANCH  41  42
ATOM     42  C   UNL A   1      43.403  33.756  31.649  1.00  0.00     0.031 A 
ATOM     43  C   UNL A   1      42.982  35.106  32.162  1.00  0.00     0.074 A 
ATOM     44  C   UNL A   1      44.461  33.722  30.713  1.00  0.00     0.049 A 
ATOM     45  N   UNL A   1      43.379  36.210  31.655  1.00  0.00    -0.248 NA
ATOM     46  C   UNL A   1      42.341  35.332  33.462  1.00  0.00     0.031 C 
ATOM     47  C   UNL A   1      45.288  34.671  29.942  1.00  0.00     0.029 A 
ATOM     48  N   UNL A   1      45.280  32.693  30.311  1.00  0.00    -0.354 N 
ATOM     49  C   UNL A   1      43.554  37.115  32.690  1.00  0.00     0.074 A 
ATOM     50  C   UNL A   1      42.811  36.546  33.787  1.00  0.00     0.031 C 
ATOM     51  C   UNL A   1      46.068  34.145  28.937  1.00  0.00     0.029 A 
ATOM     52  C   UNL A   1      45.720  32.750  28.907  1.00  0.00     0.049 A 
ATOM     53  H   UNL A   1      45.552  31.970  30.920  1.00  0.00     0.167 HD
ATOM     54  C   UNL A   1      44.480  38.107  32.502  1.00  0.00     0.034 A 
ATOM     55  C   UNL A   1      45.330  31.723  27.845  1.00  0.00     0.034 A 
ATOM     56  C   UNL A   1      45.028  38.038  31.073  1.00  0.00     0.049 A 
ATOM     57  C   UNL A   1      44.453  33.208  27.137  1.00  0.00     0.074 A 
ATOM     58  C   UNL A   1      46.281  38.017  30.470  1.00  0.00     0.029 A 
ATOM     59  N   UNL A   1      44.147  37.695  30.008  1.00  0.00    -0.354 N 
ATOM     60  N   UNL A   1      43.969  34.243  27.860  1.00  0.00    -0.248 NA
ATOM     61  C   UNL A   1      44.246  33.595  25.728  1.00  0.00     0.031 C 
ATOM     62  C   UNL A   1      46.139  37.554  29.106  1.00  0.00     0.029 A 
ATOM     63  C   UNL A   1      44.803  37.199  28.863  1.00  0.00     0.049 A 
ATOM     64  H   UNL A   1      43.170  37.796  30.064  1.00  0.00     0.167 HD
ATOM     65  C   UNL A   1      43.898  35.450  27.156  1.00  0.00     0.074 A 
ATOM     66  C   UNL A   1      43.812  34.884  25.803  1.00  0.00     0.031 C 
ATOM     67  C   UNL A   1      44.035  36.789  27.635  1.00  0.00     0.034 A 
BRANCH  54  68
ATOM     68  C   UNL A   1      45.078  39.034  33.618  1.00  0.00     0.023 A 
ATOM     69  C   UNL A   1      46.173  38.505  34.342  1.00  0.00     0.012 A 
ATOM     70  C   UNL A   1      44.717  40.365  34.009  1.00  0.00     0.148 A 
ATOM     71  C   UNL A   1      46.870  39.193  35.347  1.00  0.00     0.002 A 
ATOM     72  C   UNL A   1      45.441  41.076  35.004  1.00  0.00     0.091 A 
ATOM     73  F   UNL A   1      43.691  40.984  33.420  1.00  0.00    -0.205 F 
ATOM     74  C   UNL A   1      46.517  40.485  35.667  1.00  0.00     0.022 A 
BRANCH  72  75
ATOM     75  S   UNL A   1      45.115  42.789  35.506  1.00  0.00     0.127 S 
ATOM     76  O   UNL A   1      43.694  42.750  35.863  1.00  0.00    -0.237 OA
ATOM     77  O   UNL A   1      46.011  42.954  36.650  1.00  0.00    -0.237 OA
ATOM     78  O   UNL A   1      45.419  43.619  34.348  1.00  0.00    -0.744 OA
ENDBRANCH  72  75
ENDBRANCH  54  68
BRANCH  55  79
ATOM     79  C   UNL A   1      44.782  29.642  28.057  1.00  0.00     0.023 A 
ATOM     80  C   UNL A   1      45.497  28.467  28.753  1.00  0.00     0.012 A 
ATOM     81  C   UNL A   1      43.218  29.015  28.259  1.00  0.00     0.148 A 
ATOM     82  C   UNL A   1      44.944  27.491  29.696  1.00  0.00     0.002 A 
ATOM     83  C   UNL A   1      42.723  28.096  29.226  1.00  0.00     0.091 A 
ATOM     84  F   UNL A   1      42.162  29.491  27.554  1.00  0.00    -0.205 F 
ATOM     85  C   UNL A   1      43.598  27.373  29.992  1.00  0.00     0.022 A 
BRANCH  83  86
ATOM     86  S   UNL A   1      40.987  28.163  29.838  1.00  0.00     0.127 S 
ATOM     87  O   UNL A   1      40.317  27.144  29.037  1.00  0.00    -0.237 OA
ATOM     88  O   UNL A   1      41.202  27.785  31.232  1.00  0.00    -0.237 OA
ATOM     89  O   UNL A   1      40.505  29.527  29.648  1.00  0.00    -0.744 OA
ENDBRANCH  83  86
ENDBRANCH  55  79
BRANCH  67  90
ATOM     90  C   UNL A   1      43.457  38.070  26.985  1.00  0.00     0.023 A 
ATOM     91  C   UNL A   1      42.116  38.413  27.083  1.00  0.00     0.012 A 
ATOM     92  C   UNL A   1      44.317  39.085  26.413  1.00  0.00     0.148 A 
ATOM     93  C   UNL A   1      41.664  39.685  26.707  1.00  0.00     0.002 A 
ATOM     94  C   UNL A   1      43.897  40.381  26.186  1.00  0.00     0.091 A 
ATOM     95  F   UNL A   1      45.550  38.802  25.980  1.00  0.00    -0.205 F 
ATOM     96  C   UNL A   1      42.555  40.683  26.320  1.00  0.00     0.022 A 
BRANCH  94  97
ATOM     97  S   UNL A   1      45.061  41.691  25.766  1.00  0.00     0.127 S 
ATOM     98  O   UNL A   1      46.122  41.461  26.744  1.00  0.00    -0.237 OA
ATOM     99  O   UNL A   1      45.412  41.351  24.387  1.00  0.00    -0.237 OA
ATOM    100  O   UNL A   1      44.332  42.945  25.904  1.00  0.00    -0.744 OA
ENDBRANCH  94  97
ENDBRANCH  67  90
ENDBRANCH  41  42
ENDBRANCH  34  36
ENDBRANCH  33  34
ENDBRANCH  32  33
ENDBRANCH  31  32
ENDBRANCH  30  31
ENDBRANCH  29  30
ENDBRANCH  28  29
ENDBRANCH  27  28
ENDBRANCH   1  27
TORSDOF 28
ENDMDL
MODEL 3
REMARK VINA RESULT:      -8.1      1.870      3.381
REMARK SMILES Cc1cccc([C@@H](CC(=O)OCCOCCOCCOCCOC(=O)c2ccc(-c3c4nc(c(-c5cccc(S(=O)(=O)[O-])c5F)c5ccc([nH]5)c(-c5cccc(S(=O)(=O)[O-])c5F)c5nc(c(-c6cccc(S(=O)(=O)[O-])c6F)c6ccc3[nH]6)C=C5)C=C4)cc2)NC(=O)OC(C)(C)C)c1
REMARK SMILES IDX 16 1 15 2 14 3 13 4 12 5 11 6 9 7 10 8 8 9 7 10 6 11 1 12
REMARK SMILES IDX 2 13 3 14 97 15 4 16 5 17 89 18 90 19 91 21 92 22 93 23
REMARK SMILES IDX 94 24 95 25 96 26 17 27 18 28 19 29 20 30 21 31 22 32 23 33
REMARK SMILES IDX 24 34 25 35 26 36 27 37 88 38 28 39 87 40 29 41 30 42 31 43
REMARK SMILES IDX 81 44 32 45 86 46 80 47 82 48 33 49 85 50 79 51 78 52 34 54
REMARK SMILES IDX 66 55 46 56 65 57 47 58 50 59 64 60 83 61 48 62 49 63 63 65
REMARK SMILES IDX 84 66 51 67 35 68 36 69 44 70 37 71 39 72 45 73 38 74 40 75
REMARK SMILES IDX 41 76 42 77 43 78 67 79 68 80 76 81 69 82 71 83 77 84 70 85
REMARK SMILES IDX 72 86 73 87 74 88 75 89 52 90 53 91 61 92 54 93 56 94 62 95
REMARK SMILES IDX 55 96 57 97 58 98 59 99 60 100
REMARK H PARENT 89 20 82 53 50 64
REMARK Flexibility Score: inf
ROOT
ATOM      1  C   UNL A   1      36.775  32.288  30.372  1.00  0.00     0.188 C 
ENDROOT
BRANCH   1   2
ATOM      2  C   UNL A   1      37.061  31.844  28.937  1.00  0.00     0.188 C 
BRANCH   2   3
ATOM      3  O   UNL A   1      35.974  31.697  28.058  1.00  0.00    -0.376 OA
BRANCH   3   4
ATOM      4  C   UNL A   1      35.143  30.600  28.376  1.00  0.00     0.202 C 
BRANCH   4   5
ATOM      5  C   UNL A   1      35.281  29.312  27.581  1.00  0.00     0.261 C 
BRANCH   5   6
ATOM      6  O   UNL A   1      34.251  29.335  26.533  1.00  0.00    -0.463 OA
BRANCH   6   7
ATOM      7  C   UNL A   1      33.847  28.337  25.744  1.00  0.00     0.308 C 
ATOM      8  O   UNL A   1      34.522  27.330  25.549  1.00  0.00    -0.252 OA
BRANCH   7   9
ATOM      9  C   UNL A   1      32.494  28.607  25.008  1.00  0.00     0.152 C 
BRANCH   9  10
ATOM     10  C   UNL A   1      31.840  27.975  23.646  1.00  0.00     0.127 C 
BRANCH  10  11
ATOM     11  C   UNL A   1      30.197  27.647  23.261  1.00  0.00    -0.025 A 
ATOM     12  C   UNL A   1      28.005  30.737  21.104  1.00  0.00     0.044 C 
ATOM     13  C   UNL A   1      28.119  29.723  22.238  1.00  0.00    -0.051 A 
ATOM     14  C   UNL A   1      26.752  28.824  22.937  1.00  0.00     0.003 A 
ATOM     15  C   UNL A   1      29.762  29.212  22.481  1.00  0.00     0.009 A 
ATOM     16  C   UNL A   1      27.029  27.289  23.917  1.00  0.00     0.001 A 
ATOM     17  C   UNL A   1      28.772  26.563  23.915  1.00  0.00     0.006 A 
ENDBRANCH  10  11
BRANCH  10  18
ATOM     18  N   UNL A   1      32.675  27.177  22.792  1.00  0.00    -0.314 N 
ATOM     19  C   UNL A   1      32.744  25.907  22.348  1.00  0.00     0.408 C 
ATOM     20  H   UNL A   1      33.412  27.716  22.422  1.00  0.00     0.167 HD
ATOM     21  O   UNL A   1      33.401  25.700  21.332  1.00  0.00    -0.225 OA
BRANCH  19  22
ATOM     22  O   UNL A   1      32.120  24.946  23.074  1.00  0.00    -0.444 OA
BRANCH  22  23
ATOM     23  C   UNL A   1      33.002  24.034  23.802  1.00  0.00     0.106 C 
ATOM     24  C   UNL A   1      34.486  24.415  23.654  1.00  0.00     0.056 C 
ATOM     25  C   UNL A   1      32.594  23.933  25.288  1.00  0.00     0.056 C 
ATOM     26  C   UNL A   1      32.802  22.643  23.182  1.00  0.00     0.056 C 
ENDBRANCH  22  23
ENDBRANCH  19  22
ENDBRANCH  10  18
ENDBRANCH   9  10
ENDBRANCH   7   9
ENDBRANCH   6   7
ENDBRANCH   5   6
ENDBRANCH   4   5
ENDBRANCH   3   4
ENDBRANCH   2   3
ENDBRANCH   1   2
BRANCH   1  27
ATOM     27  O   UNL A   1      36.166  31.367  31.270  1.00  0.00    -0.377 OA
BRANCH  27  28
ATOM     28  C   UNL A   1      36.445  31.576  32.637  1.00  0.00     0.188 C 
BRANCH  28  29
ATOM     29  C   UNL A   1      37.259  32.733  33.079  1.00  0.00     0.188 C 
BRANCH  29  30
ATOM     30  O   UNL A   1      37.091  32.605  34.476  1.00  0.00    -0.376 OA
BRANCH  30  31
ATOM     31  C   UNL A   1      37.809  31.549  35.017  1.00  0.00     0.202 C 
BRANCH  31  32
ATOM     32  C   UNL A   1      38.773  32.139  36.023  1.00  0.00     0.261 C 
BRANCH  32  33
ATOM     33  O   UNL A   1      39.724  31.076  36.451  1.00  0.00    -0.460 OA
BRANCH  33  34
ATOM     34  C   UNL A   1      40.612  30.275  35.750  1.00  0.00     0.338 C 
ATOM     35  O   UNL A   1      40.528  29.055  35.895  1.00  0.00    -0.246 OA
BRANCH  34  36
ATOM     36  C   UNL A   1      41.438  30.787  34.560  1.00  0.00     0.060 A 
ATOM     37  C   UNL A   1      42.821  31.035  34.657  1.00  0.00     0.016 A 
ATOM     38  C   UNL A   1      40.944  30.987  33.291  1.00  0.00     0.016 A 
ATOM     39  C   UNL A   1      43.523  31.923  33.767  1.00  0.00     0.010 A 
ATOM     40  C   UNL A   1      41.685  31.773  32.359  1.00  0.00     0.010 A 
ATOM     41  C   UNL A   1      42.873  32.490  32.680  1.00  0.00    -0.014 A 
BRANCH  41  42
ATOM     42  C   UNL A   1      43.393  33.633  31.739  1.00  0.00     0.031 A 
ATOM     43  C   UNL A   1      42.942  34.974  32.250  1.00  0.00     0.074 A 
ATOM     44  C   UNL A   1      44.451  33.622  30.801  1.00  0.00     0.049 A 
ATOM     45  N   UNL A   1      43.313  36.086  31.741  1.00  0.00    -0.248 NA
ATOM     46  C   UNL A   1      42.298  35.187  33.551  1.00  0.00     0.031 C 
ATOM     47  C   UNL A   1      45.254  34.588  30.028  1.00  0.00     0.029 A 
ATOM     48  N   UNL A   1      45.292  32.611  30.400  1.00  0.00    -0.354 N 
ATOM     49  C   UNL A   1      43.468  36.996  32.775  1.00  0.00     0.074 A 
ATOM     50  C   UNL A   1      42.740  36.412  33.873  1.00  0.00     0.031 C 
ATOM     51  C   UNL A   1      46.045  34.079  29.023  1.00  0.00     0.029 A 
ATOM     52  C   UNL A   1      45.729  32.676  28.995  1.00  0.00     0.049 A 
ATOM     53  H   UNL A   1      45.582  31.895  31.010  1.00  0.00     0.167 HD
ATOM     54  C   UNL A   1      44.372  38.009  32.584  1.00  0.00     0.034 A 
ATOM     55  C   UNL A   1      45.362  31.639  27.935  1.00  0.00     0.034 A 
ATOM     56  C   UNL A   1      44.919  37.950  31.155  1.00  0.00     0.049 A 
ATOM     57  C   UNL A   1      44.450  33.103  27.226  1.00  0.00     0.074 A 
ATOM     58  C   UNL A   1      46.172  37.956  30.550  1.00  0.00     0.029 A 
ATOM     59  N   UNL A   1      44.045  37.586  30.091  1.00  0.00    -0.354 N 
ATOM     60  N   UNL A   1      43.943  34.128  27.948  1.00  0.00    -0.248 NA
ATOM     61  C   UNL A   1      44.233  33.482  25.817  1.00  0.00     0.031 C 
ATOM     62  C   UNL A   1      46.040  37.488  29.187  1.00  0.00     0.029 A 
ATOM     63  C   UNL A   1      44.711  37.103  28.946  1.00  0.00     0.049 A 
ATOM     64  H   UNL A   1      43.066  37.664  30.148  1.00  0.00     0.167 HD
ATOM     65  C   UNL A   1      43.844  35.331  27.242  1.00  0.00     0.074 A 
ATOM     66  C   UNL A   1      43.770  34.762  25.891  1.00  0.00     0.031 C 
ATOM     67  C   UNL A   1      43.952  36.674  27.719  1.00  0.00     0.034 A 
BRANCH  54  68
ATOM     68  C   UNL A   1      44.949  38.950  33.698  1.00  0.00     0.023 A 
ATOM     69  C   UNL A   1      46.015  38.422  34.465  1.00  0.00     0.012 A 
ATOM     70  C   UNL A   1      44.597  40.294  34.050  1.00  0.00     0.148 A 
ATOM     71  C   UNL A   1      46.692  39.121  35.476  1.00  0.00     0.002 A 
ATOM     72  C   UNL A   1      45.301  41.016  35.051  1.00  0.00     0.091 A 
ATOM     73  F   UNL A   1      43.597  40.915  33.418  1.00  0.00    -0.205 F 
ATOM     74  C   UNL A   1      46.349  40.424  35.759  1.00  0.00     0.022 A 
BRANCH  72  75
ATOM     75  S   UNL A   1      44.985  42.744  35.508  1.00  0.00     0.127 S 
ATOM     76  O   UNL A   1      46.238  43.132  36.164  1.00  0.00    -0.237 OA
ATOM     77  O   UNL A   1      44.776  43.376  34.206  1.00  0.00    -0.237 OA
ATOM     78  O   UNL A   1      43.827  42.728  36.391  1.00  0.00    -0.744 OA
ENDBRANCH  72  75
ENDBRANCH  54  68
BRANCH  55  79
ATOM     79  C   UNL A   1      44.862  29.546  28.151  1.00  0.00     0.023 A 
ATOM     80  C   UNL A   1      43.516  28.804  28.041  1.00  0.00     0.012 A 
ATOM     81  C   UNL A   1      45.810  28.218  27.685  1.00  0.00     0.148 A 
ATOM     82  C   UNL A   1      43.200  27.590  27.283  1.00  0.00     0.002 A 
ATOM     83  C   UNL A   1      45.463  27.079  26.906  1.00  0.00     0.091 A 
ATOM     84  F   UNL A   1      47.149  28.189  27.896  1.00  0.00    -0.205 F 
ATOM     85  C   UNL A   1      44.146  26.800  26.654  1.00  0.00     0.022 A 
BRANCH  83  86
ATOM     86  S   UNL A   1      46.685  26.226  25.825  1.00  0.00     0.127 S 
ATOM     87  O   UNL A   1      47.435  25.399  26.765  1.00  0.00    -0.237 OA
ATOM     88  O   UNL A   1      45.773  25.477  24.963  1.00  0.00    -0.237 OA
ATOM     89  O   UNL A   1      47.460  27.253  25.138  1.00  0.00    -0.744 OA
ENDBRANCH  83  86
ENDBRANCH  55  79
BRANCH  67  90
ATOM     90  C   UNL A   1      43.344  37.940  27.068  1.00  0.00     0.023 A 
ATOM     91  C   UNL A   1      41.994  38.248  27.159  1.00  0.00     0.012 A 
ATOM     92  C   UNL A   1      44.180  38.978  26.503  1.00  0.00     0.148 A 
ATOM     93  C   UNL A   1      41.510  39.508  26.783  1.00  0.00     0.002 A 
ATOM     94  C   UNL A   1      43.728  40.263  26.275  1.00  0.00     0.091 A 
ATOM     95  F   UNL A   1      45.423  38.729  26.077  1.00  0.00    -0.205 F 
ATOM     96  C   UNL A   1      42.377  40.530  26.402  1.00  0.00     0.022 A 
BRANCH  94  97
ATOM     97  S   UNL A   1      44.859  41.605  25.866  1.00  0.00     0.127 S 
ATOM     98  O   UNL A   1      45.772  41.573  27.006  1.00  0.00    -0.237 OA
ATOM     99  O   UNL A   1      45.436  41.136  24.605  1.00  0.00    -0.237 OA
ATOM    100  O   UNL A   1      44.042  42.804  25.739  1.00  0.00    -0.744 OA
ENDBRANCH  94  97
ENDBRANCH  67  90
ENDBRANCH  41  42
ENDBRANCH  34  36
ENDBRANCH  33  34
ENDBRANCH  32  33
ENDBRANCH  31  32
ENDBRANCH  30  31
ENDBRANCH  29  30
ENDBRANCH  28  29
ENDBRANCH  27  28
ENDBRANCH   1  27
TORSDOF 28
ENDMDL
