MODEL 1
REMARK VINA RESULT:     -10.3      0.000      0.000
REMARK SMILES NC(=O)C1CC[NH+](Cc2ccc(C(=O)OCCOCCOCCOCCOC(=O)c3ccc(-c4c5nc(c(-c6cccc(S(=O)(=O)[O-])c6F)c6ccc([nH]6)c(-c6cccc(S(=O)(=O)[O-])c6F)c6nc(c(-c7cccc(S(=O)(=O)[O-])c7F)c7ccc4[nH]7)C=C6)C=C5)cc3)cc2)CC1
REMARK SMILES IDX 21 1 20 2 19 3 18 4 17 5 16 6 15 7 13 8 14 9 12 10 9 11
REMARK SMILES IDX 10 12 94 13 11 14 93 15 8 16 7 17 4 18 5 19 96 20 6 21 95 22
REMARK SMILES IDX 2 24 1 25 3 28 22 29 23 30 24 31 25 32 26 33 27 34 28 35
REMARK SMILES IDX 29 36 30 37 31 38 92 39 32 40 91 41 33 42 34 43 35 44 85 45
REMARK SMILES IDX 36 46 90 47 84 48 86 49 37 50 89 51 83 52 82 53 38 55 70 56
REMARK SMILES IDX 50 57 69 58 51 59 54 60 68 61 87 62 52 63 53 64 67 66 88 67
REMARK SMILES IDX 55 68 39 69 40 70 48 71 41 72 43 73 49 74 42 75 44 76 45 77
REMARK SMILES IDX 46 78 47 79 71 80 72 81 80 82 73 83 75 84 81 85 74 86 76 87
REMARK SMILES IDX 77 88 78 89 79 90 56 91 57 92 65 93 58 94 60 95 66 96 59 97
REMARK SMILES IDX 61 98 62 99 63 100 64 101
REMARK H PARENT 7 23 1 26 1 27 86 54 54 65
REMARK Flexibility Score: inf
ROOT
ATOM      1  O   UNL A   1      34.440  23.284  25.960  1.00  0.00    -0.377 OA
ENDROOT
BRANCH   1   2
ATOM      2  C   UNL A   1      34.605  24.683  26.118  1.00  0.00     0.188 C 
BRANCH   2   3
ATOM      3  C   UNL A   1      34.134  25.603  24.974  1.00  0.00     0.188 C 
BRANCH   3   4
ATOM      4  O   UNL A   1      33.835  26.926  25.386  1.00  0.00    -0.376 OA
BRANCH   4   5
ATOM      5  C   UNL A   1      33.631  27.936  24.414  1.00  0.00     0.202 C 
BRANCH   5   6
ATOM      6  C   UNL A   1      32.699  27.679  23.221  1.00  0.00     0.261 C 
BRANCH   6   7
ATOM      7  O   UNL A   1      33.073  26.599  22.368  1.00  0.00    -0.460 OA
BRANCH   7   8
ATOM      8  C   UNL A   1      32.082  25.902  21.775  1.00  0.00     0.338 C 
ATOM      9  O   UNL A   1      31.441  26.241  20.796  1.00  0.00    -0.246 OA
BRANCH   8  10
ATOM     10  C   UNL A   1      32.064  24.544  22.376  1.00  0.00     0.060 A 
ATOM     11  C   UNL A   1      32.044  22.043  23.621  1.00  0.00     0.006 A 
ATOM     12  C   UNL A   1      31.066  22.997  23.943  1.00  0.00     0.010 A 
ATOM     13  C   UNL A   1      32.903  22.285  22.539  1.00  0.00     0.010 A 
ATOM     14  C   UNL A   1      31.081  24.247  23.325  1.00  0.00     0.016 A 
ATOM     15  C   UNL A   1      32.947  23.545  21.951  1.00  0.00     0.016 A 
BRANCH  11  16
ATOM     16  C   UNL A   1      32.327  20.889  24.570  1.00  0.00     0.299 C 
BRANCH  16  17
ATOM     17  N   UNL A   1      33.152  19.796  23.981  1.00  0.00    -0.331 N 
ATOM     18  C   UNL A   1      34.093  16.989  23.836  1.00  0.00     0.089 C 
ATOM     19  C   UNL A   1      34.966  18.119  24.386  1.00  0.00     0.075 C 
ATOM     20  C   UNL A   1      33.119  17.575  22.810  1.00  0.00     0.075 C 
ATOM     21  C   UNL A   1      34.107  19.245  24.956  1.00  0.00     0.263 C 
ATOM     22  C   UNL A   1      32.313  18.748  23.375  1.00  0.00     0.263 C 
ATOM     23  H   UNL A   1      33.706  20.206  23.228  1.00  0.00     0.348 HD
BRANCH  18  24
ATOM     24  C   UNL A   1      33.370  16.218  24.944  1.00  0.00     0.220 C 
ATOM     25  N   UNL A   1      33.427  16.778  26.184  1.00  0.00    -0.369 N 
ATOM     26  H   UNL A   1      32.984  16.338  26.944  1.00  0.00     0.159 HD
ATOM     27  H   UNL A   1      33.912  17.625  26.320  1.00  0.00     0.159 HD
ATOM     28  O   UNL A   1      32.800  15.145  24.782  1.00  0.00    -0.275 OA
ENDBRANCH  18  24
ENDBRANCH  16  17
ENDBRANCH  11  16
ENDBRANCH   8  10
ENDBRANCH   7   8
ENDBRANCH   6   7
ENDBRANCH   5   6
ENDBRANCH   4   5
ENDBRANCH   3   4
ENDBRANCH   2   3
ENDBRANCH   1   2
BRANCH   1  29
ATOM     29  C   UNL A   1      35.575  22.464  25.693  1.00  0.00     0.188 C 
BRANCH  29  30
ATOM     30  C   UNL A   1      36.161  22.300  24.267  1.00  0.00     0.188 C 
BRANCH  30  31
ATOM     31  O   UNL A   1      37.381  21.580  24.191  1.00  0.00    -0.376 OA
BRANCH  31  32
ATOM     32  C   UNL A   1      38.110  21.387  25.389  1.00  0.00     0.202 C 
BRANCH  32  33
ATOM     33  C   UNL A   1      38.881  20.068  25.526  1.00  0.00     0.261 C 
BRANCH  33  34
ATOM     34  O   UNL A   1      39.828  20.002  26.601  1.00  0.00    -0.460 OA
BRANCH  34  35
ATOM     35  C   UNL A   1      41.103  19.680  26.282  1.00  0.00     0.338 C 
ATOM     36  O   UNL A   1      41.495  18.656  25.765  1.00  0.00    -0.246 OA
BRANCH  35  37
ATOM     37  C   UNL A   1      41.926  20.889  26.501  1.00  0.00     0.060 A 
ATOM     38  C   UNL A   1      42.299  21.235  27.807  1.00  0.00     0.016 A 
ATOM     39  C   UNL A   1      42.339  21.664  25.416  1.00  0.00     0.016 A 
ATOM     40  C   UNL A   1      43.058  22.383  28.033  1.00  0.00     0.010 A 
ATOM     41  C   UNL A   1      43.082  22.824  25.646  1.00  0.00     0.010 A 
ATOM     42  C   UNL A   1      43.413  23.206  26.958  1.00  0.00    -0.014 A 
BRANCH  42  43
ATOM     43  C   UNL A   1      43.953  24.563  27.213  1.00  0.00     0.031 A 
ATOM     44  C   UNL A   1      43.007  25.622  27.710  1.00  0.00     0.074 A 
ATOM     45  C   UNL A   1      45.248  24.855  27.001  1.00  0.00     0.049 A 
ATOM     46  N   UNL A   1      43.230  26.885  27.957  1.00  0.00    -0.248 NA
ATOM     47  C   UNL A   1      41.619  25.196  27.956  1.00  0.00     0.031 C 
ATOM     48  C   UNL A   1      46.263  23.913  26.533  1.00  0.00     0.029 A 
ATOM     49  N   UNL A   1      45.923  26.043  27.131  1.00  0.00    -0.354 N 
ATOM     50  C   UNL A   1      42.008  27.412  28.359  1.00  0.00     0.074 A 
ATOM     51  C   UNL A   1      41.044  26.335  28.308  1.00  0.00     0.031 C 
ATOM     52  C   UNL A   1      47.429  24.568  26.388  1.00  0.00     0.029 A 
ATOM     53  C   UNL A   1      47.234  25.977  26.724  1.00  0.00     0.049 A 
ATOM     54  H   UNL A   1      45.508  26.864  27.481  1.00  0.00     0.167 HD
ATOM     55  C   UNL A   1      41.716  28.674  28.749  1.00  0.00     0.034 A 
ATOM     56  C   UNL A   1      48.161  26.951  26.612  1.00  0.00     0.034 A 
ATOM     57  C   UNL A   1      42.678  29.741  28.805  1.00  0.00     0.049 A 
ATOM     58  C   UNL A   1      47.801  28.361  27.012  1.00  0.00     0.074 A 
ATOM     59  C   UNL A   1      42.493  31.046  29.222  1.00  0.00     0.029 A 
ATOM     60  N   UNL A   1      44.005  29.630  28.413  1.00  0.00    -0.354 N 
ATOM     61  N   UNL A   1      46.671  28.822  27.492  1.00  0.00    -0.248 NA
ATOM     62  C   UNL A   1      48.854  29.379  26.883  1.00  0.00     0.031 C 
ATOM     63  C   UNL A   1      43.697  31.736  29.045  1.00  0.00     0.029 A 
ATOM     64  C   UNL A   1      44.646  30.848  28.564  1.00  0.00     0.049 A 
ATOM     65  H   UNL A   1      44.427  28.807  28.079  1.00  0.00     0.167 HD
ATOM     66  C   UNL A   1      46.891  30.169  27.763  1.00  0.00     0.074 A 
ATOM     67  C   UNL A   1      48.266  30.445  27.407  1.00  0.00     0.031 C 
ATOM     68  C   UNL A   1      46.030  31.096  28.253  1.00  0.00     0.034 A 
BRANCH  55  69
ATOM     69  C   UNL A   1      40.296  28.967  29.154  1.00  0.00     0.023 A 
ATOM     70  C   UNL A   1      39.337  29.290  28.172  1.00  0.00     0.012 A 
ATOM     71  C   UNL A   1      39.900  28.884  30.504  1.00  0.00     0.148 A 
ATOM     72  C   UNL A   1      38.017  29.564  28.529  1.00  0.00     0.002 A 
ATOM     73  C   UNL A   1      38.574  29.110  30.847  1.00  0.00     0.091 A 
ATOM     74  F   UNL A   1      40.830  28.600  31.426  1.00  0.00    -0.205 F 
ATOM     75  C   UNL A   1      37.634  29.464  29.864  1.00  0.00     0.022 A 
BRANCH  73  76
ATOM     76  S   UNL A   1      37.963  28.927  32.525  1.00  0.00     0.127 S 
ATOM     77  O   UNL A   1      38.882  29.788  33.269  1.00  0.00    -0.237 OA
ATOM     78  O   UNL A   1      36.599  29.446  32.414  1.00  0.00    -0.237 OA
ATOM     79  O   UNL A   1      38.051  27.507  32.834  1.00  0.00    -0.744 OA
ENDBRANCH  73  76
ENDBRANCH  55  69
BRANCH  56  80
ATOM     80  C   UNL A   1      49.534  26.628  26.125  1.00  0.00     0.023 A 
ATOM     81  C   UNL A   1      50.406  25.885  26.944  1.00  0.00     0.012 A 
ATOM     82  C   UNL A   1      49.979  27.052  24.857  1.00  0.00     0.148 A 
ATOM     83  C   UNL A   1      51.707  25.603  26.527  1.00  0.00     0.002 A 
ATOM     84  C   UNL A   1      51.257  26.719  24.423  1.00  0.00     0.091 A 
ATOM     85  F   UNL A   1      49.139  27.771  24.098  1.00  0.00    -0.205 F 
ATOM     86  C   UNL A   1      52.130  26.011  25.264  1.00  0.00     0.022 A 
BRANCH  84  87
ATOM     87  S   UNL A   1      51.846  27.096  22.769  1.00  0.00     0.127 S 
ATOM     88  O   UNL A   1      52.088  28.534  22.857  1.00  0.00    -0.237 OA
ATOM     89  O   UNL A   1      53.052  26.273  22.685  1.00  0.00    -0.237 OA
ATOM     90  O   UNL A   1      50.778  26.693  21.864  1.00  0.00    -0.744 OA
ENDBRANCH  84  87
ENDBRANCH  56  80
BRANCH  68  91
ATOM     91  C   UNL A   1      46.556  32.490  28.489  1.00  0.00     0.023 A 
ATOM     92  C   UNL A   1      47.084  32.846  29.745  1.00  0.00     0.012 A 
ATOM     93  C   UNL A   1      46.595  33.425  27.434  1.00  0.00     0.148 A 
ATOM     94  C   UNL A   1      47.608  34.121  29.960  1.00  0.00     0.002 A 
ATOM     95  C   UNL A   1      47.167  34.674  27.639  1.00  0.00     0.091 A 
ATOM     96  F   UNL A   1      46.076  33.073  26.249  1.00  0.00    -0.205 F 
ATOM     97  C   UNL A   1      47.661  35.030  28.905  1.00  0.00     0.022 A 
BRANCH  95  98
ATOM     98  S   UNL A   1      47.372  35.872  26.316  1.00  0.00     0.127 S 
ATOM     99  O   UNL A   1      47.469  35.005  25.142  1.00  0.00    -0.237 OA
ATOM    100  O   UNL A   1      46.133  36.645  26.403  1.00  0.00    -0.237 OA
ATOM    101  O   UNL A   1      48.577  36.624  26.636  1.00  0.00    -0.744 OA
ENDBRANCH  95  98
ENDBRANCH  68  91
ENDBRANCH  42  43
ENDBRANCH  35  37
ENDBRANCH  34  35
ENDBRANCH  33  34
ENDBRANCH  32  33
ENDBRANCH  31  32
ENDBRANCH  30  31
ENDBRANCH  29  30
ENDBRANCH   1  29
TORSDOF 26
ENDMDL
MODEL 2
REMARK VINA RESULT:     -10.0      1.799      7.655
REMARK SMILES NC(=O)C1CC[NH+](Cc2ccc(C(=O)OCCOCCOCCOCCOC(=O)c3ccc(-c4c5nc(c(-c6cccc(S(=O)(=O)[O-])c6F)c6ccc([nH]6)c(-c6cccc(S(=O)(=O)[O-])c6F)c6nc(c(-c7cccc(S(=O)(=O)[O-])c7F)c7ccc4[nH]7)C=C6)C=C5)cc3)cc2)CC1
REMARK SMILES IDX 21 1 20 2 19 3 18 4 17 5 16 6 15 7 13 8 14 9 12 10 9 11
REMARK SMILES IDX 10 12 94 13 11 14 93 15 8 16 7 17 4 18 5 19 96 20 6 21 95 22
REMARK SMILES IDX 2 24 1 25 3 28 22 29 23 30 24 31 25 32 26 33 27 34 28 35
REMARK SMILES IDX 29 36 30 37 31 38 92 39 32 40 91 41 33 42 34 43 35 44 85 45
REMARK SMILES IDX 36 46 90 47 84 48 86 49 37 50 89 51 83 52 82 53 38 55 70 56
REMARK SMILES IDX 50 57 69 58 51 59 54 60 68 61 87 62 52 63 53 64 67 66 88 67
REMARK SMILES IDX 55 68 39 69 40 70 48 71 41 72 43 73 49 74 42 75 44 76 45 77
REMARK SMILES IDX 46 78 47 79 71 80 72 81 80 82 73 83 75 84 81 85 74 86 76 87
REMARK SMILES IDX 77 88 78 89 79 90 56 91 57 92 65 93 58 94 60 95 66 96 59 97
REMARK SMILES IDX 61 98 62 99 63 100 64 101
REMARK H PARENT 7 23 1 26 1 27 86 54 54 65
REMARK Flexibility Score: inf
ROOT
ATOM      1  O   UNL A   1      36.037  23.242  26.065  1.00  0.00    -0.377 OA
ENDROOT
BRANCH   1   2
ATOM      2  C   UNL A   1      35.415  24.318  25.384  1.00  0.00     0.188 C 
BRANCH   2   3
ATOM      3  C   UNL A   1      34.184  24.977  26.039  1.00  0.00     0.188 C 
BRANCH   3   4
ATOM      4  O   UNL A   1      33.509  25.896  25.198  1.00  0.00    -0.376 OA
BRANCH   4   5
ATOM      5  C   UNL A   1      32.869  27.026  25.763  1.00  0.00     0.202 C 
BRANCH   5   6
ATOM      6  C   UNL A   1      31.854  27.829  24.936  1.00  0.00     0.261 C 
BRANCH   6   7
ATOM      7  O   UNL A   1      30.893  27.057  24.220  1.00  0.00    -0.460 OA
BRANCH   7   8
ATOM      8  C   UNL A   1      31.185  26.725  22.946  1.00  0.00     0.338 C 
ATOM      9  O   UNL A   1      31.349  27.493  22.014  1.00  0.00    -0.246 OA
BRANCH   8  10
ATOM     10  C   UNL A   1      31.505  25.275  22.920  1.00  0.00     0.060 A 
ATOM     11  C   UNL A   1      32.106  22.551  22.746  1.00  0.00     0.006 A 
ATOM     12  C   UNL A   1      32.968  23.500  22.174  1.00  0.00     0.010 A 
ATOM     13  C   UNL A   1      31.056  22.990  23.564  1.00  0.00     0.010 A 
ATOM     14  C   UNL A   1      32.664  24.859  22.257  1.00  0.00     0.016 A 
ATOM     15  C   UNL A   1      30.725  24.342  23.613  1.00  0.00     0.016 A 
BRANCH  11  16
ATOM     16  C   UNL A   1      32.160  21.101  22.294  1.00  0.00     0.299 C 
BRANCH  16  17
ATOM     17  N   UNL A   1      32.131  20.108  23.407  1.00  0.00    -0.331 N 
ATOM     18  C   UNL A   1      33.284  17.875  24.977  1.00  0.00     0.089 C 
ATOM     19  C   UNL A   1      32.106  17.683  24.021  1.00  0.00     0.075 C 
ATOM     20  C   UNL A   1      33.260  19.313  25.504  1.00  0.00     0.075 C 
ATOM     21  C   UNL A   1      32.130  18.725  22.906  1.00  0.00     0.263 C 
ATOM     22  C   UNL A   1      33.215  20.346  24.375  1.00  0.00     0.263 C 
ATOM     23  H   UNL A   1      31.251  20.240  23.908  1.00  0.00     0.348 HD
BRANCH  18  24
ATOM     24  C   UNL A   1      34.626  17.520  24.330  1.00  0.00     0.220 C 
ATOM     25  N   UNL A   1      35.721  18.107  24.888  1.00  0.00    -0.369 N 
ATOM     26  H   UNL A   1      36.617  17.924  24.524  1.00  0.00     0.159 HD
ATOM     27  H   UNL A   1      35.617  18.715  25.656  1.00  0.00     0.159 HD
ATOM     28  O   UNL A   1      34.751  16.795  23.350  1.00  0.00    -0.275 OA
ENDBRANCH  18  24
ENDBRANCH  16  17
ENDBRANCH  11  16
ENDBRANCH   8  10
ENDBRANCH   7   8
ENDBRANCH   6   7
ENDBRANCH   5   6
ENDBRANCH   4   5
ENDBRANCH   3   4
ENDBRANCH   2   3
ENDBRANCH   1   2
BRANCH   1  29
ATOM     29  C   UNL A   1      36.355  22.046  25.357  1.00  0.00     0.188 C 
BRANCH  29  30
ATOM     30  C   UNL A   1      37.798  21.483  25.285  1.00  0.00     0.188 C 
BRANCH  30  31
ATOM     31  O   UNL A   1      37.902  20.124  24.893  1.00  0.00    -0.376 OA
BRANCH  31  32
ATOM     32  C   UNL A   1      38.952  19.355  25.451  1.00  0.00     0.202 C 
BRANCH  32  33
ATOM     33  C   UNL A   1      40.005  20.111  26.270  1.00  0.00     0.261 C 
BRANCH  33  34
ATOM     34  O   UNL A   1      41.167  19.360  26.647  1.00  0.00    -0.460 OA
BRANCH  34  35
ATOM     35  C   UNL A   1      42.371  19.869  26.297  1.00  0.00     0.338 C 
ATOM     36  O   UNL A   1      43.255  19.309  25.685  1.00  0.00    -0.246 OA
BRANCH  35  37
ATOM     37  C   UNL A   1      42.349  21.310  26.627  1.00  0.00     0.060 A 
ATOM     38  C   UNL A   1      42.183  22.245  25.596  1.00  0.00     0.016 A 
ATOM     39  C   UNL A   1      42.477  21.729  27.953  1.00  0.00     0.016 A 
ATOM     40  C   UNL A   1      42.181  23.609  25.889  1.00  0.00     0.010 A 
ATOM     41  C   UNL A   1      42.494  23.095  28.240  1.00  0.00     0.010 A 
ATOM     42  C   UNL A   1      42.382  24.040  27.205  1.00  0.00    -0.014 A 
BRANCH  42  43
ATOM     43  C   UNL A   1      42.676  25.467  27.479  1.00  0.00     0.031 A 
ATOM     44  C   UNL A   1      44.019  26.007  27.066  1.00  0.00     0.074 A 
ATOM     45  C   UNL A   1      41.780  26.265  28.086  1.00  0.00     0.049 A 
ATOM     46  N   UNL A   1      44.523  27.199  27.240  1.00  0.00    -0.248 NA
ATOM     47  C   UNL A   1      44.914  25.070  26.366  1.00  0.00     0.031 C 
ATOM     48  C   UNL A   1      40.445  25.862  28.521  1.00  0.00     0.029 A 
ATOM     49  N   UNL A   1      41.877  27.581  28.464  1.00  0.00    -0.354 N 
ATOM     50  C   UNL A   1      45.803  27.150  26.700  1.00  0.00     0.074 A 
ATOM     51  C   UNL A   1      46.003  25.805  26.206  1.00  0.00     0.031 C 
ATOM     52  C   UNL A   1      39.854  26.904  29.132  1.00  0.00     0.029 A 
ATOM     53  C   UNL A   1      40.781  28.035  29.158  1.00  0.00     0.049 A 
ATOM     54  H   UNL A   1      42.656  28.146  28.258  1.00  0.00     0.167 HD
ATOM     55  C   UNL A   1      46.724  28.137  26.610  1.00  0.00     0.034 A 
ATOM     56  C   UNL A   1      40.564  29.220  29.765  1.00  0.00     0.034 A 
ATOM     57  C   UNL A   1      46.519  29.473  27.097  1.00  0.00     0.049 A 
ATOM     58  C   UNL A   1      41.624  30.291  29.689  1.00  0.00     0.074 A 
ATOM     59  C   UNL A   1      47.375  30.557  27.021  1.00  0.00     0.029 A 
ATOM     60  N   UNL A   1      45.385  29.905  27.768  1.00  0.00    -0.354 N 
ATOM     61  N   UNL A   1      42.785  30.265  29.081  1.00  0.00    -0.248 NA
ATOM     62  C   UNL A   1      41.328  31.568  30.357  1.00  0.00     0.031 C 
ATOM     63  C   UNL A   1      46.775  31.634  27.681  1.00  0.00     0.029 A 
ATOM     64  C   UNL A   1      45.525  31.235  28.126  1.00  0.00     0.049 A 
ATOM     65  H   UNL A   1      44.597  29.348  27.961  1.00  0.00     0.167 HD
ATOM     66  C   UNL A   1      43.339  31.531  29.256  1.00  0.00     0.074 A 
ATOM     67  C   UNL A   1      42.377  32.303  30.013  1.00  0.00     0.031 C 
ATOM     68  C   UNL A   1      44.537  32.007  28.836  1.00  0.00     0.034 A 
BRANCH  55  69
ATOM     69  C   UNL A   1      48.038  27.805  25.953  1.00  0.00     0.023 A 
ATOM     70  C   UNL A   1      49.155  27.467  26.744  1.00  0.00     0.012 A 
ATOM     71  C   UNL A   1      48.156  27.789  24.549  1.00  0.00     0.148 A 
ATOM     72  C   UNL A   1      50.378  27.158  26.151  1.00  0.00     0.002 A 
ATOM     73  C   UNL A   1      49.364  27.433  23.964  1.00  0.00     0.091 A 
ATOM     74  F   UNL A   1      47.090  28.137  23.814  1.00  0.00    -0.205 F 
ATOM     75  C   UNL A   1      50.480  27.130  24.763  1.00  0.00     0.022 A 
BRANCH  73  76
ATOM     76  S   UNL A   1      49.575  27.289  22.186  1.00  0.00     0.127 S 
ATOM     77  O   UNL A   1      48.663  26.190  21.870  1.00  0.00    -0.237 OA
ATOM     78  O   UNL A   1      49.131  28.602  21.718  1.00  0.00    -0.237 OA
ATOM     79  O   UNL A   1      50.987  27.010  21.969  1.00  0.00    -0.744 OA
ENDBRANCH  73  76
ENDBRANCH  55  69
BRANCH  56  80
ATOM     80  C   UNL A   1      39.279  29.473  30.479  1.00  0.00     0.023 A 
ATOM     81  C   UNL A   1      39.034  28.845  31.715  1.00  0.00     0.012 A 
ATOM     82  C   UNL A   1      38.300  30.331  29.939  1.00  0.00     0.148 A 
ATOM     83  C   UNL A   1      37.824  29.036  32.384  1.00  0.00     0.002 A 
ATOM     84  C   UNL A   1      37.120  30.563  30.637  1.00  0.00     0.091 A 
ATOM     85  F   UNL A   1      38.545  30.908  28.754  1.00  0.00    -0.205 F 
ATOM     86  C   UNL A   1      36.871  29.901  31.850  1.00  0.00     0.022 A 
BRANCH  84  87
ATOM     87  S   UNL A   1      35.889  31.750  30.090  1.00  0.00     0.127 S 
ATOM     88  O   UNL A   1      35.032  31.860  31.267  1.00  0.00    -0.237 OA
ATOM     89  O   UNL A   1      36.711  32.929  29.814  1.00  0.00    -0.237 OA
ATOM     90  O   UNL A   1      35.267  31.163  28.911  1.00  0.00    -0.744 OA
ENDBRANCH  84  87
ENDBRANCH  56  80
BRANCH  68  91
ATOM     91  C   UNL A   1      44.865  33.449  29.134  1.00  0.00     0.023 A 
ATOM     92  C   UNL A   1      45.664  33.779  30.245  1.00  0.00     0.012 A 
ATOM     93  C   UNL A   1      44.441  34.472  28.261  1.00  0.00     0.148 A 
ATOM     94  C   UNL A   1      46.004  35.107  30.506  1.00  0.00     0.002 A 
ATOM     95  C   UNL A   1      44.828  35.785  28.496  1.00  0.00     0.091 A 
ATOM     96  F   UNL A   1      43.669  34.140  27.215  1.00  0.00    -0.205 F 
ATOM     97  C   UNL A   1      45.598  36.107  29.625  1.00  0.00     0.022 A 
BRANCH  95  98
ATOM     98  S   UNL A   1      44.438  37.125  27.363  1.00  0.00     0.127 S 
ATOM     99  O   UNL A   1      44.253  38.247  28.283  1.00  0.00    -0.237 OA
ATOM    100  O   UNL A   1      45.647  37.200  26.543  1.00  0.00    -0.237 OA
ATOM    101  O   UNL A   1      43.243  36.707  26.642  1.00  0.00    -0.744 OA
ENDBRANCH  95  98
ENDBRANCH  68  91
ENDBRANCH  42  43
ENDBRANCH  35  37
ENDBRANCH  34  35
ENDBRANCH  33  34
ENDBRANCH  32  33
ENDBRANCH  31  32
ENDBRANCH  30  31
ENDBRANCH  29  30
ENDBRANCH   1  29
TORSDOF 26
ENDMDL
MODEL 3
REMARK VINA RESULT:      -9.7      1.715      7.499
REMARK SMILES NC(=O)C1CC[NH+](Cc2ccc(C(=O)OCCOCCOCCOCCOC(=O)c3ccc(-c4c5nc(c(-c6cccc(S(=O)(=O)[O-])c6F)c6ccc([nH]6)c(-c6cccc(S(=O)(=O)[O-])c6F)c6nc(c(-c7cccc(S(=O)(=O)[O-])c7F)c7ccc4[nH]7)C=C6)C=C5)cc3)cc2)CC1
REMARK SMILES IDX 21 1 20 2 19 3 18 4 17 5 16 6 15 7 13 8 14 9 12 10 9 11
REMARK SMILES IDX 10 12 94 13 11 14 93 15 8 16 7 17 4 18 5 19 96 20 6 21 95 22
REMARK SMILES IDX 2 24 1 25 3 28 22 29 23 30 24 31 25 32 26 33 27 34 28 35
REMARK SMILES IDX 29 36 30 37 31 38 92 39 32 40 91 41 33 42 34 43 35 44 85 45
REMARK SMILES IDX 36 46 90 47 84 48 86 49 37 50 89 51 83 52 82 53 38 55 70 56
REMARK SMILES IDX 50 57 69 58 51 59 54 60 68 61 87 62 52 63 53 64 67 66 88 67
REMARK SMILES IDX 55 68 39 69 40 70 48 71 41 72 43 73 49 74 42 75 44 76 45 77
REMARK SMILES IDX 46 78 47 79 71 80 72 81 80 82 73 83 75 84 81 85 74 86 76 87
REMARK SMILES IDX 77 88 78 89 79 90 56 91 57 92 65 93 58 94 60 95 66 96 59 97
REMARK SMILES IDX 61 98 62 99 63 100 64 101
REMARK H PARENT 7 23 1 26 1 27 86 54 54 65
REMARK Flexibility Score: inf
ROOT
ATOM      1  O   UNL A   1      35.638  23.555  24.621  1.00  0.00    -0.377 OA
ENDROOT
BRANCH   1   2
ATOM      2  C   UNL A   1      34.961  23.546  25.866  1.00  0.00     0.188 C 
BRANCH   2   3
ATOM      3  C   UNL A   1      33.779  24.518  26.056  1.00  0.00     0.188 C 
BRANCH   3   4
ATOM      4  O   UNL A   1      33.994  25.800  25.493  1.00  0.00    -0.376 OA
BRANCH   4   5
ATOM      5  C   UNL A   1      33.139  26.874  25.843  1.00  0.00     0.202 C 
BRANCH   5   6
ATOM      6  C   UNL A   1      32.638  27.843  24.762  1.00  0.00     0.261 C 
BRANCH   6   7
ATOM      7  O   UNL A   1      32.870  27.438  23.415  1.00  0.00    -0.460 OA
BRANCH   7   8
ATOM      8  C   UNL A   1      31.831  26.913  22.734  1.00  0.00     0.338 C 
ATOM      9  O   UNL A   1      31.032  27.523  22.045  1.00  0.00    -0.246 OA
BRANCH   8  10
ATOM     10  C   UNL A   1      31.966  25.435  22.775  1.00  0.00     0.060 A 
ATOM     11  C   UNL A   1      32.234  22.654  22.726  1.00  0.00     0.006 A 
ATOM     12  C   UNL A   1      33.271  23.469  22.246  1.00  0.00     0.010 A 
ATOM     13  C   UNL A   1      31.158  23.246  23.401  1.00  0.00     0.010 A 
ATOM     14  C   UNL A   1      33.134  24.857  22.266  1.00  0.00     0.016 A 
ATOM     15  C   UNL A   1      30.998  24.629  23.384  1.00  0.00     0.016 A 
BRANCH  11  16
ATOM     16  C   UNL A   1      32.158  21.193  22.310  1.00  0.00     0.299 C 
BRANCH  16  17
ATOM     17  N   UNL A   1      32.137  20.230  23.449  1.00  0.00    -0.331 N 
ATOM     18  C   UNL A   1      33.320  18.066  25.092  1.00  0.00     0.089 C 
ATOM     19  C   UNL A   1      32.158  17.822  24.128  1.00  0.00     0.075 C 
ATOM     20  C   UNL A   1      33.259  19.516  25.580  1.00  0.00     0.075 C 
ATOM     21  C   UNL A   1      32.173  18.834  22.986  1.00  0.00     0.263 C 
ATOM     22  C   UNL A   1      33.205  20.518  24.423  1.00  0.00     0.263 C 
ATOM     23  H   UNL A   1      31.249  20.356  23.937  1.00  0.00     0.348 HD
BRANCH  18  24
ATOM     24  C   UNL A   1      34.677  17.723  24.470  1.00  0.00     0.220 C 
ATOM     25  N   UNL A   1      35.728  18.475  24.901  1.00  0.00    -0.369 N 
ATOM     26  H   UNL A   1      36.630  18.310  24.544  1.00  0.00     0.159 HD
ATOM     27  H   UNL A   1      35.586  19.184  25.570  1.00  0.00     0.159 HD
ATOM     28  O   UNL A   1      34.848  16.868  23.609  1.00  0.00    -0.275 OA
ENDBRANCH  18  24
ENDBRANCH  16  17
ENDBRANCH  11  16
ENDBRANCH   8  10
ENDBRANCH   7   8
ENDBRANCH   6   7
ENDBRANCH   5   6
ENDBRANCH   4   5
ENDBRANCH   3   4
ENDBRANCH   2   3
ENDBRANCH   1   2
BRANCH   1  29
ATOM     29  C   UNL A   1      37.029  23.245  24.570  1.00  0.00     0.188 C 
BRANCH  29  30
ATOM     30  C   UNL A   1      37.590  21.872  25.020  1.00  0.00     0.188 C 
BRANCH  30  31
ATOM     31  O   UNL A   1      38.729  21.927  25.863  1.00  0.00    -0.376 OA
BRANCH  31  32
ATOM     32  C   UNL A   1      39.543  20.772  25.949  1.00  0.00     0.202 C 
BRANCH  32  33
ATOM     33  C   UNL A   1      40.553  20.721  27.103  1.00  0.00     0.261 C 
BRANCH  33  34
ATOM     34  O   UNL A   1      41.658  19.823  26.931  1.00  0.00    -0.460 OA
BRANCH  34  35
ATOM     35  C   UNL A   1      42.524  20.094  25.927  1.00  0.00     0.338 C 
ATOM     36  O   UNL A   1      42.728  19.430  24.934  1.00  0.00    -0.246 OA
BRANCH  35  37
ATOM     37  C   UNL A   1      43.049  21.457  26.159  1.00  0.00     0.060 A 
ATOM     38  C   UNL A   1      43.538  21.794  27.428  1.00  0.00     0.016 A 
ATOM     39  C   UNL A   1      43.070  22.388  25.119  1.00  0.00     0.016 A 
ATOM     40  C   UNL A   1      44.017  23.082  27.669  1.00  0.00     0.010 A 
ATOM     41  C   UNL A   1      43.531  23.682  25.367  1.00  0.00     0.010 A 
ATOM     42  C   UNL A   1      43.974  24.044  26.652  1.00  0.00    -0.014 A 
BRANCH  42  43
ATOM     43  C   UNL A   1      44.197  25.473  26.977  1.00  0.00     0.031 A 
ATOM     44  C   UNL A   1      45.581  26.035  26.795  1.00  0.00     0.074 A 
ATOM     45  C   UNL A   1      43.201  26.254  27.429  1.00  0.00     0.049 A 
ATOM     46  N   UNL A   1      46.031  27.232  27.055  1.00  0.00    -0.248 NA
ATOM     47  C   UNL A   1      46.594  25.115  26.250  1.00  0.00     0.031 C 
ATOM     48  C   UNL A   1      41.818  25.830  27.634  1.00  0.00     0.029 A 
ATOM     49  N   UNL A   1      43.213  27.570  27.823  1.00  0.00    -0.354 N 
ATOM     50  C   UNL A   1      47.384  27.205  26.735  1.00  0.00     0.074 A 
ATOM     51  C   UNL A   1      47.684  25.866  26.276  1.00  0.00     0.031 C 
ATOM     52  C   UNL A   1      41.118  26.859  28.143  1.00  0.00     0.029 A 
ATOM     53  C   UNL A   1      42.010  28.003  28.327  1.00  0.00     0.049 A 
ATOM     54  H   UNL A   1      44.007  28.147  27.752  1.00  0.00     0.167 HD
ATOM     55  C   UNL A   1      48.292  28.205  26.803  1.00  0.00     0.034 A 
ATOM     56  C   UNL A   1      41.678  29.181  28.894  1.00  0.00     0.034 A 
ATOM     57  C   UNL A   1      47.989  29.536  27.254  1.00  0.00     0.049 A 
ATOM     58  C   UNL A   1      42.719  30.268  29.000  1.00  0.00     0.074 A 
ATOM     59  C   UNL A   1      48.829  30.632  27.325  1.00  0.00     0.029 A 
ATOM     60  N   UNL A   1      46.753  29.947  27.729  1.00  0.00    -0.354 N 
ATOM     61  N   UNL A   1      43.966  30.262  28.593  1.00  0.00    -0.248 NA
ATOM     62  C   UNL A   1      42.298  31.536  29.614  1.00  0.00     0.031 C 
ATOM     63  C   UNL A   1      48.112  31.696  27.881  1.00  0.00     0.029 A 
ATOM     64  C   UNL A   1      46.811  31.277  28.110  1.00  0.00     0.049 A 
ATOM     65  H   UNL A   1      45.952  29.377  27.786  1.00  0.00     0.167 HD
ATOM     66  C   UNL A   1      44.463  31.534  28.862  1.00  0.00     0.074 A 
ATOM     67  C   UNL A   1      43.377  32.288  29.452  1.00  0.00     0.031 C 
ATOM     68  C   UNL A   1      45.707  32.030  28.649  1.00  0.00     0.034 A 
BRANCH  55  69
ATOM     69  C   UNL A   1      49.702  27.896  26.372  1.00  0.00     0.023 A 
ATOM     70  C   UNL A   1      50.043  27.933  25.004  1.00  0.00     0.012 A 
ATOM     71  C   UNL A   1      50.699  27.606  27.324  1.00  0.00     0.148 A 
ATOM     72  C   UNL A   1      51.343  27.650  24.588  1.00  0.00     0.002 A 
ATOM     73  C   UNL A   1      52.002  27.373  26.906  1.00  0.00     0.091 A 
ATOM     74  F   UNL A   1      50.351  27.551  28.618  1.00  0.00    -0.205 F 
ATOM     75  C   UNL A   1      52.324  27.380  25.538  1.00  0.00     0.022 A 
BRANCH  73  76
ATOM     76  S   UNL A   1      53.353  27.097  28.056  1.00  0.00     0.127 S 
ATOM     77  O   UNL A   1      52.714  26.254  29.065  1.00  0.00    -0.237 OA
ATOM     78  O   UNL A   1      54.333  26.406  27.218  1.00  0.00    -0.237 OA
ATOM     79  O   UNL A   1      53.768  28.415  28.516  1.00  0.00    -0.744 OA
ENDBRANCH  73  76
ENDBRANCH  55  69
BRANCH  56  80
ATOM     80  C   UNL A   1      40.288  29.411  29.385  1.00  0.00     0.023 A 
ATOM     81  C   UNL A   1      39.320  29.940  28.510  1.00  0.00     0.012 A 
ATOM     82  C   UNL A   1      39.922  29.112  30.712  1.00  0.00     0.148 A 
ATOM     83  C   UNL A   1      38.023  30.200  28.955  1.00  0.00     0.002 A 
ATOM     84  C   UNL A   1      38.614  29.319  31.135  1.00  0.00     0.091 A 
ATOM     85  F   UNL A   1      40.862  28.623  31.535  1.00  0.00    -0.205 F 
ATOM     86  C   UNL A   1      37.668  29.881  30.263  1.00  0.00     0.022 A 
BRANCH  84  87
ATOM     87  S   UNL A   1      38.033  28.829  32.762  1.00  0.00     0.127 S 
ATOM     88  O   UNL A   1      36.654  29.311  32.747  1.00  0.00    -0.237 OA
ATOM     89  O   UNL A   1      38.178  27.374  32.707  1.00  0.00    -0.237 OA
ATOM     90  O   UNL A   1      38.919  29.485  33.715  1.00  0.00    -0.744 OA
ENDBRANCH  84  87
ENDBRANCH  56  80
BRANCH  68  91
ATOM     91  C   UNL A   1      45.960  33.475  29.003  1.00  0.00     0.023 A 
ATOM     92  C   UNL A   1      46.541  33.810  30.241  1.00  0.00     0.012 A 
ATOM     93  C   UNL A   1      45.689  34.496  28.069  1.00  0.00     0.148 A 
ATOM     94  C   UNL A   1      46.813  35.141  30.560  1.00  0.00     0.002 A 
ATOM     95  C   UNL A   1      46.012  35.812  28.371  1.00  0.00     0.091 A 
ATOM     96  F   UNL A   1      45.123  34.159  26.900  1.00  0.00    -0.205 F 
ATOM     97  C   UNL A   1      46.561  36.139  29.621  1.00  0.00     0.022 A 
BRANCH  95  98
ATOM     98  S   UNL A   1      45.818  37.151  27.188  1.00  0.00     0.127 S 
ATOM     99  O   UNL A   1      46.645  36.687  26.075  1.00  0.00    -0.237 OA
ATOM    100  O   UNL A   1      44.378  37.129  26.929  1.00  0.00    -0.237 OA
ATOM    101  O   UNL A   1      46.293  38.353  27.859  1.00  0.00    -0.744 OA
ENDBRANCH  95  98
ENDBRANCH  68  91
ENDBRANCH  42  43
ENDBRANCH  35  37
ENDBRANCH  34  35
ENDBRANCH  33  34
ENDBRANCH  32  33
ENDBRANCH  31  32
ENDBRANCH  30  31
ENDBRANCH  29  30
ENDBRANCH   1  29
TORSDOF 26
ENDMDL
