MODEL 1
REMARK VINA RESULT:     -11.6      0.000      0.000
REMARK SMILES O=C(OCCOCCOCCOCCOC(=O)c1ccc(-c2c3nc(c(-c4cccc(S(=O)(=O)[O-])c4F)c4ccc([nH]4)c(-c4cccc(S(=O)(=O)[O-])c4F)c4nc(c(-c5cccc(S(=O)(=O)[O-])c5F)c5ccc2[nH]5)C=C4)C=C3)cc1)C1=Cc2cc(Cl)cc(Cl)c2O[C@@H]1C(F)(F)F
REMARK SMILES IDX 10 1 9 2 8 3 7 4 6 5 5 6 4 7 3 8 2 9 1 10 81 11 82 12 92 13
REMARK SMILES IDX 83 14 91 15 84 16 90 17 85 18 88 19 86 20 87 21 89 22 93 23
REMARK SMILES IDX 94 24 95 25 96 26 11 27 12 28 13 29 14 30 15 31 16 32 17 33
REMARK SMILES IDX 18 34 19 35 80 36 20 37 79 38 21 39 22 40 23 41 73 42 24 43
REMARK SMILES IDX 78 44 72 45 74 46 25 47 77 48 71 49 70 50 26 52 58 53 38 54
REMARK SMILES IDX 57 55 39 56 42 57 56 58 75 59 40 60 41 61 55 63 76 64 43 65
REMARK SMILES IDX 27 66 28 67 36 68 29 69 31 70 37 71 30 72 32 73 33 74 34 75
REMARK SMILES IDX 35 76 59 77 60 78 68 79 61 80 63 81 69 82 62 83 64 84 65 85
REMARK SMILES IDX 66 86 67 87 44 88 45 89 53 90 46 91 48 92 54 93 47 94 49 95
REMARK SMILES IDX 50 96 51 97 52 98
REMARK H PARENT 74 51 42 62
REMARK Flexibility Score: inf
ROOT
ATOM      1  C   UNL A   1      34.517  22.565  26.740  1.00  0.00     0.188 C 
ENDROOT
BRANCH   1   2
ATOM      2  O   UNL A   1      33.500  23.524  26.568  1.00  0.00    -0.377 OA
BRANCH   2   3
ATOM      3  C   UNL A   1      32.250  23.039  26.989  1.00  0.00     0.188 C 
BRANCH   3   4
ATOM      4  C   UNL A   1      31.491  22.234  25.927  1.00  0.00     0.188 C 
BRANCH   4   5
ATOM      5  O   UNL A   1      31.379  22.609  24.509  1.00  0.00    -0.376 OA
BRANCH   5   6
ATOM      6  C   UNL A   1      32.485  22.789  23.286  1.00  0.00     0.202 C 
BRANCH   6   7
ATOM      7  C   UNL A   1      32.840  24.575  22.081  1.00  0.00     0.261 C 
BRANCH   7   8
ATOM      8  O   UNL A   1      31.879  25.729  21.876  1.00  0.00    -0.460 OA
BRANCH   8   9
ATOM      9  C   UNL A   1      32.335  26.870  22.405  1.00  0.00     0.338 C 
ATOM     10  O   UNL A   1      33.117  27.656  21.927  1.00  0.00    -0.246 OA
BRANCH   9  11
ATOM     11  C   UNL A   1      32.010  26.571  23.790  1.00  0.00     0.087 C 
ATOM     12  C   UNL A   1      33.120  26.767  24.728  1.00  0.00     0.027 C 
ATOM     13  C   UNL A   1      30.410  27.632  23.750  1.00  0.00     0.316 C 
ATOM     14  C   UNL A   1      33.273  28.176  25.840  1.00  0.00     0.020 A 
ATOM     15  O   UNL A   1      30.604  29.243  24.832  1.00  0.00    -0.474 OA
ATOM     16  C   UNL A   1      34.385  28.276  26.632  1.00  0.00     0.032 A 
ATOM     17  C   UNL A   1      32.123  29.474  25.848  1.00  0.00     0.146 A 
ATOM     18  C   UNL A   1      34.470  29.451  27.402  1.00  0.00     0.043 A 
ATOM     19  C   UNL A   1      32.340  30.612  26.589  1.00  0.00     0.085 A 
ATOM     20  Cl  UNL A   1      35.858  29.596  28.435  1.00  0.00    -0.084 Cl
ATOM     21  C   UNL A   1      33.519  30.551  27.380  1.00  0.00     0.045 A 
ATOM     22  Cl  UNL A   1      31.422  32.043  26.535  1.00  0.00    -0.080 Cl
BRANCH  13  23
ATOM     23  C   UNL A   1      29.431  26.279  23.896  1.00  0.00     0.430 C 
ATOM     24  F   UNL A   1      29.842  25.123  23.347  1.00  0.00    -0.167 F 
ATOM     25  F   UNL A   1      29.361  25.996  25.235  1.00  0.00    -0.167 F 
ATOM     26  F   UNL A   1      28.136  26.465  23.533  1.00  0.00    -0.167 F 
ENDBRANCH  13  23
ENDBRANCH   9  11
ENDBRANCH   8   9
ENDBRANCH   7   8
ENDBRANCH   6   7
ENDBRANCH   5   6
ENDBRANCH   4   5
ENDBRANCH   3   4
ENDBRANCH   2   3
ENDBRANCH   1   2
BRANCH   1  27
ATOM     27  C   UNL A   1      35.143  21.998  25.463  1.00  0.00     0.188 C 
BRANCH  27  28
ATOM     28  O   UNL A   1      35.971  20.848  25.450  1.00  0.00    -0.376 OA
BRANCH  28  29
ATOM     29  C   UNL A   1      37.234  20.855  24.813  1.00  0.00     0.202 C 
BRANCH  29  30
ATOM     30  C   UNL A   1      38.450  20.116  25.395  1.00  0.00     0.261 C 
BRANCH  30  31
ATOM     31  O   UNL A   1      39.709  20.793  25.331  1.00  0.00    -0.460 OA
BRANCH  31  32
ATOM     32  C   UNL A   1      40.488  20.666  26.426  1.00  0.00     0.338 C 
ATOM     33  O   UNL A   1      41.098  19.669  26.774  1.00  0.00    -0.246 OA
BRANCH  32  34
ATOM     34  C   UNL A   1      40.670  21.987  27.068  1.00  0.00     0.060 A 
ATOM     35  C   UNL A   1      40.014  23.088  26.494  1.00  0.00     0.016 A 
ATOM     36  C   UNL A   1      41.478  22.160  28.194  1.00  0.00     0.016 A 
ATOM     37  C   UNL A   1      40.210  24.367  26.998  1.00  0.00     0.010 A 
ATOM     38  C   UNL A   1      41.712  23.453  28.673  1.00  0.00     0.010 A 
ATOM     39  C   UNL A   1      41.122  24.561  28.038  1.00  0.00    -0.014 A 
BRANCH  39  40
ATOM     40  C   UNL A   1      41.643  25.930  28.262  1.00  0.00     0.031 A 
ATOM     41  C   UNL A   1      43.031  26.244  27.772  1.00  0.00     0.074 A 
ATOM     42  C   UNL A   1      40.882  26.888  28.816  1.00  0.00     0.049 A 
ATOM     43  N   UNL A   1      43.709  27.357  27.862  1.00  0.00    -0.248 NA
ATOM     44  C   UNL A   1      43.752  25.155  27.090  1.00  0.00     0.031 C 
ATOM     45  C   UNL A   1      39.511  26.708  29.289  1.00  0.00     0.029 A 
ATOM     46  N   UNL A   1      41.166  28.201  29.092  1.00  0.00    -0.354 N 
ATOM     47  C   UNL A   1      44.943  27.095  27.276  1.00  0.00     0.074 A 
ATOM     48  C   UNL A   1      44.928  25.712  26.854  1.00  0.00     0.031 C 
ATOM     49  C   UNL A   1      39.082  27.863  29.827  1.00  0.00     0.029 A 
ATOM     50  C   UNL A   1      40.160  28.848  29.767  1.00  0.00     0.049 A 
ATOM     51  H   UNL A   1      42.009  28.637  28.830  1.00  0.00     0.167 HD
ATOM     52  C   UNL A   1      45.989  27.933  27.095  1.00  0.00     0.034 A 
ATOM     53  C   UNL A   1      40.133  30.081  30.310  1.00  0.00     0.034 A 
ATOM     54  C   UNL A   1      45.997  29.304  27.522  1.00  0.00     0.049 A 
ATOM     55  C   UNL A   1      41.339  30.974  30.156  1.00  0.00     0.074 A 
ATOM     56  C   UNL A   1      47.000  30.246  27.375  1.00  0.00     0.029 A 
ATOM     57  N   UNL A   1      44.960  29.928  28.199  1.00  0.00    -0.354 N 
ATOM     58  N   UNL A   1      42.471  30.738  29.537  1.00  0.00    -0.248 NA
ATOM     59  C   UNL A   1      41.252  32.315  30.751  1.00  0.00     0.031 C 
ATOM     60  C   UNL A   1      46.589  31.422  28.009  1.00  0.00     0.029 A 
ATOM     61  C   UNL A   1      45.304  31.235  28.491  1.00  0.00     0.049 A 
ATOM     62  H   UNL A   1      44.105  29.501  28.437  1.00  0.00     0.167 HD
ATOM     63  C   UNL A   1      43.208  31.915  29.628  1.00  0.00     0.074 A 
ATOM     64  C   UNL A   1      42.385  32.866  30.343  1.00  0.00     0.031 C 
ATOM     65  C   UNL A   1      44.456  32.183  29.166  1.00  0.00     0.034 A 
BRANCH  52  66
ATOM     66  C   UNL A   1      47.214  27.384  26.410  1.00  0.00     0.023 A 
ATOM     67  C   UNL A   1      48.115  26.564  27.122  1.00  0.00     0.012 A 
ATOM     68  C   UNL A   1      47.451  27.646  25.046  1.00  0.00     0.148 A 
ATOM     69  C   UNL A   1      49.249  26.046  26.499  1.00  0.00     0.002 A 
ATOM     70  C   UNL A   1      48.554  27.083  24.418  1.00  0.00     0.091 A 
ATOM     71  F   UNL A   1      46.594  28.443  24.391  1.00  0.00    -0.205 F 
ATOM     72  C   UNL A   1      49.463  26.296  25.146  1.00  0.00     0.022 A 
BRANCH  70  73
ATOM     73  S   UNL A   1      48.876  27.279  22.663  1.00  0.00     0.127 S 
ATOM     74  O   UNL A   1      50.327  27.471  22.649  1.00  0.00    -0.237 OA
ATOM     75  O   UNL A   1      48.426  25.994  22.127  1.00  0.00    -0.237 OA
ATOM     76  O   UNL A   1      48.094  28.429  22.232  1.00  0.00    -0.744 OA
ENDBRANCH  70  73
ENDBRANCH  52  66
BRANCH  53  77
ATOM     77  C   UNL A   1      38.934  30.551  31.060  1.00  0.00     0.023 A 
ATOM     78  C   UNL A   1      38.721  30.127  32.386  1.00  0.00     0.012 A 
ATOM     79  C   UNL A   1      37.987  31.396  30.449  1.00  0.00     0.148 A 
ATOM     80  C   UNL A   1      37.563  30.495  33.072  1.00  0.00     0.002 A 
ATOM     81  C   UNL A   1      36.867  31.809  31.159  1.00  0.00     0.091 A 
ATOM     82  F   UNL A   1      38.202  31.780  29.183  1.00  0.00    -0.205 F 
ATOM     83  C   UNL A   1      36.640  31.342  32.461  1.00  0.00     0.022 A 
BRANCH  81  84
ATOM     84  S   UNL A   1      35.691  32.993  30.498  1.00  0.00     0.127 S 
ATOM     85  O   UNL A   1      34.422  32.452  30.977  1.00  0.00    -0.237 OA
ATOM     86  O   UNL A   1      36.119  34.232  31.148  1.00  0.00    -0.237 OA
ATOM     87  O   UNL A   1      35.878  32.975  29.053  1.00  0.00    -0.744 OA
ENDBRANCH  81  84
ENDBRANCH  53  77
BRANCH  65  88
ATOM     88  C   UNL A   1      44.984  33.584  29.355  1.00  0.00     0.023 A 
ATOM     89  C   UNL A   1      45.647  33.946  30.544  1.00  0.00     0.012 A 
ATOM     90  C   UNL A   1      44.860  34.530  28.318  1.00  0.00     0.148 A 
ATOM     91  C   UNL A   1      46.132  35.242  30.717  1.00  0.00     0.002 A 
ATOM     92  C   UNL A   1      45.399  35.799  28.472  1.00  0.00     0.091 A 
ATOM     93  F   UNL A   1      44.216  34.169  27.198  1.00  0.00    -0.205 F 
ATOM     94  C   UNL A   1      46.017  36.165  29.679  1.00  0.00     0.022 A 
BRANCH  92  95
ATOM     95  S   UNL A   1      45.388  37.019  27.156  1.00  0.00     0.127 S 
ATOM     96  O   UNL A   1      46.056  36.296  26.074  1.00  0.00    -0.237 OA
ATOM     97  O   UNL A   1      43.956  37.236  26.950  1.00  0.00    -0.237 OA
ATOM     98  O   UNL A   1      46.110  38.176  27.668  1.00  0.00    -0.744 OA
ENDBRANCH  92  95
ENDBRANCH  65  88
ENDBRANCH  39  40
ENDBRANCH  32  34
ENDBRANCH  31  32
ENDBRANCH  30  31
ENDBRANCH  29  30
ENDBRANCH  28  29
ENDBRANCH  27  28
ENDBRANCH   1  27
TORSDOF 24
ENDMDL
MODEL 2
REMARK VINA RESULT:     -11.2      2.253      7.929
REMARK SMILES O=C(OCCOCCOCCOCCOC(=O)c1ccc(-c2c3nc(c(-c4cccc(S(=O)(=O)[O-])c4F)c4ccc([nH]4)c(-c4cccc(S(=O)(=O)[O-])c4F)c4nc(c(-c5cccc(S(=O)(=O)[O-])c5F)c5ccc2[nH]5)C=C4)C=C3)cc1)C1=Cc2cc(Cl)cc(Cl)c2O[C@@H]1C(F)(F)F
REMARK SMILES IDX 10 1 9 2 8 3 7 4 6 5 5 6 4 7 3 8 2 9 1 10 81 11 82 12 92 13
REMARK SMILES IDX 83 14 91 15 84 16 90 17 85 18 88 19 86 20 87 21 89 22 93 23
REMARK SMILES IDX 94 24 95 25 96 26 11 27 12 28 13 29 14 30 15 31 16 32 17 33
REMARK SMILES IDX 18 34 19 35 80 36 20 37 79 38 21 39 22 40 23 41 73 42 24 43
REMARK SMILES IDX 78 44 72 45 74 46 25 47 77 48 71 49 70 50 26 52 58 53 38 54
REMARK SMILES IDX 57 55 39 56 42 57 56 58 75 59 40 60 41 61 55 63 76 64 43 65
REMARK SMILES IDX 27 66 28 67 36 68 29 69 31 70 37 71 30 72 32 73 33 74 34 75
REMARK SMILES IDX 35 76 59 77 60 78 68 79 61 80 63 81 69 82 62 83 64 84 65 85
REMARK SMILES IDX 66 86 67 87 44 88 45 89 53 90 46 91 48 92 54 93 47 94 49 95
REMARK SMILES IDX 50 96 51 97 52 98
REMARK H PARENT 74 51 42 62
REMARK Flexibility Score: inf
ROOT
ATOM      1  C   UNL A   1      34.625  16.600  24.978  1.00  0.00     0.188 C 
ENDROOT
BRANCH   1   2
ATOM      2  O   UNL A   1      33.579  16.390  24.058  1.00  0.00    -0.377 OA
BRANCH   2   3
ATOM      3  C   UNL A   1      33.637  17.299  22.987  1.00  0.00     0.188 C 
BRANCH   3   4
ATOM      4  C   UNL A   1      32.327  18.052  22.722  1.00  0.00     0.188 C 
BRANCH   4   5
ATOM      5  O   UNL A   1      32.207  19.513  22.604  1.00  0.00    -0.376 OA
BRANCH   5   6
ATOM      6  C   UNL A   1      32.649  20.777  23.583  1.00  0.00     0.202 C 
BRANCH   6   7
ATOM      7  C   UNL A   1      31.542  21.575  25.287  1.00  0.00     0.261 C 
BRANCH   7   8
ATOM      8  O   UNL A   1      32.120  22.353  26.453  1.00  0.00    -0.460 OA
BRANCH   8   9
ATOM      9  C   UNL A   1      31.601  23.581  26.550  1.00  0.00     0.338 C 
ATOM     10  O   UNL A   1      30.690  23.956  27.248  1.00  0.00    -0.246 OA
BRANCH   9  11
ATOM     11  C   UNL A   1      32.106  24.092  25.286  1.00  0.00     0.087 C 
ATOM     12  C   UNL A   1      31.091  24.734  24.444  1.00  0.00     0.027 C 
ATOM     13  C   UNL A   1      33.571  25.008  26.125  1.00  0.00     0.316 C 
ATOM     14  C   UNL A   1      30.914  26.516  24.248  1.00  0.00     0.020 A 
ATOM     15  O   UNL A   1      33.328  26.943  26.056  1.00  0.00    -0.474 OA
ATOM     16  C   UNL A   1      29.892  26.998  23.475  1.00  0.00     0.032 A 
ATOM     17  C   UNL A   1      31.913  27.643  25.106  1.00  0.00     0.146 A 
ATOM     18  C   UNL A   1      29.767  28.399  23.448  1.00  0.00     0.043 A 
ATOM     19  C   UNL A   1      31.660  28.994  25.064  1.00  0.00     0.085 A 
ATOM     20  Cl  UNL A   1      28.494  29.041  22.458  1.00  0.00    -0.084 Cl
ATOM     21  C   UNL A   1      30.589  29.338  24.196  1.00  0.00     0.045 A 
ATOM     22  Cl  UNL A   1      32.410  30.192  26.010  1.00  0.00    -0.080 Cl
BRANCH  13  23
ATOM     23  C   UNL A   1      34.697  23.982  25.429  1.00  0.00     0.430 C 
ATOM     24  F   UNL A   1      35.918  24.464  25.138  1.00  0.00    -0.167 F 
ATOM     25  F   UNL A   1      34.948  23.000  26.353  1.00  0.00    -0.167 F 
ATOM     26  F   UNL A   1      34.259  23.299  24.340  1.00  0.00    -0.167 F 
ENDBRANCH  13  23
ENDBRANCH   9  11
ENDBRANCH   8   9
ENDBRANCH   7   8
ENDBRANCH   6   7
ENDBRANCH   5   6
ENDBRANCH   4   5
ENDBRANCH   3   4
ENDBRANCH   2   3
ENDBRANCH   1   2
BRANCH   1  27
ATOM     27  C   UNL A   1      35.542  17.795  24.707  1.00  0.00     0.188 C 
BRANCH  27  28
ATOM     28  O   UNL A   1      36.869  17.881  25.200  1.00  0.00    -0.376 OA
BRANCH  28  29
ATOM     29  C   UNL A   1      37.681  19.011  24.940  1.00  0.00     0.202 C 
BRANCH  29  30
ATOM     30  C   UNL A   1      38.990  19.271  25.702  1.00  0.00     0.261 C 
BRANCH  30  31
ATOM     31  O   UNL A   1      39.494  20.611  25.681  1.00  0.00    -0.460 OA
BRANCH  31  32
ATOM     32  C   UNL A   1      38.563  21.579  25.815  1.00  0.00     0.338 C 
ATOM     33  O   UNL A   1      37.376  21.490  25.546  1.00  0.00    -0.246 OA
BRANCH  32  34
ATOM     34  C   UNL A   1      39.142  22.737  26.533  1.00  0.00     0.060 A 
ATOM     35  C   UNL A   1      38.536  23.989  26.345  1.00  0.00     0.016 A 
ATOM     36  C   UNL A   1      40.262  22.615  27.356  1.00  0.00     0.016 A 
ATOM     37  C   UNL A   1      39.080  25.129  26.923  1.00  0.00     0.010 A 
ATOM     38  C   UNL A   1      40.838  23.768  27.901  1.00  0.00     0.010 A 
ATOM     39  C   UNL A   1      40.277  25.031  27.636  1.00  0.00    -0.014 A 
BRANCH  39  40
ATOM     40  C   UNL A   1      41.059  26.269  27.859  1.00  0.00     0.031 A 
ATOM     41  C   UNL A   1      40.398  27.394  28.611  1.00  0.00     0.074 A 
ATOM     42  C   UNL A   1      42.342  26.368  27.473  1.00  0.00     0.049 A 
ATOM     43  N   UNL A   1      40.867  28.574  28.917  1.00  0.00    -0.248 NA
ATOM     44  C   UNL A   1      39.021  27.155  29.078  1.00  0.00     0.031 C 
ATOM     45  C   UNL A   1      43.095  25.328  26.776  1.00  0.00     0.029 A 
ATOM     46  N   UNL A   1      43.231  27.404  27.598  1.00  0.00    -0.354 N 
ATOM     47  C   UNL A   1      39.837  29.227  29.585  1.00  0.00     0.074 A 
ATOM     48  C   UNL A   1      38.711  28.321  29.621  1.00  0.00     0.031 C 
ATOM     49  C   UNL A   1      44.327  25.792  26.506  1.00  0.00     0.029 A 
ATOM     50  C   UNL A   1      44.434  27.171  26.979  1.00  0.00     0.049 A 
ATOM     51  H   UNL A   1      43.026  28.235  28.085  1.00  0.00     0.167 HD
ATOM     52  C   UNL A   1      39.833  30.465  30.131  1.00  0.00     0.034 A 
ATOM     53  C   UNL A   1      45.483  27.994  26.783  1.00  0.00     0.034 A 
ATOM     54  C   UNL A   1      40.956  31.361  30.087  1.00  0.00     0.049 A 
ATOM     55  C   UNL A   1      45.428  29.394  27.340  1.00  0.00     0.074 A 
ATOM     56  C   UNL A   1      41.063  32.632  30.621  1.00  0.00     0.029 A 
ATOM     57  N   UNL A   1      42.160  31.090  29.455  1.00  0.00    -0.354 N 
ATOM     58  N   UNL A   1      44.477  29.973  28.032  1.00  0.00    -0.248 NA
ATOM     59  C   UNL A   1      46.605  30.244  27.113  1.00  0.00     0.031 C 
ATOM     60  C   UNL A   1      42.312  33.149  30.267  1.00  0.00     0.029 A 
ATOM     61  C   UNL A   1      43.010  32.174  29.572  1.00  0.00     0.049 A 
ATOM     62  H   UNL A   1      42.376  30.248  28.991  1.00  0.00     0.167 HD
ATOM     63  C   UNL A   1      44.960  31.235  28.363  1.00  0.00     0.074 A 
ATOM     64  C   UNL A   1      46.295  31.326  27.812  1.00  0.00     0.031 C 
ATOM     65  C   UNL A   1      44.352  32.233  29.054  1.00  0.00     0.034 A 
BRANCH  52  66
ATOM     66  C   UNL A   1      38.572  30.923  30.817  1.00  0.00     0.023 A 
ATOM     67  C   UNL A   1      38.423  30.754  32.209  1.00  0.00     0.012 A 
ATOM     68  C   UNL A   1      37.550  31.562  30.087  1.00  0.00     0.148 A 
ATOM     69  C   UNL A   1      37.264  31.178  32.857  1.00  0.00     0.002 A 
ATOM     70  C   UNL A   1      36.421  32.030  30.746  1.00  0.00     0.091 A 
ATOM     71  F   UNL A   1      37.702  31.697  28.761  1.00  0.00    -0.205 F 
ATOM     72  C   UNL A   1      36.269  31.825  32.128  1.00  0.00     0.022 A 
BRANCH  70  73
ATOM     73  S   UNL A   1      35.121  32.945  29.914  1.00  0.00     0.127 S 
ATOM     74  O   UNL A   1      34.597  31.938  28.990  1.00  0.00    -0.237 OA
ATOM     75  O   UNL A   1      34.227  33.279  31.023  1.00  0.00    -0.237 OA
ATOM     76  O   UNL A   1      35.767  34.087  29.283  1.00  0.00    -0.744 OA
ENDBRANCH  70  73
ENDBRANCH  52  66
BRANCH  53  77
ATOM     77  C   UNL A   1      46.675  27.529  26.018  1.00  0.00     0.023 A 
ATOM     78  C   UNL A   1      46.734  27.715  24.623  1.00  0.00     0.012 A 
ATOM     79  C   UNL A   1      47.740  26.876  26.668  1.00  0.00     0.148 A 
ATOM     80  C   UNL A   1      47.807  27.215  23.884  1.00  0.00     0.002 A 
ATOM     81  C   UNL A   1      48.834  26.435  25.935  1.00  0.00     0.091 A 
ATOM     82  F   UNL A   1      47.661  26.699  27.995  1.00  0.00    -0.205 F 
ATOM     83  C   UNL A   1      48.860  26.582  24.541  1.00  0.00     0.022 A 
BRANCH  81  84
ATOM     84  S   UNL A   1      50.287  25.720  26.709  1.00  0.00     0.127 S 
ATOM     85  O   UNL A   1      49.750  24.478  27.261  1.00  0.00    -0.237 OA
ATOM     86  O   UNL A   1      51.181  25.551  25.563  1.00  0.00    -0.237 OA
ATOM     87  O   UNL A   1      50.740  26.700  27.687  1.00  0.00    -0.744 OA
ENDBRANCH  81  84
ENDBRANCH  53  77
BRANCH  65  88
ATOM     88  C   UNL A   1      45.151  33.485  29.320  1.00  0.00     0.023 A 
ATOM     89  C   UNL A   1      45.942  33.598  30.480  1.00  0.00     0.012 A 
ATOM     90  C   UNL A   1      45.150  34.535  28.380  1.00  0.00     0.148 A 
ATOM     91  C   UNL A   1      46.678  34.757  30.724  1.00  0.00     0.002 A 
ATOM     92  C   UNL A   1      45.932  35.660  28.600  1.00  0.00     0.091 A 
ATOM     93  F   UNL A   1      44.382  34.413  27.287  1.00  0.00    -0.205 F 
ATOM     94  C   UNL A   1      46.681  35.783  29.781  1.00  0.00     0.022 A 
BRANCH  92  95
ATOM     95  S   UNL A   1      46.078  36.984  27.397  1.00  0.00     0.127 S 
ATOM     96  O   UNL A   1      44.688  37.418  27.263  1.00  0.00    -0.237 OA
ATOM     97  O   UNL A   1      46.949  37.933  28.089  1.00  0.00    -0.237 OA
ATOM     98  O   UNL A   1      46.659  36.386  26.202  1.00  0.00    -0.744 OA
ENDBRANCH  92  95
ENDBRANCH  65  88
ENDBRANCH  39  40
ENDBRANCH  32  34
ENDBRANCH  31  32
ENDBRANCH  30  31
ENDBRANCH  29  30
ENDBRANCH  28  29
ENDBRANCH  27  28
ENDBRANCH   1  27
TORSDOF 24
ENDMDL
MODEL 3
REMARK VINA RESULT:     -10.9      2.489      7.962
REMARK SMILES O=C(OCCOCCOCCOCCOC(=O)c1ccc(-c2c3nc(c(-c4cccc(S(=O)(=O)[O-])c4F)c4ccc([nH]4)c(-c4cccc(S(=O)(=O)[O-])c4F)c4nc(c(-c5cccc(S(=O)(=O)[O-])c5F)c5ccc2[nH]5)C=C4)C=C3)cc1)C1=Cc2cc(Cl)cc(Cl)c2O[C@@H]1C(F)(F)F
REMARK SMILES IDX 10 1 9 2 8 3 7 4 6 5 5 6 4 7 3 8 2 9 1 10 81 11 82 12 92 13
REMARK SMILES IDX 83 14 91 15 84 16 90 17 85 18 88 19 86 20 87 21 89 22 93 23
REMARK SMILES IDX 94 24 95 25 96 26 11 27 12 28 13 29 14 30 15 31 16 32 17 33
REMARK SMILES IDX 18 34 19 35 80 36 20 37 79 38 21 39 22 40 23 41 73 42 24 43
REMARK SMILES IDX 78 44 72 45 74 46 25 47 77 48 71 49 70 50 26 52 58 53 38 54
REMARK SMILES IDX 57 55 39 56 42 57 56 58 75 59 40 60 41 61 55 63 76 64 43 65
REMARK SMILES IDX 27 66 28 67 36 68 29 69 31 70 37 71 30 72 32 73 33 74 34 75
REMARK SMILES IDX 35 76 59 77 60 78 68 79 61 80 63 81 69 82 62 83 64 84 65 85
REMARK SMILES IDX 66 86 67 87 44 88 45 89 53 90 46 91 48 92 54 93 47 94 49 95
REMARK SMILES IDX 50 96 51 97 52 98
REMARK H PARENT 74 51 42 62
REMARK Flexibility Score: inf
ROOT
ATOM      1  C   UNL A   1      34.893  16.234  25.026  1.00  0.00     0.188 C 
ENDROOT
BRANCH   1   2
ATOM      2  O   UNL A   1      33.713  16.092  24.271  1.00  0.00    -0.377 OA
BRANCH   2   3
ATOM      3  C   UNL A   1      33.626  17.058  23.253  1.00  0.00     0.188 C 
BRANCH   3   4
ATOM      4  C   UNL A   1      32.280  17.788  23.184  1.00  0.00     0.188 C 
BRANCH   4   5
ATOM      5  O   UNL A   1      32.101  19.180  22.744  1.00  0.00    -0.376 OA
BRANCH   5   6
ATOM      6  C   UNL A   1      32.463  20.648  23.427  1.00  0.00     0.202 C 
BRANCH   6   7
ATOM      7  C   UNL A   1      31.738  21.432  25.331  1.00  0.00     0.261 C 
BRANCH   7   8
ATOM      8  O   UNL A   1      30.728  22.546  25.521  1.00  0.00    -0.460 OA
BRANCH   8   9
ATOM      9  C   UNL A   1      31.264  23.622  26.107  1.00  0.00     0.338 C 
ATOM     10  O   UNL A   1      30.982  24.112  27.173  1.00  0.00    -0.246 OA
BRANCH   9  11
ATOM     11  C   UNL A   1      31.841  24.211  24.909  1.00  0.00     0.087 C 
ATOM     12  C   UNL A   1      30.882  24.937  24.069  1.00  0.00     0.027 C 
ATOM     13  C   UNL A   1      33.281  25.028  25.881  1.00  0.00     0.316 C 
ATOM     14  C   UNL A   1      30.751  26.732  23.996  1.00  0.00     0.020 A 
ATOM     15  O   UNL A   1      33.082  26.968  25.943  1.00  0.00    -0.474 OA
ATOM     16  C   UNL A   1      29.778  27.293  23.214  1.00  0.00     0.032 A 
ATOM     17  C   UNL A   1      31.731  27.770  24.981  1.00  0.00     0.146 A 
ATOM     18  C   UNL A   1      29.684  28.695  23.285  1.00  0.00     0.043 A 
ATOM     19  C   UNL A   1      31.508  29.126  25.027  1.00  0.00     0.085 A 
ATOM     20  Cl  UNL A   1      28.474  29.438  22.285  1.00  0.00    -0.084 Cl
ATOM     21  C   UNL A   1      30.487  29.558  24.137  1.00  0.00     0.045 A 
ATOM     22  Cl  UNL A   1      32.235  30.233  26.093  1.00  0.00    -0.080 Cl
BRANCH  13  23
ATOM     23  C   UNL A   1      34.419  24.028  25.165  1.00  0.00     0.430 C 
ATOM     24  F   UNL A   1      34.312  23.763  23.851  1.00  0.00    -0.167 F 
ATOM     25  F   UNL A   1      35.622  24.676  25.269  1.00  0.00    -0.167 F 
ATOM     26  F   UNL A   1      34.629  22.847  25.802  1.00  0.00    -0.167 F 
ENDBRANCH  13  23
ENDBRANCH   9  11
ENDBRANCH   8   9
ENDBRANCH   7   8
ENDBRANCH   6   7
ENDBRANCH   5   6
ENDBRANCH   4   5
ENDBRANCH   3   4
ENDBRANCH   2   3
ENDBRANCH   1   2
BRANCH   1  27
ATOM     27  C   UNL A   1      35.635  17.567  24.889  1.00  0.00     0.188 C 
BRANCH  27  28
ATOM     28  O   UNL A   1      36.968  17.761  25.329  1.00  0.00    -0.376 OA
BRANCH  28  29
ATOM     29  C   UNL A   1      37.707  18.910  24.960  1.00  0.00     0.202 C 
BRANCH  29  30
ATOM     30  C   UNL A   1      39.014  19.305  25.666  1.00  0.00     0.261 C 
BRANCH  30  31
ATOM     31  O   UNL A   1      39.451  20.659  25.505  1.00  0.00    -0.460 OA
BRANCH  31  32
ATOM     32  C   UNL A   1      38.523  21.600  25.777  1.00  0.00     0.338 C 
ATOM     33  O   UNL A   1      37.321  21.511  25.593  1.00  0.00    -0.246 OA
BRANCH  32  34
ATOM     34  C   UNL A   1      39.143  22.715  26.527  1.00  0.00     0.060 A 
ATOM     35  C   UNL A   1      38.600  23.998  26.356  1.00  0.00     0.016 A 
ATOM     36  C   UNL A   1      40.243  22.525  27.365  1.00  0.00     0.016 A 
ATOM     37  C   UNL A   1      39.186  25.099  26.966  1.00  0.00     0.010 A 
ATOM     38  C   UNL A   1      40.862  23.638  27.942  1.00  0.00     0.010 A 
ATOM     39  C   UNL A   1      40.366  24.931  27.695  1.00  0.00    -0.014 A 
BRANCH  39  40
ATOM     40  C   UNL A   1      41.200  26.127  27.956  1.00  0.00     0.031 A 
ATOM     41  C   UNL A   1      40.586  27.258  28.738  1.00  0.00     0.074 A 
ATOM     42  C   UNL A   1      42.488  26.180  27.577  1.00  0.00     0.049 A 
ATOM     43  N   UNL A   1      41.106  28.406  29.079  1.00  0.00    -0.248 NA
ATOM     44  C   UNL A   1      39.198  27.066  29.195  1.00  0.00     0.031 C 
ATOM     45  C   UNL A   1      43.198  25.128  26.852  1.00  0.00     0.029 A 
ATOM     46  N   UNL A   1      43.421  27.172  27.734  1.00  0.00    -0.354 N 
ATOM     47  C   UNL A   1      40.103  29.085  29.763  1.00  0.00     0.074 A 
ATOM     48  C   UNL A   1      38.938  28.229  29.770  1.00  0.00     0.031 C 
ATOM     49  C   UNL A   1      44.450  25.545  26.599  1.00  0.00     0.029 A 
ATOM     50  C   UNL A   1      44.615  26.903  27.112  1.00  0.00     0.049 A 
ATOM     51  H   UNL A   1      43.251  27.997  28.244  1.00  0.00     0.167 HD
ATOM     52  C   UNL A   1      40.151  30.306  30.345  1.00  0.00     0.034 A 
ATOM     53  C   UNL A   1      45.701  27.684  26.943  1.00  0.00     0.034 A 
ATOM     54  C   UNL A   1      41.312  31.152  30.329  1.00  0.00     0.049 A 
ATOM     55  C   UNL A   1      45.705  29.069  27.540  1.00  0.00     0.074 A 
ATOM     56  C   UNL A   1      41.473  32.401  30.900  1.00  0.00     0.029 A 
ATOM     57  N   UNL A   1      42.505  30.846  29.694  1.00  0.00    -0.354 N 
ATOM     58  N   UNL A   1      44.777  29.670  28.246  1.00  0.00    -0.248 NA
ATOM     59  C   UNL A   1      46.919  29.873  27.341  1.00  0.00     0.031 C 
ATOM     60  C   UNL A   1      42.745  32.873  30.565  1.00  0.00     0.029 A 
ATOM     61  C   UNL A   1      43.402  31.888  29.844  1.00  0.00     0.049 A 
ATOM     62  H   UNL A   1      42.687  30.010  29.207  1.00  0.00     0.167 HD
ATOM     63  C   UNL A   1      45.314  30.900  28.614  1.00  0.00     0.074 A 
ATOM     64  C   UNL A   1      46.654  30.947  28.070  1.00  0.00     0.031 C 
ATOM     65  C   UNL A   1      44.748  31.902  29.333  1.00  0.00     0.034 A 
BRANCH  52  66
ATOM     66  C   UNL A   1      38.908  30.799  31.040  1.00  0.00     0.023 A 
ATOM     67  C   UNL A   1      38.813  30.737  32.446  1.00  0.00     0.012 A 
ATOM     68  C   UNL A   1      37.850  31.365  30.301  1.00  0.00     0.148 A 
ATOM     69  C   UNL A   1      37.671  31.196  33.102  1.00  0.00     0.002 A 
ATOM     70  C   UNL A   1      36.739  31.867  30.964  1.00  0.00     0.091 A 
ATOM     71  F   UNL A   1      37.951  31.397  28.965  1.00  0.00    -0.205 F 
ATOM     72  C   UNL A   1      36.640  31.770  32.362  1.00  0.00     0.022 A 
BRANCH  70  73
ATOM     73  S   UNL A   1      35.394  32.697  30.113  1.00  0.00     0.127 S 
ATOM     74  O   UNL A   1      34.383  32.779  31.168  1.00  0.00    -0.237 OA
ATOM     75  O   UNL A   1      36.005  33.977  29.754  1.00  0.00    -0.237 OA
ATOM     76  O   UNL A   1      35.043  31.848  28.984  1.00  0.00    -0.744 OA
ENDBRANCH  70  73
ENDBRANCH  52  66
BRANCH  53  77
ATOM     77  C   UNL A   1      46.874  27.190  26.168  1.00  0.00     0.023 A 
ATOM     78  C   UNL A   1      47.806  26.325  26.774  1.00  0.00     0.012 A 
ATOM     79  C   UNL A   1      47.083  27.600  24.837  1.00  0.00     0.148 A 
ATOM     80  C   UNL A   1      48.950  25.919  26.087  1.00  0.00     0.002 A 
ATOM     81  C   UNL A   1      48.192  27.142  24.137  1.00  0.00     0.091 A 
ATOM     82  F   UNL A   1      46.191  28.432  24.281  1.00  0.00    -0.205 F 
ATOM     83  C   UNL A   1      49.139  26.321  24.766  1.00  0.00     0.022 A 
BRANCH  81  84
ATOM     84  S   UNL A   1      48.453  27.509  22.399  1.00  0.00     0.127 S 
ATOM     85  O   UNL A   1      48.704  26.180  21.848  1.00  0.00    -0.237 OA
ATOM     86  O   UNL A   1      47.167  28.100  22.025  1.00  0.00    -0.237 OA
ATOM     87  O   UNL A   1      49.577  28.434  22.352  1.00  0.00    -0.744 OA
ENDBRANCH  81  84
ENDBRANCH  53  77
BRANCH  65  88
ATOM     88  C   UNL A   1      45.600  33.110  29.637  1.00  0.00     0.023 A 
ATOM     89  C   UNL A   1      45.472  34.287  28.875  1.00  0.00     0.012 A 
ATOM     90  C   UNL A   1      46.497  33.084  30.723  1.00  0.00     0.148 A 
ATOM     91  C   UNL A   1      46.263  35.402  29.157  1.00  0.00     0.002 A 
ATOM     92  C   UNL A   1      47.236  34.216  31.037  1.00  0.00     0.091 A 
ATOM     93  F   UNL A   1      46.612  31.950  31.431  1.00  0.00    -0.205 F 
ATOM     94  C   UNL A   1      47.136  35.370  30.242  1.00  0.00     0.022 A 
BRANCH  92  95
ATOM     95  S   UNL A   1      48.309  34.302  32.473  1.00  0.00     0.127 S 
ATOM     96  O   UNL A   1      49.369  33.363  32.109  1.00  0.00    -0.237 OA
ATOM     97  O   UNL A   1      48.713  35.708  32.471  1.00  0.00    -0.237 OA
ATOM     98  O   UNL A   1      47.494  33.905  33.613  1.00  0.00    -0.744 OA
ENDBRANCH  92  95
ENDBRANCH  65  88
ENDBRANCH  39  40
ENDBRANCH  32  34
ENDBRANCH  31  32
ENDBRANCH  30  31
ENDBRANCH  29  30
ENDBRANCH  28  29
ENDBRANCH  27  28
ENDBRANCH   1  27
TORSDOF 24
ENDMDL
