MODEL 1
REMARK VINA RESULT:      -7.5      0.000      0.000
REMARK SMILES COc1cc2c(cc1OC)[C@H](C(=O)OCCOCCOCCOCCOC(=O)c1ccc(-c3c4nc(c(-c5cccc(S(=O)(=O)[O-])c5F)c5ccc([nH]5)c(-c5cccc(S(=O)(=O)[O-])c5F)c5nc(c(-c6cccc(S(=O)(=O)[O-])c6F)c6ccc3[nH]6)C=C5)C=C4)cc1)[C@H](c1cccc(Cl)c1)N(C)C2=O
REMARK SMILES IDX 21 1 20 2 19 3 18 4 17 5 16 6 15 7 14 8 12 9 13 10 11 11
REMARK SMILES IDX 3 12 4 13 8 14 5 15 7 16 6 17 102 18 100 19 103 20 92 21
REMARK SMILES IDX 101 22 2 23 1 24 9 25 10 26 93 27 94 28 99 29 95 30 97 31
REMARK SMILES IDX 96 32 98 33 22 34 23 35 24 36 25 37 26 38 27 39 28 40 29 41
REMARK SMILES IDX 30 42 91 43 31 44 90 45 32 46 33 47 34 48 84 49 35 50 89 51
REMARK SMILES IDX 83 52 85 53 36 54 88 55 82 56 81 57 37 59 69 60 49 61 68 62
REMARK SMILES IDX 50 63 53 64 67 65 86 66 51 67 52 68 66 70 87 71 54 72 38 73
REMARK SMILES IDX 39 74 47 75 40 76 42 77 48 78 41 79 43 80 44 81 45 82 46 83
REMARK SMILES IDX 70 84 71 85 79 86 72 87 74 88 80 89 73 90 75 91 76 92 77 93
REMARK SMILES IDX 78 94 55 95 56 96 64 97 57 98 59 99 65 100 58 101 60 102
REMARK SMILES IDX 61 103 62 104 63 105
REMARK H PARENT 85 58 53 69
REMARK Flexibility Score: inf
ROOT
ATOM      1  C   UNL A   1      36.131  31.853  28.089  1.00  0.00     0.188 C 
ENDROOT
BRANCH   1   2
ATOM      2  O   UNL A   1      36.242  30.492  28.461  1.00  0.00    -0.377 OA
BRANCH   2   3
ATOM      3  C   UNL A   1      37.503  29.978  28.822  1.00  0.00     0.188 C 
BRANCH   3   4
ATOM      4  C   UNL A   1      38.352  29.118  27.856  1.00  0.00     0.188 C 
BRANCH   4   5
ATOM      5  O   UNL A   1      39.659  29.496  27.487  1.00  0.00    -0.376 OA
BRANCH   5   6
ATOM      6  C   UNL A   1      40.726  28.634  27.133  1.00  0.00     0.202 C 
BRANCH   6   7
ATOM      7  C   UNL A   1      40.642  27.338  26.319  1.00  0.00     0.261 C 
BRANCH   7   8
ATOM      8  O   UNL A   1      41.804  26.526  26.328  1.00  0.00    -0.463 OA
BRANCH   8   9
ATOM      9  C   UNL A   1      42.842  26.979  25.597  1.00  0.00     0.316 C 
ATOM     10  O   UNL A   1      42.687  27.715  24.622  1.00  0.00    -0.251 OA
BRANCH   9  11
ATOM     11  C   UNL A   1      44.205  26.720  26.211  1.00  0.00     0.157 C 
ATOM     12  C   UNL A   1      44.799  25.894  30.456  1.00  0.00     0.161 A 
ATOM     13  C   UNL A   1      45.762  25.556  29.496  1.00  0.00     0.064 A 
ATOM     14  C   UNL A   1      43.663  26.600  30.067  1.00  0.00     0.161 A 
ATOM     15  C   UNL A   1      45.565  25.865  28.141  1.00  0.00     0.048 A 
ATOM     16  C   UNL A   1      43.485  26.897  28.705  1.00  0.00     0.056 A 
ATOM     17  C   UNL A   1      44.374  26.469  27.706  1.00  0.00    -0.015 A 
ATOM     18  C   UNL A   1      46.673  25.598  27.174  1.00  0.00     0.254 C 
ATOM     19  N   UNL A   1      46.348  25.599  25.819  1.00  0.00    -0.333 N 
ATOM     20  O   UNL A   1      47.815  25.416  27.585  1.00  0.00    -0.269 OA
ATOM     21  C   UNL A   1      44.947  25.644  25.365  1.00  0.00     0.134 C 
ATOM     22  C   UNL A   1      47.409  25.466  24.839  1.00  0.00     0.147 C 
BRANCH  12  23
ATOM     23  O   UNL A   1      44.932  25.442  31.737  1.00  0.00    -0.493 OA
ATOM     24  C   UNL A   1      44.596  24.070  31.900  1.00  0.00     0.278 C 
ENDBRANCH  12  23
BRANCH  14  25
ATOM     25  O   UNL A   1      42.648  27.098  30.840  1.00  0.00    -0.493 OA
ATOM     26  C   UNL A   1      42.023  28.316  30.455  1.00  0.00     0.278 C 
ENDBRANCH  14  25
BRANCH  21  27
ATOM     27  C   UNL A   1      44.234  24.286  25.365  1.00  0.00    -0.023 A 
ATOM     28  C   UNL A   1      43.080  24.108  26.154  1.00  0.00     0.006 A 
ATOM     29  C   UNL A   1      44.752  23.158  24.720  1.00  0.00     0.026 A 
ATOM     30  C   UNL A   1      42.615  22.839  26.489  1.00  0.00     0.002 A 
ATOM     31  C   UNL A   1      44.243  21.890  25.003  1.00  0.00     0.041 A 
ATOM     32  C   UNL A   1      43.220  21.722  25.932  1.00  0.00     0.020 A 
ATOM     33  Cl  UNL A   1      44.909  20.516  24.213  1.00  0.00    -0.084 Cl
ENDBRANCH  21  27
ENDBRANCH   9  11
ENDBRANCH   8   9
ENDBRANCH   7   8
ENDBRANCH   6   7
ENDBRANCH   5   6
ENDBRANCH   4   5
ENDBRANCH   3   4
ENDBRANCH   2   3
ENDBRANCH   1   2
BRANCH   1  34
ATOM     34  C   UNL A   1      37.071  32.910  28.709  1.00  0.00     0.188 C 
BRANCH  34  35
ATOM     35  O   UNL A   1      36.435  34.093  29.169  1.00  0.00    -0.376 OA
BRANCH  35  36
ATOM     36  C   UNL A   1      35.015  34.121  29.138  1.00  0.00     0.202 C 
BRANCH  36  37
ATOM     37  C   UNL A   1      34.274  34.318  30.473  1.00  0.00     0.261 C 
BRANCH  37  38
ATOM     38  O   UNL A   1      34.094  33.140  31.272  1.00  0.00    -0.460 OA
BRANCH  38  39
ATOM     39  C   UNL A   1      34.470  33.216  32.565  1.00  0.00     0.338 C 
ATOM     40  O   UNL A   1      33.751  33.445  33.526  1.00  0.00    -0.246 OA
BRANCH  39  41
ATOM     41  C   UNL A   1      35.871  32.757  32.657  1.00  0.00     0.060 A 
ATOM     42  C   UNL A   1      36.796  33.553  33.348  1.00  0.00     0.016 A 
ATOM     43  C   UNL A   1      36.266  31.547  32.084  1.00  0.00     0.016 A 
ATOM     44  C   UNL A   1      38.128  33.156  33.440  1.00  0.00     0.010 A 
ATOM     45  C   UNL A   1      37.609  31.167  32.146  1.00  0.00     0.010 A 
ATOM     46  C   UNL A   1      38.550  31.990  32.792  1.00  0.00    -0.014 A 
BRANCH  46  47
ATOM     47  C   UNL A   1      39.999  31.758  32.595  1.00  0.00     0.031 A 
ATOM     48  C   UNL A   1      40.735  32.652  31.636  1.00  0.00     0.074 A 
ATOM     49  C   UNL A   1      40.655  30.787  33.252  1.00  0.00     0.049 A 
ATOM     50  N   UNL A   1      41.990  32.629  31.276  1.00  0.00    -0.248 NA
ATOM     51  C   UNL A   1      39.943  33.720  31.000  1.00  0.00     0.031 C 
ATOM     52  C   UNL A   1      40.060  29.870  34.222  1.00  0.00     0.029 A 
ATOM     53  N   UNL A   1      41.968  30.394  33.174  1.00  0.00    -0.354 N 
ATOM     54  C   UNL A   1      42.132  33.652  30.346  1.00  0.00     0.074 A 
ATOM     55  C   UNL A   1      40.835  34.272  30.193  1.00  0.00     0.031 C 
ATOM     56  C   UNL A   1      40.996  28.990  34.616  1.00  0.00     0.029 A 
ATOM     57  C   UNL A   1      42.247  29.268  33.910  1.00  0.00     0.049 A 
ATOM     58  H   UNL A   1      42.645  30.874  32.644  1.00  0.00     0.167 HD
ATOM     59  C   UNL A   1      43.244  34.046  29.683  1.00  0.00     0.034 A 
ATOM     60  C   UNL A   1      43.372  28.529  33.978  1.00  0.00     0.034 A 
ATOM     61  C   UNL A   1      44.534  33.430  29.840  1.00  0.00     0.049 A 
ATOM     62  C   UNL A   1      44.590  28.959  33.200  1.00  0.00     0.074 A 
ATOM     63  C   UNL A   1      45.735  33.791  29.257  1.00  0.00     0.029 A 
ATOM     64  N   UNL A   1      44.786  32.309  30.615  1.00  0.00    -0.354 N 
ATOM     65  N   UNL A   1      44.744  29.998  32.416  1.00  0.00    -0.248 NA
ATOM     66  C   UNL A   1      45.798  28.134  33.344  1.00  0.00     0.031 C 
ATOM     67  C   UNL A   1      46.703  32.858  29.641  1.00  0.00     0.029 A 
ATOM     68  C   UNL A   1      46.118  31.948  30.506  1.00  0.00     0.049 A 
ATOM     69  H   UNL A   1      44.116  31.839  31.163  1.00  0.00     0.167 HD
ATOM     70  C   UNL A   1      46.073  29.974  32.004  1.00  0.00     0.074 A 
ATOM     71  C   UNL A   1      46.684  28.824  32.639  1.00  0.00     0.031 C 
ATOM     72  C   UNL A   1      46.726  30.824  31.172  1.00  0.00     0.034 A 
BRANCH  59  73
ATOM     73  C   UNL A   1      43.107  35.192  28.718  1.00  0.00     0.023 A 
ATOM     74  C   UNL A   1      42.645  34.962  27.406  1.00  0.00     0.012 A 
ATOM     75  C   UNL A   1      43.411  36.507  29.123  1.00  0.00     0.148 A 
ATOM     76  C   UNL A   1      42.527  36.016  26.500  1.00  0.00     0.002 A 
ATOM     77  C   UNL A   1      43.242  37.558  28.232  1.00  0.00     0.091 A 
ATOM     78  F   UNL A   1      43.874  36.702  30.366  1.00  0.00    -0.205 F 
ATOM     79  C   UNL A   1      42.816  37.314  26.916  1.00  0.00     0.022 A 
BRANCH  77  80
ATOM     80  S   UNL A   1      43.507  39.271  28.698  1.00  0.00     0.127 S 
ATOM     81  O   UNL A   1      43.104  39.973  27.480  1.00  0.00    -0.237 OA
ATOM     82  O   UNL A   1      42.589  39.428  29.825  1.00  0.00    -0.237 OA
ATOM     83  O   UNL A   1      44.917  39.380  29.045  1.00  0.00    -0.744 OA
ENDBRANCH  77  80
ENDBRANCH  59  73
BRANCH  60  84
ATOM     84  C   UNL A   1      43.400  27.304  34.824  1.00  0.00     0.023 A 
ATOM     85  C   UNL A   1      42.840  26.105  34.343  1.00  0.00     0.012 A 
ATOM     86  C   UNL A   1      44.003  27.321  36.097  1.00  0.00     0.148 A 
ATOM     87  C   UNL A   1      42.858  24.949  35.125  1.00  0.00     0.002 A 
ATOM     88  C   UNL A   1      44.067  26.153  36.847  1.00  0.00     0.091 A 
ATOM     89  F   UNL A   1      44.515  28.477  36.540  1.00  0.00    -0.205 F 
ATOM     90  C   UNL A   1      43.481  24.970  36.371  1.00  0.00     0.022 A 
BRANCH  88  91
ATOM     91  S   UNL A   1      44.959  26.056  38.402  1.00  0.00     0.127 S 
ATOM     92  O   UNL A   1      46.271  26.576  38.025  1.00  0.00    -0.237 OA
ATOM     93  O   UNL A   1      44.164  26.941  39.254  1.00  0.00    -0.237 OA
ATOM     94  O   UNL A   1      44.924  24.652  38.787  1.00  0.00    -0.744 OA
ENDBRANCH  88  91
ENDBRANCH  60  84
BRANCH  72  95
ATOM     95  C   UNL A   1      48.194  30.580  30.925  1.00  0.00     0.023 A 
ATOM     96  C   UNL A   1      49.163  31.197  31.740  1.00  0.00     0.012 A 
ATOM     97  C   UNL A   1      48.608  29.672  29.929  1.00  0.00     0.148 A 
ATOM     98  C   UNL A   1      50.521  30.944  31.544  1.00  0.00     0.002 A 
ATOM     99  C   UNL A   1      49.958  29.383  29.775  1.00  0.00     0.091 A 
ATOM    100  F   UNL A   1      47.672  29.105  29.153  1.00  0.00    -0.205 F 
ATOM    101  C   UNL A   1      50.917  30.028  30.572  1.00  0.00     0.022 A 
BRANCH  99 102
ATOM    102  S   UNL A   1      50.554  28.144  28.618  1.00  0.00     0.127 S 
ATOM    103  O   UNL A   1      50.461  26.922  29.416  1.00  0.00    -0.237 OA
ATOM    104  O   UNL A   1      49.579  28.239  27.532  1.00  0.00    -0.237 OA
ATOM    105  O   UNL A   1      51.906  28.549  28.255  1.00  0.00    -0.744 OA
ENDBRANCH  99 102
ENDBRANCH  72  95
ENDBRANCH  46  47
ENDBRANCH  39  41
ENDBRANCH  38  39
ENDBRANCH  37  38
ENDBRANCH  36  37
ENDBRANCH  35  36
ENDBRANCH  34  35
ENDBRANCH   1  34
TORSDOF 26
ENDMDL
MODEL 2
REMARK VINA RESULT:      -7.3      1.526      2.536
REMARK SMILES COc1cc2c(cc1OC)[C@H](C(=O)OCCOCCOCCOCCOC(=O)c1ccc(-c3c4nc(c(-c5cccc(S(=O)(=O)[O-])c5F)c5ccc([nH]5)c(-c5cccc(S(=O)(=O)[O-])c5F)c5nc(c(-c6cccc(S(=O)(=O)[O-])c6F)c6ccc3[nH]6)C=C5)C=C4)cc1)[C@H](c1cccc(Cl)c1)N(C)C2=O
REMARK SMILES IDX 21 1 20 2 19 3 18 4 17 5 16 6 15 7 14 8 12 9 13 10 11 11
REMARK SMILES IDX 3 12 4 13 8 14 5 15 7 16 6 17 102 18 100 19 103 20 92 21
REMARK SMILES IDX 101 22 2 23 1 24 9 25 10 26 93 27 94 28 99 29 95 30 97 31
REMARK SMILES IDX 96 32 98 33 22 34 23 35 24 36 25 37 26 38 27 39 28 40 29 41
REMARK SMILES IDX 30 42 91 43 31 44 90 45 32 46 33 47 34 48 84 49 35 50 89 51
REMARK SMILES IDX 83 52 85 53 36 54 88 55 82 56 81 57 37 59 69 60 49 61 68 62
REMARK SMILES IDX 50 63 53 64 67 65 86 66 51 67 52 68 66 70 87 71 54 72 38 73
REMARK SMILES IDX 39 74 47 75 40 76 42 77 48 78 41 79 43 80 44 81 45 82 46 83
REMARK SMILES IDX 70 84 71 85 79 86 72 87 74 88 80 89 73 90 75 91 76 92 77 93
REMARK SMILES IDX 78 94 55 95 56 96 64 97 57 98 59 99 65 100 58 101 60 102
REMARK SMILES IDX 61 103 62 104 63 105
REMARK H PARENT 85 58 53 69
REMARK Flexibility Score: inf
ROOT
ATOM      1  C   UNL A   1      35.917  31.691  27.952  1.00  0.00     0.188 C 
ENDROOT
BRANCH   1   2
ATOM      2  O   UNL A   1      35.574  30.400  28.417  1.00  0.00    -0.377 OA
BRANCH   2   3
ATOM      3  C   UNL A   1      36.566  29.594  29.009  1.00  0.00     0.188 C 
BRANCH   3   4
ATOM      4  C   UNL A   1      37.921  29.311  28.317  1.00  0.00     0.188 C 
BRANCH   4   5
ATOM      5  O   UNL A   1      39.138  29.368  29.026  1.00  0.00    -0.376 OA
BRANCH   5   6
ATOM      6  C   UNL A   1      40.335  28.675  28.720  1.00  0.00     0.202 C 
BRANCH   6   7
ATOM      7  C   UNL A   1      40.999  28.534  27.345  1.00  0.00     0.261 C 
BRANCH   7   8
ATOM      8  O   UNL A   1      42.074  27.612  27.271  1.00  0.00    -0.463 OA
BRANCH   8   9
ATOM      9  C   UNL A   1      43.065  27.795  28.166  1.00  0.00     0.316 C 
ATOM     10  O   UNL A   1      43.525  28.909  28.418  1.00  0.00    -0.251 OA
BRANCH   9  11
ATOM     11  C   UNL A   1      43.390  26.573  29.004  1.00  0.00     0.157 C 
ATOM     12  C   UNL A   1      41.629  22.644  28.288  1.00  0.00     0.161 A 
ATOM     13  C   UNL A   1      42.808  22.800  29.026  1.00  0.00     0.064 A 
ATOM     14  C   UNL A   1      40.940  23.773  27.849  1.00  0.00     0.161 A 
ATOM     15  C   UNL A   1      43.336  24.078  29.276  1.00  0.00     0.048 A 
ATOM     16  C   UNL A   1      41.487  25.041  28.108  1.00  0.00     0.056 A 
ATOM     17  C   UNL A   1      42.726  25.225  28.743  1.00  0.00    -0.015 A 
ATOM     18  C   UNL A   1      44.524  24.202  30.174  1.00  0.00     0.254 C 
ATOM     19  N   UNL A   1      45.220  25.410  30.143  1.00  0.00    -0.333 N 
ATOM     20  O   UNL A   1      44.834  23.274  30.914  1.00  0.00    -0.269 OA
ATOM     21  C   UNL A   1      44.936  26.434  29.124  1.00  0.00     0.134 C 
ATOM     22  C   UNL A   1      46.305  25.622  31.082  1.00  0.00     0.147 C 
BRANCH  12  23
ATOM     23  O   UNL A   1      41.222  21.394  27.917  1.00  0.00    -0.493 OA
ATOM     24  C   UNL A   1      42.065  20.779  26.951  1.00  0.00     0.278 C 
ENDBRANCH  12  23
BRANCH  14  25
ATOM     25  O   UNL A   1      39.741  23.853  27.192  1.00  0.00    -0.493 OA
ATOM     26  C   UNL A   1      39.440  25.028  26.450  1.00  0.00     0.278 C 
ENDBRANCH  14  25
BRANCH  21  27
ATOM     27  C   UNL A   1      45.621  26.196  27.773  1.00  0.00    -0.023 A 
ATOM     28  C   UNL A   1      44.838  25.897  26.640  1.00  0.00     0.006 A 
ATOM     29  C   UNL A   1      47.011  26.125  27.630  1.00  0.00     0.026 A 
ATOM     30  C   UNL A   1      45.393  25.315  25.504  1.00  0.00     0.002 A 
ATOM     31  C   UNL A   1      47.573  25.603  26.464  1.00  0.00     0.041 A 
ATOM     32  C   UNL A   1      46.767  25.141  25.428  1.00  0.00     0.020 A 
ATOM     33  Cl  UNL A   1      49.283  25.507  26.319  1.00  0.00    -0.084 Cl
ENDBRANCH  21  27
ENDBRANCH   9  11
ENDBRANCH   8   9
ENDBRANCH   7   8
ENDBRANCH   6   7
ENDBRANCH   5   6
ENDBRANCH   4   5
ENDBRANCH   3   4
ENDBRANCH   2   3
ENDBRANCH   1   2
BRANCH   1  34
ATOM     34  C   UNL A   1      36.956  32.544  28.714  1.00  0.00     0.188 C 
BRANCH  34  35
ATOM     35  O   UNL A   1      36.479  33.786  29.206  1.00  0.00    -0.376 OA
BRANCH  35  36
ATOM     36  C   UNL A   1      35.073  33.990  29.202  1.00  0.00     0.202 C 
BRANCH  36  37
ATOM     37  C   UNL A   1      34.385  34.257  30.553  1.00  0.00     0.261 C 
BRANCH  37  38
ATOM     38  O   UNL A   1      34.113  33.102  31.360  1.00  0.00    -0.460 OA
BRANCH  38  39
ATOM     39  C   UNL A   1      34.540  33.137  32.639  1.00  0.00     0.338 C 
ATOM     40  O   UNL A   1      33.850  33.276  33.638  1.00  0.00    -0.246 OA
BRANCH  39  41
ATOM     41  C   UNL A   1      35.967  32.757  32.652  1.00  0.00     0.060 A 
ATOM     42  C   UNL A   1      36.890  33.627  33.251  1.00  0.00     0.016 A 
ATOM     43  C   UNL A   1      36.390  31.549  32.094  1.00  0.00     0.016 A 
ATOM     44  C   UNL A   1      38.245  33.305  33.266  1.00  0.00     0.010 A 
ATOM     45  C   UNL A   1      37.753  31.244  32.078  1.00  0.00     0.010 A 
ATOM     46  C   UNL A   1      38.688  32.139  32.631  1.00  0.00    -0.014 A 
BRANCH  46  47
ATOM     47  C   UNL A   1      40.131  31.977  32.345  1.00  0.00     0.031 A 
ATOM     48  C   UNL A   1      40.788  32.977  31.433  1.00  0.00     0.074 A 
ATOM     49  C   UNL A   1      40.850  30.978  32.882  1.00  0.00     0.049 A 
ATOM     50  N   UNL A   1      42.022  33.029  31.011  1.00  0.00    -0.248 NA
ATOM     51  C   UNL A   1      39.931  34.065  30.932  1.00  0.00     0.031 C 
ATOM     52  C   UNL A   1      40.336  29.961  33.795  1.00  0.00     0.029 A 
ATOM     53  N   UNL A   1      42.170  30.642  32.706  1.00  0.00    -0.354 N 
ATOM     54  C   UNL A   1      42.084  34.133  30.169  1.00  0.00     0.074 A 
ATOM     55  C   UNL A   1      40.762  34.717  30.134  1.00  0.00     0.031 C 
ATOM     56  C   UNL A   1      41.319  29.084  34.066  1.00  0.00     0.029 A 
ATOM     57  C   UNL A   1      42.522  29.467  33.327  1.00  0.00     0.049 A 
ATOM     58  H   UNL A   1      42.802  31.189  32.188  1.00  0.00     0.167 HD
ATOM     59  C   UNL A   1      43.148  34.622  29.490  1.00  0.00     0.034 A 
ATOM     60  C   UNL A   1      43.672  28.766  33.275  1.00  0.00     0.034 A 
ATOM     61  C   UNL A   1      44.463  34.043  29.530  1.00  0.00     0.049 A 
ATOM     62  C   UNL A   1      44.834  29.305  32.480  1.00  0.00     0.074 A 
ATOM     63  C   UNL A   1      45.620  34.495  28.923  1.00  0.00     0.029 A 
ATOM     64  N   UNL A   1      44.790  32.869  30.191  1.00  0.00    -0.354 N 
ATOM     65  N   UNL A   1      44.914  30.412  31.783  1.00  0.00    -0.248 NA
ATOM     66  C   UNL A   1      46.073  28.515  32.492  1.00  0.00     0.031 C 
ATOM     67  C   UNL A   1      46.636  33.568  29.176  1.00  0.00     0.029 A 
ATOM     68  C   UNL A   1      46.125  32.567  29.986  1.00  0.00     0.049 A 
ATOM     69  H   UNL A   1      44.164  32.330  30.727  1.00  0.00     0.167 HD
ATOM     70  C   UNL A   1      46.220  30.472  31.306  1.00  0.00     0.074 A 
ATOM     71  C   UNL A   1      46.900  29.295  31.808  1.00  0.00     0.031 C 
ATOM     72  C   UNL A   1      46.802  31.413  30.521  1.00  0.00     0.034 A 
BRANCH  59  73
ATOM     73  C   UNL A   1      42.925  35.841  28.636  1.00  0.00     0.023 A 
ATOM     74  C   UNL A   1      42.370  35.711  27.346  1.00  0.00     0.012 A 
ATOM     75  C   UNL A   1      43.240  37.124  29.126  1.00  0.00     0.148 A 
ATOM     76  C   UNL A   1      42.172  36.834  26.543  1.00  0.00     0.002 A 
ATOM     77  C   UNL A   1      42.993  38.241  28.341  1.00  0.00     0.091 A 
ATOM     78  F   UNL A   1      43.791  37.224  30.344  1.00  0.00    -0.205 F 
ATOM     79  C   UNL A   1      42.473  38.098  27.044  1.00  0.00     0.022 A 
BRANCH  77  80
ATOM     80  S   UNL A   1      43.269  39.915  28.928  1.00  0.00     0.127 S 
ATOM     81  O   UNL A   1      44.629  39.821  29.456  1.00  0.00    -0.237 OA
ATOM     82  O   UNL A   1      43.145  40.696  27.697  1.00  0.00    -0.237 OA
ATOM     83  O   UNL A   1      42.231  40.171  29.916  1.00  0.00    -0.744 OA
ENDBRANCH  77  80
ENDBRANCH  59  73
BRANCH  60  84
ATOM     84  C   UNL A   1      43.782  27.475  34.008  1.00  0.00     0.023 A 
ATOM     85  C   UNL A   1      43.633  26.258  33.316  1.00  0.00     0.012 A 
ATOM     86  C   UNL A   1      44.059  27.452  35.389  1.00  0.00     0.148 A 
ATOM     87  C   UNL A   1      43.732  25.040  33.991  1.00  0.00     0.002 A 
ATOM     88  C   UNL A   1      44.213  26.236  36.044  1.00  0.00     0.091 A 
ATOM     89  F   UNL A   1      44.183  28.622  36.030  1.00  0.00    -0.205 F 
ATOM     90  C   UNL A   1      44.033  25.029  35.350  1.00  0.00     0.022 A 
BRANCH  88  91
ATOM     91  S   UNL A   1      44.725  26.125  37.760  1.00  0.00     0.127 S 
ATOM     92  O   UNL A   1      43.592  26.738  38.449  1.00  0.00    -0.237 OA
ATOM     93  O   UNL A   1      44.847  24.678  37.939  1.00  0.00    -0.237 OA
ATOM     94  O   UNL A   1      45.983  26.855  37.843  1.00  0.00    -0.744 OA
ENDBRANCH  88  91
ENDBRANCH  60  84
BRANCH  72  95
ATOM     95  C   UNL A   1      48.263  31.244  30.183  1.00  0.00     0.023 A 
ATOM     96  C   UNL A   1      49.254  31.696  31.075  1.00  0.00     0.012 A 
ATOM     97  C   UNL A   1      48.649  30.564  29.010  1.00  0.00     0.148 A 
ATOM     98  C   UNL A   1      50.607  31.506  30.788  1.00  0.00     0.002 A 
ATOM     99  C   UNL A   1      49.994  30.330  28.757  1.00  0.00     0.091 A 
ATOM    100  F   UNL A   1      47.691  30.154  28.164  1.00  0.00    -0.205 F 
ATOM    101  C   UNL A   1      50.976  30.813  29.638  1.00  0.00     0.022 A 
BRANCH  99 102
ATOM    102  S   UNL A   1      50.559  29.361  27.354  1.00  0.00     0.127 S 
ATOM    103  O   UNL A   1      51.695  30.153  26.882  1.00  0.00    -0.237 OA
ATOM    104  O   UNL A   1      50.921  28.090  27.980  1.00  0.00    -0.237 OA
ATOM    105  O   UNL A   1      49.431  29.284  26.436  1.00  0.00    -0.744 OA
ENDBRANCH  99 102
ENDBRANCH  72  95
ENDBRANCH  46  47
ENDBRANCH  39  41
ENDBRANCH  38  39
ENDBRANCH  37  38
ENDBRANCH  36  37
ENDBRANCH  35  36
ENDBRANCH  34  35
ENDBRANCH   1  34
TORSDOF 26
ENDMDL
MODEL 3
REMARK VINA RESULT:      -7.2      1.768      2.082
REMARK SMILES COc1cc2c(cc1OC)[C@H](C(=O)OCCOCCOCCOCCOC(=O)c1ccc(-c3c4nc(c(-c5cccc(S(=O)(=O)[O-])c5F)c5ccc([nH]5)c(-c5cccc(S(=O)(=O)[O-])c5F)c5nc(c(-c6cccc(S(=O)(=O)[O-])c6F)c6ccc3[nH]6)C=C5)C=C4)cc1)[C@H](c1cccc(Cl)c1)N(C)C2=O
REMARK SMILES IDX 21 1 20 2 19 3 18 4 17 5 16 6 15 7 14 8 12 9 13 10 11 11
REMARK SMILES IDX 3 12 4 13 8 14 5 15 7 16 6 17 102 18 100 19 103 20 92 21
REMARK SMILES IDX 101 22 2 23 1 24 9 25 10 26 93 27 94 28 99 29 95 30 97 31
REMARK SMILES IDX 96 32 98 33 22 34 23 35 24 36 25 37 26 38 27 39 28 40 29 41
REMARK SMILES IDX 30 42 91 43 31 44 90 45 32 46 33 47 34 48 84 49 35 50 89 51
REMARK SMILES IDX 83 52 85 53 36 54 88 55 82 56 81 57 37 59 69 60 49 61 68 62
REMARK SMILES IDX 50 63 53 64 67 65 86 66 51 67 52 68 66 70 87 71 54 72 38 73
REMARK SMILES IDX 39 74 47 75 40 76 42 77 48 78 41 79 43 80 44 81 45 82 46 83
REMARK SMILES IDX 70 84 71 85 79 86 72 87 74 88 80 89 73 90 75 91 76 92 77 93
REMARK SMILES IDX 78 94 55 95 56 96 64 97 57 98 59 99 65 100 58 101 60 102
REMARK SMILES IDX 61 103 62 104 63 105
REMARK H PARENT 85 58 53 69
REMARK Flexibility Score: inf
ROOT
ATOM      1  C   UNL A   1      36.520  30.628  28.762  1.00  0.00     0.188 C 
ENDROOT
BRANCH   1   2
ATOM      2  O   UNL A   1      36.627  29.451  29.541  1.00  0.00    -0.377 OA
BRANCH   2   3
ATOM      3  C   UNL A   1      37.902  28.916  29.810  1.00  0.00     0.188 C 
BRANCH   3   4
ATOM      4  C   UNL A   1      38.975  28.743  28.708  1.00  0.00     0.188 C 
BRANCH   4   5
ATOM      5  O   UNL A   1      40.200  28.095  28.966  1.00  0.00    -0.376 OA
BRANCH   5   6
ATOM      6  C   UNL A   1      40.916  27.247  28.086  1.00  0.00     0.202 C 
BRANCH   6   7
ATOM      7  C   UNL A   1      40.803  27.186  26.559  1.00  0.00     0.261 C 
BRANCH   7   8
ATOM      8  O   UNL A   1      41.622  26.223  25.917  1.00  0.00    -0.463 OA
BRANCH   8   9
ATOM      9  C   UNL A   1      42.664  26.714  25.216  1.00  0.00     0.316 C 
ATOM     10  O   UNL A   1      42.564  27.712  24.502  1.00  0.00    -0.251 OA
BRANCH   9  11
ATOM     11  C   UNL A   1      44.005  26.098  25.569  1.00  0.00     0.157 C 
ATOM     12  C   UNL A   1      46.128  26.956  29.285  1.00  0.00     0.161 A 
ATOM     13  C   UNL A   1      46.412  25.819  28.518  1.00  0.00     0.064 A 
ATOM     14  C   UNL A   1      45.214  27.893  28.808  1.00  0.00     0.161 A 
ATOM     15  C   UNL A   1      45.742  25.583  27.307  1.00  0.00     0.048 A 
ATOM     16  C   UNL A   1      44.554  27.636  27.595  1.00  0.00     0.056 A 
ATOM     17  C   UNL A   1      44.731  26.450  26.863  1.00  0.00    -0.015 A 
ATOM     18  C   UNL A   1      46.169  24.425  26.463  1.00  0.00     0.254 C 
ATOM     19  N   UNL A   1      45.296  24.019  25.454  1.00  0.00    -0.333 N 
ATOM     20  O   UNL A   1      47.257  23.893  26.656  1.00  0.00    -0.269 OA
ATOM     21  C   UNL A   1      43.928  24.557  25.360  1.00  0.00     0.134 C 
ATOM     22  C   UNL A   1      45.717  22.981  24.533  1.00  0.00     0.147 C 
BRANCH  12  23
ATOM     23  O   UNL A   1      46.667  27.083  30.533  1.00  0.00    -0.493 OA
ATOM     24  C   UNL A   1      47.878  26.361  30.712  1.00  0.00     0.278 C 
ENDBRANCH  12  23
BRANCH  14  25
ATOM     25  O   UNL A   1      44.852  29.099  29.347  1.00  0.00    -0.493 OA
ATOM     26  C   UNL A   1      43.669  29.734  28.880  1.00  0.00     0.278 C 
ENDBRANCH  14  25
BRANCH  21  27
ATOM     27  C   UNL A   1      42.911  23.878  26.285  1.00  0.00    -0.023 A 
ATOM     28  C   UNL A   1      43.002  24.071  27.678  1.00  0.00     0.006 A 
ATOM     29  C   UNL A   1      41.965  22.955  25.825  1.00  0.00     0.026 A 
ATOM     30  C   UNL A   1      42.371  23.215  28.575  1.00  0.00     0.002 A 
ATOM     31  C   UNL A   1      41.281  22.140  26.727  1.00  0.00     0.041 A 
ATOM     32  C   UNL A   1      41.528  22.223  28.095  1.00  0.00     0.020 A 
ATOM     33  Cl  UNL A   1      40.139  20.999  26.137  1.00  0.00    -0.084 Cl
ENDBRANCH  21  27
ENDBRANCH   9  11
ENDBRANCH   8   9
ENDBRANCH   7   8
ENDBRANCH   6   7
ENDBRANCH   5   6
ENDBRANCH   4   5
ENDBRANCH   3   4
ENDBRANCH   2   3
ENDBRANCH   1   2
BRANCH   1  34
ATOM     34  C   UNL A   1      37.375  31.869  29.104  1.00  0.00     0.188 C 
BRANCH  34  35
ATOM     35  O   UNL A   1      36.647  33.071  29.306  1.00  0.00    -0.376 OA
BRANCH  35  36
ATOM     36  C   UNL A   1      35.229  32.980  29.297  1.00  0.00     0.202 C 
BRANCH  36  37
ATOM     37  C   UNL A   1      34.470  33.527  30.520  1.00  0.00     0.261 C 
BRANCH  37  38
ATOM     38  O   UNL A   1      34.257  32.600  31.594  1.00  0.00    -0.460 OA
BRANCH  38  39
ATOM     39  C   UNL A   1      34.668  32.981  32.821  1.00  0.00     0.338 C 
ATOM     40  O   UNL A   1      33.969  33.393  33.734  1.00  0.00    -0.246 OA
BRANCH  39  41
ATOM     41  C   UNL A   1      36.092  32.611  32.956  1.00  0.00     0.060 A 
ATOM     42  C   UNL A   1      36.986  33.556  33.479  1.00  0.00     0.016 A 
ATOM     43  C   UNL A   1      36.538  31.341  32.587  1.00  0.00     0.016 A 
ATOM     44  C   UNL A   1      38.338  33.243  33.606  1.00  0.00     0.010 A 
ATOM     45  C   UNL A   1      37.899  31.040  32.681  1.00  0.00     0.010 A 
ATOM     46  C   UNL A   1      38.808  32.004  33.156  1.00  0.00    -0.014 A 
BRANCH  46  47
ATOM     47  C   UNL A   1      40.263  31.810  32.967  1.00  0.00     0.031 A 
ATOM     48  C   UNL A   1      40.959  32.642  31.926  1.00  0.00     0.074 A 
ATOM     49  C   UNL A   1      40.959  30.926  33.702  1.00  0.00     0.049 A 
ATOM     50  N   UNL A   1      42.211  32.633  31.557  1.00  0.00    -0.248 NA
ATOM     51  C   UNL A   1      40.123  33.618  31.205  1.00  0.00     0.031 C 
ATOM     52  C   UNL A   1      40.406  30.078  34.754  1.00  0.00     0.029 A 
ATOM     53  N   UNL A   1      42.286  30.578  33.647  1.00  0.00    -0.354 N 
ATOM     54  C   UNL A   1      42.309  33.574  30.539  1.00  0.00     0.074 A 
ATOM     55  C   UNL A   1      40.988  34.130  30.344  1.00  0.00     0.031 C 
ATOM     56  C   UNL A   1      41.377  29.272  35.217  1.00  0.00     0.029 A 
ATOM     57  C   UNL A   1      42.612  29.533  34.477  1.00  0.00     0.049 A 
ATOM     58  H   UNL A   1      42.941  31.034  33.070  1.00  0.00     0.167 HD
ATOM     59  C   UNL A   1      43.402  33.949  29.834  1.00  0.00     0.034 A 
ATOM     60  C   UNL A   1      43.765  28.846  34.600  1.00  0.00     0.034 A 
ATOM     61  C   UNL A   1      44.715  33.399  30.033  1.00  0.00     0.049 A 
ATOM     62  C   UNL A   1      44.961  29.250  33.776  1.00  0.00     0.074 A 
ATOM     63  C   UNL A   1      45.898  33.751  29.409  1.00  0.00     0.029 A 
ATOM     64  N   UNL A   1      45.014  32.361  30.902  1.00  0.00    -0.354 N 
ATOM     65  N   UNL A   1      45.071  30.220  32.901  1.00  0.00    -0.248 NA
ATOM     66  C   UNL A   1      46.200  28.486  33.981  1.00  0.00     0.031 C 
ATOM     67  C   UNL A   1      46.903  32.893  29.865  1.00  0.00     0.029 A 
ATOM     68  C   UNL A   1      46.358  32.042  30.813  1.00  0.00     0.049 A 
ATOM     69  H   UNL A   1      44.366  31.917  31.496  1.00  0.00     0.167 HD
ATOM     70  C   UNL A   1      46.397  30.209  32.481  1.00  0.00     0.074 A 
ATOM     71  C   UNL A   1      47.055  29.144  33.210  1.00  0.00     0.031 C 
ATOM     72  C   UNL A   1      47.012  31.005  31.571  1.00  0.00     0.034 A 
BRANCH  59  73
ATOM     73  C   UNL A   1      43.216  34.999  28.772  1.00  0.00     0.023 A 
ATOM     74  C   UNL A   1      42.940  34.620  27.442  1.00  0.00     0.012 A 
ATOM     75  C   UNL A   1      43.286  36.367  29.101  1.00  0.00     0.148 A 
ATOM     76  C   UNL A   1      42.779  35.586  26.448  1.00  0.00     0.002 A 
ATOM     77  C   UNL A   1      43.074  37.323  28.116  1.00  0.00     0.091 A 
ATOM     78  F   UNL A   1      43.576  36.707  30.365  1.00  0.00    -0.205 F 
ATOM     79  C   UNL A   1      42.836  36.936  26.788  1.00  0.00     0.022 A 
BRANCH  77  80
ATOM     80  S   UNL A   1      43.044  39.083  28.470  1.00  0.00     0.127 S 
ATOM     81  O   UNL A   1      43.368  39.102  29.896  1.00  0.00    -0.237 OA
ATOM     82  O   UNL A   1      44.103  39.589  27.597  1.00  0.00    -0.237 OA
ATOM     83  O   UNL A   1      41.705  39.540  28.127  1.00  0.00    -0.744 OA
ENDBRANCH  77  80
ENDBRANCH  59  73
BRANCH  60  84
ATOM     84  C   UNL A   1      43.844  27.702  35.551  1.00  0.00     0.023 A 
ATOM     85  C   UNL A   1      43.428  26.420  35.145  1.00  0.00     0.012 A 
ATOM     86  C   UNL A   1      44.355  27.881  36.852  1.00  0.00     0.148 A 
ATOM     87  C   UNL A   1      43.495  25.339  36.026  1.00  0.00     0.002 A 
ATOM     88  C   UNL A   1      44.471  26.791  37.704  1.00  0.00     0.091 A 
ATOM     89  F   UNL A   1      44.730  29.113  37.220  1.00  0.00    -0.205 F 
ATOM     90  C   UNL A   1      44.027  25.522  37.300  1.00  0.00     0.022 A 
BRANCH  88  91
ATOM     91  S   UNL A   1      45.260  26.907  39.313  1.00  0.00     0.127 S 
ATOM     92  O   UNL A   1      46.675  26.845  38.955  1.00  0.00    -0.237 OA
ATOM     93  O   UNL A   1      44.796  28.215  39.775  1.00  0.00    -0.237 OA
ATOM     94  O   UNL A   1      44.755  25.778  40.081  1.00  0.00    -0.744 OA
ENDBRANCH  88  91
ENDBRANCH  60  84
BRANCH  72  95
ATOM     95  C   UNL A   1      48.487  30.795  31.333  1.00  0.00     0.023 A 
ATOM     96  C   UNL A   1      48.925  29.924  30.317  1.00  0.00     0.012 A 
ATOM     97  C   UNL A   1      49.440  31.526  32.073  1.00  0.00     0.148 A 
ATOM     98  C   UNL A   1      50.287  29.757  30.063  1.00  0.00     0.002 A 
ATOM     99  C   UNL A   1      50.791  31.395  31.779  1.00  0.00     0.091 A 
ATOM    100  F   UNL A   1      49.005  32.339  33.047  1.00  0.00    -0.205 F 
ATOM    101  C   UNL A   1      51.218  30.501  30.784  1.00  0.00     0.022 A 
BRANCH  99 102
ATOM    102  S   UNL A   1      52.054  32.385  32.586  1.00  0.00     0.127 S 
ATOM    103  O   UNL A   1      53.280  31.719  32.147  1.00  0.00    -0.237 OA
ATOM    104  O   UNL A   1      51.835  33.707  31.998  1.00  0.00    -0.237 OA
ATOM    105  O   UNL A   1      51.779  32.304  34.014  1.00  0.00    -0.744 OA
ENDBRANCH  99 102
ENDBRANCH  72  95
ENDBRANCH  46  47
ENDBRANCH  39  41
ENDBRANCH  38  39
ENDBRANCH  37  38
ENDBRANCH  36  37
ENDBRANCH  35  36
ENDBRANCH  34  35
ENDBRANCH   1  34
TORSDOF 26
ENDMDL
