MODEL 1
REMARK VINA RESULT:      -9.3      0.000      0.000
REMARK SMILES C[C@H](C(=O)OCCOCCOCCOCCOC(=O)c1ccc(-c2c3nc(c(-c4cccc(S(=O)(=O)[O-])c4F)c4ccc([nH]4)c(-c4cccc(S(=O)(=O)[O-])c4F)c4nc(c(-c5cccc(S(=O)(=O)[O-])c5F)c5ccc2[nH]5)C=C4)C=C3)cc1)c1ccc(-c2ccccc2)c(F)c1
REMARK SMILES IDX 12 1 11 2 10 3 9 4 8 5 7 6 6 7 5 8 3 9 4 10 2 11 1 12 83 13
REMARK SMILES IDX 84 14 95 15 85 16 93 17 86 18 94 19 87 20 88 21 92 22 89 23
REMARK SMILES IDX 91 24 90 25 13 26 14 27 15 28 16 29 17 30 18 31 19 32 20 33
REMARK SMILES IDX 21 34 82 35 22 36 81 37 23 38 24 39 25 40 75 41 26 42 80 43
REMARK SMILES IDX 74 44 76 45 27 46 79 47 73 48 72 49 28 51 60 52 40 53 59 54
REMARK SMILES IDX 41 55 44 56 58 57 77 58 42 59 43 60 57 62 78 63 45 64 29 65
REMARK SMILES IDX 30 66 38 67 31 68 33 69 39 70 32 71 34 72 35 73 36 74 37 75
REMARK SMILES IDX 61 76 62 77 70 78 63 79 65 80 71 81 64 82 66 83 67 84 68 85
REMARK SMILES IDX 69 86 46 87 47 88 55 89 48 90 50 91 56 92 49 93 51 94 52 95
REMARK SMILES IDX 53 96 54 97
REMARK H PARENT 76 50 44 61
REMARK Flexibility Score: inf
ROOT
ATOM      1  C   UNL A   1      41.412  21.329  26.865  1.00  0.00     0.188 C 
ENDROOT
BRANCH   1   2
ATOM      2  O   UNL A   1      40.008  21.171  26.927  1.00  0.00    -0.377 OA
BRANCH   2   3
ATOM      3  C   UNL A   1      39.242  22.073  26.158  1.00  0.00     0.188 C 
BRANCH   3   4
ATOM      4  C   UNL A   1      38.065  21.457  25.384  1.00  0.00     0.188 C 
BRANCH   4   5
ATOM      5  O   UNL A   1      37.092  22.270  24.739  1.00  0.00    -0.376 OA
BRANCH   5   6
ATOM      6  C   UNL A   1      36.827  23.579  25.226  1.00  0.00     0.202 C 
BRANCH   6   7
ATOM      7  C   UNL A   1      35.613  24.358  24.678  1.00  0.00     0.261 C 
BRANCH   7   8
ATOM      8  O   UNL A   1      35.210  24.032  23.326  1.00  0.00    -0.463 OA
BRANCH   8   9
ATOM      9  C   UNL A   1      33.931  24.299  22.978  1.00  0.00     0.313 C 
ATOM     10  O   UNL A   1      33.634  25.066  22.061  1.00  0.00    -0.252 OA
BRANCH   9  11
ATOM     11  C   UNL A   1      32.837  23.530  23.745  1.00  0.00     0.126 C 
ATOM     12  C   UNL A   1      31.491  23.930  23.100  1.00  0.00     0.025 C 
BRANCH  11  13
ATOM     13  C   UNL A   1      32.968  22.018  24.022  1.00  0.00    -0.031 A 
ATOM     14  C   UNL A   1      33.672  21.552  25.145  1.00  0.00     0.005 A 
ATOM     15  C   UNL A   1      32.385  21.028  23.199  1.00  0.00     0.044 A 
ATOM     16  C   UNL A   1      33.805  20.171  25.416  1.00  0.00     0.012 A 
ATOM     17  C   UNL A   1      32.554  19.660  23.452  1.00  0.00     0.131 A 
ATOM     18  C   UNL A   1      33.255  19.198  24.566  1.00  0.00     0.017 A 
ATOM     19  F   UNL A   1      32.020  18.787  22.581  1.00  0.00    -0.206 F 
BRANCH  18  20
ATOM     20  C   UNL A   1      33.388  17.759  24.845  1.00  0.00    -0.015 A 
ATOM     21  C   UNL A   1      34.617  17.104  24.658  1.00  0.00     0.009 A 
ATOM     22  C   UNL A   1      32.305  17.001  25.322  1.00  0.00     0.009 A 
ATOM     23  C   UNL A   1      34.758  15.739  24.936  1.00  0.00     0.001 A 
ATOM     24  C   UNL A   1      32.444  15.636  25.596  1.00  0.00     0.001 A 
ATOM     25  C   UNL A   1      33.671  15.006  25.402  1.00  0.00     0.000 A 
ENDBRANCH  18  20
ENDBRANCH  11  13
ENDBRANCH   9  11
ENDBRANCH   8   9
ENDBRANCH   7   8
ENDBRANCH   6   7
ENDBRANCH   5   6
ENDBRANCH   4   5
ENDBRANCH   3   4
ENDBRANCH   2   3
ENDBRANCH   1   2
BRANCH   1  26
ATOM     26  C   UNL A   1      42.172  20.168  26.208  1.00  0.00     0.188 C 
BRANCH  26  27
ATOM     27  O   UNL A   1      42.942  20.565  25.078  1.00  0.00    -0.376 OA
BRANCH  27  28
ATOM     28  C   UNL A   1      44.356  20.430  25.127  1.00  0.00     0.202 C 
BRANCH  28  29
ATOM     29  C   UNL A   1      45.196  21.539  25.791  1.00  0.00     0.261 C 
BRANCH  29  30
ATOM     30  O   UNL A   1      44.526  22.758  26.144  1.00  0.00    -0.460 OA
BRANCH  30  31
ATOM     31  C   UNL A   1      44.547  23.788  25.273  1.00  0.00     0.338 C 
ATOM     32  O   UNL A   1      44.575  23.712  24.056  1.00  0.00    -0.246 OA
BRANCH  31  33
ATOM     33  C   UNL A   1      44.297  25.031  26.037  1.00  0.00     0.060 A 
ATOM     34  C   UNL A   1      44.009  26.207  25.329  1.00  0.00     0.016 A 
ATOM     35  C   UNL A   1      44.319  25.040  27.434  1.00  0.00     0.016 A 
ATOM     36  C   UNL A   1      43.782  27.401  26.014  1.00  0.00     0.010 A 
ATOM     37  C   UNL A   1      44.119  26.244  28.119  1.00  0.00     0.010 A 
ATOM     38  C   UNL A   1      43.887  27.436  27.409  1.00  0.00    -0.014 A 
BRANCH  38  39
ATOM     39  C   UNL A   1      43.975  28.748  28.098  1.00  0.00     0.031 A 
ATOM     40  C   UNL A   1      42.722  29.309  28.715  1.00  0.00     0.074 A 
ATOM     41  C   UNL A   1      45.137  29.419  28.196  1.00  0.00     0.049 A 
ATOM     42  N   UNL A   1      42.540  30.438  29.347  1.00  0.00    -0.248 NA
ATOM     43  C   UNL A   1      41.508  28.481  28.602  1.00  0.00     0.031 C 
ATOM     44  C   UNL A   1      46.422  28.969  27.665  1.00  0.00     0.029 A 
ATOM     45  N   UNL A   1      45.414  30.637  28.765  1.00  0.00    -0.354 N 
ATOM     46  C   UNL A   1      41.190  30.474  29.675  1.00  0.00     0.074 A 
ATOM     47  C   UNL A   1      40.597  29.256  29.168  1.00  0.00     0.031 C 
ATOM     48  C   UNL A   1      47.348  29.914  27.910  1.00  0.00     0.029 A 
ATOM     49  C   UNL A   1      46.714  31.045  28.587  1.00  0.00     0.049 A 
ATOM     50  H   UNL A   1      44.744  31.169  29.253  1.00  0.00     0.167 HD
ATOM     51  C   UNL A   1      40.505  31.430  30.344  1.00  0.00     0.034 A 
ATOM     52  C   UNL A   1      47.316  32.209  28.910  1.00  0.00     0.034 A 
ATOM     53  C   UNL A   1      41.099  32.634  30.857  1.00  0.00     0.049 A 
ATOM     54  C   UNL A   1      46.519  33.277  29.618  1.00  0.00     0.074 A 
ATOM     55  C   UNL A   1      40.500  33.643  31.589  1.00  0.00     0.029 A 
ATOM     56  N   UNL A   1      42.423  33.002  30.673  1.00  0.00    -0.354 N 
ATOM     57  N   UNL A   1      45.270  33.252  30.015  1.00  0.00    -0.248 NA
ATOM     58  C   UNL A   1      47.227  34.524  29.949  1.00  0.00     0.031 C 
ATOM     59  C   UNL A   1      41.451  34.645  31.807  1.00  0.00     0.029 A 
ATOM     60  C   UNL A   1      42.655  34.236  31.258  1.00  0.00     0.049 A 
ATOM     61  H   UNL A   1      43.098  32.466  30.197  1.00  0.00     0.167 HD
ATOM     62  C   UNL A   1      45.054  34.456  30.679  1.00  0.00     0.074 A 
ATOM     63  C   UNL A   1      46.307  35.182  30.643  1.00  0.00     0.031 C 
ATOM     64  C   UNL A   1      43.920  34.924  31.258  1.00  0.00     0.034 A 
BRANCH  51  65
ATOM     65  C   UNL A   1      39.030  31.215  30.555  1.00  0.00     0.023 A 
ATOM     66  C   UNL A   1      38.578  30.345  31.568  1.00  0.00     0.012 A 
ATOM     67  C   UNL A   1      38.088  31.916  29.775  1.00  0.00     0.148 A 
ATOM     68  C   UNL A   1      37.214  30.148  31.778  1.00  0.00     0.002 A 
ATOM     69  C   UNL A   1      36.732  31.752  30.023  1.00  0.00     0.091 A 
ATOM     70  F   UNL A   1      38.538  32.719  28.800  1.00  0.00    -0.205 F 
ATOM     71  C   UNL A   1      36.292  30.860  31.014  1.00  0.00     0.022 A 
BRANCH  69  72
ATOM     72  S   UNL A   1      35.469  32.684  29.149  1.00  0.00     0.127 S 
ATOM     73  O   UNL A   1      35.826  34.059  29.495  1.00  0.00    -0.237 OA
ATOM     74  O   UNL A   1      35.729  32.319  27.757  1.00  0.00    -0.237 OA
ATOM     75  O   UNL A   1      34.192  32.222  29.672  1.00  0.00    -0.744 OA
ENDBRANCH  69  72
ENDBRANCH  51  65
BRANCH  52  76
ATOM     76  C   UNL A   1      48.755  32.426  28.586  1.00  0.00     0.023 A 
ATOM     77  C   UNL A   1      49.739  32.154  29.557  1.00  0.00     0.012 A 
ATOM     78  C   UNL A   1      49.153  32.906  27.322  1.00  0.00     0.148 A 
ATOM     79  C   UNL A   1      51.089  32.388  29.287  1.00  0.00     0.002 A 
ATOM     80  C   UNL A   1      50.502  33.082  27.041  1.00  0.00     0.091 A 
ATOM     81  F   UNL A   1      48.201  33.174  26.418  1.00  0.00    -0.205 F 
ATOM     82  C   UNL A   1      51.471  32.842  28.028  1.00  0.00     0.022 A 
BRANCH  80  83
ATOM     83  S   UNL A   1      51.097  33.546  25.411  1.00  0.00     0.127 S 
ATOM     84  O   UNL A   1      52.367  34.194  25.728  1.00  0.00    -0.237 OA
ATOM     85  O   UNL A   1      51.215  32.244  24.753  1.00  0.00    -0.237 OA
ATOM     86  O   UNL A   1      50.070  34.414  24.848  1.00  0.00    -0.744 OA
ENDBRANCH  80  83
ENDBRANCH  52  76
BRANCH  64  87
ATOM     87  C   UNL A   1      43.984  36.261  31.952  1.00  0.00     0.023 A 
ATOM     88  C   UNL A   1      44.243  36.332  33.335  1.00  0.00     0.012 A 
ATOM     89  C   UNL A   1      43.864  37.454  31.211  1.00  0.00     0.148 A 
ATOM     90  C   UNL A   1      44.343  37.568  33.975  1.00  0.00     0.002 A 
ATOM     91  C   UNL A   1      44.021  38.681  31.843  1.00  0.00     0.091 A 
ATOM     92  F   UNL A   1      43.604  37.367  29.897  1.00  0.00    -0.205 F 
ATOM     93  C   UNL A   1      44.245  38.740  33.228  1.00  0.00     0.022 A 
BRANCH  91  94
ATOM     94  S   UNL A   1      44.012  40.237  30.948  1.00  0.00     0.127 S 
ATOM     95  O   UNL A   1      45.159  40.074  30.055  1.00  0.00    -0.237 OA
ATOM     96  O   UNL A   1      42.710  40.203  30.280  1.00  0.00    -0.237 OA
ATOM     97  O   UNL A   1      44.150  41.283  31.952  1.00  0.00    -0.744 OA
ENDBRANCH  91  94
ENDBRANCH  64  87
ENDBRANCH  38  39
ENDBRANCH  31  33
ENDBRANCH  30  31
ENDBRANCH  29  30
ENDBRANCH  28  29
ENDBRANCH  27  28
ENDBRANCH  26  27
ENDBRANCH   1  26
TORSDOF 25
ENDMDL
MODEL 2
REMARK VINA RESULT:      -8.8      4.785      8.175
REMARK SMILES C[C@H](C(=O)OCCOCCOCCOCCOC(=O)c1ccc(-c2c3nc(c(-c4cccc(S(=O)(=O)[O-])c4F)c4ccc([nH]4)c(-c4cccc(S(=O)(=O)[O-])c4F)c4nc(c(-c5cccc(S(=O)(=O)[O-])c5F)c5ccc2[nH]5)C=C4)C=C3)cc1)c1ccc(-c2ccccc2)c(F)c1
REMARK SMILES IDX 12 1 11 2 10 3 9 4 8 5 7 6 6 7 5 8 3 9 4 10 2 11 1 12 83 13
REMARK SMILES IDX 84 14 95 15 85 16 93 17 86 18 94 19 87 20 88 21 92 22 89 23
REMARK SMILES IDX 91 24 90 25 13 26 14 27 15 28 16 29 17 30 18 31 19 32 20 33
REMARK SMILES IDX 21 34 82 35 22 36 81 37 23 38 24 39 25 40 75 41 26 42 80 43
REMARK SMILES IDX 74 44 76 45 27 46 79 47 73 48 72 49 28 51 60 52 40 53 59 54
REMARK SMILES IDX 41 55 44 56 58 57 77 58 42 59 43 60 57 62 78 63 45 64 29 65
REMARK SMILES IDX 30 66 38 67 31 68 33 69 39 70 32 71 34 72 35 73 36 74 37 75
REMARK SMILES IDX 61 76 62 77 70 78 63 79 65 80 71 81 64 82 66 83 67 84 68 85
REMARK SMILES IDX 69 86 46 87 47 88 55 89 48 90 50 91 56 92 49 93 51 94 52 95
REMARK SMILES IDX 53 96 54 97
REMARK H PARENT 76 50 44 61
REMARK Flexibility Score: inf
ROOT
ATOM      1  C   UNL A   1      42.208  22.093  27.905  1.00  0.00     0.188 C 
ENDROOT
BRANCH   1   2
ATOM      2  O   UNL A   1      41.356  23.161  27.538  1.00  0.00    -0.377 OA
BRANCH   2   3
ATOM      3  C   UNL A   1      39.989  22.846  27.384  1.00  0.00     0.188 C 
BRANCH   3   4
ATOM      4  C   UNL A   1      39.161  23.852  26.567  1.00  0.00     0.188 C 
BRANCH   4   5
ATOM      5  O   UNL A   1      37.920  23.487  25.975  1.00  0.00    -0.376 OA
BRANCH   5   6
ATOM      6  C   UNL A   1      37.776  22.215  25.359  1.00  0.00     0.202 C 
BRANCH   6   7
ATOM      7  C   UNL A   1      36.796  22.053  24.177  1.00  0.00     0.261 C 
BRANCH   7   8
ATOM      8  O   UNL A   1      35.432  22.470  24.425  1.00  0.00    -0.463 OA
BRANCH   8   9
ATOM      9  C   UNL A   1      34.510  21.499  24.612  1.00  0.00     0.313 C 
ATOM     10  O   UNL A   1      34.739  20.477  25.259  1.00  0.00    -0.252 OA
BRANCH   9  11
ATOM     11  C   UNL A   1      33.108  21.765  24.030  1.00  0.00     0.126 C 
ATOM     12  C   UNL A   1      32.168  20.716  24.665  1.00  0.00     0.025 C 
BRANCH  11  13
ATOM     13  C   UNL A   1      32.515  23.189  23.992  1.00  0.00    -0.031 A 
ATOM     14  C   UNL A   1      32.053  23.742  22.787  1.00  0.00     0.005 A 
ATOM     15  C   UNL A   1      32.380  24.000  25.141  1.00  0.00     0.044 A 
ATOM     16  C   UNL A   1      31.507  25.045  22.730  1.00  0.00     0.012 A 
ATOM     17  C   UNL A   1      31.875  25.306  25.071  1.00  0.00     0.131 A 
ATOM     18  C   UNL A   1      31.418  25.855  23.874  1.00  0.00     0.017 A 
ATOM     19  F   UNL A   1      31.842  26.030  26.202  1.00  0.00    -0.206 F 
BRANCH  18  20
ATOM     20  C   UNL A   1      30.848  27.212  23.821  1.00  0.00    -0.015 A 
ATOM     21  C   UNL A   1      31.495  28.285  24.457  1.00  0.00     0.009 A 
ATOM     22  C   UNL A   1      29.658  27.481  23.124  1.00  0.00     0.009 A 
ATOM     23  C   UNL A   1      30.970  29.582  24.400  1.00  0.00     0.001 A 
ATOM     24  C   UNL A   1      29.131  28.776  23.069  1.00  0.00     0.001 A 
ATOM     25  C   UNL A   1      29.787  29.826  23.708  1.00  0.00     0.000 A 
ENDBRANCH  18  20
ENDBRANCH  11  13
ENDBRANCH   9  11
ENDBRANCH   8   9
ENDBRANCH   7   8
ENDBRANCH   6   7
ENDBRANCH   5   6
ENDBRANCH   4   5
ENDBRANCH   3   4
ENDBRANCH   2   3
ENDBRANCH   1   2
BRANCH   1  26
ATOM     26  C   UNL A   1      41.958  20.773  27.161  1.00  0.00     0.188 C 
BRANCH  26  27
ATOM     27  O   UNL A   1      42.362  20.808  25.797  1.00  0.00    -0.376 OA
BRANCH  27  28
ATOM     28  C   UNL A   1      43.499  20.057  25.395  1.00  0.00     0.202 C 
BRANCH  28  29
ATOM     29  C   UNL A   1      44.904  20.664  25.574  1.00  0.00     0.261 C 
BRANCH  29  30
ATOM     30  O   UNL A   1      45.519  21.267  24.425  1.00  0.00    -0.460 OA
BRANCH  30  31
ATOM     31  C   UNL A   1      44.921  22.329  23.849  1.00  0.00     0.338 C 
ATOM     32  O   UNL A   1      44.298  22.336  22.799  1.00  0.00    -0.246 OA
BRANCH  31  33
ATOM     33  C   UNL A   1      44.948  23.445  24.822  1.00  0.00     0.060 A 
ATOM     34  C   UNL A   1      46.174  23.800  25.403  1.00  0.00     0.016 A 
ATOM     35  C   UNL A   1      43.788  24.154  25.144  1.00  0.00     0.016 A 
ATOM     36  C   UNL A   1      46.237  24.837  26.333  1.00  0.00     0.010 A 
ATOM     37  C   UNL A   1      43.847  25.175  26.099  1.00  0.00     0.010 A 
ATOM     38  C   UNL A   1      45.065  25.495  26.725  1.00  0.00    -0.014 A 
BRANCH  38  39
ATOM     39  C   UNL A   1      45.084  26.351  27.937  1.00  0.00     0.031 A 
ATOM     40  C   UNL A   1      45.254  27.836  27.751  1.00  0.00     0.074 A 
ATOM     41  C   UNL A   1      44.932  25.836  29.170  1.00  0.00     0.049 A 
ATOM     42  N   UNL A   1      45.324  28.782  28.649  1.00  0.00    -0.248 NA
ATOM     43  C   UNL A   1      45.362  28.315  26.363  1.00  0.00     0.031 C 
ATOM     44  C   UNL A   1      44.732  24.422  29.477  1.00  0.00     0.029 A 
ATOM     45  N   UNL A   1      44.942  26.451  30.397  1.00  0.00    -0.354 N 
ATOM     46  C   UNL A   1      45.518  29.961  27.940  1.00  0.00     0.074 A 
ATOM     47  C   UNL A   1      45.562  29.612  26.537  1.00  0.00     0.031 C 
ATOM     48  C   UNL A   1      44.665  24.273  30.813  1.00  0.00     0.029 A 
ATOM     49  C   UNL A   1      44.848  25.575  31.452  1.00  0.00     0.049 A 
ATOM     50  H   UNL A   1      45.012  27.426  30.511  1.00  0.00     0.167 HD
ATOM     51  C   UNL A   1      45.643  31.224  28.411  1.00  0.00     0.034 A 
ATOM     52  C   UNL A   1      44.927  25.798  32.780  1.00  0.00     0.034 A 
ATOM     53  C   UNL A   1      45.588  31.570  29.805  1.00  0.00     0.049 A 
ATOM     54  C   UNL A   1      45.109  27.210  33.281  1.00  0.00     0.074 A 
ATOM     55  C   UNL A   1      45.657  32.826  30.381  1.00  0.00     0.029 A 
ATOM     56  N   UNL A   1      45.473  30.658  30.842  1.00  0.00    -0.354 N 
ATOM     57  N   UNL A   1      45.185  28.327  32.598  1.00  0.00    -0.248 NA
ATOM     58  C   UNL A   1      45.186  27.395  34.738  1.00  0.00     0.031 C 
ATOM     59  C   UNL A   1      45.631  32.669  31.770  1.00  0.00     0.029 A 
ATOM     60  C   UNL A   1      45.491  31.320  32.058  1.00  0.00     0.049 A 
ATOM     61  H   UNL A   1      45.389  29.683  30.731  1.00  0.00     0.167 HD
ATOM     62  C   UNL A   1      45.275  29.347  33.540  1.00  0.00     0.074 A 
ATOM     63  C   UNL A   1      45.228  28.716  34.843  1.00  0.00     0.031 C 
ATOM     64  C   UNL A   1      45.394  30.684  33.346  1.00  0.00     0.034 A 
BRANCH  51  65
ATOM     65  C   UNL A   1      45.858  32.326  27.408  1.00  0.00     0.023 A 
ATOM     66  C   UNL A   1      44.755  32.928  26.770  1.00  0.00     0.012 A 
ATOM     67  C   UNL A   1      47.158  32.798  27.135  1.00  0.00     0.148 A 
ATOM     68  C   UNL A   1      44.945  33.957  25.847  1.00  0.00     0.002 A 
ATOM     69  C   UNL A   1      47.334  33.856  26.253  1.00  0.00     0.091 A 
ATOM     70  F   UNL A   1      48.195  32.196  27.734  1.00  0.00    -0.205 F 
ATOM     71  C   UNL A   1      46.231  34.428  25.599  1.00  0.00     0.022 A 
BRANCH  69  72
ATOM     72  S   UNL A   1      48.942  34.588  25.929  1.00  0.00     0.127 S 
ATOM     73  O   UNL A   1      49.353  35.001  27.270  1.00  0.00    -0.237 OA
ATOM     74  O   UNL A   1      49.688  33.455  25.383  1.00  0.00    -0.237 OA
ATOM     75  O   UNL A   1      48.709  35.674  24.988  1.00  0.00    -0.744 OA
ENDBRANCH  69  72
ENDBRANCH  51  65
BRANCH  52  76
ATOM     76  C   UNL A   1      44.818  24.662  33.741  1.00  0.00     0.023 A 
ATOM     77  C   UNL A   1      43.550  24.257  34.203  1.00  0.00     0.012 A 
ATOM     78  C   UNL A   1      45.964  23.985  34.202  1.00  0.00     0.148 A 
ATOM     79  C   UNL A   1      43.429  23.222  35.132  1.00  0.00     0.002 A 
ATOM     80  C   UNL A   1      45.832  22.918  35.082  1.00  0.00     0.091 A 
ATOM     81  F   UNL A   1      47.162  24.396  33.763  1.00  0.00    -0.205 F 
ATOM     82  C   UNL A   1      44.567  22.547  35.564  1.00  0.00     0.022 A 
BRANCH  80  83
ATOM     83  S   UNL A   1      47.228  21.913  35.598  1.00  0.00     0.127 S 
ATOM     84  O   UNL A   1      46.590  20.950  36.492  1.00  0.00    -0.237 OA
ATOM     85  O   UNL A   1      47.687  21.362  34.323  1.00  0.00    -0.237 OA
ATOM     86  O   UNL A   1      48.165  22.832  36.230  1.00  0.00    -0.744 OA
ENDBRANCH  80  83
ENDBRANCH  52  76
BRANCH  64  87
ATOM     87  C   UNL A   1      45.428  31.573  34.564  1.00  0.00     0.023 A 
ATOM     88  C   UNL A   1      46.654  31.877  35.188  1.00  0.00     0.012 A 
ATOM     89  C   UNL A   1      44.244  32.171  35.041  1.00  0.00     0.148 A 
ATOM     90  C   UNL A   1      46.695  32.732  36.290  1.00  0.00     0.002 A 
ATOM     91  C   UNL A   1      44.299  33.065  36.103  1.00  0.00     0.091 A 
ATOM     92  F   UNL A   1      43.084  31.860  34.443  1.00  0.00    -0.205 F 
ATOM     93  C   UNL A   1      45.521  33.334  36.738  1.00  0.00     0.022 A 
BRANCH  91  94
ATOM     94  S   UNL A   1      42.858  33.966  36.683  1.00  0.00     0.127 S 
ATOM     95  O   UNL A   1      42.115  34.172  35.440  1.00  0.00    -0.237 OA
ATOM     96  O   UNL A   1      42.247  33.010  37.607  1.00  0.00    -0.237 OA
ATOM     97  O   UNL A   1      43.365  35.177  37.313  1.00  0.00    -0.744 OA
ENDBRANCH  91  94
ENDBRANCH  64  87
ENDBRANCH  38  39
ENDBRANCH  31  33
ENDBRANCH  30  31
ENDBRANCH  29  30
ENDBRANCH  28  29
ENDBRANCH  27  28
ENDBRANCH  26  27
ENDBRANCH   1  26
TORSDOF 25
ENDMDL
MODEL 3
REMARK VINA RESULT:      -8.5      6.838      9.796
REMARK SMILES C[C@H](C(=O)OCCOCCOCCOCCOC(=O)c1ccc(-c2c3nc(c(-c4cccc(S(=O)(=O)[O-])c4F)c4ccc([nH]4)c(-c4cccc(S(=O)(=O)[O-])c4F)c4nc(c(-c5cccc(S(=O)(=O)[O-])c5F)c5ccc2[nH]5)C=C4)C=C3)cc1)c1ccc(-c2ccccc2)c(F)c1
REMARK SMILES IDX 12 1 11 2 10 3 9 4 8 5 7 6 6 7 5 8 3 9 4 10 2 11 1 12 83 13
REMARK SMILES IDX 84 14 95 15 85 16 93 17 86 18 94 19 87 20 88 21 92 22 89 23
REMARK SMILES IDX 91 24 90 25 13 26 14 27 15 28 16 29 17 30 18 31 19 32 20 33
REMARK SMILES IDX 21 34 82 35 22 36 81 37 23 38 24 39 25 40 75 41 26 42 80 43
REMARK SMILES IDX 74 44 76 45 27 46 79 47 73 48 72 49 28 51 60 52 40 53 59 54
REMARK SMILES IDX 41 55 44 56 58 57 77 58 42 59 43 60 57 62 78 63 45 64 29 65
REMARK SMILES IDX 30 66 38 67 31 68 33 69 39 70 32 71 34 72 35 73 36 74 37 75
REMARK SMILES IDX 61 76 62 77 70 78 63 79 65 80 71 81 64 82 66 83 67 84 68 85
REMARK SMILES IDX 69 86 46 87 47 88 55 89 48 90 50 91 56 92 49 93 51 94 52 95
REMARK SMILES IDX 53 96 54 97
REMARK H PARENT 76 50 44 61
REMARK Flexibility Score: inf
ROOT
ATOM      1  C   UNL A   1      37.571  24.010  26.503  1.00  0.00     0.188 C 
ENDROOT
BRANCH   1   2
ATOM      2  O   UNL A   1      37.569  23.722  25.118  1.00  0.00    -0.377 OA
BRANCH   2   3
ATOM      3  C   UNL A   1      36.829  22.589  24.716  1.00  0.00     0.188 C 
BRANCH   3   4
ATOM      4  C   UNL A   1      35.362  22.852  24.336  1.00  0.00     0.188 C 
BRANCH   4   5
ATOM      5  O   UNL A   1      34.596  23.862  24.983  1.00  0.00    -0.376 OA
BRANCH   5   6
ATOM      6  C   UNL A   1      34.504  25.159  24.410  1.00  0.00     0.202 C 
BRANCH   6   7
ATOM      7  C   UNL A   1      33.527  26.187  25.017  1.00  0.00     0.261 C 
BRANCH   7   8
ATOM      8  O   UNL A   1      32.655  25.691  26.060  1.00  0.00    -0.463 OA
BRANCH   8   9
ATOM      9  C   UNL A   1      31.330  25.923  25.925  1.00  0.00     0.313 C 
ATOM     10  O   UNL A   1      30.786  26.949  26.336  1.00  0.00    -0.252 OA
BRANCH   9  11
ATOM     11  C   UNL A   1      30.523  24.859  25.155  1.00  0.00     0.126 C 
ATOM     12  C   UNL A   1      29.894  25.585  23.944  1.00  0.00     0.025 C 
BRANCH  11  13
ATOM     13  C   UNL A   1      31.136  23.488  24.807  1.00  0.00    -0.031 A 
ATOM     14  C   UNL A   1      31.307  22.506  25.797  1.00  0.00     0.005 A 
ATOM     15  C   UNL A   1      31.536  23.128  23.501  1.00  0.00     0.044 A 
ATOM     16  C   UNL A   1      31.868  21.243  25.501  1.00  0.00     0.012 A 
ATOM     17  C   UNL A   1      32.129  21.889  23.221  1.00  0.00     0.131 A 
ATOM     18  C   UNL A   1      32.299  20.916  24.205  1.00  0.00     0.017 A 
ATOM     19  F   UNL A   1      32.538  21.656  21.963  1.00  0.00    -0.206 F 
BRANCH  18  20
ATOM     20  C   UNL A   1      32.882  19.602  23.890  1.00  0.00    -0.015 A 
ATOM     21  C   UNL A   1      34.022  19.141  24.571  1.00  0.00     0.009 A 
ATOM     22  C   UNL A   1      32.313  18.761  22.918  1.00  0.00     0.009 A 
ATOM     23  C   UNL A   1      34.574  17.886  24.290  1.00  0.00     0.001 A 
ATOM     24  C   UNL A   1      32.867  17.507  22.634  1.00  0.00     0.001 A 
ATOM     25  C   UNL A   1      33.997  17.071  23.320  1.00  0.00     0.000 A 
ENDBRANCH  18  20
ENDBRANCH  11  13
ENDBRANCH   9  11
ENDBRANCH   8   9
ENDBRANCH   7   8
ENDBRANCH   6   7
ENDBRANCH   5   6
ENDBRANCH   4   5
ENDBRANCH   3   4
ENDBRANCH   2   3
ENDBRANCH   1   2
BRANCH   1  26
ATOM     26  C   UNL A   1      38.955  24.281  27.112  1.00  0.00     0.188 C 
BRANCH  26  27
ATOM     27  O   UNL A   1      39.189  25.657  27.393  1.00  0.00    -0.376 OA
BRANCH  27  28
ATOM     28  C   UNL A   1      40.465  26.210  27.105  1.00  0.00     0.202 C 
BRANCH  28  29
ATOM     29  C   UNL A   1      41.452  25.414  26.230  1.00  0.00     0.261 C 
BRANCH  29  30
ATOM     30  O   UNL A   1      41.937  26.043  25.034  1.00  0.00    -0.460 OA
BRANCH  30  31
ATOM     31  C   UNL A   1      42.642  27.188  25.140  1.00  0.00     0.338 C 
ATOM     32  O   UNL A   1      42.329  28.281  24.696  1.00  0.00    -0.246 OA
BRANCH  31  33
ATOM     33  C   UNL A   1      43.753  26.948  26.089  1.00  0.00     0.060 A 
ATOM     34  C   UNL A   1      44.050  27.935  27.039  1.00  0.00     0.016 A 
ATOM     35  C   UNL A   1      44.482  25.756  26.063  1.00  0.00     0.016 A 
ATOM     36  C   UNL A   1      45.098  27.750  27.940  1.00  0.00     0.010 A 
ATOM     37  C   UNL A   1      45.552  25.584  26.949  1.00  0.00     0.010 A 
ATOM     38  C   UNL A   1      45.888  26.596  27.865  1.00  0.00    -0.014 A 
BRANCH  38  39
ATOM     39  C   UNL A   1      47.184  26.555  28.587  1.00  0.00     0.031 A 
ATOM     40  C   UNL A   1      47.180  26.101  30.023  1.00  0.00     0.074 A 
ATOM     41  C   UNL A   1      48.340  26.889  27.986  1.00  0.00     0.049 A 
ATOM     42  N   UNL A   1      48.173  26.001  30.865  1.00  0.00    -0.248 NA
ATOM     43  C   UNL A   1      45.875  25.707  30.582  1.00  0.00     0.031 C 
ATOM     44  C   UNL A   1      48.478  27.317  26.596  1.00  0.00     0.029 A 
ATOM     45  N   UNL A   1      49.618  26.936  28.483  1.00  0.00    -0.354 N 
ATOM     46  C   UNL A   1      47.612  25.569  32.060  1.00  0.00     0.074 A 
ATOM     47  C   UNL A   1      46.189  25.431  31.837  1.00  0.00     0.031 C 
ATOM     48  C   UNL A   1      49.769  27.610  26.358  1.00  0.00     0.029 A 
ATOM     49  C   UNL A   1      50.540  27.419  27.586  1.00  0.00     0.049 A 
ATOM     50  H   UNL A   1      49.852  26.651  29.396  1.00  0.00     0.167 HD
ATOM     51  C   UNL A   1      48.224  25.304  33.238  1.00  0.00     0.034 A 
ATOM     52  C   UNL A   1      51.850  27.699  27.747  1.00  0.00     0.034 A 
ATOM     53  C   UNL A   1      49.639  25.431  33.454  1.00  0.00     0.049 A 
ATOM     54  C   UNL A   1      52.501  27.435  29.082  1.00  0.00     0.074 A 
ATOM     55  C   UNL A   1      50.362  25.142  34.597  1.00  0.00     0.029 A 
ATOM     56  N   UNL A   1      50.542  25.905  32.516  1.00  0.00    -0.354 N 
ATOM     57  N   UNL A   1      51.978  26.926  30.172  1.00  0.00    -0.248 NA
ATOM     58  C   UNL A   1      53.932  27.756  29.200  1.00  0.00     0.031 C 
ATOM     59  C   UNL A   1      51.698  25.486  34.365  1.00  0.00     0.029 A 
ATOM     60  C   UNL A   1      51.815  25.939  33.061  1.00  0.00     0.049 A 
ATOM     61  H   UNL A   1      50.313  26.177  31.598  1.00  0.00     0.167 HD
ATOM     62  C   UNL A   1      53.022  26.826  31.088  1.00  0.00     0.074 A 
ATOM     63  C   UNL A   1      54.211  27.314  30.419  1.00  0.00     0.031 C 
ATOM     64  C   UNL A   1      52.998  26.380  32.368  1.00  0.00     0.034 A 
BRANCH  51  65
ATOM     65  C   UNL A   1      47.363  24.854  34.388  1.00  0.00     0.023 A 
ATOM     66  C   UNL A   1      46.582  25.788  35.098  1.00  0.00     0.012 A 
ATOM     67  C   UNL A   1      47.293  23.489  34.735  1.00  0.00     0.148 A 
ATOM     68  C   UNL A   1      45.773  25.378  36.158  1.00  0.00     0.002 A 
ATOM     69  C   UNL A   1      46.447  23.083  35.759  1.00  0.00     0.091 A 
ATOM     70  F   UNL A   1      48.061  22.620  34.064  1.00  0.00    -0.205 F 
ATOM     71  C   UNL A   1      45.697  24.026  36.480  1.00  0.00     0.022 A 
BRANCH  69  72
ATOM     72  S   UNL A   1      46.217  21.356  36.195  1.00  0.00     0.127 S 
ATOM     73  O   UNL A   1      45.355  20.890  35.110  1.00  0.00    -0.237 OA
ATOM     74  O   UNL A   1      47.587  20.844  36.149  1.00  0.00    -0.237 OA
ATOM     75  O   UNL A   1      45.610  21.351  37.518  1.00  0.00    -0.744 OA
ENDBRANCH  69  72
ENDBRANCH  51  65
BRANCH  52  76
ATOM     76  C   UNL A   1      52.647  28.248  26.611  1.00  0.00     0.023 A 
ATOM     77  C   UNL A   1      52.851  29.638  26.509  1.00  0.00     0.012 A 
ATOM     78  C   UNL A   1      53.198  27.400  25.631  1.00  0.00     0.148 A 
ATOM     79  C   UNL A   1      53.560  30.176  25.433  1.00  0.00     0.002 A 
ATOM     80  C   UNL A   1      53.952  27.938  24.594  1.00  0.00     0.091 A 
ATOM     81  F   UNL A   1      52.979  26.082  25.737  1.00  0.00    -0.205 F 
ATOM     82  C   UNL A   1      54.118  29.327  24.483  1.00  0.00     0.022 A 
BRANCH  80  83
ATOM     83  S   UNL A   1      54.809  26.915  23.393  1.00  0.00     0.127 S 
ATOM     84  O   UNL A   1      55.568  27.909  22.639  1.00  0.00    -0.237 OA
ATOM     85  O   UNL A   1      55.612  26.048  24.256  1.00  0.00    -0.237 OA
ATOM     86  O   UNL A   1      53.766  26.222  22.648  1.00  0.00    -0.744 OA
ENDBRANCH  80  83
ENDBRANCH  52  76
BRANCH  64  87
ATOM     87  C   UNL A   1      54.301  26.341  33.125  1.00  0.00     0.023 A 
ATOM     88  C   UNL A   1      54.724  27.459  33.872  1.00  0.00     0.012 A 
ATOM     89  C   UNL A   1      55.070  25.159  33.159  1.00  0.00     0.148 A 
ATOM     90  C   UNL A   1      55.908  27.413  34.607  1.00  0.00     0.002 A 
ATOM     91  C   UNL A   1      56.219  25.102  33.938  1.00  0.00     0.091 A 
ATOM     92  F   UNL A   1      54.660  24.109  32.431  1.00  0.00    -0.205 F 
ATOM     93  C   UNL A   1      56.647  26.234  34.650  1.00  0.00     0.022 A 
BRANCH  91  94
ATOM     94  S   UNL A   1      57.177  23.597  34.136  1.00  0.00     0.127 S 
ATOM     95  O   UNL A   1      56.189  22.688  34.714  1.00  0.00    -0.237 OA
ATOM     96  O   UNL A   1      57.557  23.289  32.757  1.00  0.00    -0.237 OA
ATOM     97  O   UNL A   1      58.293  23.940  35.008  1.00  0.00    -0.744 OA
ENDBRANCH  91  94
ENDBRANCH  64  87
ENDBRANCH  38  39
ENDBRANCH  31  33
ENDBRANCH  30  31
ENDBRANCH  29  30
ENDBRANCH  28  29
ENDBRANCH  27  28
ENDBRANCH  26  27
ENDBRANCH   1  26
TORSDOF 25
ENDMDL
