MODEL 1
REMARK VINA RESULT:      -7.1      0.000      0.000
REMARK SMILES CCc1ccnc(C(=O)c2[nH]c3ccc(OC(F)(F)F)cc3c2CC(=O)OCCOCCOCCOCCOC(=O)c2ccc(-c3c4nc(c(-c5cccc(S(=O)(=O)[O-])c5F)c5ccc([nH]5)c(-c5cccc(S(=O)(=O)[O-])c5F)c5nc(c(-c6cccc(S(=O)(=O)[O-])c6F)c6ccc3[nH]6)C=C5)C=C4)cc2)c1
REMARK SMILES IDX 32 1 31 2 30 3 29 4 28 5 27 6 25 7 26 8 24 9 23 10 10 11
REMARK SMILES IDX 11 12 12 13 22 15 13 16 21 17 14 18 15 19 8 20 9 21 7 22
REMARK SMILES IDX 3 23 4 24 105 25 5 26 6 27 2 28 1 29 16 30 17 31 18 32 19 33
REMARK SMILES IDX 20 34 33 35 34 36 35 37 36 38 37 39 38 40 39 41 40 42 41 43
REMARK SMILES IDX 42 44 43 45 104 46 44 47 103 48 45 49 46 50 47 51 97 52
REMARK SMILES IDX 48 53 102 54 96 55 98 56 49 57 101 58 95 59 94 60 50 62
REMARK SMILES IDX 82 63 62 64 81 65 63 66 66 67 80 68 99 69 64 70 65 71 79 73
REMARK SMILES IDX 100 74 67 75 51 76 52 77 60 78 53 79 55 80 61 81 54 82 56 83
REMARK SMILES IDX 57 84 58 85 59 86 83 87 84 88 92 89 85 90 87 91 93 92 86 93
REMARK SMILES IDX 88 94 89 95 90 96 91 97 68 98 69 99 77 100 70 101 72 102
REMARK SMILES IDX 78 103 71 104 73 105 74 106 75 107 76 108
REMARK H PARENT 11 14 98 61 66 72
REMARK Flexibility Score: inf
ROOT
ATOM      1  C   UNL A   1      37.809  28.932  32.488  1.00  0.00     0.188 C 
ENDROOT
BRANCH   1   2
ATOM      2  C   UNL A   1      38.726  28.178  31.527  1.00  0.00     0.188 C 
BRANCH   2   3
ATOM      3  O   UNL A   1      39.570  28.934  30.685  1.00  0.00    -0.376 OA
BRANCH   3   4
ATOM      4  C   UNL A   1      39.902  28.365  29.419  1.00  0.00     0.202 C 
BRANCH   4   5
ATOM      5  C   UNL A   1      39.491  29.087  28.117  1.00  0.00     0.261 C 
BRANCH   5   6
ATOM      6  O   UNL A   1      40.261  28.747  26.930  1.00  0.00    -0.463 OA
BRANCH   6   7
ATOM      7  C   UNL A   1      41.610  28.758  27.058  1.00  0.00     0.310 C 
ATOM      8  O   UNL A   1      42.228  29.728  27.505  1.00  0.00    -0.252 OA
BRANCH   7   9
ATOM      9  C   UNL A   1      42.382  27.514  26.654  1.00  0.00     0.161 C 
BRANCH   9  10
ATOM     10  C   UNL A   1      43.048  26.592  27.654  1.00  0.00     0.000 A 
ATOM     11  C   UNL A   1      44.383  26.609  28.100  1.00  0.00     0.093 A 
ATOM     12  N   UNL A   1      44.475  25.620  29.060  1.00  0.00    -0.352 N 
ATOM     13  C   UNL A   1      43.458  24.710  28.891  1.00  0.00     0.046 A 
ATOM     14  H   UNL A   1      45.166  25.573  29.759  1.00  0.00     0.167 HD
ATOM     15  C   UNL A   1      42.535  25.303  28.036  1.00  0.00     0.008 A 
ATOM     16  C   UNL A   1      43.292  23.419  29.408  1.00  0.00     0.030 A 
ATOM     17  C   UNL A   1      41.408  24.549  27.649  1.00  0.00     0.057 A 
ATOM     18  C   UNL A   1      42.190  22.673  28.959  1.00  0.00     0.049 A 
ATOM     19  C   UNL A   1      41.269  23.217  28.066  1.00  0.00     0.130 A 
BRANCH  11  20
ATOM     20  C   UNL A   1      45.469  27.482  27.652  1.00  0.00     0.227 C 
ATOM     21  O   UNL A   1      45.557  28.662  27.996  1.00  0.00    -0.285 OA
BRANCH  20  22
ATOM     22  C   UNL A   1      46.503  27.024  26.681  1.00  0.00     0.113 A 
ATOM     23  C   UNL A   1      48.805  26.550  26.197  1.00  0.00    -0.044 A 
ATOM     24  C   UNL A   1      48.363  25.671  25.202  1.00  0.00     0.024 A 
ATOM     25  C   UNL A   1      47.848  27.269  26.927  1.00  0.00     0.036 A 
ATOM     26  C   UNL A   1      47.001  25.516  25.004  1.00  0.00     0.112 A 
ATOM     27  N   UNL A   1      46.066  26.168  25.721  1.00  0.00    -0.253 NA
BRANCH  23  28
ATOM     28  C   UNL A   1      50.268  26.716  26.529  1.00  0.00     0.032 C 
ATOM     29  C   UNL A   1      51.074  25.422  26.471  1.00  0.00     0.009 C 
ENDBRANCH  23  28
ENDBRANCH  20  22
ENDBRANCH  11  20
BRANCH  19  30
ATOM     30  O   UNL A   1      40.202  22.573  27.505  1.00  0.00    -0.406 OA
BRANCH  30  31
ATOM     31  C   UNL A   1      40.465  21.546  26.567  1.00  0.00     0.573 C 
ATOM     32  F   UNL A   1      39.344  21.194  25.894  1.00  0.00    -0.132 F 
ATOM     33  F   UNL A   1      41.415  21.917  25.686  1.00  0.00    -0.132 F 
ATOM     34  F   UNL A   1      40.900  20.451  27.232  1.00  0.00    -0.132 F 
ENDBRANCH  30  31
ENDBRANCH  19  30
ENDBRANCH   9  10
ENDBRANCH   7   9
ENDBRANCH   6   7
ENDBRANCH   5   6
ENDBRANCH   4   5
ENDBRANCH   3   4
ENDBRANCH   2   3
ENDBRANCH   1   2
BRANCH   1  35
ATOM     35  O   UNL A   1      36.578  29.441  32.007  1.00  0.00    -0.377 OA
BRANCH  35  36
ATOM     36  C   UNL A   1      36.412  30.835  31.795  1.00  0.00     0.188 C 
BRANCH  36  37
ATOM     37  C   UNL A   1      36.189  31.318  30.364  1.00  0.00     0.188 C 
BRANCH  37  38
ATOM     38  O   UNL A   1      35.884  32.699  30.148  1.00  0.00    -0.376 OA
BRANCH  38  39
ATOM     39  C   UNL A   1      34.559  33.173  30.374  1.00  0.00     0.202 C 
BRANCH  39  40
ATOM     40  C   UNL A   1      34.412  34.134  31.547  1.00  0.00     0.261 C 
BRANCH  40  41
ATOM     41  O   UNL A   1      35.683  34.677  31.915  1.00  0.00    -0.460 OA
BRANCH  41  42
ATOM     42  C   UNL A   1      35.848  34.851  33.244  1.00  0.00     0.338 C 
ATOM     43  O   UNL A   1      35.117  35.467  34.007  1.00  0.00    -0.246 OA
BRANCH  42  44
ATOM     44  C   UNL A   1      36.981  34.035  33.702  1.00  0.00     0.060 A 
ATOM     45  C   UNL A   1      36.727  33.072  34.687  1.00  0.00     0.016 A 
ATOM     46  C   UNL A   1      38.277  34.254  33.226  1.00  0.00     0.016 A 
ATOM     47  C   UNL A   1      37.782  32.378  35.260  1.00  0.00     0.010 A 
ATOM     48  C   UNL A   1      39.337  33.567  33.811  1.00  0.00     0.010 A 
ATOM     49  C   UNL A   1      39.091  32.675  34.869  1.00  0.00    -0.014 A 
BRANCH  49  50
ATOM     50  C   UNL A   1      40.197  32.237  35.741  1.00  0.00     0.031 A 
ATOM     51  C   UNL A   1      40.479  33.043  36.978  1.00  0.00     0.074 A 
ATOM     52  C   UNL A   1      40.892  31.125  35.457  1.00  0.00     0.049 A 
ATOM     53  N   UNL A   1      41.393  32.863  37.892  1.00  0.00    -0.248 NA
ATOM     54  C   UNL A   1      39.612  34.212  37.217  1.00  0.00     0.031 C 
ATOM     55  C   UNL A   1      40.668  30.264  34.296  1.00  0.00     0.029 A 
ATOM     56  N   UNL A   1      41.936  30.541  36.120  1.00  0.00    -0.354 N 
ATOM     57  C   UNL A   1      41.234  33.909  38.793  1.00  0.00     0.074 A 
ATOM     58  C   UNL A   1      40.145  34.729  38.312  1.00  0.00     0.031 C 
ATOM     59  C   UNL A   1      41.573  29.271  34.314  1.00  0.00     0.029 A 
ATOM     60  C   UNL A   1      42.451  29.447  35.469  1.00  0.00     0.049 A 
ATOM     61  H   UNL A   1      42.285  30.873  36.979  1.00  0.00     0.167 HD
ATOM     62  C   UNL A   1      41.927  34.155  39.928  1.00  0.00     0.034 A 
ATOM     63  C   UNL A   1      43.527  28.695  35.767  1.00  0.00     0.034 A 
ATOM     64  C   UNL A   1      42.999  33.322  40.395  1.00  0.00     0.049 A 
ATOM     65  C   UNL A   1      44.306  29.012  37.015  1.00  0.00     0.074 A 
ATOM     66  C   UNL A   1      43.752  33.453  41.548  1.00  0.00     0.029 A 
ATOM     67  N   UNL A   1      43.481  32.208  39.724  1.00  0.00    -0.354 N 
ATOM     68  N   UNL A   1      44.093  29.950  37.907  1.00  0.00    -0.248 NA
ATOM     69  C   UNL A   1      45.455  28.147  37.317  1.00  0.00     0.031 C 
ATOM     70  C   UNL A   1      44.719  32.443  41.549  1.00  0.00     0.029 A 
ATOM     71  C   UNL A   1      44.534  31.651  40.427  1.00  0.00     0.049 A 
ATOM     72  H   UNL A   1      43.126  31.865  38.872  1.00  0.00     0.167 HD
ATOM     73  C   UNL A   1      45.050  29.763  38.897  1.00  0.00     0.074 A 
ATOM     74  C   UNL A   1      45.837  28.612  38.499  1.00  0.00     0.031 C 
ATOM     75  C   UNL A   1      45.269  30.477  40.029  1.00  0.00     0.034 A 
BRANCH  62  76
ATOM     76  C   UNL A   1      41.548  35.371  40.732  1.00  0.00     0.023 A 
ATOM     77  C   UNL A   1      40.605  35.265  41.775  1.00  0.00     0.012 A 
ATOM     78  C   UNL A   1      42.155  36.615  40.473  1.00  0.00     0.148 A 
ATOM     79  C   UNL A   1      40.246  36.385  42.524  1.00  0.00     0.002 A 
ATOM     80  C   UNL A   1      41.829  37.717  41.257  1.00  0.00     0.091 A 
ATOM     81  F   UNL A   1      43.027  36.704  39.460  1.00  0.00    -0.205 F 
ATOM     82  C   UNL A   1      40.866  37.606  42.273  1.00  0.00     0.022 A 
BRANCH  80  83
ATOM     83  S   UNL A   1      42.627  39.314  41.062  1.00  0.00     0.127 S 
ATOM     84  O   UNL A   1      42.640  39.461  39.608  1.00  0.00    -0.237 OA
ATOM     85  O   UNL A   1      41.699  40.205  41.758  1.00  0.00    -0.237 OA
ATOM     86  O   UNL A   1      43.937  39.189  41.686  1.00  0.00    -0.744 OA
ENDBRANCH  80  83
ENDBRANCH  62  76
BRANCH  63  87
ATOM     87  C   UNL A   1      43.912  27.563  34.880  1.00  0.00     0.023 A 
ATOM     88  C   UNL A   1      44.701  27.804  33.739  1.00  0.00     0.012 A 
ATOM     89  C   UNL A   1      43.516  26.243  35.176  1.00  0.00     0.148 A 
ATOM     90  C   UNL A   1      45.061  26.758  32.890  1.00  0.00     0.002 A 
ATOM     91  C   UNL A   1      43.924  25.199  34.357  1.00  0.00     0.091 A 
ATOM     92  F   UNL A   1      42.756  26.038  36.261  1.00  0.00    -0.205 F 
ATOM     93  C   UNL A   1      44.681  25.454  33.204  1.00  0.00     0.022 A 
BRANCH  91  94
ATOM     94  S   UNL A   1      43.587  23.479  34.748  1.00  0.00     0.127 S 
ATOM     95  O   UNL A   1      42.131  23.480  34.870  1.00  0.00    -0.237 OA
ATOM     96  O   UNL A   1      44.107  22.796  33.564  1.00  0.00    -0.237 OA
ATOM     97  O   UNL A   1      44.322  23.201  35.976  1.00  0.00    -0.744 OA
ENDBRANCH  91  94
ENDBRANCH  63  87
BRANCH  75  98
ATOM     98  C   UNL A   1      46.362  30.005  40.952  1.00  0.00     0.023 A 
ATOM     99  C   UNL A   1      46.083  29.055  41.954  1.00  0.00     0.012 A 
ATOM    100  C   UNL A   1      47.685  30.451  40.769  1.00  0.00     0.148 A 
ATOM    101  C   UNL A   1      47.098  28.586  42.785  1.00  0.00     0.002 A 
ATOM    102  C   UNL A   1      48.702  29.936  41.562  1.00  0.00     0.091 A 
ATOM    103  F   UNL A   1      47.925  31.365  39.818  1.00  0.00    -0.205 F 
ATOM    104  C   UNL A   1      48.408  29.016  42.581  1.00  0.00     0.022 A 
BRANCH 102 105
ATOM    105  S   UNL A   1      50.429  30.351  41.302  1.00  0.00     0.127 S 
ATOM    106  O   UNL A   1      51.049  29.817  42.514  1.00  0.00    -0.237 OA
ATOM    107  O   UNL A   1      50.743  29.610  40.079  1.00  0.00    -0.237 OA
ATOM    108  O   UNL A   1      50.480  31.799  41.162  1.00  0.00    -0.744 OA
ENDBRANCH 102 105
ENDBRANCH  75  98
ENDBRANCH  49  50
ENDBRANCH  42  44
ENDBRANCH  41  42
ENDBRANCH  40  41
ENDBRANCH  39  40
ENDBRANCH  38  39
ENDBRANCH  37  38
ENDBRANCH  36  37
ENDBRANCH  35  36
ENDBRANCH   1  35
TORSDOF 29
ENDMDL
MODEL 2
REMARK VINA RESULT:      -7.0      5.224      9.242
REMARK SMILES CCc1ccnc(C(=O)c2[nH]c3ccc(OC(F)(F)F)cc3c2CC(=O)OCCOCCOCCOCCOC(=O)c2ccc(-c3c4nc(c(-c5cccc(S(=O)(=O)[O-])c5F)c5ccc([nH]5)c(-c5cccc(S(=O)(=O)[O-])c5F)c5nc(c(-c6cccc(S(=O)(=O)[O-])c6F)c6ccc3[nH]6)C=C5)C=C4)cc2)c1
REMARK SMILES IDX 32 1 31 2 30 3 29 4 28 5 27 6 25 7 26 8 24 9 23 10 10 11
REMARK SMILES IDX 11 12 12 13 22 15 13 16 21 17 14 18 15 19 8 20 9 21 7 22
REMARK SMILES IDX 3 23 4 24 105 25 5 26 6 27 2 28 1 29 16 30 17 31 18 32 19 33
REMARK SMILES IDX 20 34 33 35 34 36 35 37 36 38 37 39 38 40 39 41 40 42 41 43
REMARK SMILES IDX 42 44 43 45 104 46 44 47 103 48 45 49 46 50 47 51 97 52
REMARK SMILES IDX 48 53 102 54 96 55 98 56 49 57 101 58 95 59 94 60 50 62
REMARK SMILES IDX 82 63 62 64 81 65 63 66 66 67 80 68 99 69 64 70 65 71 79 73
REMARK SMILES IDX 100 74 67 75 51 76 52 77 60 78 53 79 55 80 61 81 54 82 56 83
REMARK SMILES IDX 57 84 58 85 59 86 83 87 84 88 92 89 85 90 87 91 93 92 86 93
REMARK SMILES IDX 88 94 89 95 90 96 91 97 68 98 69 99 77 100 70 101 72 102
REMARK SMILES IDX 78 103 71 104 73 105 74 106 75 107 76 108
REMARK H PARENT 11 14 98 61 66 72
REMARK Flexibility Score: inf
ROOT
ATOM      1  C   UNL A   1      40.374  28.510  27.996  1.00  0.00     0.188 C 
ENDROOT
BRANCH   1   2
ATOM      2  C   UNL A   1      41.266  28.475  26.756  1.00  0.00     0.188 C 
BRANCH   2   3
ATOM      3  O   UNL A   1      42.051  27.323  26.534  1.00  0.00    -0.376 OA
BRANCH   3   4
ATOM      4  C   UNL A   1      42.685  27.206  25.262  1.00  0.00     0.202 C 
BRANCH   4   5
ATOM      5  C   UNL A   1      44.227  27.188  25.168  1.00  0.00     0.261 C 
BRANCH   5   6
ATOM      6  O   UNL A   1      44.943  27.223  26.434  1.00  0.00    -0.463 OA
BRANCH   6   7
ATOM      7  C   UNL A   1      45.843  26.233  26.649  1.00  0.00     0.310 C 
ATOM      8  O   UNL A   1      47.037  26.343  26.356  1.00  0.00    -0.252 OA
BRANCH   7   9
ATOM      9  C   UNL A   1      45.359  24.947  27.296  1.00  0.00     0.161 C 
BRANCH   9  10
ATOM     10  C   UNL A   1      43.925  24.731  27.735  1.00  0.00     0.000 A 
ATOM     11  C   UNL A   1      43.267  25.271  28.855  1.00  0.00     0.093 A 
ATOM     12  N   UNL A   1      41.959  24.833  28.773  1.00  0.00    -0.352 N 
ATOM     13  C   UNL A   1      41.891  23.712  27.982  1.00  0.00     0.046 A 
ATOM     14  H   UNL A   1      41.191  25.261  29.217  1.00  0.00     0.167 HD
ATOM     15  C   UNL A   1      43.099  23.637  27.298  1.00  0.00     0.008 A 
ATOM     16  C   UNL A   1      40.874  22.760  27.830  1.00  0.00     0.030 A 
ATOM     17  C   UNL A   1      43.315  22.532  26.449  1.00  0.00     0.057 A 
ATOM     18  C   UNL A   1      41.140  21.642  27.024  1.00  0.00     0.049 A 
ATOM     19  C   UNL A   1      42.358  21.510  26.359  1.00  0.00     0.130 A 
BRANCH  11  20
ATOM     20  C   UNL A   1      43.830  26.120  29.906  1.00  0.00     0.227 C 
ATOM     21  O   UNL A   1      44.129  27.300  29.717  1.00  0.00    -0.285 OA
BRANCH  20  22
ATOM     22  C   UNL A   1      44.157  25.590  31.261  1.00  0.00     0.113 A 
ATOM     23  C   UNL A   1      43.867  25.704  33.640  1.00  0.00    -0.044 A 
ATOM     24  C   UNL A   1      44.225  24.353  33.698  1.00  0.00     0.024 A 
ATOM     25  C   UNL A   1      43.869  26.343  32.392  1.00  0.00     0.036 A 
ATOM     26  C   UNL A   1      44.529  23.691  32.521  1.00  0.00     0.112 A 
ATOM     27  N   UNL A   1      44.499  24.277  31.308  1.00  0.00    -0.253 NA
BRANCH  23  28
ATOM     28  C   UNL A   1      43.444  26.476  34.867  1.00  0.00     0.032 C 
ATOM     29  C   UNL A   1      41.972  26.872  34.882  1.00  0.00     0.009 C 
ENDBRANCH  23  28
ENDBRANCH  20  22
ENDBRANCH  11  20
BRANCH  19  30
ATOM     30  O   UNL A   1      42.762  20.442  25.606  1.00  0.00    -0.406 OA
BRANCH  30  31
ATOM     31  C   UNL A   1      42.348  19.150  26.010  1.00  0.00     0.573 C 
ATOM     32  F   UNL A   1      41.031  18.956  25.766  1.00  0.00    -0.132 F 
ATOM     33  F   UNL A   1      43.063  18.190  25.391  1.00  0.00    -0.132 F 
ATOM     34  F   UNL A   1      42.535  19.031  27.345  1.00  0.00    -0.132 F 
ENDBRANCH  30  31
ENDBRANCH  19  30
ENDBRANCH   9  10
ENDBRANCH   7   9
ENDBRANCH   6   7
ENDBRANCH   5   6
ENDBRANCH   4   5
ENDBRANCH   3   4
ENDBRANCH   2   3
ENDBRANCH   1   2
BRANCH   1  35
ATOM     35  O   UNL A   1      40.425  27.429  28.909  1.00  0.00    -0.377 OA
BRANCH  35  36
ATOM     36  C   UNL A   1      39.332  27.171  29.777  1.00  0.00     0.188 C 
BRANCH  36  37
ATOM     37  C   UNL A   1      39.391  27.749  31.189  1.00  0.00     0.188 C 
BRANCH  37  38
ATOM     38  O   UNL A   1      38.206  27.719  31.991  1.00  0.00    -0.376 OA
BRANCH  38  39
ATOM     39  C   UNL A   1      37.730  28.920  32.593  1.00  0.00     0.202 C 
BRANCH  39  40
ATOM     40  C   UNL A   1      36.702  29.686  31.772  1.00  0.00     0.261 C 
BRANCH  40  41
ATOM     41  O   UNL A   1      37.017  29.617  30.379  1.00  0.00    -0.460 OA
BRANCH  41  42
ATOM     42  C   UNL A   1      36.754  30.751  29.693  1.00  0.00     0.338 C 
ATOM     43  O   UNL A   1      35.725  31.033  29.096  1.00  0.00    -0.246 OA
BRANCH  42  44
ATOM     44  C   UNL A   1      37.849  31.708  29.901  1.00  0.00     0.060 A 
ATOM     45  C   UNL A   1      39.103  31.189  30.247  1.00  0.00     0.016 A 
ATOM     46  C   UNL A   1      37.636  33.088  29.826  1.00  0.00     0.016 A 
ATOM     47  C   UNL A   1      40.132  32.050  30.597  1.00  0.00     0.010 A 
ATOM     48  C   UNL A   1      38.665  33.952  30.191  1.00  0.00     0.010 A 
ATOM     49  C   UNL A   1      39.891  33.427  30.634  1.00  0.00    -0.014 A 
BRANCH  49  50
ATOM     50  C   UNL A   1      40.838  34.283  31.374  1.00  0.00     0.031 A 
ATOM     51  C   UNL A   1      41.999  34.866  30.618  1.00  0.00     0.074 A 
ATOM     52  C   UNL A   1      40.633  34.567  32.669  1.00  0.00     0.049 A 
ATOM     53  N   UNL A   1      42.959  35.639  31.045  1.00  0.00    -0.248 NA
ATOM     54  C   UNL A   1      42.089  34.530  29.185  1.00  0.00     0.031 C 
ATOM     55  C   UNL A   1      39.517  34.072  33.475  1.00  0.00     0.029 A 
ATOM     56  N   UNL A   1      41.367  35.332  33.534  1.00  0.00    -0.354 N 
ATOM     57  C   UNL A   1      43.783  35.856  29.947  1.00  0.00     0.074 A 
ATOM     58  C   UNL A   1      43.220  35.123  28.835  1.00  0.00     0.031 C 
ATOM     59  C   UNL A   1      39.657  34.526  34.732  1.00  0.00     0.029 A 
ATOM     60  C   UNL A   1      40.884  35.316  34.819  1.00  0.00     0.049 A 
ATOM     61  H   UNL A   1      42.163  35.842  33.262  1.00  0.00     0.167 HD
ATOM     62  C   UNL A   1      44.903  36.610  29.870  1.00  0.00     0.034 A 
ATOM     63  C   UNL A   1      41.396  35.859  35.939  1.00  0.00     0.034 A 
ATOM     64  C   UNL A   1      45.442  37.340  30.984  1.00  0.00     0.049 A 
ATOM     65  C   UNL A   1      42.665  36.662  35.836  1.00  0.00     0.074 A 
ATOM     66  C   UNL A   1      46.552  38.163  31.017  1.00  0.00     0.029 A 
ATOM     67  N   UNL A   1      44.915  37.320  32.267  1.00  0.00    -0.354 N 
ATOM     68  N   UNL A   1      43.388  36.934  34.775  1.00  0.00    -0.248 NA
ATOM     69  C   UNL A   1      43.172  37.262  37.077  1.00  0.00     0.031 C 
ATOM     70  C   UNL A   1      46.721  38.607  32.333  1.00  0.00     0.029 A 
ATOM     71  C   UNL A   1      45.687  38.103  33.107  1.00  0.00     0.049 A 
ATOM     72  H   UNL A   1      44.112  36.821  32.540  1.00  0.00     0.167 HD
ATOM     73  C   UNL A   1      44.409  37.771  35.211  1.00  0.00     0.074 A 
ATOM     74  C   UNL A   1      44.201  37.970  36.632  1.00  0.00     0.031 C 
ATOM     75  C   UNL A   1      45.430  38.320  34.507  1.00  0.00     0.034 A 
BRANCH  62  76
ATOM     76  C   UNL A   1      45.616  36.676  28.545  1.00  0.00     0.023 A 
ATOM     77  C   UNL A   1      45.437  37.791  27.700  1.00  0.00     0.012 A 
ATOM     78  C   UNL A   1      46.491  35.645  28.153  1.00  0.00     0.148 A 
ATOM     79  C   UNL A   1      46.091  37.861  26.470  1.00  0.00     0.002 A 
ATOM     80  C   UNL A   1      47.178  35.746  26.948  1.00  0.00     0.091 A 
ATOM     81  F   UNL A   1      46.627  34.581  28.956  1.00  0.00    -0.205 F 
ATOM     82  C   UNL A   1      46.969  36.845  26.100  1.00  0.00     0.022 A 
BRANCH  80  83
ATOM     83  S   UNL A   1      48.387  34.528  26.419  1.00  0.00     0.127 S 
ATOM     84  O   UNL A   1      47.639  33.282  26.574  1.00  0.00    -0.237 OA
ATOM     85  O   UNL A   1      48.631  34.925  25.032  1.00  0.00    -0.237 OA
ATOM     86  O   UNL A   1      49.530  34.682  27.307  1.00  0.00    -0.744 OA
ENDBRANCH  80  83
ENDBRANCH  62  76
BRANCH  63  87
ATOM     87  C   UNL A   1      40.698  35.678  37.242  1.00  0.00     0.023 A 
ATOM     88  C   UNL A   1      39.895  36.713  37.756  1.00  0.00     0.012 A 
ATOM     89  C   UNL A   1      40.813  34.472  37.963  1.00  0.00     0.148 A 
ATOM     90  C   UNL A   1      39.244  36.564  38.981  1.00  0.00     0.002 A 
ATOM     91  C   UNL A   1      40.118  34.311  39.154  1.00  0.00     0.091 A 
ATOM     92  F   UNL A   1      41.592  33.505  37.460  1.00  0.00    -0.205 F 
ATOM     93  C   UNL A   1      39.348  35.361  39.675  1.00  0.00     0.022 A 
BRANCH  91  94
ATOM     94  S   UNL A   1      40.095  32.756  40.052  1.00  0.00     0.127 S 
ATOM     95  O   UNL A   1      39.937  33.209  41.432  1.00  0.00    -0.237 OA
ATOM     96  O   UNL A   1      38.920  32.098  39.479  1.00  0.00    -0.237 OA
ATOM     97  O   UNL A   1      41.361  32.102  39.745  1.00  0.00    -0.744 OA
ENDBRANCH  91  94
ENDBRANCH  63  87
BRANCH  75  98
ATOM     98  C   UNL A   1      46.369  39.239  35.244  1.00  0.00     0.023 A 
ATOM     99  C   UNL A   1      47.567  38.738  35.791  1.00  0.00     0.012 A 
ATOM    100  C   UNL A   1      46.094  40.618  35.324  1.00  0.00     0.148 A 
ATOM    101  C   UNL A   1      48.458  39.590  36.441  1.00  0.00     0.002 A 
ATOM    102  C   UNL A   1      47.014  41.470  35.921  1.00  0.00     0.091 A 
ATOM    103  F   UNL A   1      44.942  41.070  34.809  1.00  0.00    -0.205 F 
ATOM    104  C   UNL A   1      48.188  40.957  36.494  1.00  0.00     0.022 A 
BRANCH 102 105
ATOM    105  S   UNL A   1      46.800  43.253  35.942  1.00  0.00     0.127 S 
ATOM    106  O   UNL A   1      45.761  43.416  36.957  1.00  0.00    -0.237 OA
ATOM    107  O   UNL A   1      48.128  43.717  36.348  1.00  0.00    -0.237 OA
ATOM    108  O   UNL A   1      46.415  43.630  34.589  1.00  0.00    -0.744 OA
ENDBRANCH 102 105
ENDBRANCH  75  98
ENDBRANCH  49  50
ENDBRANCH  42  44
ENDBRANCH  41  42
ENDBRANCH  40  41
ENDBRANCH  39  40
ENDBRANCH  38  39
ENDBRANCH  37  38
ENDBRANCH  36  37
ENDBRANCH  35  36
ENDBRANCH   1  35
TORSDOF 29
ENDMDL
MODEL 3
REMARK VINA RESULT:      -6.7      5.077      8.805
REMARK SMILES CCc1ccnc(C(=O)c2[nH]c3ccc(OC(F)(F)F)cc3c2CC(=O)OCCOCCOCCOCCOC(=O)c2ccc(-c3c4nc(c(-c5cccc(S(=O)(=O)[O-])c5F)c5ccc([nH]5)c(-c5cccc(S(=O)(=O)[O-])c5F)c5nc(c(-c6cccc(S(=O)(=O)[O-])c6F)c6ccc3[nH]6)C=C5)C=C4)cc2)c1
REMARK SMILES IDX 32 1 31 2 30 3 29 4 28 5 27 6 25 7 26 8 24 9 23 10 10 11
REMARK SMILES IDX 11 12 12 13 22 15 13 16 21 17 14 18 15 19 8 20 9 21 7 22
REMARK SMILES IDX 3 23 4 24 105 25 5 26 6 27 2 28 1 29 16 30 17 31 18 32 19 33
REMARK SMILES IDX 20 34 33 35 34 36 35 37 36 38 37 39 38 40 39 41 40 42 41 43
REMARK SMILES IDX 42 44 43 45 104 46 44 47 103 48 45 49 46 50 47 51 97 52
REMARK SMILES IDX 48 53 102 54 96 55 98 56 49 57 101 58 95 59 94 60 50 62
REMARK SMILES IDX 82 63 62 64 81 65 63 66 66 67 80 68 99 69 64 70 65 71 79 73
REMARK SMILES IDX 100 74 67 75 51 76 52 77 60 78 53 79 55 80 61 81 54 82 56 83
REMARK SMILES IDX 57 84 58 85 59 86 83 87 84 88 92 89 85 90 87 91 93 92 86 93
REMARK SMILES IDX 88 94 89 95 90 96 91 97 68 98 69 99 77 100 70 101 72 102
REMARK SMILES IDX 78 103 71 104 73 105 74 106 75 107 76 108
REMARK H PARENT 11 14 98 61 66 72
REMARK Flexibility Score: inf
ROOT
ATOM      1  C   UNL A   1      39.647  31.698  30.298  1.00  0.00     0.188 C 
ENDROOT
BRANCH   1   2
ATOM      2  C   UNL A   1      39.012  30.501  31.003  1.00  0.00     0.188 C 
BRANCH   2   3
ATOM      3  O   UNL A   1      39.419  29.207  30.613  1.00  0.00    -0.376 OA
BRANCH   3   4
ATOM      4  C   UNL A   1      38.872  28.694  29.400  1.00  0.00     0.202 C 
BRANCH   4   5
ATOM      5  C   UNL A   1      39.306  27.303  28.886  1.00  0.00     0.261 C 
BRANCH   5   6
ATOM      6  O   UNL A   1      39.924  27.275  27.568  1.00  0.00    -0.463 OA
BRANCH   6   7
ATOM      7  C   UNL A   1      40.087  26.055  27.001  1.00  0.00     0.310 C 
ATOM      8  O   UNL A   1      40.687  25.891  25.936  1.00  0.00    -0.252 OA
BRANCH   7   9
ATOM      9  C   UNL A   1      39.526  24.844  27.725  1.00  0.00     0.161 C 
BRANCH   9  10
ATOM     10  C   UNL A   1      39.333  23.498  27.058  1.00  0.00     0.000 A 
ATOM     11  C   UNL A   1      40.289  22.487  26.845  1.00  0.00     0.093 A 
ATOM     12  N   UNL A   1      39.604  21.434  26.268  1.00  0.00    -0.352 N 
ATOM     13  C   UNL A   1      38.445  21.892  25.690  1.00  0.00     0.046 A 
ATOM     14  H   UNL A   1      39.904  20.496  26.271  1.00  0.00     0.167 HD
ATOM     15  C   UNL A   1      38.234  23.173  26.188  1.00  0.00     0.008 A 
ATOM     16  C   UNL A   1      37.584  21.287  24.764  1.00  0.00     0.030 A 
ATOM     17  C   UNL A   1      37.127  23.900  25.704  1.00  0.00     0.057 A 
ATOM     18  C   UNL A   1      36.524  22.057  24.259  1.00  0.00     0.049 A 
ATOM     19  C   UNL A   1      36.309  23.361  24.700  1.00  0.00     0.130 A 
BRANCH  11  20
ATOM     20  C   UNL A   1      41.718  22.521  27.156  1.00  0.00     0.227 C 
ATOM     21  O   UNL A   1      42.172  22.134  28.235  1.00  0.00    -0.285 OA
BRANCH  20  22
ATOM     22  C   UNL A   1      42.719  23.104  26.218  1.00  0.00     0.113 A 
ATOM     23  C   UNL A   1      44.745  24.345  25.881  1.00  0.00    -0.044 A 
ATOM     24  C   UNL A   1      44.879  23.695  24.649  1.00  0.00     0.024 A 
ATOM     25  C   UNL A   1      43.617  24.065  26.665  1.00  0.00     0.036 A 
ATOM     26  C   UNL A   1      43.915  22.776  24.270  1.00  0.00     0.112 A 
ATOM     27  N   UNL A   1      42.845  22.465  25.026  1.00  0.00    -0.253 NA
BRANCH  23  28
ATOM     28  C   UNL A   1      45.792  25.300  26.402  1.00  0.00     0.032 C 
ATOM     29  C   UNL A   1      46.970  24.622  27.093  1.00  0.00     0.009 C 
ENDBRANCH  23  28
ENDBRANCH  20  22
ENDBRANCH  11  20
BRANCH  19  30
ATOM     30  O   UNL A   1      35.361  24.230  24.236  1.00  0.00    -0.406 OA
BRANCH  30  31
ATOM     31  C   UNL A   1      34.214  24.452  25.036  1.00  0.00     0.573 C 
ATOM     32  F   UNL A   1      33.106  24.610  24.276  1.00  0.00    -0.132 F 
ATOM     33  F   UNL A   1      34.019  23.440  25.905  1.00  0.00    -0.132 F 
ATOM     34  F   UNL A   1      34.391  25.594  25.741  1.00  0.00    -0.132 F 
ENDBRANCH  30  31
ENDBRANCH  19  30
ENDBRANCH   9  10
ENDBRANCH   7   9
ENDBRANCH   6   7
ENDBRANCH   5   6
ENDBRANCH   4   5
ENDBRANCH   3   4
ENDBRANCH   2   3
ENDBRANCH   1   2
BRANCH   1  35
ATOM     35  O   UNL A   1      40.168  32.758  31.080  1.00  0.00    -0.377 OA
BRANCH  35  36
ATOM     36  C   UNL A   1      39.299  33.738  31.629  1.00  0.00     0.188 C 
BRANCH  36  37
ATOM     37  C   UNL A   1      39.036  33.697  33.132  1.00  0.00     0.188 C 
BRANCH  37  38
ATOM     38  O   UNL A   1      39.228  34.894  33.893  1.00  0.00    -0.376 OA
BRANCH  38  39
ATOM     39  C   UNL A   1      38.929  34.900  35.286  1.00  0.00     0.202 C 
BRANCH  39  40
ATOM     40  C   UNL A   1      39.690  35.937  36.102  1.00  0.00     0.261 C 
BRANCH  40  41
ATOM     41  O   UNL A   1      41.099  35.804  35.895  1.00  0.00    -0.460 OA
BRANCH  41  42
ATOM     42  C   UNL A   1      41.755  35.206  36.913  1.00  0.00     0.338 C 
ATOM     43  O   UNL A   1      41.634  35.435  38.109  1.00  0.00    -0.246 OA
BRANCH  42  44
ATOM     44  C   UNL A   1      42.549  34.087  36.388  1.00  0.00     0.060 A 
ATOM     45  C   UNL A   1      43.828  33.893  36.926  1.00  0.00     0.016 A 
ATOM     46  C   UNL A   1      42.078  33.286  35.343  1.00  0.00     0.016 A 
ATOM     47  C   UNL A   1      44.674  32.947  36.368  1.00  0.00     0.010 A 
ATOM     48  C   UNL A   1      42.933  32.346  34.774  1.00  0.00     0.010 A 
ATOM     49  C   UNL A   1      44.250  32.223  35.250  1.00  0.00    -0.014 A 
BRANCH  49  50
ATOM     50  C   UNL A   1      45.268  31.531  34.437  1.00  0.00     0.031 A 
ATOM     51  C   UNL A   1      45.875  32.278  33.283  1.00  0.00     0.074 A 
ATOM     52  C   UNL A   1      45.671  30.292  34.758  1.00  0.00     0.049 A 
ATOM     53  N   UNL A   1      46.779  31.887  32.427  1.00  0.00    -0.248 NA
ATOM     54  C   UNL A   1      45.396  33.655  33.063  1.00  0.00     0.031 C 
ATOM     55  C   UNL A   1      45.162  29.502  35.878  1.00  0.00     0.029 A 
ATOM     56  N   UNL A   1      46.593  29.478  34.157  1.00  0.00    -0.354 N 
ATOM     57  C   UNL A   1      46.953  32.951  31.551  1.00  0.00     0.074 A 
ATOM     58  C   UNL A   1      46.053  34.003  31.968  1.00  0.00     0.031 C 
ATOM     59  C   UNL A   1      45.761  28.299  35.867  1.00  0.00     0.029 A 
ATOM     60  C   UNL A   1      46.670  28.231  34.725  1.00  0.00     0.049 A 
ATOM     61  H   UNL A   1      47.144  29.759  33.392  1.00  0.00     0.167 HD
ATOM     62  C   UNL A   1      47.799  33.047  30.500  1.00  0.00     0.034 A 
ATOM     63  C   UNL A   1      47.380  27.153  34.343  1.00  0.00     0.034 A 
ATOM     64  C   UNL A   1      48.694  31.995  30.108  1.00  0.00     0.049 A 
ATOM     65  C   UNL A   1      48.285  27.271  33.146  1.00  0.00     0.074 A 
ATOM     66  C   UNL A   1      49.619  31.990  29.081  1.00  0.00     0.029 A 
ATOM     67  N   UNL A   1      48.764  30.751  30.719  1.00  0.00    -0.354 N 
ATOM     68  N   UNL A   1      48.508  28.311  32.379  1.00  0.00    -0.248 NA
ATOM     69  C   UNL A   1      49.062  26.079  32.783  1.00  0.00     0.031 C 
ATOM     70  C   UNL A   1      50.218  30.726  29.044  1.00  0.00     0.029 A 
ATOM     71  C   UNL A   1      49.704  29.963  30.081  1.00  0.00     0.049 A 
ATOM     72  H   UNL A   1      48.223  30.471  31.493  1.00  0.00     0.167 HD
ATOM     73  C   UNL A   1      49.482  27.914  31.469  1.00  0.00     0.074 A 
ATOM     74  C   UNL A   1      49.814  26.541  31.792  1.00  0.00     0.031 C 
ATOM     75  C   UNL A   1      50.047  28.614  30.454  1.00  0.00     0.034 A 
BRANCH  62  76
ATOM     76  C   UNL A   1      47.788  34.326  29.705  1.00  0.00     0.023 A 
ATOM     77  C   UNL A   1      48.602  35.410  30.096  1.00  0.00     0.012 A 
ATOM     78  C   UNL A   1      46.995  34.441  28.547  1.00  0.00     0.148 A 
ATOM     79  C   UNL A   1      48.598  36.599  29.368  1.00  0.00     0.002 A 
ATOM     80  C   UNL A   1      47.034  35.612  27.798  1.00  0.00     0.091 A 
ATOM     81  F   UNL A   1      46.207  33.411  28.207  1.00  0.00    -0.205 F 
ATOM     82  C   UNL A   1      47.824  36.695  28.215  1.00  0.00     0.022 A 
BRANCH  80  83
ATOM     83  S   UNL A   1      46.134  35.806  26.257  1.00  0.00     0.127 S 
ATOM     84  O   UNL A   1      44.754  35.901  26.731  1.00  0.00    -0.237 OA
ATOM     85  O   UNL A   1      46.688  37.055  25.736  1.00  0.00    -0.237 OA
ATOM     86  O   UNL A   1      46.436  34.625  25.461  1.00  0.00    -0.744 OA
ENDBRANCH  80  83
ENDBRANCH  62  76
BRANCH  63  87
ATOM     87  C   UNL A   1      47.275  25.882  35.112  1.00  0.00     0.023 A 
ATOM     88  C   UNL A   1      48.086  25.679  36.244  1.00  0.00     0.012 A 
ATOM     89  C   UNL A   1      46.357  24.881  34.734  1.00  0.00     0.148 A 
ATOM     90  C   UNL A   1      48.009  24.489  36.968  1.00  0.00     0.002 A 
ATOM     91  C   UNL A   1      46.247  23.722  35.492  1.00  0.00     0.091 A 
ATOM     92  F   UNL A   1      45.602  25.090  33.646  1.00  0.00    -0.205 F 
ATOM     93  C   UNL A   1      47.084  23.515  36.598  1.00  0.00     0.022 A 
BRANCH  91  94
ATOM     94  S   UNL A   1      45.001  22.471  35.164  1.00  0.00     0.127 S 
ATOM     95  O   UNL A   1      43.767  23.191  35.466  1.00  0.00    -0.237 OA
ATOM     96  O   UNL A   1      45.224  22.194  33.744  1.00  0.00    -0.237 OA
ATOM     97  O   UNL A   1      45.316  21.358  36.051  1.00  0.00    -0.744 OA
ENDBRANCH  91  94
ENDBRANCH  63  87
BRANCH  75  98
ATOM     98  C   UNL A   1      51.126  27.933  29.654  1.00  0.00     0.023 A 
ATOM     99  C   UNL A   1      52.472  28.019  30.062  1.00  0.00     0.012 A 
ATOM    100  C   UNL A   1      50.789  27.142  28.538  1.00  0.00     0.148 A 
ATOM    101  C   UNL A   1      53.470  27.359  29.347  1.00  0.00     0.002 A 
ATOM    102  C   UNL A   1      51.780  26.440  27.866  1.00  0.00     0.091 A 
ATOM    103  F   UNL A   1      49.504  27.086  28.161  1.00  0.00    -0.205 F 
ATOM    104  C   UNL A   1      53.123  26.560  28.259  1.00  0.00     0.022 A 
BRANCH 102 105
ATOM    105  S   UNL A   1      51.414  25.307  26.523  1.00  0.00     0.127 S 
ATOM    106  O   UNL A   1      52.723  24.699  26.282  1.00  0.00    -0.237 OA
ATOM    107  O   UNL A   1      50.430  24.412  27.134  1.00  0.00    -0.237 OA
ATOM    108  O   UNL A   1      50.897  26.124  25.434  1.00  0.00    -0.744 OA
ENDBRANCH 102 105
ENDBRANCH  75  98
ENDBRANCH  49  50
ENDBRANCH  42  44
ENDBRANCH  41  42
ENDBRANCH  40  41
ENDBRANCH  39  40
ENDBRANCH  38  39
ENDBRANCH  37  38
ENDBRANCH  36  37
ENDBRANCH  35  36
ENDBRANCH   1  35
TORSDOF 29
ENDMDL
