MODEL 1
REMARK VINA RESULT:      -9.7      0.000      0.000
REMARK SMILES O=C(OCCOCCOCCOCCOC(=O)c1cn(-c2cc(Cl)ncn2)cn1)c1ccc(-c2c3nc(c(-c4cccc(S(=O)(=O)[O-])c4F)c4ccc([nH]4)c(-c4cccc(S(=O)(=O)[O-])c4F)c4nc(c(-c5cccc(S(=O)(=O)[O-])c5F)c5ccc2[nH]5)C=C4)C=C3)cc1
REMARK SMILES IDX 8 1 7 2 6 3 5 4 4 5 3 6 2 7 1 8 30 9 31 10 92 11 32 12 91 13
REMARK SMILES IDX 33 14 34 15 35 16 85 17 36 18 90 19 84 20 86 21 37 22 89 23
REMARK SMILES IDX 83 24 82 25 38 27 70 28 50 29 69 30 51 31 54 32 68 33 87 34
REMARK SMILES IDX 52 35 53 36 67 38 88 39 55 40 39 41 40 42 48 43 41 44 43 45
REMARK SMILES IDX 49 46 42 47 44 48 45 49 46 50 47 51 71 52 72 53 80 54 73 55
REMARK SMILES IDX 75 56 81 57 74 58 76 59 77 60 78 61 79 62 56 63 57 64 65 65
REMARK SMILES IDX 58 66 60 67 66 68 59 69 61 70 62 71 63 72 64 73 9 74 10 75
REMARK SMILES IDX 11 76 12 77 13 78 14 79 15 80 16 81 17 82 18 83 19 84 29 85
REMARK SMILES IDX 20 86 28 87 21 88 22 89 27 90 23 91 26 92 24 93 25 94
REMARK H PARENT 86 26 54 37
REMARK Flexibility Score: inf
ROOT
ATOM      1  C   UNL A   1      32.819  27.437  25.955  1.00  0.00     0.188 C 
ENDROOT
BRANCH   1   2
ATOM      2  C   UNL A   1      33.659  28.712  25.792  1.00  0.00     0.188 C 
BRANCH   2   3
ATOM      3  O   UNL A   1      34.742  29.076  26.636  1.00  0.00    -0.376 OA
BRANCH   3   4
ATOM      4  C   UNL A   1      34.736  29.929  27.760  1.00  0.00     0.202 C 
BRANCH   4   5
ATOM      5  C   UNL A   1      34.926  31.450  27.710  1.00  0.00     0.261 C 
BRANCH   5   6
ATOM      6  O   UNL A   1      35.791  32.012  28.689  1.00  0.00    -0.460 OA
BRANCH   6   7
ATOM      7  C   UNL A   1      36.063  31.598  29.944  1.00  0.00     0.338 C 
ATOM      8  O   UNL A   1      35.208  31.796  30.807  1.00  0.00    -0.246 OA
BRANCH   7   9
ATOM      9  C   UNL A   1      37.346  30.965  30.355  1.00  0.00     0.060 A 
ATOM     10  C   UNL A   1      38.552  31.629  30.589  1.00  0.00     0.016 A 
ATOM     11  C   UNL A   1      37.305  29.567  30.513  1.00  0.00     0.016 A 
ATOM     12  C   UNL A   1      39.720  30.922  30.768  1.00  0.00     0.010 A 
ATOM     13  C   UNL A   1      38.465  28.850  30.746  1.00  0.00     0.010 A 
ATOM     14  C   UNL A   1      39.674  29.536  30.783  1.00  0.00    -0.014 A 
BRANCH  14  15
ATOM     15  C   UNL A   1      40.949  28.853  30.843  1.00  0.00     0.031 A 
ATOM     16  C   UNL A   1      41.539  28.727  32.197  1.00  0.00     0.074 A 
ATOM     17  C   UNL A   1      41.499  28.350  29.724  1.00  0.00     0.049 A 
ATOM     18  N   UNL A   1      42.690  29.151  32.608  1.00  0.00    -0.248 NA
ATOM     19  C   UNL A   1      40.685  28.176  33.260  1.00  0.00     0.031 C 
ATOM     20  C   UNL A   1      40.860  28.237  28.408  1.00  0.00     0.029 A 
ATOM     21  N   UNL A   1      42.673  27.678  29.565  1.00  0.00    -0.354 N 
ATOM     22  C   UNL A   1      42.802  28.688  33.918  1.00  0.00     0.074 A 
ATOM     23  C   UNL A   1      41.485  28.277  34.320  1.00  0.00     0.031 C 
ATOM     24  C   UNL A   1      41.512  27.302  27.688  1.00  0.00     0.029 A 
ATOM     25  C   UNL A   1      42.665  26.853  28.446  1.00  0.00     0.049 A 
ATOM     26  H   UNL A   1      43.441  27.766  30.175  1.00  0.00     0.167 HD
ATOM     27  C   UNL A   1      44.019  28.400  34.457  1.00  0.00     0.034 A 
ATOM     28  C   UNL A   1      43.476  25.795  28.219  1.00  0.00     0.034 A 
ATOM     29  C   UNL A   1      45.080  29.104  33.779  1.00  0.00     0.049 A 
ATOM     30  C   UNL A   1      44.662  25.938  29.092  1.00  0.00     0.074 A 
ATOM     31  C   UNL A   1      45.360  30.427  33.500  1.00  0.00     0.029 A 
ATOM     32  N   UNL A   1      45.916  28.366  32.979  1.00  0.00    -0.354 N 
ATOM     33  N   UNL A   1      45.574  26.857  28.937  1.00  0.00    -0.248 NA
ATOM     34  C   UNL A   1      44.655  25.277  30.387  1.00  0.00     0.031 C 
ATOM     35  C   UNL A   1      46.030  30.412  32.242  1.00  0.00     0.029 A 
ATOM     36  C   UNL A   1      46.151  29.081  31.839  1.00  0.00     0.049 A 
ATOM     37  H   UNL A   1      46.282  27.477  33.190  1.00  0.00     0.167 HD
ATOM     38  C   UNL A   1      45.945  27.198  30.231  1.00  0.00     0.074 A 
ATOM     39  C   UNL A   1      45.462  26.099  31.062  1.00  0.00     0.031 C 
ATOM     40  C   UNL A   1      46.337  28.471  30.539  1.00  0.00     0.034 A 
BRANCH  27  41
ATOM     41  C   UNL A   1      44.298  27.153  35.284  1.00  0.00     0.023 A 
ATOM     42  C   UNL A   1      45.072  27.324  36.455  1.00  0.00     0.012 A 
ATOM     43  C   UNL A   1      44.135  25.825  34.821  1.00  0.00     0.148 A 
ATOM     44  C   UNL A   1      45.744  26.254  37.056  1.00  0.00     0.002 A 
ATOM     45  C   UNL A   1      44.746  24.756  35.464  1.00  0.00     0.091 A 
ATOM     46  F   UNL A   1      43.489  25.576  33.681  1.00  0.00    -0.205 F 
ATOM     47  C   UNL A   1      45.587  24.968  36.556  1.00  0.00     0.022 A 
BRANCH  45  48
ATOM     48  S   UNL A   1      44.537  23.069  34.877  1.00  0.00     0.127 S 
ATOM     49  O   UNL A   1      45.093  22.305  35.990  1.00  0.00    -0.237 OA
ATOM     50  O   UNL A   1      43.084  22.984  34.727  1.00  0.00    -0.237 OA
ATOM     51  O   UNL A   1      45.270  22.998  33.618  1.00  0.00    -0.744 OA
ENDBRANCH  45  48
ENDBRANCH  27  41
BRANCH  28  52
ATOM     52  C   UNL A   1      43.184  24.554  27.466  1.00  0.00     0.023 A 
ATOM     53  C   UNL A   1      41.858  24.090  27.392  1.00  0.00     0.012 A 
ATOM     54  C   UNL A   1      44.151  23.946  26.632  1.00  0.00     0.148 A 
ATOM     55  C   UNL A   1      41.502  23.069  26.504  1.00  0.00     0.002 A 
ATOM     56  C   UNL A   1      43.797  22.911  25.772  1.00  0.00     0.091 A 
ATOM     57  F   UNL A   1      45.397  24.439  26.608  1.00  0.00    -0.205 F 
ATOM     58  C   UNL A   1      42.469  22.479  25.696  1.00  0.00     0.022 A 
BRANCH  56  59
ATOM     59  S   UNL A   1      45.009  22.096  24.722  1.00  0.00     0.127 S 
ATOM     60  O   UNL A   1      44.246  20.961  24.198  1.00  0.00    -0.237 OA
ATOM     61  O   UNL A   1      45.310  23.134  23.742  1.00  0.00    -0.237 OA
ATOM     62  O   UNL A   1      46.103  21.715  25.607  1.00  0.00    -0.744 OA
ENDBRANCH  56  59
ENDBRANCH  28  52
BRANCH  40  63
ATOM     63  C   UNL A   1      46.696  29.405  29.411  1.00  0.00     0.023 A 
ATOM     64  C   UNL A   1      47.995  29.453  28.864  1.00  0.00     0.012 A 
ATOM     65  C   UNL A   1      45.668  30.128  28.780  1.00  0.00     0.148 A 
ATOM     66  C   UNL A   1      48.270  30.236  27.739  1.00  0.00     0.002 A 
ATOM     67  C   UNL A   1      45.935  30.865  27.632  1.00  0.00     0.091 A 
ATOM     68  F   UNL A   1      44.433  30.069  29.303  1.00  0.00    -0.205 F 
ATOM     69  C   UNL A   1      47.238  30.932  27.116  1.00  0.00     0.022 A 
BRANCH  67  70
ATOM     70  S   UNL A   1      44.616  31.664  26.715  1.00  0.00     0.127 S 
ATOM     71  O   UNL A   1      45.312  32.134  25.518  1.00  0.00    -0.237 OA
ATOM     72  O   UNL A   1      43.675  30.566  26.481  1.00  0.00    -0.237 OA
ATOM     73  O   UNL A   1      44.100  32.703  27.598  1.00  0.00    -0.744 OA
ENDBRANCH  67  70
ENDBRANCH  40  63
ENDBRANCH  14  15
ENDBRANCH   7   9
ENDBRANCH   6   7
ENDBRANCH   5   6
ENDBRANCH   4   5
ENDBRANCH   3   4
ENDBRANCH   2   3
ENDBRANCH   1   2
BRANCH   1  74
ATOM     74  O   UNL A   1      33.401  26.253  25.445  1.00  0.00    -0.377 OA
BRANCH  74  75
ATOM     75  C   UNL A   1      32.967  25.072  26.082  1.00  0.00     0.188 C 
BRANCH  75  76
ATOM     76  C   UNL A   1      33.728  23.798  25.657  1.00  0.00     0.188 C 
BRANCH  76  77
ATOM     77  O   UNL A   1      34.737  23.782  24.648  1.00  0.00    -0.376 OA
BRANCH  77  78
ATOM     78  C   UNL A   1      34.404  23.762  23.273  1.00  0.00     0.202 C 
BRANCH  78  79
ATOM     79  C   UNL A   1      32.905  23.690  22.961  1.00  0.00     0.261 C 
BRANCH  79  80
ATOM     80  O   UNL A   1      32.488  24.550  21.895  1.00  0.00    -0.458 OA
BRANCH  80  81
ATOM     81  C   UNL A   1      32.851  25.859  21.996  1.00  0.00     0.358 C 
ATOM     82  O   UNL A   1      33.970  26.310  21.771  1.00  0.00    -0.244 OA
BRANCH  81  83
ATOM     83  C   UNL A   1      31.732  26.690  22.431  1.00  0.00     0.166 A 
ATOM     84  C   UNL A   1      31.678  28.065  22.380  1.00  0.00     0.130 A 
ATOM     85  N   UNL A   1      30.583  26.202  23.038  1.00  0.00    -0.229 NA
ATOM     86  N   UNL A   1      30.452  28.412  22.897  1.00  0.00    -0.289 N 
ATOM     87  C   UNL A   1      29.877  27.262  23.371  1.00  0.00     0.206 A 
BRANCH  86  88
ATOM     88  C   UNL A   1      29.851  29.690  22.869  1.00  0.00     0.142 A 
ATOM     89  C   UNL A   1      29.355  30.139  21.666  1.00  0.00     0.088 A 
ATOM     90  N   UNL A   1      29.722  30.371  24.027  1.00  0.00    -0.219 NA
ATOM     91  C   UNL A   1      28.704  31.341  21.728  1.00  0.00     0.134 A 
ATOM     92  C   UNL A   1      29.133  31.573  23.935  1.00  0.00     0.226 A 
ATOM     93  Cl  UNL A   1      27.901  31.961  20.345  1.00  0.00    -0.062 Cl
ATOM     94  N   UNL A   1      28.593  32.098  22.830  1.00  0.00    -0.224 NA
ENDBRANCH  86  88
ENDBRANCH  81  83
ENDBRANCH  80  81
ENDBRANCH  79  80
ENDBRANCH  78  79
ENDBRANCH  77  78
ENDBRANCH  76  77
ENDBRANCH  75  76
ENDBRANCH  74  75
ENDBRANCH   1  74
TORSDOF 24
ENDMDL
MODEL 2
REMARK VINA RESULT:      -9.4      2.109      2.724
REMARK SMILES O=C(OCCOCCOCCOCCOC(=O)c1cn(-c2cc(Cl)ncn2)cn1)c1ccc(-c2c3nc(c(-c4cccc(S(=O)(=O)[O-])c4F)c4ccc([nH]4)c(-c4cccc(S(=O)(=O)[O-])c4F)c4nc(c(-c5cccc(S(=O)(=O)[O-])c5F)c5ccc2[nH]5)C=C4)C=C3)cc1
REMARK SMILES IDX 8 1 7 2 6 3 5 4 4 5 3 6 2 7 1 8 30 9 31 10 92 11 32 12 91 13
REMARK SMILES IDX 33 14 34 15 35 16 85 17 36 18 90 19 84 20 86 21 37 22 89 23
REMARK SMILES IDX 83 24 82 25 38 27 70 28 50 29 69 30 51 31 54 32 68 33 87 34
REMARK SMILES IDX 52 35 53 36 67 38 88 39 55 40 39 41 40 42 48 43 41 44 43 45
REMARK SMILES IDX 49 46 42 47 44 48 45 49 46 50 47 51 71 52 72 53 80 54 73 55
REMARK SMILES IDX 75 56 81 57 74 58 76 59 77 60 78 61 79 62 56 63 57 64 65 65
REMARK SMILES IDX 58 66 60 67 66 68 59 69 61 70 62 71 63 72 64 73 9 74 10 75
REMARK SMILES IDX 11 76 12 77 13 78 14 79 15 80 16 81 17 82 18 83 19 84 29 85
REMARK SMILES IDX 20 86 28 87 21 88 22 89 27 90 23 91 26 92 24 93 25 94
REMARK H PARENT 86 26 54 37
REMARK Flexibility Score: inf
ROOT
ATOM      1  C   UNL A   1      33.248  29.283  26.039  1.00  0.00     0.188 C 
ENDROOT
BRANCH   1   2
ATOM      2  C   UNL A   1      33.011  30.184  27.259  1.00  0.00     0.188 C 
BRANCH   2   3
ATOM      3  O   UNL A   1      33.089  31.603  27.241  1.00  0.00    -0.376 OA
BRANCH   3   4
ATOM      4  C   UNL A   1      33.929  32.448  27.996  1.00  0.00     0.202 C 
BRANCH   4   5
ATOM      5  C   UNL A   1      33.623  33.911  28.341  1.00  0.00     0.261 C 
BRANCH   5   6
ATOM      6  O   UNL A   1      34.305  34.454  29.464  1.00  0.00    -0.460 OA
BRANCH   6   7
ATOM      7  C   UNL A   1      34.572  33.898  30.665  1.00  0.00     0.338 C 
ATOM      8  O   UNL A   1      33.719  34.012  31.546  1.00  0.00    -0.246 OA
BRANCH   7   9
ATOM      9  C   UNL A   1      35.846  33.207  31.002  1.00  0.00     0.060 A 
ATOM     10  C   UNL A   1      37.103  33.804  31.103  1.00  0.00     0.016 A 
ATOM     11  C   UNL A   1      35.737  31.822  31.232  1.00  0.00     0.016 A 
ATOM     12  C   UNL A   1      38.239  33.034  31.222  1.00  0.00     0.010 A 
ATOM     13  C   UNL A   1      36.868  31.046  31.406  1.00  0.00     0.010 A 
ATOM     14  C   UNL A   1      38.114  31.656  31.310  1.00  0.00    -0.014 A 
BRANCH  14  15
ATOM     15  C   UNL A   1      39.347  30.898  31.300  1.00  0.00     0.031 A 
ATOM     16  C   UNL A   1      40.096  30.886  32.579  1.00  0.00     0.074 A 
ATOM     17  C   UNL A   1      39.724  30.235  30.192  1.00  0.00     0.049 A 
ATOM     18  N   UNL A   1      41.311  31.274  32.796  1.00  0.00    -0.248 NA
ATOM     19  C   UNL A   1      39.354  30.519  33.795  1.00  0.00     0.031 C 
ATOM     20  C   UNL A   1      38.919  30.018  28.985  1.00  0.00     0.029 A 
ATOM     21  N   UNL A   1      40.830  29.470  29.977  1.00  0.00    -0.354 N 
ATOM     22  C   UNL A   1      41.562  30.956  34.130  1.00  0.00     0.074 A 
ATOM     23  C   UNL A   1      40.286  30.684  34.733  1.00  0.00     0.031 C 
ATOM     24  C   UNL A   1      39.423  28.965  28.311  1.00  0.00     0.029 A 
ATOM     25  C   UNL A   1      40.636  28.526  28.976  1.00  0.00     0.049 A 
ATOM     26  H   UNL A   1      41.672  29.574  30.476  1.00  0.00     0.167 HD
ATOM     27  C   UNL A   1      42.820  30.648  34.550  1.00  0.00     0.034 A 
ATOM     28  C   UNL A   1      41.353  27.396  28.783  1.00  0.00     0.034 A 
ATOM     29  C   UNL A   1      43.823  31.196  33.671  1.00  0.00     0.049 A 
ATOM     30  C   UNL A   1      42.647  27.555  29.485  1.00  0.00     0.074 A 
ATOM     31  C   UNL A   1      44.137  32.456  33.203  1.00  0.00     0.029 A 
ATOM     32  N   UNL A   1      44.511  30.317  32.873  1.00  0.00    -0.354 N 
ATOM     33  N   UNL A   1      43.580  28.386  29.112  1.00  0.00    -0.248 NA
ATOM     34  C   UNL A   1      42.767  27.048  30.842  1.00  0.00     0.031 C 
ATOM     35  C   UNL A   1      44.641  32.253  31.885  1.00  0.00     0.029 A 
ATOM     36  C   UNL A   1      44.638  30.880  31.635  1.00  0.00     0.049 A 
ATOM     37  H   UNL A   1      44.852  29.435  33.144  1.00  0.00     0.167 HD
ATOM     38  C   UNL A   1      44.129  28.845  30.302  1.00  0.00     0.074 A 
ATOM     39  C   UNL A   1      43.696  27.884  31.312  1.00  0.00     0.031 C 
ATOM     40  C   UNL A   1      44.625  30.115  30.405  1.00  0.00     0.034 A 
BRANCH  27  41
ATOM     41  C   UNL A   1      43.133  29.487  35.483  1.00  0.00     0.023 A 
ATOM     42  C   UNL A   1      44.052  29.738  36.529  1.00  0.00     0.012 A 
ATOM     43  C   UNL A   1      42.847  28.129  35.204  1.00  0.00     0.148 A 
ATOM     44  C   UNL A   1      44.736  28.701  37.172  1.00  0.00     0.002 A 
ATOM     45  C   UNL A   1      43.476  27.101  35.896  1.00  0.00     0.091 A 
ATOM     46  F   UNL A   1      42.055  27.796  34.184  1.00  0.00    -0.205 F 
ATOM     47  C   UNL A   1      44.454  27.380  36.851  1.00  0.00     0.022 A 
BRANCH  45  48
ATOM     48  S   UNL A   1      43.111  25.376  35.543  1.00  0.00     0.127 S 
ATOM     49  O   UNL A   1      41.656  25.360  35.653  1.00  0.00    -0.237 OA
ATOM     50  O   UNL A   1      43.635  25.233  34.184  1.00  0.00    -0.237 OA
ATOM     51  O   UNL A   1      43.840  24.607  36.544  1.00  0.00    -0.744 OA
ENDBRANCH  45  48
ENDBRANCH  27  41
BRANCH  28  52
ATOM     52  C   UNL A   1      40.902  26.101  28.226  1.00  0.00     0.023 A 
ATOM     53  C   UNL A   1      39.524  25.832  28.140  1.00  0.00     0.012 A 
ATOM     54  C   UNL A   1      41.795  25.223  27.569  1.00  0.00     0.148 A 
ATOM     55  C   UNL A   1      39.049  24.737  27.410  1.00  0.00     0.002 A 
ATOM     56  C   UNL A   1      41.320  24.119  26.869  1.00  0.00     0.091 A 
ATOM     57  F   UNL A   1      43.103  25.515  27.548  1.00  0.00    -0.205 F 
ATOM     58  C   UNL A   1      39.945  23.881  26.776  1.00  0.00     0.022 A 
BRANCH  56  59
ATOM     59  S   UNL A   1      42.430  22.966  26.049  1.00  0.00     0.127 S 
ATOM     60  O   UNL A   1      43.011  23.797  24.993  1.00  0.00    -0.237 OA
ATOM     61  O   UNL A   1      43.352  22.613  27.125  1.00  0.00    -0.237 OA
ATOM     62  O   UNL A   1      41.582  21.888  25.555  1.00  0.00    -0.744 OA
ENDBRANCH  56  59
ENDBRANCH  28  52
BRANCH  40  63
ATOM     63  C   UNL A   1      44.889  30.888  29.137  1.00  0.00     0.023 A 
ATOM     64  C   UNL A   1      43.885  31.646  28.500  1.00  0.00     0.012 A 
ATOM     65  C   UNL A   1      46.212  30.987  28.670  1.00  0.00     0.148 A 
ATOM     66  C   UNL A   1      44.186  32.451  27.398  1.00  0.00     0.002 A 
ATOM     67  C   UNL A   1      46.516  31.828  27.606  1.00  0.00     0.091 A 
ATOM     68  F   UNL A   1      47.162  30.268  29.289  1.00  0.00    -0.205 F 
ATOM     69  C   UNL A   1      45.503  32.551  26.959  1.00  0.00     0.022 A 
BRANCH  67  70
ATOM     70  S   UNL A   1      48.214  32.098  27.093  1.00  0.00     0.127 S 
ATOM     71  O   UNL A   1      48.613  30.769  26.633  1.00  0.00    -0.237 OA
ATOM     72  O   UNL A   1      48.074  33.095  26.029  1.00  0.00    -0.237 OA
ATOM     73  O   UNL A   1      48.906  32.594  28.277  1.00  0.00    -0.744 OA
ENDBRANCH  67  70
ENDBRANCH  40  63
ENDBRANCH  14  15
ENDBRANCH   7   9
ENDBRANCH   6   7
ENDBRANCH   5   6
ENDBRANCH   4   5
ENDBRANCH   3   4
ENDBRANCH   2   3
ENDBRANCH   1   2
BRANCH   1  74
ATOM     74  O   UNL A   1      33.182  27.892  26.285  1.00  0.00    -0.377 OA
BRANCH  74  75
ATOM     75  C   UNL A   1      33.830  27.100  25.314  1.00  0.00     0.188 C 
BRANCH  75  76
ATOM     76  C   UNL A   1      33.936  25.603  25.675  1.00  0.00     0.188 C 
BRANCH  76  77
ATOM     77  O   UNL A   1      35.029  24.773  25.281  1.00  0.00    -0.376 OA
BRANCH  77  78
ATOM     78  C   UNL A   1      35.009  24.060  24.059  1.00  0.00     0.202 C 
BRANCH  78  79
ATOM     79  C   UNL A   1      33.638  23.525  23.633  1.00  0.00     0.261 C 
BRANCH  79  80
ATOM     80  O   UNL A   1      33.237  23.927  22.318  1.00  0.00    -0.458 OA
BRANCH  80  81
ATOM     81  C   UNL A   1      33.072  25.264  22.118  1.00  0.00     0.358 C 
ATOM     82  O   UNL A   1      33.901  26.020  21.619  1.00  0.00    -0.244 OA
BRANCH  81  83
ATOM     83  C   UNL A   1      31.767  25.717  22.591  1.00  0.00     0.166 A 
ATOM     84  C   UNL A   1      31.299  27.012  22.556  1.00  0.00     0.130 A 
ATOM     85  N   UNL A   1      30.837  24.903  23.223  1.00  0.00    -0.229 NA
ATOM     86  N   UNL A   1      30.041  26.971  23.108  1.00  0.00    -0.289 N 
ATOM     87  C   UNL A   1      29.854  25.700  23.585  1.00  0.00     0.206 A 
BRANCH  86  88
ATOM     88  C   UNL A   1      29.082  28.007  23.111  1.00  0.00     0.142 A 
ATOM     89  C   UNL A   1      29.485  29.254  22.687  1.00  0.00     0.088 A 
ATOM     90  N   UNL A   1      27.809  27.713  23.448  1.00  0.00    -0.219 NA
ATOM     91  C   UNL A   1      28.486  30.188  22.625  1.00  0.00     0.134 A 
ATOM     92  C   UNL A   1      26.945  28.739  23.419  1.00  0.00     0.226 A 
ATOM     93  Cl  UNL A   1      28.800  31.744  21.975  1.00  0.00    -0.062 Cl
ATOM     94  N   UNL A   1      27.217  29.980  23.004  1.00  0.00    -0.224 NA
ENDBRANCH  86  88
ENDBRANCH  81  83
ENDBRANCH  80  81
ENDBRANCH  79  80
ENDBRANCH  78  79
ENDBRANCH  77  78
ENDBRANCH  76  77
ENDBRANCH  75  76
ENDBRANCH  74  75
ENDBRANCH   1  74
TORSDOF 24
ENDMDL
MODEL 3
REMARK VINA RESULT:      -9.3      3.318      4.770
REMARK SMILES O=C(OCCOCCOCCOCCOC(=O)c1cn(-c2cc(Cl)ncn2)cn1)c1ccc(-c2c3nc(c(-c4cccc(S(=O)(=O)[O-])c4F)c4ccc([nH]4)c(-c4cccc(S(=O)(=O)[O-])c4F)c4nc(c(-c5cccc(S(=O)(=O)[O-])c5F)c5ccc2[nH]5)C=C4)C=C3)cc1
REMARK SMILES IDX 8 1 7 2 6 3 5 4 4 5 3 6 2 7 1 8 30 9 31 10 92 11 32 12 91 13
REMARK SMILES IDX 33 14 34 15 35 16 85 17 36 18 90 19 84 20 86 21 37 22 89 23
REMARK SMILES IDX 83 24 82 25 38 27 70 28 50 29 69 30 51 31 54 32 68 33 87 34
REMARK SMILES IDX 52 35 53 36 67 38 88 39 55 40 39 41 40 42 48 43 41 44 43 45
REMARK SMILES IDX 49 46 42 47 44 48 45 49 46 50 47 51 71 52 72 53 80 54 73 55
REMARK SMILES IDX 75 56 81 57 74 58 76 59 77 60 78 61 79 62 56 63 57 64 65 65
REMARK SMILES IDX 58 66 60 67 66 68 59 69 61 70 62 71 63 72 64 73 9 74 10 75
REMARK SMILES IDX 11 76 12 77 13 78 14 79 15 80 16 81 17 82 18 83 19 84 29 85
REMARK SMILES IDX 20 86 28 87 21 88 22 89 27 90 23 91 26 92 24 93 25 94
REMARK H PARENT 86 26 54 37
REMARK Flexibility Score: inf
ROOT
ATOM      1  C   UNL A   1      33.324  29.384  26.305  1.00  0.00     0.188 C 
ENDROOT
BRANCH   1   2
ATOM      2  C   UNL A   1      34.112  30.232  27.314  1.00  0.00     0.188 C 
BRANCH   2   3
ATOM      3  O   UNL A   1      35.505  30.104  27.559  1.00  0.00    -0.376 OA
BRANCH   3   4
ATOM      4  C   UNL A   1      36.458  31.121  27.783  1.00  0.00     0.202 C 
BRANCH   4   5
ATOM      5  C   UNL A   1      36.128  32.554  28.216  1.00  0.00     0.261 C 
BRANCH   5   6
ATOM      6  O   UNL A   1      35.923  32.765  29.608  1.00  0.00    -0.460 OA
BRANCH   6   7
ATOM      7  C   UNL A   1      36.189  31.954  30.653  1.00  0.00     0.338 C 
ATOM      8  O   UNL A   1      35.301  31.798  31.492  1.00  0.00    -0.246 OA
BRANCH   7   9
ATOM      9  C   UNL A   1      37.498  31.284  30.879  1.00  0.00     0.060 A 
ATOM     10  C   UNL A   1      38.732  31.920  31.028  1.00  0.00     0.016 A 
ATOM     11  C   UNL A   1      37.453  29.878  30.941  1.00  0.00     0.016 A 
ATOM     12  C   UNL A   1      39.902  31.192  31.031  1.00  0.00     0.010 A 
ATOM     13  C   UNL A   1      38.619  29.137  30.998  1.00  0.00     0.010 A 
ATOM     14  C   UNL A   1      39.836  29.809  30.953  1.00  0.00    -0.014 A 
BRANCH  14  15
ATOM     15  C   UNL A   1      41.099  29.112  30.827  1.00  0.00     0.031 A 
ATOM     16  C   UNL A   1      41.808  28.849  32.102  1.00  0.00     0.074 A 
ATOM     17  C   UNL A   1      41.536  28.718  29.618  1.00  0.00     0.049 A 
ATOM     18  N   UNL A   1      42.999  29.221  32.444  1.00  0.00    -0.248 NA
ATOM     19  C   UNL A   1      41.045  28.202  33.180  1.00  0.00     0.031 C 
ATOM     20  C   UNL A   1      40.778  28.741  28.362  1.00  0.00     0.029 A 
ATOM     21  N   UNL A   1      42.679  28.056  29.286  1.00  0.00    -0.354 N 
ATOM     22  C   UNL A   1      43.223  28.629  33.687  1.00  0.00     0.074 A 
ATOM     23  C   UNL A   1      41.940  28.191  34.167  1.00  0.00     0.031 C 
ATOM     24  C   UNL A   1      41.345  27.877  27.497  1.00  0.00     0.029 A 
ATOM     25  C   UNL A   1      42.554  27.346  28.098  1.00  0.00     0.049 A 
ATOM     26  H   UNL A   1      43.500  28.077  29.828  1.00  0.00     0.167 HD
ATOM     27  C   UNL A   1      44.478  28.280  34.079  1.00  0.00     0.034 A 
ATOM     28  C   UNL A   1      43.323  26.309  27.694  1.00  0.00     0.034 A 
ATOM     29  C   UNL A   1      45.484  29.038  33.378  1.00  0.00     0.049 A 
ATOM     30  C   UNL A   1      44.586  26.355  28.463  1.00  0.00     0.074 A 
ATOM     31  C   UNL A   1      45.760  30.380  33.205  1.00  0.00     0.029 A 
ATOM     32  N   UNL A   1      46.232  28.377  32.436  1.00  0.00    -0.354 N 
ATOM     33  N   UNL A   1      45.496  27.278  28.315  1.00  0.00    -0.248 NA
ATOM     34  C   UNL A   1      44.686  25.570  29.683  1.00  0.00     0.031 C 
ATOM     35  C   UNL A   1      46.312  30.485  31.894  1.00  0.00     0.029 A 
ATOM     36  C   UNL A   1      46.374  29.199  31.354  1.00  0.00     0.049 A 
ATOM     37  H   UNL A   1      46.600  27.469  32.524  1.00  0.00     0.167 HD
ATOM     38  C   UNL A   1      45.989  27.486  29.596  1.00  0.00     0.074 A 
ATOM     39  C   UNL A   1      45.565  26.315  30.357  1.00  0.00     0.031 C 
ATOM     40  C   UNL A   1      46.429  28.719  29.989  1.00  0.00     0.034 A 
BRANCH  27  41
ATOM     41  C   UNL A   1      44.811  26.955  34.751  1.00  0.00     0.023 A 
ATOM     42  C   UNL A   1      45.731  26.996  35.824  1.00  0.00     0.012 A 
ATOM     43  C   UNL A   1      44.539  25.680  34.198  1.00  0.00     0.148 A 
ATOM     44  C   UNL A   1      46.431  25.858  36.237  1.00  0.00     0.002 A 
ATOM     45  C   UNL A   1      45.185  24.540  34.661  1.00  0.00     0.091 A 
ATOM     46  F   UNL A   1      43.747  25.555  33.133  1.00  0.00    -0.205 F 
ATOM     47  C   UNL A   1      46.163  24.628  35.651  1.00  0.00     0.022 A 
BRANCH  45  48
ATOM     48  S   UNL A   1      44.839  22.920  33.960  1.00  0.00     0.127 S 
ATOM     49  O   UNL A   1      44.829  23.220  32.531  1.00  0.00    -0.237 OA
ATOM     50  O   UNL A   1      45.989  22.143  34.425  1.00  0.00    -0.237 OA
ATOM     51  O   UNL A   1      43.567  22.505  34.539  1.00  0.00    -0.744 OA
ENDBRANCH  45  48
ENDBRANCH  27  41
BRANCH  28  52
ATOM     52  C   UNL A   1      42.942  25.152  26.854  1.00  0.00     0.023 A 
ATOM     53  C   UNL A   1      43.770  24.778  25.780  1.00  0.00     0.012 A 
ATOM     54  C   UNL A   1      41.900  24.272  27.229  1.00  0.00     0.148 A 
ATOM     55  C   UNL A   1      43.581  23.562  25.115  1.00  0.00     0.002 A 
ATOM     56  C   UNL A   1      41.697  23.077  26.546  1.00  0.00     0.091 A 
ATOM     57  F   UNL A   1      41.164  24.555  28.313  1.00  0.00    -0.205 F 
ATOM     58  C   UNL A   1      42.545  22.713  25.496  1.00  0.00     0.022 A 
BRANCH  56  59
ATOM     59  S   UNL A   1      40.362  21.952  26.979  1.00  0.00     0.127 S 
ATOM     60  O   UNL A   1      40.792  21.455  28.287  1.00  0.00    -0.237 OA
ATOM     61  O   UNL A   1      39.209  22.846  27.014  1.00  0.00    -0.237 OA
ATOM     62  O   UNL A   1      40.352  20.936  25.934  1.00  0.00    -0.744 OA
ENDBRANCH  56  59
ENDBRANCH  28  52
BRANCH  40  63
ATOM     63  C   UNL A   1      46.700  29.757  28.929  1.00  0.00     0.023 A 
ATOM     64  C   UNL A   1      47.971  29.911  28.339  1.00  0.00     0.012 A 
ATOM     65  C   UNL A   1      45.615  30.480  28.400  1.00  0.00     0.148 A 
ATOM     66  C   UNL A   1      48.164  30.794  27.273  1.00  0.00     0.002 A 
ATOM     67  C   UNL A   1      45.802  31.319  27.308  1.00  0.00     0.091 A 
ATOM     68  F   UNL A   1      44.407  30.321  28.963  1.00  0.00    -0.205 F 
ATOM     69  C   UNL A   1      47.077  31.489  26.750  1.00  0.00     0.022 A 
BRANCH  67  70
ATOM     70  S   UNL A   1      44.411  32.127  26.511  1.00  0.00     0.127 S 
ATOM     71  O   UNL A   1      45.041  32.752  25.350  1.00  0.00    -0.237 OA
ATOM     72  O   UNL A   1      43.525  31.005  26.194  1.00  0.00    -0.237 OA
ATOM     73  O   UNL A   1      43.868  33.042  27.508  1.00  0.00    -0.744 OA
ENDBRANCH  67  70
ENDBRANCH  40  63
ENDBRANCH  14  15
ENDBRANCH   7   9
ENDBRANCH   6   7
ENDBRANCH   5   6
ENDBRANCH   4   5
ENDBRANCH   3   4
ENDBRANCH   2   3
ENDBRANCH   1   2
BRANCH   1  74
ATOM     74  O   UNL A   1      33.899  28.135  25.976  1.00  0.00    -0.377 OA
BRANCH  74  75
ATOM     75  C   UNL A   1      32.968  27.082  25.849  1.00  0.00     0.188 C 
BRANCH  75  76
ATOM     76  C   UNL A   1      32.417  26.882  24.422  1.00  0.00     0.188 C 
BRANCH  76  77
ATOM     77  O   UNL A   1      31.039  27.033  24.080  1.00  0.00    -0.376 OA
BRANCH  77  78
ATOM     78  C   UNL A   1      30.113  25.981  24.274  1.00  0.00     0.202 C 
BRANCH  78  79
ATOM     79  C   UNL A   1      30.695  24.567  24.183  1.00  0.00     0.261 C 
BRANCH  79  80
ATOM     80  O   UNL A   1      30.354  23.722  25.288  1.00  0.00    -0.458 OA
BRANCH  80  81
ATOM     81  C   UNL A   1      31.320  23.540  26.231  1.00  0.00     0.358 C 
ATOM     82  O   UNL A   1      31.482  24.233  27.232  1.00  0.00    -0.244 OA
BRANCH  81  83
ATOM     83  C   UNL A   1      32.178  22.405  25.903  1.00  0.00     0.166 A 
ATOM     84  C   UNL A   1      31.799  21.279  25.205  1.00  0.00     0.130 A 
ATOM     85  N   UNL A   1      33.493  22.269  26.326  1.00  0.00    -0.229 NA
ATOM     86  N   UNL A   1      32.918  20.483  25.142  1.00  0.00    -0.289 N 
ATOM     87  C   UNL A   1      33.877  21.078  25.919  1.00  0.00     0.206 A 
BRANCH  86  88
ATOM     88  C   UNL A   1      33.087  19.320  24.360  1.00  0.00     0.142 A 
ATOM     89  C   UNL A   1      33.942  18.350  24.831  1.00  0.00     0.088 A 
ATOM     90  N   UNL A   1      32.350  19.179  23.238  1.00  0.00    -0.219 NA
ATOM     91  C   UNL A   1      33.989  17.211  24.073  1.00  0.00     0.134 A 
ATOM     92  C   UNL A   1      32.549  18.047  22.546  1.00  0.00     0.226 A 
ATOM     93  Cl  UNL A   1      34.893  15.854  24.609  1.00  0.00    -0.062 Cl
ATOM     94  N   UNL A   1      33.332  17.030  22.918  1.00  0.00    -0.224 NA
ENDBRANCH  86  88
ENDBRANCH  81  83
ENDBRANCH  80  81
ENDBRANCH  79  80
ENDBRANCH  78  79
ENDBRANCH  77  78
ENDBRANCH  76  77
ENDBRANCH  75  76
ENDBRANCH  74  75
ENDBRANCH   1  74
TORSDOF 24
ENDMDL
