MODEL 1
REMARK VINA RESULT:      -8.6      0.000      0.000
REMARK SMILES CC(C)C[C@@H](NC(=O)Cn1nc(O)ccc1=O)C(=O)OCCOCCOCCOCCOC(=O)c1ccc(-c2c3nc(c(-c4cccc(S(=O)(=O)[O-])c4F)c4ccc([nH]4)c(-c4cccc(S(=O)(=O)[O-])c4F)c4nc(c(-c5cccc(S(=O)(=O)[O-])c5F)c5ccc2[nH]5)C=C4)C=C3)cc1
REMARK SMILES IDX 25 1 24 2 23 3 22 4 21 5 20 6 18 7 19 8 5 9 4 10 2 11 1 12
REMARK SMILES IDX 3 13 6 14 7 15 8 17 9 18 10 19 11 20 16 21 12 22 15 23 17 24
REMARK SMILES IDX 14 25 13 26 26 28 27 29 28 30 29 31 30 32 31 33 32 34 33 35
REMARK SMILES IDX 34 36 35 37 36 38 97 39 37 40 96 41 38 42 39 43 40 44 90 45
REMARK SMILES IDX 41 46 95 47 89 48 91 49 42 50 94 51 88 52 87 53 43 55 75 56
REMARK SMILES IDX 55 57 74 58 56 59 59 60 73 61 92 62 57 63 58 64 72 66 93 67
REMARK SMILES IDX 60 68 44 69 45 70 53 71 46 72 48 73 54 74 47 75 49 76 50 77
REMARK SMILES IDX 51 78 52 79 76 80 77 81 85 82 78 83 80 84 86 85 79 86 81 87
REMARK SMILES IDX 82 88 83 89 84 90 61 91 62 92 70 93 63 94 65 95 71 96 64 97
REMARK SMILES IDX 66 98 67 99 68 100 69 101
REMARK H PARENT 6 16 13 27 91 54 59 65
REMARK Flexibility Score: inf
ROOT
ATOM      1  C   UNL A   1      35.398  32.618  28.208  1.00  0.00     0.188 C 
ENDROOT
BRANCH   1   2
ATOM      2  C   UNL A   1      34.696  31.331  27.743  1.00  0.00     0.188 C 
BRANCH   2   3
ATOM      3  O   UNL A   1      33.286  31.211  27.811  1.00  0.00    -0.376 OA
BRANCH   3   4
ATOM      4  C   UNL A   1      32.602  30.238  27.027  1.00  0.00     0.202 C 
BRANCH   4   5
ATOM      5  C   UNL A   1      33.383  29.487  25.958  1.00  0.00     0.261 C 
BRANCH   5   6
ATOM      6  O   UNL A   1      32.753  29.633  24.675  1.00  0.00    -0.462 OA
BRANCH   6   7
ATOM      7  C   UNL A   1      33.173  28.776  23.714  1.00  0.00     0.328 C 
ATOM      8  O   UNL A   1      34.129  28.986  22.973  1.00  0.00    -0.250 OA
BRANCH   7   9
ATOM      9  C   UNL A   1      32.279  27.531  23.578  1.00  0.00     0.192 C 
BRANCH   9  10
ATOM     10  C   UNL A   1      30.829  27.614  24.089  1.00  0.00     0.040 C 
BRANCH  10  11
ATOM     11  C   UNL A   1      30.407  26.496  25.079  1.00  0.00    -0.015 C 
ATOM     12  C   UNL A   1      30.260  25.134  24.390  1.00  0.00     0.007 C 
ATOM     13  C   UNL A   1      31.440  26.353  26.205  1.00  0.00     0.007 C 
ENDBRANCH  10  11
ENDBRANCH   9  10
BRANCH   9  14
ATOM     14  N   UNL A   1      32.441  26.799  22.322  1.00  0.00    -0.341 N 
ATOM     15  C   UNL A   1      33.246  25.778  21.915  1.00  0.00     0.242 C 
ATOM     16  H   UNL A   1      31.832  27.113  21.614  1.00  0.00     0.164 HD
ATOM     17  O   UNL A   1      33.265  25.574  20.697  1.00  0.00    -0.273 OA
BRANCH  15  18
ATOM     18  C   UNL A   1      34.010  24.865  22.878  1.00  0.00     0.248 C 
BRANCH  18  19
ATOM     19  N   UNL A   1      33.333  23.633  23.265  1.00  0.00    -0.217 N 
ATOM     20  N   UNL A   1      32.749  22.921  22.240  1.00  0.00    -0.131 NA
ATOM     21  C   UNL A   1      33.461  23.124  24.561  1.00  0.00     0.267 A 
ATOM     22  C   UNL A   1      32.254  21.787  22.567  1.00  0.00     0.229 A 
ATOM     23  C   UNL A   1      32.776  21.830  24.834  1.00  0.00     0.079 A 
ATOM     24  O   UNL A   1      34.089  23.661  25.467  1.00  0.00    -0.268 OA
ATOM     25  C   UNL A   1      32.158  21.161  23.862  1.00  0.00     0.075 A 
BRANCH  22  26
ATOM     26  O   UNL A   1      31.740  20.991  21.644  1.00  0.00    -0.492 OA
ATOM     27  H   UNL A   1      32.305  20.522  21.063  1.00  0.00     0.295 HD
ENDBRANCH  22  26
ENDBRANCH  18  19
ENDBRANCH  15  18
ENDBRANCH   9  14
ENDBRANCH   7   9
ENDBRANCH   6   7
ENDBRANCH   5   6
ENDBRANCH   4   5
ENDBRANCH   3   4
ENDBRANCH   2   3
ENDBRANCH   1   2
BRANCH   1  28
ATOM     28  O   UNL A   1      35.201  33.858  27.576  1.00  0.00    -0.377 OA
BRANCH  28  29
ATOM     29  C   UNL A   1      34.487  34.916  28.186  1.00  0.00     0.188 C 
BRANCH  29  30
ATOM     30  C   UNL A   1      33.232  34.630  28.998  1.00  0.00     0.188 C 
BRANCH  30  31
ATOM     31  O   UNL A   1      32.531  35.808  29.350  1.00  0.00    -0.376 OA
BRANCH  31  32
ATOM     32  C   UNL A   1      33.279  36.744  30.112  1.00  0.00     0.202 C 
BRANCH  32  33
ATOM     33  C   UNL A   1      33.087  36.789  31.642  1.00  0.00     0.261 C 
BRANCH  33  34
ATOM     34  O   UNL A   1      33.998  36.049  32.472  1.00  0.00    -0.460 OA
BRANCH  34  35
ATOM     35  C   UNL A   1      33.783  34.729  32.658  1.00  0.00     0.338 C 
ATOM     36  O   UNL A   1      32.701  34.197  32.851  1.00  0.00    -0.246 OA
BRANCH  35  37
ATOM     37  C   UNL A   1      35.063  34.008  32.423  1.00  0.00     0.060 A 
ATOM     38  C   UNL A   1      36.059  34.558  31.611  1.00  0.00     0.016 A 
ATOM     39  C   UNL A   1      35.266  32.754  33.018  1.00  0.00     0.016 A 
ATOM     40  C   UNL A   1      37.268  33.870  31.430  1.00  0.00     0.010 A 
ATOM     41  C   UNL A   1      36.466  32.058  32.817  1.00  0.00     0.010 A 
ATOM     42  C   UNL A   1      37.496  32.627  32.055  1.00  0.00    -0.014 A 
BRANCH  42  43
ATOM     43  C   UNL A   1      38.887  32.099  32.154  1.00  0.00     0.031 A 
ATOM     44  C   UNL A   1      39.515  31.187  31.140  1.00  0.00     0.074 A 
ATOM     45  C   UNL A   1      39.593  32.457  33.247  1.00  0.00     0.049 A 
ATOM     46  N   UNL A   1      40.761  30.785  31.072  1.00  0.00    -0.248 NA
ATOM     47  C   UNL A   1      38.655  30.648  30.078  1.00  0.00     0.031 C 
ATOM     48  C   UNL A   1      39.062  33.258  34.353  1.00  0.00     0.029 A 
ATOM     49  N   UNL A   1      40.890  32.201  33.615  1.00  0.00    -0.354 N 
ATOM     50  C   UNL A   1      40.842  29.952  29.963  1.00  0.00     0.074 A 
ATOM     51  C   UNL A   1      39.509  29.890  29.395  1.00  0.00     0.031 C 
ATOM     52  C   UNL A   1      40.027  33.448  35.262  1.00  0.00     0.029 A 
ATOM     53  C   UNL A   1      41.242  32.775  34.813  1.00  0.00     0.049 A 
ATOM     54  H   UNL A   1      41.507  31.659  33.073  1.00  0.00     0.167 HD
ATOM     55  C   UNL A   1      41.932  29.320  29.461  1.00  0.00     0.034 A 
ATOM     56  C   UNL A   1      42.411  32.777  35.484  1.00  0.00     0.034 A 
ATOM     57  C   UNL A   1      43.253  29.384  30.035  1.00  0.00     0.049 A 
ATOM     58  C   UNL A   1      43.607  32.097  34.891  1.00  0.00     0.074 A 
ATOM     59  C   UNL A   1      44.427  28.837  29.541  1.00  0.00     0.029 A 
ATOM     60  N   UNL A   1      43.579  30.004  31.231  1.00  0.00    -0.354 N 
ATOM     61  N   UNL A   1      43.701  31.465  33.748  1.00  0.00    -0.248 NA
ATOM     62  C   UNL A   1      44.861  32.150  35.657  1.00  0.00     0.031 C 
ATOM     63  C   UNL A   1      45.456  29.109  30.447  1.00  0.00     0.029 A 
ATOM     64  C   UNL A   1      44.929  29.843  31.495  1.00  0.00     0.049 A 
ATOM     65  H   UNL A   1      42.944  30.488  31.806  1.00  0.00     0.167 HD
ATOM     66  C   UNL A   1      45.025  31.056  33.650  1.00  0.00     0.074 A 
ATOM     67  C   UNL A   1      45.702  31.524  34.841  1.00  0.00     0.031 C 
ATOM     68  C   UNL A   1      45.612  30.341  32.661  1.00  0.00     0.034 A 
BRANCH  55  69
ATOM     69  C   UNL A   1      41.797  28.557  28.168  1.00  0.00     0.023 A 
ATOM     70  C   UNL A   1      41.846  29.273  26.956  1.00  0.00     0.012 A 
ATOM     71  C   UNL A   1      41.806  27.148  28.140  1.00  0.00     0.148 A 
ATOM     72  C   UNL A   1      41.903  28.602  25.735  1.00  0.00     0.002 A 
ATOM     73  C   UNL A   1      41.886  26.484  26.920  1.00  0.00     0.091 A 
ATOM     74  F   UNL A   1      41.769  26.487  29.306  1.00  0.00    -0.205 F 
ATOM     75  C   UNL A   1      41.934  27.209  25.718  1.00  0.00     0.022 A 
BRANCH  73  76
ATOM     76  S   UNL A   1      41.982  24.694  26.782  1.00  0.00     0.127 S 
ATOM     77  O   UNL A   1      42.012  24.511  25.331  1.00  0.00    -0.237 OA
ATOM     78  O   UNL A   1      43.243  24.399  27.460  1.00  0.00    -0.237 OA
ATOM     79  O   UNL A   1      40.793  24.173  27.442  1.00  0.00    -0.744 OA
ENDBRANCH  73  76
ENDBRANCH  55  69
BRANCH  56  80
ATOM     80  C   UNL A   1      42.496  33.522  36.767  1.00  0.00     0.023 A 
ATOM     81  C   UNL A   1      42.822  34.890  36.754  1.00  0.00     0.012 A 
ATOM     82  C   UNL A   1      42.150  32.901  37.983  1.00  0.00     0.148 A 
ATOM     83  C   UNL A   1      42.804  35.631  37.937  1.00  0.00     0.002 A 
ATOM     84  C   UNL A   1      42.096  33.653  39.150  1.00  0.00     0.091 A 
ATOM     85  F   UNL A   1      41.837  31.598  37.961  1.00  0.00    -0.205 F 
ATOM     86  C   UNL A   1      42.432  35.017  39.130  1.00  0.00     0.022 A 
BRANCH  84  87
ATOM     87  S   UNL A   1      41.531  32.975  40.713  1.00  0.00     0.127 S 
ATOM     88  O   UNL A   1      42.229  33.826  41.675  1.00  0.00    -0.237 OA
ATOM     89  O   UNL A   1      40.087  33.197  40.628  1.00  0.00    -0.237 OA
ATOM     90  O   UNL A   1      41.932  31.576  40.709  1.00  0.00    -0.744 OA
ENDBRANCH  84  87
ENDBRANCH  56  80
BRANCH  68  91
ATOM     91  C   UNL A   1      47.071  29.998  32.792  1.00  0.00     0.023 A 
ATOM     92  C   UNL A   1      48.036  30.935  32.376  1.00  0.00     0.012 A 
ATOM     93  C   UNL A   1      47.477  28.836  33.477  1.00  0.00     0.148 A 
ATOM     94  C   UNL A   1      49.387  30.726  32.651  1.00  0.00     0.002 A 
ATOM     95  C   UNL A   1      48.821  28.649  33.774  1.00  0.00     0.091 A 
ATOM     96  F   UNL A   1      46.534  27.961  33.859  1.00  0.00    -0.205 F 
ATOM     97  C   UNL A   1      49.776  29.592  33.362  1.00  0.00     0.022 A 
BRANCH  95  98
ATOM     98  S   UNL A   1      49.419  27.257  34.739  1.00  0.00     0.127 S 
ATOM     99  O   UNL A   1      48.665  27.409  35.982  1.00  0.00    -0.237 OA
ATOM    100  O   UNL A   1      49.017  26.118  33.915  1.00  0.00    -0.237 OA
ATOM    101  O   UNL A   1      50.859  27.443  34.870  1.00  0.00    -0.744 OA
ENDBRANCH  95  98
ENDBRANCH  68  91
ENDBRANCH  42  43
ENDBRANCH  35  37
ENDBRANCH  34  35
ENDBRANCH  33  34
ENDBRANCH  32  33
ENDBRANCH  31  32
ENDBRANCH  30  31
ENDBRANCH  29  30
ENDBRANCH  28  29
ENDBRANCH   1  28
TORSDOF 29
ENDMDL
MODEL 2
REMARK VINA RESULT:      -8.4      2.139      2.819
REMARK SMILES CC(C)C[C@@H](NC(=O)Cn1nc(O)ccc1=O)C(=O)OCCOCCOCCOCCOC(=O)c1ccc(-c2c3nc(c(-c4cccc(S(=O)(=O)[O-])c4F)c4ccc([nH]4)c(-c4cccc(S(=O)(=O)[O-])c4F)c4nc(c(-c5cccc(S(=O)(=O)[O-])c5F)c5ccc2[nH]5)C=C4)C=C3)cc1
REMARK SMILES IDX 25 1 24 2 23 3 22 4 21 5 20 6 18 7 19 8 5 9 4 10 2 11 1 12
REMARK SMILES IDX 3 13 6 14 7 15 8 17 9 18 10 19 11 20 16 21 12 22 15 23 17 24
REMARK SMILES IDX 14 25 13 26 26 28 27 29 28 30 29 31 30 32 31 33 32 34 33 35
REMARK SMILES IDX 34 36 35 37 36 38 97 39 37 40 96 41 38 42 39 43 40 44 90 45
REMARK SMILES IDX 41 46 95 47 89 48 91 49 42 50 94 51 88 52 87 53 43 55 75 56
REMARK SMILES IDX 55 57 74 58 56 59 59 60 73 61 92 62 57 63 58 64 72 66 93 67
REMARK SMILES IDX 60 68 44 69 45 70 53 71 46 72 48 73 54 74 47 75 49 76 50 77
REMARK SMILES IDX 51 78 52 79 76 80 77 81 85 82 78 83 80 84 86 85 79 86 81 87
REMARK SMILES IDX 82 88 83 89 84 90 61 91 62 92 70 93 63 94 65 95 71 96 64 97
REMARK SMILES IDX 66 98 67 99 68 100 69 101
REMARK H PARENT 6 16 13 27 91 54 59 65
REMARK Flexibility Score: inf
ROOT
ATOM      1  C   UNL A   1      35.180  32.413  28.040  1.00  0.00     0.188 C 
ENDROOT
BRANCH   1   2
ATOM      2  C   UNL A   1      34.172  31.258  27.930  1.00  0.00     0.188 C 
BRANCH   2   3
ATOM      3  O   UNL A   1      34.266  30.313  26.879  1.00  0.00    -0.376 OA
BRANCH   3   4
ATOM      4  C   UNL A   1      33.155  29.488  26.542  1.00  0.00     0.202 C 
BRANCH   4   5
ATOM      5  C   UNL A   1      33.253  27.993  26.810  1.00  0.00     0.261 C 
BRANCH   5   6
ATOM      6  O   UNL A   1      33.996  27.340  25.768  1.00  0.00    -0.462 OA
BRANCH   6   7
ATOM      7  C   UNL A   1      33.603  26.079  25.469  1.00  0.00     0.328 C 
ATOM      8  O   UNL A   1      33.887  25.091  26.139  1.00  0.00    -0.250 OA
BRANCH   7   9
ATOM      9  C   UNL A   1      32.824  25.984  24.145  1.00  0.00     0.192 C 
BRANCH   9  10
ATOM     10  C   UNL A   1      33.483  26.536  22.868  1.00  0.00     0.040 C 
BRANCH  10  11
ATOM     11  C   UNL A   1      33.013  27.950  22.434  1.00  0.00    -0.015 C 
ATOM     12  C   UNL A   1      31.696  28.357  23.105  1.00  0.00     0.007 C 
ATOM     13  C   UNL A   1      34.073  29.002  22.786  1.00  0.00     0.007 C 
ENDBRANCH  10  11
ENDBRANCH   9  10
BRANCH   9  14
ATOM     14  N   UNL A   1      32.091  24.731  23.958  1.00  0.00    -0.341 N 
ATOM     15  C   UNL A   1      32.343  23.576  23.281  1.00  0.00     0.242 C 
ATOM     16  H   UNL A   1      31.225  24.721  24.427  1.00  0.00     0.164 HD
ATOM     17  O   UNL A   1      31.377  22.816  23.157  1.00  0.00    -0.273 OA
BRANCH  15  18
ATOM     18  C   UNL A   1      33.732  23.170  22.784  1.00  0.00     0.248 C 
BRANCH  18  19
ATOM     19  N   UNL A   1      34.657  22.674  23.797  1.00  0.00    -0.217 N 
ATOM     20  N   UNL A   1      34.079  22.076  24.895  1.00  0.00    -0.131 NA
ATOM     21  C   UNL A   1      36.033  22.633  23.550  1.00  0.00     0.267 A 
ATOM     22  C   UNL A   1      34.893  21.544  25.726  1.00  0.00     0.229 A 
ATOM     23  C   UNL A   1      36.881  22.054  24.629  1.00  0.00     0.079 A 
ATOM     24  O   UNL A   1      36.574  23.030  22.525  1.00  0.00    -0.268 OA
ATOM     25  C   UNL A   1      36.335  21.525  25.723  1.00  0.00     0.075 A 
BRANCH  22  26
ATOM     26  O   UNL A   1      34.438  20.877  26.774  1.00  0.00    -0.492 OA
ATOM     27  H   UNL A   1      34.393  19.942  26.751  1.00  0.00     0.295 HD
ENDBRANCH  22  26
ENDBRANCH  18  19
ENDBRANCH  15  18
ENDBRANCH   9  14
ENDBRANCH   7   9
ENDBRANCH   6   7
ENDBRANCH   5   6
ENDBRANCH   4   5
ENDBRANCH   3   4
ENDBRANCH   2   3
ENDBRANCH   1   2
BRANCH   1  28
ATOM     28  O   UNL A   1      34.942  33.683  27.483  1.00  0.00    -0.377 OA
BRANCH  28  29
ATOM     29  C   UNL A   1      34.388  34.747  28.232  1.00  0.00     0.188 C 
BRANCH  29  30
ATOM     30  C   UNL A   1      32.943  34.685  28.705  1.00  0.00     0.188 C 
BRANCH  30  31
ATOM     31  O   UNL A   1      32.557  35.837  29.430  1.00  0.00    -0.376 OA
BRANCH  31  32
ATOM     32  C   UNL A   1      33.492  36.271  30.407  1.00  0.00     0.202 C 
BRANCH  32  33
ATOM     33  C   UNL A   1      33.739  35.390  31.650  1.00  0.00     0.261 C 
BRANCH  33  34
ATOM     34  O   UNL A   1      34.894  34.535  31.669  1.00  0.00    -0.460 OA
BRANCH  34  35
ATOM     35  C   UNL A   1      34.754  33.262  32.097  1.00  0.00     0.338 C 
ATOM     36  O   UNL A   1      33.725  32.754  32.516  1.00  0.00    -0.246 OA
BRANCH  35  37
ATOM     37  C   UNL A   1      36.019  32.532  31.819  1.00  0.00     0.060 A 
ATOM     38  C   UNL A   1      37.023  33.107  31.035  1.00  0.00     0.016 A 
ATOM     39  C   UNL A   1      36.200  31.243  32.344  1.00  0.00     0.016 A 
ATOM     40  C   UNL A   1      38.219  32.408  30.812  1.00  0.00     0.010 A 
ATOM     41  C   UNL A   1      37.386  30.537  32.100  1.00  0.00     0.010 A 
ATOM     42  C   UNL A   1      38.425  31.128  31.367  1.00  0.00    -0.014 A 
BRANCH  42  43
ATOM     43  C   UNL A   1      39.806  30.570  31.432  1.00  0.00     0.031 A 
ATOM     44  C   UNL A   1      40.343  29.540  30.481  1.00  0.00     0.074 A 
ATOM     45  C   UNL A   1      40.592  31.015  32.436  1.00  0.00     0.049 A 
ATOM     46  N   UNL A   1      41.571  29.093  30.377  1.00  0.00    -0.248 NA
ATOM     47  C   UNL A   1      39.401  28.922  29.537  1.00  0.00     0.031 C 
ATOM     48  C   UNL A   1      40.154  31.941  33.484  1.00  0.00     0.029 A 
ATOM     49  N   UNL A   1      41.903  30.757  32.745  1.00  0.00    -0.354 N 
ATOM     50  C   UNL A   1      41.559  28.149  29.358  1.00  0.00     0.074 A 
ATOM     51  C   UNL A   1      40.190  28.072  28.884  1.00  0.00     0.031 C 
ATOM     52  C   UNL A   1      41.182  32.193  34.305  1.00  0.00     0.029 A 
ATOM     53  C   UNL A   1      42.348  31.440  33.853  1.00  0.00     0.049 A 
ATOM     54  H   UNL A   1      42.470  30.144  32.225  1.00  0.00     0.167 HD
ATOM     55  C   UNL A   1      42.597  27.436  28.856  1.00  0.00     0.034 A 
ATOM     56  C   UNL A   1      43.558  31.475  34.445  1.00  0.00     0.034 A 
ATOM     57  C   UNL A   1      43.954  27.517  29.336  1.00  0.00     0.049 A 
ATOM     58  C   UNL A   1      44.695  30.700  33.850  1.00  0.00     0.074 A 
ATOM     59  C   UNL A   1      45.079  26.886  28.828  1.00  0.00     0.029 A 
ATOM     60  N   UNL A   1      44.373  28.245  30.437  1.00  0.00    -0.354 N 
ATOM     61  N   UNL A   1      44.698  29.952  32.776  1.00  0.00    -0.248 NA
ATOM     62  C   UNL A   1      45.998  30.791  34.526  1.00  0.00     0.031 C 
ATOM     63  C   UNL A   1      46.172  27.217  29.634  1.00  0.00     0.029 A 
ATOM     64  C   UNL A   1      45.734  28.070  30.631  1.00  0.00     0.049 A 
ATOM     65  H   UNL A   1      43.790  28.806  30.999  1.00  0.00     0.167 HD
ATOM     66  C   UNL A   1      46.002  29.493  32.637  1.00  0.00     0.074 A 
ATOM     67  C   UNL A   1      46.767  30.059  33.728  1.00  0.00     0.031 C 
ATOM     68  C   UNL A   1      46.504  28.663  31.693  1.00  0.00     0.034 A 
BRANCH  55  69
ATOM     69  C   UNL A   1      42.357  26.549  27.661  1.00  0.00     0.023 A 
ATOM     70  C   UNL A   1      42.566  27.084  26.374  1.00  0.00     0.012 A 
ATOM     71  C   UNL A   1      42.111  25.169  27.805  1.00  0.00     0.148 A 
ATOM     72  C   UNL A   1      42.530  26.262  25.249  1.00  0.00     0.002 A 
ATOM     73  C   UNL A   1      42.100  24.350  26.680  1.00  0.00     0.091 A 
ATOM     74  F   UNL A   1      41.927  24.680  29.040  1.00  0.00    -0.205 F 
ATOM     75  C   UNL A   1      42.309  24.895  25.402  1.00  0.00     0.022 A 
BRANCH  73  76
ATOM     76  S   UNL A   1      41.873  22.569  26.767  1.00  0.00     0.127 S 
ATOM     77  O   UNL A   1      40.462  22.470  27.138  1.00  0.00    -0.237 OA
ATOM     78  O   UNL A   1      42.173  22.152  25.398  1.00  0.00    -0.237 OA
ATOM     79  O   UNL A   1      42.809  22.089  27.774  1.00  0.00    -0.744 OA
ENDBRANCH  73  76
ENDBRANCH  55  69
BRANCH  56  80
ATOM     80  C   UNL A   1      43.746  32.343  35.635  1.00  0.00     0.023 A 
ATOM     81  C   UNL A   1      44.138  33.683  35.461  1.00  0.00     0.012 A 
ATOM     82  C   UNL A   1      43.434  31.873  36.925  1.00  0.00     0.148 A 
ATOM     83  C   UNL A   1      44.218  34.543  36.556  1.00  0.00     0.002 A 
ATOM     84  C   UNL A   1      43.478  32.744  38.006  1.00  0.00     0.091 A 
ATOM     85  F   UNL A   1      43.056  30.593  37.057  1.00  0.00    -0.205 F 
ATOM     86  C   UNL A   1      43.878  34.079  37.824  1.00  0.00     0.022 A 
BRANCH  84  87
ATOM     87  S   UNL A   1      42.961  32.266  39.657  1.00  0.00     0.127 S 
ATOM     88  O   UNL A   1      43.167  33.505  40.403  1.00  0.00    -0.237 OA
ATOM     89  O   UNL A   1      41.561  31.903  39.437  1.00  0.00    -0.237 OA
ATOM     90  O   UNL A   1      43.824  31.156  40.038  1.00  0.00    -0.744 OA
ENDBRANCH  84  87
ENDBRANCH  56  80
BRANCH  68  91
ATOM     91  C   UNL A   1      47.960  28.290  31.766  1.00  0.00     0.023 A 
ATOM     92  C   UNL A   1      48.334  27.119  32.453  1.00  0.00     0.012 A 
ATOM     93  C   UNL A   1      48.921  28.996  31.016  1.00  0.00     0.148 A 
ATOM     94  C   UNL A   1      49.645  26.649  32.383  1.00  0.00     0.002 A 
ATOM     95  C   UNL A   1      50.217  28.505  30.927  1.00  0.00     0.091 A 
ATOM     96  F   UNL A   1      48.534  30.108  30.373  1.00  0.00    -0.205 F 
ATOM     97  C   UNL A   1      50.581  27.332  31.610  1.00  0.00     0.022 A 
BRANCH  95  98
ATOM     98  S   UNL A   1      51.480  29.273  29.907  1.00  0.00     0.127 S 
ATOM     99  O   UNL A   1      50.827  29.309  28.599  1.00  0.00    -0.237 OA
ATOM    100  O   UNL A   1      51.639  30.578  30.547  1.00  0.00    -0.237 OA
ATOM    101  O   UNL A   1      52.648  28.405  29.983  1.00  0.00    -0.744 OA
ENDBRANCH  95  98
ENDBRANCH  68  91
ENDBRANCH  42  43
ENDBRANCH  35  37
ENDBRANCH  34  35
ENDBRANCH  33  34
ENDBRANCH  32  33
ENDBRANCH  31  32
ENDBRANCH  30  31
ENDBRANCH  29  30
ENDBRANCH  28  29
ENDBRANCH   1  28
TORSDOF 29
ENDMDL
MODEL 3
REMARK VINA RESULT:      -8.4      2.952      4.414
REMARK SMILES CC(C)C[C@@H](NC(=O)Cn1nc(O)ccc1=O)C(=O)OCCOCCOCCOCCOC(=O)c1ccc(-c2c3nc(c(-c4cccc(S(=O)(=O)[O-])c4F)c4ccc([nH]4)c(-c4cccc(S(=O)(=O)[O-])c4F)c4nc(c(-c5cccc(S(=O)(=O)[O-])c5F)c5ccc2[nH]5)C=C4)C=C3)cc1
REMARK SMILES IDX 25 1 24 2 23 3 22 4 21 5 20 6 18 7 19 8 5 9 4 10 2 11 1 12
REMARK SMILES IDX 3 13 6 14 7 15 8 17 9 18 10 19 11 20 16 21 12 22 15 23 17 24
REMARK SMILES IDX 14 25 13 26 26 28 27 29 28 30 29 31 30 32 31 33 32 34 33 35
REMARK SMILES IDX 34 36 35 37 36 38 97 39 37 40 96 41 38 42 39 43 40 44 90 45
REMARK SMILES IDX 41 46 95 47 89 48 91 49 42 50 94 51 88 52 87 53 43 55 75 56
REMARK SMILES IDX 55 57 74 58 56 59 59 60 73 61 92 62 57 63 58 64 72 66 93 67
REMARK SMILES IDX 60 68 44 69 45 70 53 71 46 72 48 73 54 74 47 75 49 76 50 77
REMARK SMILES IDX 51 78 52 79 76 80 77 81 85 82 78 83 80 84 86 85 79 86 81 87
REMARK SMILES IDX 82 88 83 89 84 90 61 91 62 92 70 93 63 94 65 95 71 96 64 97
REMARK SMILES IDX 66 98 67 99 68 100 69 101
REMARK H PARENT 6 16 13 27 91 54 59 65
REMARK Flexibility Score: inf
ROOT
ATOM      1  C   UNL A   1      35.393  31.934  27.677  1.00  0.00     0.188 C 
ENDROOT
BRANCH   1   2
ATOM      2  C   UNL A   1      34.100  31.103  27.676  1.00  0.00     0.188 C 
BRANCH   2   3
ATOM      3  O   UNL A   1      32.901  31.630  27.139  1.00  0.00    -0.376 OA
BRANCH   3   4
ATOM      4  C   UNL A   1      31.801  30.775  26.839  1.00  0.00     0.202 C 
BRANCH   4   5
ATOM      5  C   UNL A   1      31.820  30.002  25.528  1.00  0.00     0.261 C 
BRANCH   5   6
ATOM      6  O   UNL A   1      31.963  28.593  25.774  1.00  0.00    -0.462 OA
BRANCH   6   7
ATOM      7  C   UNL A   1      33.077  28.018  25.261  1.00  0.00     0.328 C 
ATOM      8  O   UNL A   1      34.014  28.643  24.774  1.00  0.00    -0.250 OA
BRANCH   7   9
ATOM      9  C   UNL A   1      33.025  26.480  25.271  1.00  0.00     0.192 C 
BRANCH   9  10
ATOM     10  C   UNL A   1      34.310  25.708  25.619  1.00  0.00     0.040 C 
BRANCH  10  11
ATOM     11  C   UNL A   1      34.567  24.429  24.779  1.00  0.00    -0.015 C 
ATOM     12  C   UNL A   1      33.873  23.195  25.370  1.00  0.00     0.007 C 
ATOM     13  C   UNL A   1      34.063  24.617  23.341  1.00  0.00     0.007 C 
ENDBRANCH  10  11
ENDBRANCH   9  10
BRANCH   9  14
ATOM     14  N   UNL A   1      31.802  25.916  25.843  1.00  0.00    -0.341 N 
ATOM     15  C   UNL A   1      30.529  25.753  25.387  1.00  0.00     0.242 C 
ATOM     16  H   UNL A   1      31.928  25.579  26.760  1.00  0.00     0.164 HD
ATOM     17  O   UNL A   1      29.696  25.445  26.247  1.00  0.00    -0.273 OA
BRANCH  15  18
ATOM     18  C   UNL A   1      30.139  25.838  23.910  1.00  0.00     0.248 C 
BRANCH  18  19
ATOM     19  N   UNL A   1      29.636  27.129  23.453  1.00  0.00    -0.217 N 
ATOM     20  N   UNL A   1      30.530  27.907  22.753  1.00  0.00    -0.131 NA
ATOM     21  C   UNL A   1      28.276  27.441  23.550  1.00  0.00     0.267 A 
ATOM     22  C   UNL A   1      30.055  28.988  22.259  1.00  0.00     0.229 A 
ATOM     23  C   UNL A   1      27.861  28.762  23.001  1.00  0.00     0.079 A 
ATOM     24  O   UNL A   1      27.423  26.713  24.044  1.00  0.00    -0.268 OA
ATOM     25  C   UNL A   1      28.732  29.549  22.373  1.00  0.00     0.075 A 
BRANCH  22  26
ATOM     26  O   UNL A   1      30.810  29.768  21.504  1.00  0.00    -0.492 OA
ATOM     27  H   UNL A   1      30.473  30.581  21.186  1.00  0.00     0.295 HD
ENDBRANCH  22  26
ENDBRANCH  18  19
ENDBRANCH  15  18
ENDBRANCH   9  14
ENDBRANCH   7   9
ENDBRANCH   6   7
ENDBRANCH   5   6
ENDBRANCH   4   5
ENDBRANCH   3   4
ENDBRANCH   2   3
ENDBRANCH   1   2
BRANCH   1  28
ATOM     28  O   UNL A   1      35.396  33.329  27.859  1.00  0.00    -0.377 OA
BRANCH  28  29
ATOM     29  C   UNL A   1      35.415  33.926  29.141  1.00  0.00     0.188 C 
BRANCH  29  30
ATOM     30  C   UNL A   1      34.133  34.466  29.758  1.00  0.00     0.188 C 
BRANCH  30  31
ATOM     31  O   UNL A   1      34.322  34.946  31.076  1.00  0.00    -0.376 OA
BRANCH  31  32
ATOM     32  C   UNL A   1      35.259  34.213  31.851  1.00  0.00     0.202 C 
BRANCH  32  33
ATOM     33  C   UNL A   1      34.747  33.099  32.788  1.00  0.00     0.261 C 
BRANCH  33  34
ATOM     34  O   UNL A   1      35.693  32.154  33.316  1.00  0.00    -0.460 OA
BRANCH  34  35
ATOM     35  C   UNL A   1      36.824  32.617  33.889  1.00  0.00     0.338 C 
ATOM     36  O   UNL A   1      36.892  33.478  34.754  1.00  0.00    -0.246 OA
BRANCH  35  37
ATOM     37  C   UNL A   1      37.964  31.789  33.412  1.00  0.00     0.060 A 
ATOM     38  C   UNL A   1      39.026  32.365  32.709  1.00  0.00     0.016 A 
ATOM     39  C   UNL A   1      37.964  30.409  33.663  1.00  0.00     0.016 A 
ATOM     40  C   UNL A   1      40.102  31.565  32.296  1.00  0.00     0.010 A 
ATOM     41  C   UNL A   1      39.030  29.608  33.229  1.00  0.00     0.010 A 
ATOM     42  C   UNL A   1      40.129  30.184  32.577  1.00  0.00    -0.014 A 
BRANCH  42  43
ATOM     43  C   UNL A   1      41.415  29.437  32.465  1.00  0.00     0.031 A 
ATOM     44  C   UNL A   1      41.787  28.574  31.295  1.00  0.00     0.074 A 
ATOM     45  C   UNL A   1      42.267  29.539  33.507  1.00  0.00     0.049 A 
ATOM     46  N   UNL A   1      42.936  27.993  31.047  1.00  0.00    -0.248 NA
ATOM     47  C   UNL A   1      40.756  28.314  30.280  1.00  0.00     0.031 C 
ATOM     48  C   UNL A   1      41.979  30.267  34.746  1.00  0.00     0.029 A 
ATOM     49  N   UNL A   1      43.530  29.039  33.700  1.00  0.00    -0.354 N 
ATOM     50  C   UNL A   1      42.776  27.305  29.851  1.00  0.00     0.074 A 
ATOM     51  C   UNL A   1      41.406  27.524  29.429  1.00  0.00     0.031 C 
ATOM     52  C   UNL A   1      43.041  30.188  35.559  1.00  0.00     0.029 A 
ATOM     53  C   UNL A   1      44.080  29.396  34.909  1.00  0.00     0.049 A 
ATOM     54  H   UNL A   1      43.996  28.480  33.038  1.00  0.00     0.167 HD
ATOM     55  C   UNL A   1      43.695  26.579  29.166  1.00  0.00     0.034 A 
ATOM     56  C   UNL A   1      45.288  29.131  35.444  1.00  0.00     0.034 A 
ATOM     57  C   UNL A   1      45.054  26.363  29.596  1.00  0.00     0.049 A 
ATOM     58  C   UNL A   1      46.294  28.352  34.652  1.00  0.00     0.074 A 
ATOM     59  C   UNL A   1      46.070  25.706  28.919  1.00  0.00     0.029 A 
ATOM     60  N   UNL A   1      45.585  26.769  30.809  1.00  0.00    -0.354 N 
ATOM     61  N   UNL A   1      46.178  27.863  33.444  1.00  0.00    -0.248 NA
ATOM     62  C   UNL A   1      47.603  28.112  35.278  1.00  0.00     0.031 C 
ATOM     63  C   UNL A   1      47.207  25.698  29.732  1.00  0.00     0.029 A 
ATOM     64  C   UNL A   1      46.907  26.366  30.905  1.00  0.00     0.049 A 
ATOM     65  H   UNL A   1      45.095  27.269  31.501  1.00  0.00     0.167 HD
ATOM     66  C   UNL A   1      47.399  27.268  33.157  1.00  0.00     0.074 A 
ATOM     67  C   UNL A   1      48.250  27.470  34.311  1.00  0.00     0.031 C 
ATOM     68  C   UNL A   1      47.766  26.601  32.037  1.00  0.00     0.034 A 
BRANCH  55  69
ATOM     69  C   UNL A   1      43.317  26.016  27.820  1.00  0.00     0.023 A 
ATOM     70  C   UNL A   1      43.573  26.790  26.671  1.00  0.00     0.012 A 
ATOM     71  C   UNL A   1      42.890  24.680  27.674  1.00  0.00     0.148 A 
ATOM     72  C   UNL A   1      43.407  26.248  25.397  1.00  0.00     0.002 A 
ATOM     73  C   UNL A   1      42.749  24.138  26.400  1.00  0.00     0.091 A 
ATOM     74  F   UNL A   1      42.663  23.959  28.781  1.00  0.00    -0.205 F 
ATOM     75  C   UNL A   1      43.006  24.921  25.262  1.00  0.00     0.022 A 
BRANCH  73  76
ATOM     76  S   UNL A   1      42.286  22.426  26.109  1.00  0.00     0.127 S 
ATOM     77  O   UNL A   1      42.839  22.193  24.775  1.00  0.00    -0.237 OA
ATOM     78  O   UNL A   1      42.984  21.729  27.189  1.00  0.00    -0.237 OA
ATOM     79  O   UNL A   1      40.832  22.380  26.188  1.00  0.00    -0.744 OA
ENDBRANCH  73  76
ENDBRANCH  55  69
BRANCH  56  80
ATOM     80  C   UNL A   1      45.612  29.685  36.784  1.00  0.00     0.023 A 
ATOM     81  C   UNL A   1      45.960  31.042  36.907  1.00  0.00     0.012 A 
ATOM     82  C   UNL A   1      45.471  28.896  37.942  1.00  0.00     0.148 A 
ATOM     83  C   UNL A   1      46.165  31.607  38.166  1.00  0.00     0.002 A 
ATOM     84  C   UNL A   1      45.639  29.474  39.194  1.00  0.00     0.091 A 
ATOM     85  F   UNL A   1      45.131  27.608  37.792  1.00  0.00    -0.205 F 
ATOM     86  C   UNL A   1      45.994  30.828  39.308  1.00  0.00     0.022 A 
BRANCH  84  87
ATOM     87  S   UNL A   1      45.341  28.578  40.720  1.00  0.00     0.127 S 
ATOM     88  O   UNL A   1      46.702  28.344  41.197  1.00  0.00    -0.237 OA
ATOM     89  O   UNL A   1      44.576  29.555  41.495  1.00  0.00    -0.237 OA
ATOM     90  O   UNL A   1      44.597  27.384  40.344  1.00  0.00    -0.744 OA
ENDBRANCH  84  87
ENDBRANCH  56  80
BRANCH  68  91
ATOM     91  C   UNL A   1      49.153  26.020  31.969  1.00  0.00     0.023 A 
ATOM     92  C   UNL A   1      50.183  26.773  31.373  1.00  0.00     0.012 A 
ATOM     93  C   UNL A   1      49.464  24.822  32.642  1.00  0.00     0.148 A 
ATOM     94  C   UNL A   1      51.507  26.345  31.457  1.00  0.00     0.002 A 
ATOM     95  C   UNL A   1      50.789  24.419  32.747  1.00  0.00     0.091 A 
ATOM     96  F   UNL A   1      48.461  24.127  33.198  1.00  0.00    -0.205 F 
ATOM     97  C   UNL A   1      51.811  25.179  32.155  1.00  0.00     0.022 A 
BRANCH  95  98
ATOM     98  S   UNL A   1      51.292  22.967  33.678  1.00  0.00     0.127 S 
ATOM     99  O   UNL A   1      52.738  23.164  33.778  1.00  0.00    -0.237 OA
ATOM    100  O   UNL A   1      50.563  23.140  34.933  1.00  0.00    -0.237 OA
ATOM    101  O   UNL A   1      50.886  21.815  32.884  1.00  0.00    -0.744 OA
ENDBRANCH  95  98
ENDBRANCH  68  91
ENDBRANCH  42  43
ENDBRANCH  35  37
ENDBRANCH  34  35
ENDBRANCH  33  34
ENDBRANCH  32  33
ENDBRANCH  31  32
ENDBRANCH  30  31
ENDBRANCH  29  30
ENDBRANCH  28  29
ENDBRANCH   1  28
TORSDOF 29
ENDMDL
