MODEL 1
REMARK VINA RESULT:      -5.5      0.000      0.000
REMARK SMILES CCOc1ccc(C(=O)N2CCC(C(=O)OCCOCCOCCOCCOC(=O)c3ccc(-c4c5nc(c(-c6cccc(S(=O)(=O)[O-])c6F)c6ccc([nH]6)c(-c6cccc(S(=O)(=O)[O-])c6F)c6nc(c(-c7cccc(S(=O)(=O)[O-])c7F)c7ccc4[nH]7)C=C6)C=C5)cc3)(c3ccccc3)CC2)cc1OC
REMARK SMILES IDX 22 1 21 2 20 3 19 4 18 5 17 6 16 7 14 8 15 9 13 10 8 11 9 12
REMARK SMILES IDX 10 13 11 14 101 15 12 16 100 17 7 18 4 19 5 20 103 21 6 22
REMARK SMILES IDX 102 23 3 24 2 25 1 26 104 27 105 28 94 29 95 30 99 31 96 32
REMARK SMILES IDX 98 33 97 34 23 35 24 36 25 37 26 38 27 39 28 40 29 41 30 42
REMARK SMILES IDX 31 43 32 44 93 45 33 46 92 47 34 48 35 49 36 50 86 51 37 52
REMARK SMILES IDX 91 53 85 54 87 55 38 56 90 57 84 58 83 59 39 61 71 62 51 63
REMARK SMILES IDX 70 64 52 65 55 66 69 67 88 68 53 69 54 70 68 72 89 73 56 74
REMARK SMILES IDX 40 75 41 76 49 77 42 78 44 79 50 80 43 81 45 82 46 83 47 84
REMARK SMILES IDX 48 85 72 86 73 87 81 88 74 89 76 90 82 91 75 92 77 93 78 94
REMARK SMILES IDX 79 95 80 96 57 97 58 98 66 99 59 100 61 101 67 102 60 103
REMARK SMILES IDX 62 104 63 105 64 106 65 107
REMARK H PARENT 87 60 55 71
REMARK Flexibility Score: inf
ROOT
ATOM      1  O   UNL A   1      47.650  26.814  34.217  1.00  0.00    -0.377 OA
ENDROOT
BRANCH   1   2
ATOM      2  C   UNL A   1      47.104  27.328  33.022  1.00  0.00     0.188 C 
BRANCH   2   3
ATOM      3  C   UNL A   1      48.051  27.422  31.830  1.00  0.00     0.188 C 
BRANCH   3   4
ATOM      4  O   UNL A   1      47.508  27.276  30.540  1.00  0.00    -0.376 OA
BRANCH   4   5
ATOM      5  C   UNL A   1      46.927  26.051  30.117  1.00  0.00     0.202 C 
BRANCH   5   6
ATOM      6  C   UNL A   1      45.708  25.866  29.186  1.00  0.00     0.261 C 
BRANCH   6   7
ATOM      7  O   UNL A   1      44.420  26.263  29.659  1.00  0.00    -0.463 OA
BRANCH   7   8
ATOM      8  C   UNL A   1      43.512  26.654  28.739  1.00  0.00     0.316 C 
ATOM      9  O   UNL A   1      43.265  26.003  27.725  1.00  0.00    -0.251 OA
BRANCH   8  10
ATOM     10  C   UNL A   1      42.826  28.024  29.059  1.00  0.00     0.096 C 
ATOM     11  C   UNL A   1      38.718  29.408  29.862  1.00  0.00     0.253 C 
ATOM     12  O   UNL A   1      37.900  29.407  28.944  1.00  0.00    -0.269 OA
ATOM     13  N   UNL A   1      40.051  28.991  29.698  1.00  0.00    -0.339 N 
ATOM     14  C   UNL A   1      40.644  29.365  28.440  1.00  0.00     0.121 C 
ATOM     15  C   UNL A   1      40.954  28.567  30.770  1.00  0.00     0.121 C 
ATOM     16  C   UNL A   1      41.794  28.488  27.985  1.00  0.00     0.045 C 
ATOM     17  C   UNL A   1      42.038  27.612  30.328  1.00  0.00     0.045 C 
BRANCH  11  18
ATOM     18  C   UNL A   1      38.311  30.056  31.136  1.00  0.00     0.043 A 
ATOM     19  C   UNL A   1      37.455  31.397  33.444  1.00  0.00     0.161 A 
ATOM     20  C   UNL A   1      37.358  29.994  33.352  1.00  0.00     0.051 A 
ATOM     21  C   UNL A   1      37.977  32.127  32.383  1.00  0.00     0.161 A 
ATOM     22  C   UNL A   1      37.806  29.321  32.206  1.00  0.00     0.018 A 
ATOM     23  C   UNL A   1      38.284  31.445  31.216  1.00  0.00     0.064 A 
BRANCH  19  24
ATOM     24  O   UNL A   1      37.057  32.010  34.597  1.00  0.00    -0.490 OA
BRANCH  24  25
ATOM     25  C   UNL A   1      38.101  32.053  35.576  1.00  0.00     0.226 C 
ATOM     26  C   UNL A   1      37.715  33.052  36.655  1.00  0.00     0.049 C 
ENDBRANCH  24  25
ENDBRANCH  19  24
BRANCH  21  27
ATOM     27  O   UNL A   1      38.251  33.451  32.241  1.00  0.00    -0.493 OA
ATOM     28  C   UNL A   1      39.398  33.881  31.543  1.00  0.00     0.278 C 
ENDBRANCH  21  27
ENDBRANCH  11  18
BRANCH  10  29
ATOM     29  C   UNL A   1      43.917  29.134  29.255  1.00  0.00    -0.031 A 
ATOM     30  C   UNL A   1      44.594  29.304  30.485  1.00  0.00     0.005 A 
ATOM     31  C   UNL A   1      44.354  29.963  28.208  1.00  0.00     0.005 A 
ATOM     32  C   UNL A   1      45.649  30.210  30.654  1.00  0.00     0.000 A 
ATOM     33  C   UNL A   1      45.400  30.887  28.376  1.00  0.00     0.000 A 
ATOM     34  C   UNL A   1      46.054  31.004  29.596  1.00  0.00     0.000 A 
ENDBRANCH  10  29
ENDBRANCH   8  10
ENDBRANCH   7   8
ENDBRANCH   6   7
ENDBRANCH   5   6
ENDBRANCH   4   5
ENDBRANCH   3   4
ENDBRANCH   2   3
ENDBRANCH   1   2
BRANCH   1  35
ATOM     35  C   UNL A   1      46.919  25.821  34.923  1.00  0.00     0.188 C 
BRANCH  35  36
ATOM     36  C   UNL A   1      45.563  26.171  35.572  1.00  0.00     0.188 C 
BRANCH  36  37
ATOM     37  O   UNL A   1      45.103  25.261  36.559  1.00  0.00    -0.376 OA
BRANCH  37  38
ATOM     38  C   UNL A   1      43.837  24.638  36.399  1.00  0.00     0.202 C 
BRANCH  38  39
ATOM     39  C   UNL A   1      43.133  24.722  35.034  1.00  0.00     0.261 C 
BRANCH  39  40
ATOM     40  O   UNL A   1      42.951  26.034  34.483  1.00  0.00    -0.460 OA
BRANCH  40  41
ATOM     41  C   UNL A   1      41.777  26.662  34.705  1.00  0.00     0.338 C 
ATOM     42  O   UNL A   1      40.785  26.200  35.245  1.00  0.00    -0.246 OA
BRANCH  41  43
ATOM     43  C   UNL A   1      41.969  28.088  34.376  1.00  0.00     0.060 A 
ATOM     44  C   UNL A   1      43.266  28.552  34.111  1.00  0.00     0.016 A 
ATOM     45  C   UNL A   1      40.878  28.957  34.311  1.00  0.00     0.016 A 
ATOM     46  C   UNL A   1      43.478  29.896  33.813  1.00  0.00     0.010 A 
ATOM     47  C   UNL A   1      41.096  30.310  34.042  1.00  0.00     0.010 A 
ATOM     48  C   UNL A   1      42.402  30.790  33.830  1.00  0.00    -0.014 A 
BRANCH  48  49
ATOM     49  C   UNL A   1      42.671  32.246  33.848  1.00  0.00     0.031 A 
ATOM     50  C   UNL A   1      42.814  32.952  32.527  1.00  0.00     0.074 A 
ATOM     51  C   UNL A   1      42.776  32.928  35.001  1.00  0.00     0.049 A 
ATOM     52  N   UNL A   1      43.093  34.205  32.284  1.00  0.00    -0.248 NA
ATOM     53  C   UNL A   1      42.617  32.133  31.318  1.00  0.00     0.031 C 
ATOM     54  C   UNL A   1      42.637  32.356  36.339  1.00  0.00     0.029 A 
ATOM     55  N   UNL A   1      43.054  34.253  35.227  1.00  0.00    -0.354 N 
ATOM     56  C   UNL A   1      43.142  34.316  30.899  1.00  0.00     0.074 A 
ATOM     57  C   UNL A   1      42.866  33.007  30.355  1.00  0.00     0.031 C 
ATOM     58  C   UNL A   1      42.869  33.319  37.249  1.00  0.00     0.029 A 
ATOM     59  C   UNL A   1      43.202  34.564  36.557  1.00  0.00     0.049 A 
ATOM     60  H   UNL A   1      43.140  34.916  34.505  1.00  0.00     0.167 HD
ATOM     61  C   UNL A   1      43.389  35.415  30.148  1.00  0.00     0.034 A 
ATOM     62  C   UNL A   1      43.594  35.713  37.144  1.00  0.00     0.034 A 
ATOM     63  C   UNL A   1      43.651  36.718  30.693  1.00  0.00     0.049 A 
ATOM     64  C   UNL A   1      43.898  36.913  36.281  1.00  0.00     0.074 A 
ATOM     65  C   UNL A   1      43.865  37.904  30.015  1.00  0.00     0.029 A 
ATOM     66  N   UNL A   1      43.756  37.003  32.045  1.00  0.00    -0.354 N 
ATOM     67  N   UNL A   1      43.828  37.034  34.977  1.00  0.00    -0.248 NA
ATOM     68  C   UNL A   1      44.304  38.145  36.974  1.00  0.00     0.031 C 
ATOM     69  C   UNL A   1      44.145  38.898  30.956  1.00  0.00     0.029 A 
ATOM     70  C   UNL A   1      44.053  38.343  32.222  1.00  0.00     0.049 A 
ATOM     71  H   UNL A   1      43.638  36.349  32.772  1.00  0.00     0.167 HD
ATOM     72  C   UNL A   1      44.142  38.360  34.698  1.00  0.00     0.074 A 
ATOM     73  C   UNL A   1      44.381  39.009  35.971  1.00  0.00     0.031 C 
ATOM     74  C   UNL A   1      44.235  38.985  33.498  1.00  0.00     0.034 A 
BRANCH  61  75
ATOM     75  C   UNL A   1      43.391  35.257  28.652  1.00  0.00     0.023 A 
ATOM     76  C   UNL A   1      42.240  35.585  27.906  1.00  0.00     0.012 A 
ATOM     77  C   UNL A   1      44.557  34.844  27.979  1.00  0.00     0.148 A 
ATOM     78  C   UNL A   1      42.245  35.480  26.515  1.00  0.00     0.002 A 
ATOM     79  C   UNL A   1      44.569  34.789  26.592  1.00  0.00     0.091 A 
ATOM     80  F   UNL A   1      45.632  34.514  28.710  1.00  0.00    -0.205 F 
ATOM     81  C   UNL A   1      43.411  35.096  25.859  1.00  0.00     0.022 A 
BRANCH  79  82
ATOM     82  S   UNL A   1      46.044  34.386  25.650  1.00  0.00     0.127 S 
ATOM     83  O   UNL A   1      45.551  34.480  24.277  1.00  0.00    -0.237 OA
ATOM     84  O   UNL A   1      46.960  35.457  26.045  1.00  0.00    -0.237 OA
ATOM     85  O   UNL A   1      46.444  33.053  26.076  1.00  0.00    -0.744 OA
ENDBRANCH  79  82
ENDBRANCH  61  75
BRANCH  62  86
ATOM     86  C   UNL A   1      43.726  35.795  38.627  1.00  0.00     0.023 A 
ATOM     87  C   UNL A   1      44.871  35.271  39.259  1.00  0.00     0.012 A 
ATOM     88  C   UNL A   1      42.714  36.376  39.416  1.00  0.00     0.148 A 
ATOM     89  C   UNL A   1      44.986  35.287  40.650  1.00  0.00     0.002 A 
ATOM     90  C   UNL A   1      42.861  36.441  40.795  1.00  0.00     0.091 A 
ATOM     91  F   UNL A   1      41.625  36.855  38.797  1.00  0.00    -0.205 F 
ATOM     92  C   UNL A   1      43.986  35.878  41.416  1.00  0.00     0.022 A 
BRANCH  90  93
ATOM     93  S   UNL A   1      41.684  37.291  41.852  1.00  0.00     0.127 S 
ATOM     94  O   UNL A   1      42.275  37.096  43.173  1.00  0.00    -0.237 OA
ATOM     95  O   UNL A   1      41.758  38.660  41.340  1.00  0.00    -0.237 OA
ATOM     96  O   UNL A   1      40.406  36.632  41.629  1.00  0.00    -0.744 OA
ENDBRANCH  90  93
ENDBRANCH  62  86
BRANCH  74  97
ATOM     97  C   UNL A   1      44.556  40.458  33.493  1.00  0.00     0.023 A 
ATOM     98  C   UNL A   1      43.519  41.411  33.490  1.00  0.00     0.012 A 
ATOM     99  C   UNL A   1      45.894  40.896  33.568  1.00  0.00     0.148 A 
ATOM    100  C   UNL A   1      43.808  42.775  33.525  1.00  0.00     0.002 A 
ATOM    101  C   UNL A   1      46.173  42.253  33.659  1.00  0.00     0.091 A 
ATOM    102  F   UNL A   1      46.869  39.975  33.557  1.00  0.00    -0.205 F 
ATOM    103  C   UNL A   1      45.133  43.195  33.622  1.00  0.00     0.022 A 
BRANCH 101 104
ATOM    104  S   UNL A   1      47.840  42.883  33.890  1.00  0.00     0.127 S 
ATOM    105  O   UNL A   1      48.465  42.543  32.613  1.00  0.00    -0.237 OA
ATOM    106  O   UNL A   1      47.605  44.313  34.093  1.00  0.00    -0.237 OA
ATOM    107  O   UNL A   1      48.378  42.187  35.050  1.00  0.00    -0.744 OA
ENDBRANCH 101 104
ENDBRANCH  74  97
ENDBRANCH  48  49
ENDBRANCH  41  43
ENDBRANCH  40  41
ENDBRANCH  39  40
ENDBRANCH  38  39
ENDBRANCH  37  38
ENDBRANCH  36  37
ENDBRANCH  35  36
ENDBRANCH   1  35
TORSDOF 28
ENDMDL
MODEL 2
REMARK VINA RESULT:      -5.1      4.837      7.142
REMARK SMILES CCOc1ccc(C(=O)N2CCC(C(=O)OCCOCCOCCOCCOC(=O)c3ccc(-c4c5nc(c(-c6cccc(S(=O)(=O)[O-])c6F)c6ccc([nH]6)c(-c6cccc(S(=O)(=O)[O-])c6F)c6nc(c(-c7cccc(S(=O)(=O)[O-])c7F)c7ccc4[nH]7)C=C6)C=C5)cc3)(c3ccccc3)CC2)cc1OC
REMARK SMILES IDX 22 1 21 2 20 3 19 4 18 5 17 6 16 7 14 8 15 9 13 10 8 11 9 12
REMARK SMILES IDX 10 13 11 14 101 15 12 16 100 17 7 18 4 19 5 20 103 21 6 22
REMARK SMILES IDX 102 23 3 24 2 25 1 26 104 27 105 28 94 29 95 30 99 31 96 32
REMARK SMILES IDX 98 33 97 34 23 35 24 36 25 37 26 38 27 39 28 40 29 41 30 42
REMARK SMILES IDX 31 43 32 44 93 45 33 46 92 47 34 48 35 49 36 50 86 51 37 52
REMARK SMILES IDX 91 53 85 54 87 55 38 56 90 57 84 58 83 59 39 61 71 62 51 63
REMARK SMILES IDX 70 64 52 65 55 66 69 67 88 68 53 69 54 70 68 72 89 73 56 74
REMARK SMILES IDX 40 75 41 76 49 77 42 78 44 79 50 80 43 81 45 82 46 83 47 84
REMARK SMILES IDX 48 85 72 86 73 87 81 88 74 89 76 90 82 91 75 92 77 93 78 94
REMARK SMILES IDX 79 95 80 96 57 97 58 98 66 99 59 100 61 101 67 102 60 103
REMARK SMILES IDX 62 104 63 105 64 106 65 107
REMARK H PARENT 87 60 55 71
REMARK Flexibility Score: inf
ROOT
ATOM      1  O   UNL A   1      46.024  23.817  24.262  1.00  0.00    -0.377 OA
ENDROOT
BRANCH   1   2
ATOM      2  C   UNL A   1      44.744  23.432  24.709  1.00  0.00     0.188 C 
BRANCH   2   3
ATOM      3  C   UNL A   1      44.683  22.199  25.608  1.00  0.00     0.188 C 
BRANCH   3   4
ATOM      4  O   UNL A   1      43.984  22.302  26.825  1.00  0.00    -0.376 OA
BRANCH   4   5
ATOM      5  C   UNL A   1      43.106  23.387  27.083  1.00  0.00     0.202 C 
BRANCH   5   6
ATOM      6  C   UNL A   1      41.802  23.360  27.912  1.00  0.00     0.261 C 
BRANCH   6   7
ATOM      7  O   UNL A   1      41.264  24.597  28.381  1.00  0.00    -0.463 OA
BRANCH   7   8
ATOM      8  C   UNL A   1      40.772  25.451  27.459  1.00  0.00     0.316 C 
ATOM      9  O   UNL A   1      40.475  25.104  26.316  1.00  0.00    -0.251 OA
BRANCH   8  10
ATOM     10  C   UNL A   1      40.643  26.929  27.959  1.00  0.00     0.096 C 
ATOM     11  C   UNL A   1      37.421  29.928  28.206  1.00  0.00     0.253 C 
ATOM     12  O   UNL A   1      36.988  30.422  27.166  1.00  0.00    -0.269 OA
ATOM     13  N   UNL A   1      38.451  28.971  28.225  1.00  0.00    -0.339 N 
ATOM     14  C   UNL A   1      39.489  29.190  27.253  1.00  0.00     0.121 C 
ATOM     15  C   UNL A   1      38.738  28.044  29.322  1.00  0.00     0.121 C 
ATOM     16  C   UNL A   1      40.261  27.950  26.843  1.00  0.00     0.045 C 
ATOM     17  C   UNL A   1      39.416  26.764  28.892  1.00  0.00     0.045 C 
BRANCH  11  18
ATOM     18  C   UNL A   1      36.954  30.519  29.487  1.00  0.00     0.043 A 
ATOM     19  C   UNL A   1      35.944  31.710  31.815  1.00  0.00     0.161 A 
ATOM     20  C   UNL A   1      36.277  30.341  31.796  1.00  0.00     0.051 A 
ATOM     21  C   UNL A   1      36.114  32.481  30.671  1.00  0.00     0.161 A 
ATOM     22  C   UNL A   1      36.803  29.749  30.639  1.00  0.00     0.018 A 
ATOM     23  C   UNL A   1      36.507  31.836  29.508  1.00  0.00     0.064 A 
BRANCH  19  24
ATOM     24  O   UNL A   1      35.485  32.261  32.977  1.00  0.00    -0.490 OA
BRANCH  24  25
ATOM     25  C   UNL A   1      36.468  32.224  34.019  1.00  0.00     0.226 C 
ATOM     26  C   UNL A   1      37.835  32.482  33.407  1.00  0.00     0.049 C 
ENDBRANCH  24  25
ENDBRANCH  19  24
BRANCH  21  27
ATOM     27  O   UNL A   1      35.952  33.811  30.440  1.00  0.00    -0.493 OA
ATOM     28  C   UNL A   1      34.666  34.388  30.413  1.00  0.00     0.278 C 
ENDBRANCH  21  27
ENDBRANCH  11  18
BRANCH  10  29
ATOM     29  C   UNL A   1      41.978  27.377  28.649  1.00  0.00    -0.031 A 
ATOM     30  C   UNL A   1      42.158  27.295  30.049  1.00  0.00     0.005 A 
ATOM     31  C   UNL A   1      43.104  27.800  27.921  1.00  0.00     0.005 A 
ATOM     32  C   UNL A   1      43.376  27.581  30.678  1.00  0.00     0.000 A 
ATOM     33  C   UNL A   1      44.324  28.105  28.549  1.00  0.00     0.000 A 
ATOM     34  C   UNL A   1      44.464  27.987  29.926  1.00  0.00     0.000 A 
ENDBRANCH  10  29
ENDBRANCH   8  10
ENDBRANCH   7   8
ENDBRANCH   6   7
ENDBRANCH   5   6
ENDBRANCH   4   5
ENDBRANCH   3   4
ENDBRANCH   2   3
ENDBRANCH   1   2
BRANCH   1  35
ATOM     35  C   UNL A   1      46.829  24.614  25.121  1.00  0.00     0.188 C 
BRANCH  35  36
ATOM     36  C   UNL A   1      47.706  25.741  24.536  1.00  0.00     0.188 C 
BRANCH  36  37
ATOM     37  O   UNL A   1      48.997  25.874  25.112  1.00  0.00    -0.376 OA
BRANCH  37  38
ATOM     38  C   UNL A   1      49.273  25.248  26.357  1.00  0.00     0.202 C 
BRANCH  38  39
ATOM     39  C   UNL A   1      49.937  26.072  27.474  1.00  0.00     0.261 C 
BRANCH  39  40
ATOM     40  O   UNL A   1      49.307  26.034  28.762  1.00  0.00    -0.460 OA
BRANCH  40  41
ATOM     41  C   UNL A   1      48.002  26.366  28.845  1.00  0.00     0.338 C 
ATOM     42  O   UNL A   1      47.091  25.670  29.262  1.00  0.00    -0.246 OA
BRANCH  41  43
ATOM     43  C   UNL A   1      47.891  27.807  28.546  1.00  0.00     0.060 A 
ATOM     44  C   UNL A   1      48.244  28.732  29.540  1.00  0.00     0.016 A 
ATOM     45  C   UNL A   1      47.463  28.244  27.291  1.00  0.00     0.016 A 
ATOM     46  C   UNL A   1      48.135  30.099  29.292  1.00  0.00     0.010 A 
ATOM     47  C   UNL A   1      47.325  29.613  27.054  1.00  0.00     0.010 A 
ATOM     48  C   UNL A   1      47.624  30.543  28.067  1.00  0.00    -0.014 A 
BRANCH  48  49
ATOM     49  C   UNL A   1      47.198  31.955  27.930  1.00  0.00     0.031 A 
ATOM     50  C   UNL A   1      48.154  32.920  27.284  1.00  0.00     0.074 A 
ATOM     51  C   UNL A   1      45.993  32.370  28.358  1.00  0.00     0.049 A 
ATOM     52  N   UNL A   1      48.029  34.206  27.092  1.00  0.00    -0.248 NA
ATOM     53  C   UNL A   1      49.423  32.358  26.789  1.00  0.00     0.031 C 
ATOM     54  C   UNL A   1      44.978  31.524  28.981  1.00  0.00     0.029 A 
ATOM     55  N   UNL A   1      45.434  33.624  28.355  1.00  0.00    -0.354 N 
ATOM     56  C   UNL A   1      49.214  34.613  26.490  1.00  0.00     0.074 A 
ATOM     57  C   UNL A   1      50.046  33.440  26.348  1.00  0.00     0.031 C 
ATOM     58  C   UNL A   1      43.932  32.291  29.336  1.00  0.00     0.029 A 
ATOM     59  C   UNL A   1      44.219  33.683  28.993  1.00  0.00     0.049 A 
ATOM     60  H   UNL A   1      45.863  34.404  27.936  1.00  0.00     0.167 HD
ATOM     61  C   UNL A   1      49.573  35.853  26.085  1.00  0.00     0.034 A 
ATOM     62  C   UNL A   1      43.446  34.746  29.295  1.00  0.00     0.034 A 
ATOM     63  C   UNL A   1      48.738  37.014  26.216  1.00  0.00     0.049 A 
ATOM     64  C   UNL A   1      43.888  36.123  28.862  1.00  0.00     0.074 A 
ATOM     65  C   UNL A   1      48.992  38.306  25.792  1.00  0.00     0.029 A 
ATOM     66  N   UNL A   1      47.498  37.030  26.834  1.00  0.00    -0.354 N 
ATOM     67  N   UNL A   1      44.958  36.477  28.191  1.00  0.00    -0.248 NA
ATOM     68  C   UNL A   1      42.998  37.244  29.201  1.00  0.00     0.031 C 
ATOM     69  C   UNL A   1      47.925  39.113  26.195  1.00  0.00     0.029 A 
ATOM     70  C   UNL A   1      46.982  38.314  26.822  1.00  0.00     0.049 A 
ATOM     71  H   UNL A   1      47.050  36.245  27.224  1.00  0.00     0.167 HD
ATOM     72  C   UNL A   1      44.850  37.850  27.995  1.00  0.00     0.074 A 
ATOM     73  C   UNL A   1      43.600  38.261  28.599  1.00  0.00     0.031 C 
ATOM     74  C   UNL A   1      45.712  38.698  27.380  1.00  0.00     0.034 A 
BRANCH  61  75
ATOM     75  C   UNL A   1      50.933  36.022  25.461  1.00  0.00     0.023 A 
ATOM     76  C   UNL A   1      51.099  35.843  24.073  1.00  0.00     0.012 A 
ATOM     77  C   UNL A   1      52.032  36.422  26.245  1.00  0.00     0.148 A 
ATOM     78  C   UNL A   1      52.347  36.037  23.480  1.00  0.00     0.002 A 
ATOM     79  C   UNL A   1      53.259  36.660  25.640  1.00  0.00     0.091 A 
ATOM     80  F   UNL A   1      51.855  36.561  27.567  1.00  0.00    -0.205 F 
ATOM     81  C   UNL A   1      53.421  36.457  24.259  1.00  0.00     0.022 A 
BRANCH  79  82
ATOM     82  S   UNL A   1      54.681  37.281  26.543  1.00  0.00     0.127 S 
ATOM     83  O   UNL A   1      54.759  36.337  27.656  1.00  0.00    -0.237 OA
ATOM     84  O   UNL A   1      55.751  37.147  25.554  1.00  0.00    -0.237 OA
ATOM     85  O   UNL A   1      54.359  38.651  26.912  1.00  0.00    -0.744 OA
ENDBRANCH  79  82
ENDBRANCH  61  75
BRANCH  62  86
ATOM     86  C   UNL A   1      42.171  34.563  30.046  1.00  0.00     0.023 A 
ATOM     87  C   UNL A   1      40.997  34.197  29.358  1.00  0.00     0.012 A 
ATOM     88  C   UNL A   1      42.114  34.764  31.440  1.00  0.00     0.148 A 
ATOM     89  C   UNL A   1      39.784  34.078  30.037  1.00  0.00     0.002 A 
ATOM     90  C   UNL A   1      40.916  34.586  32.118  1.00  0.00     0.091 A 
ATOM     91  F   UNL A   1      43.239  35.127  32.074  1.00  0.00    -0.205 F 
ATOM     92  C   UNL A   1      39.744  34.263  31.415  1.00  0.00     0.022 A 
BRANCH  90  93
ATOM     93  S   UNL A   1      40.794  34.685  33.906  1.00  0.00     0.127 S 
ATOM     94  O   UNL A   1      41.912  35.566  34.233  1.00  0.00    -0.237 OA
ATOM     95  O   UNL A   1      39.469  35.279  34.083  1.00  0.00    -0.237 OA
ATOM     96  O   UNL A   1      40.910  33.315  34.386  1.00  0.00    -0.744 OA
ENDBRANCH  90  93
ENDBRANCH  62  86
BRANCH  74  97
ATOM     97  C   UNL A   1      45.317  40.149  27.274  1.00  0.00     0.023 A 
ATOM     98  C   UNL A   1      44.511  40.589  26.206  1.00  0.00     0.012 A 
ATOM     99  C   UNL A   1      45.687  41.064  28.281  1.00  0.00     0.148 A 
ATOM    100  C   UNL A   1      44.110  41.922  26.122  1.00  0.00     0.002 A 
ATOM    101  C   UNL A   1      45.238  42.376  28.222  1.00  0.00     0.091 A 
ATOM    102  F   UNL A   1      46.465  40.629  29.283  1.00  0.00    -0.205 F 
ATOM    103  C   UNL A   1      44.463  42.812  27.135  1.00  0.00     0.022 A 
BRANCH 101 104
ATOM    104  S   UNL A   1      45.555  43.565  29.530  1.00  0.00     0.127 S 
ATOM    105  O   UNL A   1      44.794  42.995  30.641  1.00  0.00    -0.237 OA
ATOM    106  O   UNL A   1      47.008  43.482  29.679  1.00  0.00    -0.237 OA
ATOM    107  O   UNL A   1      45.070  44.847  29.038  1.00  0.00    -0.744 OA
ENDBRANCH 101 104
ENDBRANCH  74  97
ENDBRANCH  48  49
ENDBRANCH  41  43
ENDBRANCH  40  41
ENDBRANCH  39  40
ENDBRANCH  38  39
ENDBRANCH  37  38
ENDBRANCH  36  37
ENDBRANCH  35  36
ENDBRANCH   1  35
TORSDOF 28
ENDMDL
MODEL 3
REMARK VINA RESULT:      -5.0      4.609      9.880
REMARK SMILES CCOc1ccc(C(=O)N2CCC(C(=O)OCCOCCOCCOCCOC(=O)c3ccc(-c4c5nc(c(-c6cccc(S(=O)(=O)[O-])c6F)c6ccc([nH]6)c(-c6cccc(S(=O)(=O)[O-])c6F)c6nc(c(-c7cccc(S(=O)(=O)[O-])c7F)c7ccc4[nH]7)C=C6)C=C5)cc3)(c3ccccc3)CC2)cc1OC
REMARK SMILES IDX 22 1 21 2 20 3 19 4 18 5 17 6 16 7 14 8 15 9 13 10 8 11 9 12
REMARK SMILES IDX 10 13 11 14 101 15 12 16 100 17 7 18 4 19 5 20 103 21 6 22
REMARK SMILES IDX 102 23 3 24 2 25 1 26 104 27 105 28 94 29 95 30 99 31 96 32
REMARK SMILES IDX 98 33 97 34 23 35 24 36 25 37 26 38 27 39 28 40 29 41 30 42
REMARK SMILES IDX 31 43 32 44 93 45 33 46 92 47 34 48 35 49 36 50 86 51 37 52
REMARK SMILES IDX 91 53 85 54 87 55 38 56 90 57 84 58 83 59 39 61 71 62 51 63
REMARK SMILES IDX 70 64 52 65 55 66 69 67 88 68 53 69 54 70 68 72 89 73 56 74
REMARK SMILES IDX 40 75 41 76 49 77 42 78 44 79 50 80 43 81 45 82 46 83 47 84
REMARK SMILES IDX 48 85 72 86 73 87 81 88 74 89 76 90 82 91 75 92 77 93 78 94
REMARK SMILES IDX 79 95 80 96 57 97 58 98 66 99 59 100 61 101 67 102 60 103
REMARK SMILES IDX 62 104 63 105 64 106 65 107
REMARK H PARENT 87 60 55 71
REMARK Flexibility Score: inf
ROOT
ATOM      1  O   UNL A   1      44.042  23.062  29.768  1.00  0.00    -0.377 OA
ENDROOT
BRANCH   1   2
ATOM      2  C   UNL A   1      44.105  23.417  31.132  1.00  0.00     0.188 C 
BRANCH   2   3
ATOM      3  C   UNL A   1      44.341  24.894  31.437  1.00  0.00     0.188 C 
BRANCH   3   4
ATOM      4  O   UNL A   1      44.931  25.229  32.669  1.00  0.00    -0.376 OA
BRANCH   4   5
ATOM      5  C   UNL A   1      46.067  26.078  32.738  1.00  0.00     0.202 C 
BRANCH   5   6
ATOM      6  C   UNL A   1      47.527  25.719  32.385  1.00  0.00     0.261 C 
BRANCH   6   7
ATOM      7  O   UNL A   1      48.422  25.376  33.445  1.00  0.00    -0.463 OA
BRANCH   7   8
ATOM      8  C   UNL A   1      49.487  24.605  33.135  1.00  0.00     0.316 C 
ATOM      9  O   UNL A   1      49.995  24.585  32.015  1.00  0.00    -0.251 OA
BRANCH   8  10
ATOM     10  C   UNL A   1      49.997  23.714  34.316  1.00  0.00     0.096 C 
ATOM     11  C   UNL A   1      48.604  22.725  38.381  1.00  0.00     0.253 C 
ATOM     12  O   UNL A   1      48.637  23.596  39.248  1.00  0.00    -0.269 OA
ATOM     13  N   UNL A   1      49.034  22.947  37.060  1.00  0.00    -0.339 N 
ATOM     14  C   UNL A   1      50.195  23.790  36.943  1.00  0.00     0.121 C 
ATOM     15  C   UNL A   1      48.659  22.147  35.892  1.00  0.00     0.121 C 
ATOM     16  C   UNL A   1      50.337  24.509  35.615  1.00  0.00     0.045 C 
ATOM     17  C   UNL A   1      48.706  22.900  34.583  1.00  0.00     0.045 C 
BRANCH  11  18
ATOM     18  C   UNL A   1      48.272  21.343  38.814  1.00  0.00     0.043 A 
ATOM     19  C   UNL A   1      47.633  18.692  39.461  1.00  0.00     0.161 A 
ATOM     20  C   UNL A   1      48.721  19.338  40.079  1.00  0.00     0.051 A 
ATOM     21  C   UNL A   1      46.867  19.369  38.520  1.00  0.00     0.161 A 
ATOM     22  C   UNL A   1      49.029  20.672  39.772  1.00  0.00     0.018 A 
ATOM     23  C   UNL A   1      47.280  20.638  38.141  1.00  0.00     0.064 A 
BRANCH  19  24
ATOM     24  O   UNL A   1      47.334  17.411  39.826  1.00  0.00    -0.490 OA
BRANCH  24  25
ATOM     25  C   UNL A   1      46.516  17.359  41.001  1.00  0.00     0.226 C 
ATOM     26  C   UNL A   1      46.781  16.047  41.721  1.00  0.00     0.049 C 
ENDBRANCH  24  25
ENDBRANCH  19  24
BRANCH  21  27
ATOM     27  O   UNL A   1      45.740  19.019  37.845  1.00  0.00    -0.493 OA
ATOM     28  C   UNL A   1      45.721  18.988  36.436  1.00  0.00     0.278 C 
ENDBRANCH  21  27
ENDBRANCH  11  18
BRANCH  10  29
ATOM     29  C   UNL A   1      51.251  22.890  33.859  1.00  0.00    -0.031 A 
ATOM     30  C   UNL A   1      52.565  23.393  33.999  1.00  0.00     0.005 A 
ATOM     31  C   UNL A   1      51.158  21.575  33.370  1.00  0.00     0.005 A 
ATOM     32  C   UNL A   1      53.705  22.635  33.705  1.00  0.00     0.000 A 
ATOM     33  C   UNL A   1      52.298  20.816  33.056  1.00  0.00     0.000 A 
ATOM     34  C   UNL A   1      53.572  21.341  33.232  1.00  0.00     0.000 A 
ENDBRANCH  10  29
ENDBRANCH   8  10
ENDBRANCH   7   8
ENDBRANCH   6   7
ENDBRANCH   5   6
ENDBRANCH   4   5
ENDBRANCH   3   4
ENDBRANCH   2   3
ENDBRANCH   1   2
BRANCH   1  35
ATOM     35  C   UNL A   1      42.952  23.544  28.994  1.00  0.00     0.188 C 
BRANCH  35  36
ATOM     36  C   UNL A   1      42.040  22.554  28.239  1.00  0.00     0.188 C 
BRANCH  36  37
ATOM     37  O   UNL A   1      42.024  22.691  26.826  1.00  0.00    -0.376 OA
BRANCH  37  38
ATOM     38  C   UNL A   1      42.891  21.889  26.037  1.00  0.00     0.202 C 
BRANCH  38  39
ATOM     39  C   UNL A   1      44.018  22.570  25.243  1.00  0.00     0.261 C 
BRANCH  39  40
ATOM     40  O   UNL A   1      44.941  23.371  25.993  1.00  0.00    -0.460 OA
BRANCH  40  41
ATOM     41  C   UNL A   1      45.435  24.487  25.416  1.00  0.00     0.338 C 
ATOM     42  O   UNL A   1      45.988  24.571  24.332  1.00  0.00    -0.246 OA
BRANCH  41  43
ATOM     43  C   UNL A   1      44.993  25.638  26.228  1.00  0.00     0.060 A 
ATOM     44  C   UNL A   1      44.345  26.705  25.590  1.00  0.00     0.016 A 
ATOM     45  C   UNL A   1      45.198  25.656  27.609  1.00  0.00     0.016 A 
ATOM     46  C   UNL A   1      43.931  27.812  26.329  1.00  0.00     0.010 A 
ATOM     47  C   UNL A   1      44.810  26.778  28.343  1.00  0.00     0.010 A 
ATOM     48  C   UNL A   1      44.210  27.875  27.699  1.00  0.00    -0.014 A 
BRANCH  48  49
ATOM     49  C   UNL A   1      44.076  29.171  28.404  1.00  0.00     0.031 A 
ATOM     50  C   UNL A   1      45.301  30.034  28.531  1.00  0.00     0.074 A 
ATOM     51  C   UNL A   1      42.899  29.578  28.909  1.00  0.00     0.049 A 
ATOM     52  N   UNL A   1      45.447  31.182  29.138  1.00  0.00    -0.248 NA
ATOM     53  C   UNL A   1      46.529  29.533  27.888  1.00  0.00     0.031 C 
ATOM     54  C   UNL A   1      41.642  28.837  28.831  1.00  0.00     0.029 A 
ATOM     55  N   UNL A   1      42.581  30.710  29.618  1.00  0.00    -0.354 N 
ATOM     56  C   UNL A   1      46.786  31.522  28.983  1.00  0.00     0.074 A 
ATOM     57  C   UNL A   1      47.411  30.461  28.227  1.00  0.00     0.031 C 
ATOM     58  C   UNL A   1      40.694  29.517  29.500  1.00  0.00     0.029 A 
ATOM     59  C   UNL A   1      41.286  30.723  30.078  1.00  0.00     0.049 A 
ATOM     60  H   UNL A   1      43.219  31.441  29.780  1.00  0.00     0.167 HD
ATOM     61  C   UNL A   1      47.434  32.624  29.425  1.00  0.00     0.034 A 
ATOM     62  C   UNL A   1      40.664  31.592  30.900  1.00  0.00     0.034 A 
ATOM     63  C   UNL A   1      46.806  33.682  30.166  1.00  0.00     0.049 A 
ATOM     64  C   UNL A   1      41.422  32.794  31.409  1.00  0.00     0.074 A 
ATOM     65  C   UNL A   1      47.366  34.864  30.618  1.00  0.00     0.029 A 
ATOM     66  N   UNL A   1      45.484  33.679  30.583  1.00  0.00    -0.354 N 
ATOM     67  N   UNL A   1      42.655  33.162  31.159  1.00  0.00    -0.248 NA
ATOM     68  C   UNL A   1      40.689  33.719  32.287  1.00  0.00     0.031 C 
ATOM     69  C   UNL A   1      46.395  35.554  31.347  1.00  0.00     0.029 A 
ATOM     70  C   UNL A   1      45.215  34.829  31.305  1.00  0.00     0.049 A 
ATOM     71  H   UNL A   1      44.833  32.964  30.394  1.00  0.00     0.167 HD
ATOM     72  C   UNL A   1      42.833  34.376  31.815  1.00  0.00     0.074 A 
ATOM     73  C   UNL A   1      41.574  34.692  32.456  1.00  0.00     0.031 C 
ATOM     74  C   UNL A   1      43.941  35.154  31.891  1.00  0.00     0.034 A 
BRANCH  61  75
ATOM     75  C   UNL A   1      48.903  32.743  29.123  1.00  0.00     0.023 A 
ATOM     76  C   UNL A   1      49.854  32.234  30.031  1.00  0.00     0.012 A 
ATOM     77  C   UNL A   1      49.338  33.303  27.907  1.00  0.00     0.148 A 
ATOM     78  C   UNL A   1      51.217  32.304  29.742  1.00  0.00     0.002 A 
ATOM     79  C   UNL A   1      50.693  33.325  27.604  1.00  0.00     0.091 A 
ATOM     80  F   UNL A   1      48.418  33.804  27.070  1.00  0.00    -0.205 F 
ATOM     81  C   UNL A   1      51.635  32.836  28.525  1.00  0.00     0.022 A 
BRANCH  79  82
ATOM     82  S   UNL A   1      51.326  33.915  26.031  1.00  0.00     0.127 S 
ATOM     83  O   UNL A   1      52.762  33.692  26.189  1.00  0.00    -0.237 OA
ATOM     84  O   UNL A   1      50.670  33.015  25.082  1.00  0.00    -0.237 OA
ATOM     85  O   UNL A   1      50.921  35.309  25.929  1.00  0.00    -0.744 OA
ENDBRANCH  79  82
ENDBRANCH  61  75
BRANCH  62  86
ATOM     86  C   UNL A   1      39.246  31.366  31.302  1.00  0.00     0.023 A 
ATOM     87  C   UNL A   1      38.952  30.539  32.404  1.00  0.00     0.012 A 
ATOM     88  C   UNL A   1      38.185  31.955  30.586  1.00  0.00     0.148 A 
ATOM     89  C   UNL A   1      37.629  30.270  32.759  1.00  0.00     0.002 A 
ATOM     90  C   UNL A   1      36.873  31.730  30.980  1.00  0.00     0.091 A 
ATOM     91  F   UNL A   1      38.485  32.726  29.530  1.00  0.00    -0.205 F 
ATOM     92  C   UNL A   1      36.592  30.871  32.053  1.00  0.00     0.022 A 
BRANCH  90  93
ATOM     93  S   UNL A   1      35.478  32.556  30.208  1.00  0.00     0.127 S 
ATOM     94  O   UNL A   1      35.283  31.751  29.005  1.00  0.00    -0.237 OA
ATOM     95  O   UNL A   1      34.439  32.403  31.227  1.00  0.00    -0.237 OA
ATOM     96  O   UNL A   1      35.907  33.930  29.986  1.00  0.00    -0.744 OA
ENDBRANCH  90  93
ENDBRANCH  62  86
BRANCH  74  97
ATOM     97  C   UNL A   1      43.838  36.456  32.646  1.00  0.00     0.023 A 
ATOM     98  C   UNL A   1      43.974  36.477  34.048  1.00  0.00     0.012 A 
ATOM     99  C   UNL A   1      43.682  37.672  31.950  1.00  0.00     0.148 A 
ATOM    100  C   UNL A   1      43.919  37.681  34.748  1.00  0.00     0.002 A 
ATOM    101  C   UNL A   1      43.683  38.873  32.648  1.00  0.00     0.091 A 
ATOM    102  F   UNL A   1      43.540  37.631  30.617  1.00  0.00    -0.205 F 
ATOM    103  C   UNL A   1      43.786  38.879  34.048  1.00  0.00     0.022 A 
BRANCH 101 104
ATOM    104  S   UNL A   1      43.620  40.468  31.825  1.00  0.00     0.127 S 
ATOM    105  O   UNL A   1      45.041  40.777  31.667  1.00  0.00    -0.237 OA
ATOM    106  O   UNL A   1      42.923  40.146  30.579  1.00  0.00    -0.237 OA
ATOM    107  O   UNL A   1      42.887  41.354  32.717  1.00  0.00    -0.744 OA
ENDBRANCH 101 104
ENDBRANCH  74  97
ENDBRANCH  48  49
ENDBRANCH  41  43
ENDBRANCH  40  41
ENDBRANCH  39  40
ENDBRANCH  38  39
ENDBRANCH  37  38
ENDBRANCH  36  37
ENDBRANCH  35  36
ENDBRANCH   1  35
TORSDOF 28
ENDMDL
