MODEL 1
REMARK VINA RESULT:      -8.2      0.000      0.000
REMARK SMILES CC[C@@H]([NH3+])C(=O)NCCOCC(=O)OCCOCCOCCOCCOC(=O)c1ccc(-c2c3nc(c(-c4cccc(S(=O)(=O)[O-])c4F)c4ccc([nH]4)c(-c4cccc(S(=O)(=O)[O-])c4F)c4nc(c(-c5cccc(S(=O)(=O)[O-])c5F)c5ccc2[nH]5)C=C4)C=C3)cc1
REMARK SMILES IDX 18 1 17 2 16 3 15 4 14 5 12 6 13 7 11 8 10 9 9 10 8 11 7 12
REMARK SMILES IDX 5 13 6 14 3 16 2 17 1 18 4 19 19 23 20 24 21 25 22 26 23 27
REMARK SMILES IDX 24 28 25 29 26 30 27 31 28 32 29 33 30 34 91 35 31 36 90 37
REMARK SMILES IDX 32 38 33 39 34 40 84 41 35 42 89 43 83 44 85 45 36 46 88 47
REMARK SMILES IDX 82 48 81 49 37 51 69 52 49 53 68 54 50 55 53 56 67 57 86 58
REMARK SMILES IDX 51 59 52 60 66 62 87 63 54 64 38 65 39 66 47 67 40 68 42 69
REMARK SMILES IDX 48 70 41 71 43 72 44 73 45 74 46 75 70 76 71 77 79 78 72 79
REMARK SMILES IDX 74 80 80 81 73 82 75 83 76 84 77 85 78 86 55 87 56 88 64 89
REMARK SMILES IDX 57 90 59 91 65 92 58 93 60 94 61 95 62 96 63 97
REMARK H PARENT 7 15 4 20 4 21 4 22 85 50 53 61
REMARK Flexibility Score: inf
ROOT
ATOM      1  C   UNL A   1      32.495  22.634  27.243  1.00  0.00     0.188 C 
ENDROOT
BRANCH   1   2
ATOM      2  O   UNL A   1      31.382  23.523  27.251  1.00  0.00    -0.376 OA
BRANCH   2   3
ATOM      3  C   UNL A   1      30.785  23.803  25.985  1.00  0.00     0.202 C 
BRANCH   3   4
ATOM      4  C   UNL A   1      31.400  24.944  25.149  1.00  0.00     0.261 C 
BRANCH   4   5
ATOM      5  O   UNL A   1      30.777  25.215  23.864  1.00  0.00    -0.462 OA
BRANCH   5   6
ATOM      6  C   UNL A   1      31.624  25.396  22.819  1.00  0.00     0.332 C 
ATOM      7  O   UNL A   1      31.298  25.908  21.749  1.00  0.00    -0.250 OA
BRANCH   6   8
ATOM      8  C   UNL A   1      33.086  24.916  23.040  1.00  0.00     0.282 C 
BRANCH   8   9
ATOM      9  O   UNL A   1      33.888  23.925  22.448  1.00  0.00    -0.368 OA
BRANCH   9  10
ATOM     10  C   UNL A   1      33.792  22.572  22.875  1.00  0.00     0.182 C 
BRANCH  10  11
ATOM     11  C   UNL A   1      32.407  21.875  22.843  1.00  0.00     0.144 C 
BRANCH  11  12
ATOM     12  N   UNL A   1      32.128  21.004  23.980  1.00  0.00    -0.349 N 
ATOM     13  C   UNL A   1      32.405  19.692  24.226  1.00  0.00     0.278 C 
ATOM     14  O   UNL A   1      32.165  19.296  25.374  1.00  0.00    -0.268 OA
ATOM     15  H   UNL A   1      31.644  21.450  24.711  1.00  0.00     0.163 HD
BRANCH  13  16
ATOM     16  C   UNL A   1      32.954  18.687  23.180  1.00  0.00     0.270 C 
BRANCH  16  17
ATOM     17  C   UNL A   1      33.899  17.656  23.789  1.00  0.00     0.072 C 
ATOM     18  C   UNL A   1      33.272  16.326  24.179  1.00  0.00     0.011 C 
ENDBRANCH  16  17
BRANCH  16  19
ATOM     19  N   UNL A   1      31.862  18.069  22.409  1.00  0.00    -0.347 N 
ATOM     20  H   UNL A   1      31.637  17.158  22.809  1.00  0.00     0.345 HD
ATOM     21  H   UNL A   1      32.155  17.952  21.439  1.00  0.00     0.345 HD
ATOM     22  H   UNL A   1      31.039  18.669  22.446  1.00  0.00     0.345 HD
ENDBRANCH  16  19
ENDBRANCH  13  16
ENDBRANCH  11  12
ENDBRANCH  10  11
ENDBRANCH   9  10
ENDBRANCH   8   9
ENDBRANCH   6   8
ENDBRANCH   5   6
ENDBRANCH   4   5
ENDBRANCH   3   4
ENDBRANCH   2   3
ENDBRANCH   1   2
BRANCH   1  23
ATOM     23  C   UNL A   1      33.862  23.305  27.125  1.00  0.00     0.188 C 
BRANCH  23  24
ATOM     24  O   UNL A   1      34.684  22.730  26.122  1.00  0.00    -0.377 OA
BRANCH  24  25
ATOM     25  C   UNL A   1      35.026  21.351  26.213  1.00  0.00     0.188 C 
BRANCH  25  26
ATOM     26  C   UNL A   1      36.019  20.814  25.181  1.00  0.00     0.188 C 
BRANCH  26  27
ATOM     27  O   UNL A   1      37.404  21.115  25.392  1.00  0.00    -0.376 OA
BRANCH  27  28
ATOM     28  C   UNL A   1      38.380  20.169  24.962  1.00  0.00     0.202 C 
BRANCH  28  29
ATOM     29  C   UNL A   1      39.436  19.754  25.981  1.00  0.00     0.261 C 
BRANCH  29  30
ATOM     30  O   UNL A   1      40.734  19.692  25.396  1.00  0.00    -0.460 OA
BRANCH  30  31
ATOM     31  C   UNL A   1      41.746  19.539  26.280  1.00  0.00     0.338 C 
ATOM     32  O   UNL A   1      42.199  18.500  26.729  1.00  0.00    -0.246 OA
BRANCH  31  33
ATOM     33  C   UNL A   1      42.366  20.857  26.460  1.00  0.00     0.060 A 
ATOM     34  C   UNL A   1      42.661  21.291  27.760  1.00  0.00     0.016 A 
ATOM     35  C   UNL A   1      42.645  21.652  25.346  1.00  0.00     0.016 A 
ATOM     36  C   UNL A   1      43.209  22.548  27.956  1.00  0.00     0.010 A 
ATOM     37  C   UNL A   1      43.167  22.921  25.543  1.00  0.00     0.010 A 
ATOM     38  C   UNL A   1      43.404  23.379  26.849  1.00  0.00    -0.014 A 
BRANCH  38  39
ATOM     39  C   UNL A   1      43.605  24.819  27.063  1.00  0.00     0.031 A 
ATOM     40  C   UNL A   1      44.965  25.373  26.764  1.00  0.00     0.074 A 
ATOM     41  C   UNL A   1      42.609  25.577  27.545  1.00  0.00     0.049 A 
ATOM     42  N   UNL A   1      45.430  26.573  26.965  1.00  0.00    -0.248 NA
ATOM     43  C   UNL A   1      45.942  24.439  26.168  1.00  0.00     0.031 C 
ATOM     44  C   UNL A   1      41.256  25.106  27.843  1.00  0.00     0.029 A 
ATOM     45  N   UNL A   1      42.598  26.895  27.904  1.00  0.00    -0.354 N 
ATOM     46  C   UNL A   1      46.761  26.527  26.569  1.00  0.00     0.074 A 
ATOM     47  C   UNL A   1      47.033  25.186  26.112  1.00  0.00     0.031 C 
ATOM     48  C   UNL A   1      40.553  26.119  28.377  1.00  0.00     0.029 A 
ATOM     49  C   UNL A   1      41.420  27.289  28.490  1.00  0.00     0.049 A 
ATOM     50  H   UNL A   1      43.360  27.502  27.757  1.00  0.00     0.167 HD
ATOM     51  C   UNL A   1      47.672  27.526  26.593  1.00  0.00     0.034 A 
ATOM     52  C   UNL A   1      41.107  28.457  29.079  1.00  0.00     0.034 A 
ATOM     53  C   UNL A   1      47.366  28.853  27.045  1.00  0.00     0.049 A 
ATOM     54  C   UNL A   1      42.150  29.544  29.106  1.00  0.00     0.074 A 
ATOM     55  C   UNL A   1      48.183  29.966  27.059  1.00  0.00     0.029 A 
ATOM     56  N   UNL A   1      46.147  29.236  27.583  1.00  0.00    -0.354 N 
ATOM     57  N   UNL A   1      43.370  29.531  28.624  1.00  0.00    -0.248 NA
ATOM     58  C   UNL A   1      41.764  30.815  29.732  1.00  0.00     0.031 C 
ATOM     59  C   UNL A   1      47.471  31.013  27.649  1.00  0.00     0.029 A 
ATOM     60  C   UNL A   1      46.194  30.566  27.955  1.00  0.00     0.049 A 
ATOM     61  H   UNL A   1      45.364  28.649  27.685  1.00  0.00     0.167 HD
ATOM     62  C   UNL A   1      43.883  30.803  28.846  1.00  0.00     0.074 A 
ATOM     63  C   UNL A   1      42.833  31.563  29.495  1.00  0.00     0.031 C 
ATOM     64  C   UNL A   1      45.109  31.303  28.550  1.00  0.00     0.034 A 
BRANCH  51  65
ATOM     65  C   UNL A   1      49.069  27.217  26.134  1.00  0.00     0.023 A 
ATOM     66  C   UNL A   1      49.994  26.627  27.019  1.00  0.00     0.012 A 
ATOM     67  C   UNL A   1      49.450  27.469  24.802  1.00  0.00     0.148 A 
ATOM     68  C   UNL A   1      51.285  26.315  26.591  1.00  0.00     0.002 A 
ATOM     69  C   UNL A   1      50.720  27.111  24.369  1.00  0.00     0.091 A 
ATOM     70  F   UNL A   1      48.566  28.062  23.986  1.00  0.00    -0.205 F 
ATOM     71  C   UNL A   1      51.643  26.545  25.265  1.00  0.00     0.022 A 
BRANCH  69  72
ATOM     72  S   UNL A   1      51.249  27.292  22.664  1.00  0.00     0.127 S 
ATOM     73  O   UNL A   1      50.128  26.691  21.941  1.00  0.00    -0.237 OA
ATOM     74  O   UNL A   1      51.354  28.745  22.529  1.00  0.00    -0.237 OA
ATOM     75  O   UNL A   1      52.513  26.576  22.554  1.00  0.00    -0.744 OA
ENDBRANCH  69  72
ENDBRANCH  51  65
BRANCH  52  76
ATOM     76  C   UNL A   1      39.753  28.667  29.663  1.00  0.00     0.023 A 
ATOM     77  C   UNL A   1      39.495  28.241  30.981  1.00  0.00     0.012 A 
ATOM     78  C   UNL A   1      38.725  29.288  28.928  1.00  0.00     0.148 A 
ATOM     79  C   UNL A   1      38.227  28.394  31.542  1.00  0.00     0.002 A 
ATOM     80  C   UNL A   1      37.480  29.488  29.513  1.00  0.00     0.091 A 
ATOM     81  F   UNL A   1      38.988  29.678  27.673  1.00  0.00    -0.205 F 
ATOM     82  C   UNL A   1      37.222  29.024  30.811  1.00  0.00     0.022 A 
BRANCH  80  83
ATOM     83  S   UNL A   1      36.167  30.399  28.693  1.00  0.00     0.127 S 
ATOM     84  O   UNL A   1      36.910  31.478  28.049  1.00  0.00    -0.237 OA
ATOM     85  O   UNL A   1      35.627  29.391  27.780  1.00  0.00    -0.237 OA
ATOM     86  O   UNL A   1      35.250  30.804  29.751  1.00  0.00    -0.744 OA
ENDBRANCH  80  83
ENDBRANCH  52  76
BRANCH  64  87
ATOM     87  C   UNL A   1      45.363  32.751  28.867  1.00  0.00     0.023 A 
ATOM     88  C   UNL A   1      45.896  33.120  30.117  1.00  0.00     0.012 A 
ATOM     89  C   UNL A   1      45.154  33.736  27.881  1.00  0.00     0.148 A 
ATOM     90  C   UNL A   1      46.183  34.455  30.394  1.00  0.00     0.002 A 
ATOM     91  C   UNL A   1      45.498  35.053  28.144  1.00  0.00     0.091 A 
ATOM     92  F   UNL A   1      44.634  33.361  26.703  1.00  0.00    -0.205 F 
ATOM     93  C   UNL A   1      45.998  35.418  29.404  1.00  0.00     0.022 A 
BRANCH  91  94
ATOM     94  S   UNL A   1      45.399  36.339  26.894  1.00  0.00     0.127 S 
ATOM     95  O   UNL A   1      43.956  36.560  26.810  1.00  0.00    -0.237 OA
ATOM     96  O   UNL A   1      46.149  37.430  27.515  1.00  0.00    -0.237 OA
ATOM     97  O   UNL A   1      46.014  35.786  25.695  1.00  0.00    -0.744 OA
ENDBRANCH  91  94
ENDBRANCH  64  87
ENDBRANCH  38  39
ENDBRANCH  31  33
ENDBRANCH  30  31
ENDBRANCH  29  30
ENDBRANCH  28  29
ENDBRANCH  27  28
ENDBRANCH  26  27
ENDBRANCH  25  26
ENDBRANCH  24  25
ENDBRANCH  23  24
ENDBRANCH   1  23
TORSDOF 30
ENDMDL
MODEL 2
REMARK VINA RESULT:      -7.8      6.523     11.557
REMARK SMILES CC[C@@H]([NH3+])C(=O)NCCOCC(=O)OCCOCCOCCOCCOC(=O)c1ccc(-c2c3nc(c(-c4cccc(S(=O)(=O)[O-])c4F)c4ccc([nH]4)c(-c4cccc(S(=O)(=O)[O-])c4F)c4nc(c(-c5cccc(S(=O)(=O)[O-])c5F)c5ccc2[nH]5)C=C4)C=C3)cc1
REMARK SMILES IDX 18 1 17 2 16 3 15 4 14 5 12 6 13 7 11 8 10 9 9 10 8 11 7 12
REMARK SMILES IDX 5 13 6 14 3 16 2 17 1 18 4 19 19 23 20 24 21 25 22 26 23 27
REMARK SMILES IDX 24 28 25 29 26 30 27 31 28 32 29 33 30 34 91 35 31 36 90 37
REMARK SMILES IDX 32 38 33 39 34 40 84 41 35 42 89 43 83 44 85 45 36 46 88 47
REMARK SMILES IDX 82 48 81 49 37 51 69 52 49 53 68 54 50 55 53 56 67 57 86 58
REMARK SMILES IDX 51 59 52 60 66 62 87 63 54 64 38 65 39 66 47 67 40 68 42 69
REMARK SMILES IDX 48 70 41 71 43 72 44 73 45 74 46 75 70 76 71 77 79 78 72 79
REMARK SMILES IDX 74 80 80 81 73 82 75 83 76 84 77 85 78 86 55 87 56 88 64 89
REMARK SMILES IDX 57 90 59 91 65 92 58 93 60 94 61 95 62 96 63 97
REMARK H PARENT 7 15 4 20 4 21 4 22 85 50 53 61
REMARK Flexibility Score: inf
ROOT
ATOM      1  C   UNL A   1      34.003  29.469  26.401  1.00  0.00     0.188 C 
ENDROOT
BRANCH   1   2
ATOM      2  O   UNL A   1      33.283  28.269  26.667  1.00  0.00    -0.376 OA
BRANCH   2   3
ATOM      3  C   UNL A   1      33.108  27.378  25.566  1.00  0.00     0.202 C 
BRANCH   3   4
ATOM      4  C   UNL A   1      32.576  25.964  25.878  1.00  0.00     0.261 C 
BRANCH   4   5
ATOM      5  O   UNL A   1      33.476  24.856  25.603  1.00  0.00    -0.462 OA
BRANCH   5   6
ATOM      6  C   UNL A   1      33.442  24.365  24.338  1.00  0.00     0.332 C 
ATOM      7  O   UNL A   1      34.231  24.690  23.452  1.00  0.00    -0.250 OA
BRANCH   6   8
ATOM      8  C   UNL A   1      32.324  23.326  24.042  1.00  0.00     0.282 C 
BRANCH   8   9
ATOM      9  O   UNL A   1      31.619  22.400  24.829  1.00  0.00    -0.368 OA
BRANCH   9  10
ATOM     10  C   UNL A   1      32.253  21.209  25.279  1.00  0.00     0.182 C 
BRANCH  10  11
ATOM     11  C   UNL A   1      33.558  21.325  26.110  1.00  0.00     0.144 C 
BRANCH  11  12
ATOM     12  N   UNL A   1      34.673  20.519  25.624  1.00  0.00    -0.349 N 
ATOM     13  C   UNL A   1      35.904  20.845  25.141  1.00  0.00     0.278 C 
ATOM     14  O   UNL A   1      36.682  19.899  24.962  1.00  0.00    -0.268 OA
ATOM     15  H   UNL A   1      34.502  19.550  25.651  1.00  0.00     0.163 HD
BRANCH  13  16
ATOM     16  C   UNL A   1      36.366  22.279  24.778  1.00  0.00     0.270 C 
BRANCH  16  17
ATOM     17  C   UNL A   1      37.716  22.641  25.392  1.00  0.00     0.072 C 
ATOM     18  C   UNL A   1      37.726  23.856  26.309  1.00  0.00     0.011 C 
ENDBRANCH  16  17
BRANCH  16  19
ATOM     19  N   UNL A   1      36.330  22.502  23.323  1.00  0.00    -0.347 N 
ATOM     20  H   UNL A   1      35.442  22.935  23.068  1.00  0.00     0.345 HD
ATOM     21  H   UNL A   1      36.425  21.609  22.840  1.00  0.00     0.345 HD
ATOM     22  H   UNL A   1      37.097  23.117  23.055  1.00  0.00     0.345 HD
ENDBRANCH  16  19
ENDBRANCH  13  16
ENDBRANCH  11  12
ENDBRANCH  10  11
ENDBRANCH   9  10
ENDBRANCH   8   9
ENDBRANCH   6   8
ENDBRANCH   5   6
ENDBRANCH   4   5
ENDBRANCH   3   4
ENDBRANCH   2   3
ENDBRANCH   1   2
BRANCH   1  23
ATOM     23  C   UNL A   1      34.296  30.337  27.624  1.00  0.00     0.188 C 
BRANCH  23  24
ATOM     24  O   UNL A   1      33.743  31.639  27.533  1.00  0.00    -0.377 OA
BRANCH  24  25
ATOM     25  C   UNL A   1      34.109  32.616  28.501  1.00  0.00     0.188 C 
BRANCH  25  26
ATOM     26  C   UNL A   1      34.895  33.828  28.000  1.00  0.00     0.188 C 
BRANCH  26  27
ATOM     27  O   UNL A   1      34.615  35.088  28.621  1.00  0.00    -0.376 OA
BRANCH  27  28
ATOM     28  C   UNL A   1      33.254  35.483  28.779  1.00  0.00     0.202 C 
BRANCH  28  29
ATOM     29  C   UNL A   1      32.886  36.192  30.078  1.00  0.00     0.261 C 
BRANCH  29  30
ATOM     30  O   UNL A   1      32.719  35.269  31.150  1.00  0.00    -0.460 OA
BRANCH  30  31
ATOM     31  C   UNL A   1      33.480  35.522  32.239  1.00  0.00     0.338 C 
ATOM     32  O   UNL A   1      33.238  36.280  33.163  1.00  0.00    -0.246 OA
BRANCH  31  33
ATOM     33  C   UNL A   1      34.583  34.553  32.232  1.00  0.00     0.060 A 
ATOM     34  C   UNL A   1      34.348  33.262  32.724  1.00  0.00     0.016 A 
ATOM     35  C   UNL A   1      35.836  34.931  31.746  1.00  0.00     0.016 A 
ATOM     36  C   UNL A   1      35.385  32.344  32.764  1.00  0.00     0.010 A 
ATOM     37  C   UNL A   1      36.881  34.022  31.812  1.00  0.00     0.010 A 
ATOM     38  C   UNL A   1      36.661  32.750  32.362  1.00  0.00    -0.014 A 
BRANCH  38  39
ATOM     39  C   UNL A   1      37.825  31.944  32.758  1.00  0.00     0.031 A 
ATOM     40  C   UNL A   1      38.491  32.295  34.055  1.00  0.00     0.074 A 
ATOM     41  C   UNL A   1      38.277  30.969  31.956  1.00  0.00     0.049 A 
ATOM     42  N   UNL A   1      39.585  31.816  34.575  1.00  0.00    -0.248 NA
ATOM     43  C   UNL A   1      37.842  33.341  34.870  1.00  0.00     0.031 C 
ATOM     44  C   UNL A   1      37.667  30.565  30.689  1.00  0.00     0.029 A 
ATOM     45  N   UNL A   1      39.378  30.169  32.076  1.00  0.00    -0.354 N 
ATOM     46  C   UNL A   1      39.782  32.533  35.749  1.00  0.00     0.074 A 
ATOM     47  C   UNL A   1      38.696  33.476  35.871  1.00  0.00     0.031 C 
ATOM     48  C   UNL A   1      38.429  29.612  30.126  1.00  0.00     0.029 A 
ATOM     49  C   UNL A   1      39.592  29.372  30.977  1.00  0.00     0.049 A 
ATOM     50  H   UNL A   1      39.961  30.165  32.869  1.00  0.00     0.167 HD
ATOM     51  C   UNL A   1      40.789  32.408  36.642  1.00  0.00     0.034 A 
ATOM     52  C   UNL A   1      40.635  28.572  30.692  1.00  0.00     0.034 A 
ATOM     53  C   UNL A   1      41.850  31.452  36.497  1.00  0.00     0.049 A 
ATOM     54  C   UNL A   1      41.751  28.469  31.699  1.00  0.00     0.074 A 
ATOM     55  C   UNL A   1      42.892  31.187  37.363  1.00  0.00     0.029 A 
ATOM     56  N   UNL A   1      42.010  30.620  35.399  1.00  0.00    -0.354 N 
ATOM     57  N   UNL A   1      41.872  29.064  32.862  1.00  0.00    -0.248 NA
ATOM     58  C   UNL A   1      42.860  27.565  31.367  1.00  0.00     0.031 C 
ATOM     59  C   UNL A   1      43.710  30.224  36.766  1.00  0.00     0.029 A 
ATOM     60  C   UNL A   1      43.149  29.854  35.553  1.00  0.00     0.049 A 
ATOM     61  H   UNL A   1      41.404  30.582  34.625  1.00  0.00     0.167 HD
ATOM     62  C   UNL A   1      43.045  28.572  33.422  1.00  0.00     0.074 A 
ATOM     63  C   UNL A   1      43.589  27.622  32.473  1.00  0.00     0.031 C 
ATOM     64  C   UNL A   1      43.629  28.878  34.608  1.00  0.00     0.034 A 
BRANCH  51  65
ATOM     65  C   UNL A   1      40.796  33.327  37.831  1.00  0.00     0.023 A 
ATOM     66  C   UNL A   1      40.028  33.019  38.973  1.00  0.00     0.012 A 
ATOM     67  C   UNL A   1      41.609  34.477  37.834  1.00  0.00     0.148 A 
ATOM     68  C   UNL A   1      40.051  33.855  40.089  1.00  0.00     0.002 A 
ATOM     69  C   UNL A   1      41.664  35.279  38.966  1.00  0.00     0.091 A 
ATOM     70  F   UNL A   1      42.305  34.770  36.726  1.00  0.00    -0.205 F 
ATOM     71  C   UNL A   1      40.877  34.976  40.090  1.00  0.00     0.022 A 
BRANCH  69  72
ATOM     72  S   UNL A   1      42.756  36.697  39.097  1.00  0.00     0.127 S 
ATOM     73  O   UNL A   1      44.028  36.060  39.441  1.00  0.00    -0.237 OA
ATOM     74  O   UNL A   1      42.698  37.252  37.745  1.00  0.00    -0.237 OA
ATOM     75  O   UNL A   1      42.190  37.550  40.133  1.00  0.00    -0.744 OA
ENDBRANCH  69  72
ENDBRANCH  51  65
BRANCH  52  76
ATOM     76  C   UNL A   1      40.662  27.794  29.422  1.00  0.00     0.023 A 
ATOM     77  C   UNL A   1      39.807  26.685  29.271  1.00  0.00     0.012 A 
ATOM     78  C   UNL A   1      41.521  28.148  28.364  1.00  0.00     0.148 A 
ATOM     79  C   UNL A   1      39.835  25.919  28.106  1.00  0.00     0.002 A 
ATOM     80  C   UNL A   1      41.504  27.413  27.184  1.00  0.00     0.091 A 
ATOM     81  F   UNL A   1      42.333  29.201  28.529  1.00  0.00    -0.205 F 
ATOM     82  C   UNL A   1      40.677  26.287  27.060  1.00  0.00     0.022 A 
BRANCH  80  83
ATOM     83  S   UNL A   1      42.462  27.888  25.741  1.00  0.00     0.127 S 
ATOM     84  O   UNL A   1      41.903  29.200  25.429  1.00  0.00    -0.237 OA
ATOM     85  O   UNL A   1      43.824  27.910  26.278  1.00  0.00    -0.237 OA
ATOM     86  O   UNL A   1      42.225  26.846  24.750  1.00  0.00    -0.744 OA
ENDBRANCH  80  83
ENDBRANCH  52  76
BRANCH  64  87
ATOM     87  C   UNL A   1      44.885  28.137  34.975  1.00  0.00     0.023 A 
ATOM     88  C   UNL A   1      46.146  28.720  34.742  1.00  0.00     0.012 A 
ATOM     89  C   UNL A   1      44.804  26.895  35.635  1.00  0.00     0.148 A 
ATOM     90  C   UNL A   1      47.309  28.060  35.130  1.00  0.00     0.002 A 
ATOM     91  C   UNL A   1      45.965  26.272  36.070  1.00  0.00     0.091 A 
ATOM     92  F   UNL A   1      43.593  26.354  35.833  1.00  0.00    -0.205 F 
ATOM     93  C   UNL A   1      47.219  26.845  35.805  1.00  0.00     0.022 A 
BRANCH  91  94
ATOM     94  S   UNL A   1      45.938  24.763  37.044  1.00  0.00     0.127 S 
ATOM     95  O   UNL A   1      46.260  23.755  36.037  1.00  0.00    -0.237 OA
ATOM     96  O   UNL A   1      46.996  25.010  38.023  1.00  0.00    -0.237 OA
ATOM     97  O   UNL A   1      44.598  24.672  37.610  1.00  0.00    -0.744 OA
ENDBRANCH  91  94
ENDBRANCH  64  87
ENDBRANCH  38  39
ENDBRANCH  31  33
ENDBRANCH  30  31
ENDBRANCH  29  30
ENDBRANCH  28  29
ENDBRANCH  27  28
ENDBRANCH  26  27
ENDBRANCH  25  26
ENDBRANCH  24  25
ENDBRANCH  23  24
ENDBRANCH   1  23
TORSDOF 30
ENDMDL
MODEL 3
REMARK VINA RESULT:      -7.6      6.673     11.873
REMARK SMILES CC[C@@H]([NH3+])C(=O)NCCOCC(=O)OCCOCCOCCOCCOC(=O)c1ccc(-c2c3nc(c(-c4cccc(S(=O)(=O)[O-])c4F)c4ccc([nH]4)c(-c4cccc(S(=O)(=O)[O-])c4F)c4nc(c(-c5cccc(S(=O)(=O)[O-])c5F)c5ccc2[nH]5)C=C4)C=C3)cc1
REMARK SMILES IDX 18 1 17 2 16 3 15 4 14 5 12 6 13 7 11 8 10 9 9 10 8 11 7 12
REMARK SMILES IDX 5 13 6 14 3 16 2 17 1 18 4 19 19 23 20 24 21 25 22 26 23 27
REMARK SMILES IDX 24 28 25 29 26 30 27 31 28 32 29 33 30 34 91 35 31 36 90 37
REMARK SMILES IDX 32 38 33 39 34 40 84 41 35 42 89 43 83 44 85 45 36 46 88 47
REMARK SMILES IDX 82 48 81 49 37 51 69 52 49 53 68 54 50 55 53 56 67 57 86 58
REMARK SMILES IDX 51 59 52 60 66 62 87 63 54 64 38 65 39 66 47 67 40 68 42 69
REMARK SMILES IDX 48 70 41 71 43 72 44 73 45 74 46 75 70 76 71 77 79 78 72 79
REMARK SMILES IDX 74 80 80 81 73 82 75 83 76 84 77 85 78 86 55 87 56 88 64 89
REMARK SMILES IDX 57 90 59 91 65 92 58 93 60 94 61 95 62 96 63 97
REMARK H PARENT 7 15 4 20 4 21 4 22 85 50 53 61
REMARK Flexibility Score: inf
ROOT
ATOM      1  C   UNL A   1      34.045  29.228  26.464  1.00  0.00     0.188 C 
ENDROOT
BRANCH   1   2
ATOM      2  O   UNL A   1      33.399  27.997  26.774  1.00  0.00    -0.376 OA
BRANCH   2   3
ATOM      3  C   UNL A   1      33.478  26.973  25.783  1.00  0.00     0.202 C 
BRANCH   3   4
ATOM      4  C   UNL A   1      33.028  25.555  26.193  1.00  0.00     0.261 C 
BRANCH   4   5
ATOM      5  O   UNL A   1      34.007  24.493  26.032  1.00  0.00    -0.462 OA
BRANCH   5   6
ATOM      6  C   UNL A   1      33.926  23.780  24.880  1.00  0.00     0.332 C 
ATOM      7  O   UNL A   1      34.697  23.915  23.931  1.00  0.00    -0.250 OA
BRANCH   6   8
ATOM      8  C   UNL A   1      32.773  22.739  24.804  1.00  0.00     0.282 C 
BRANCH   8   9
ATOM      9  O   UNL A   1      32.306  21.737  25.671  1.00  0.00    -0.368 OA
BRANCH   9  10
ATOM     10  C   UNL A   1      32.589  20.368  25.406  1.00  0.00     0.182 C 
BRANCH  10  11
ATOM     11  C   UNL A   1      34.018  19.975  24.950  1.00  0.00     0.144 C 
BRANCH  11  12
ATOM     12  N   UNL A   1      34.075  18.975  23.890  1.00  0.00    -0.349 N 
ATOM     13  C   UNL A   1      33.854  17.630  23.879  1.00  0.00     0.278 C 
ATOM     14  O   UNL A   1      33.831  17.095  22.763  1.00  0.00    -0.268 OA
ATOM     15  H   UNL A   1      34.322  19.342  23.011  1.00  0.00     0.163 HD
BRANCH  13  16
ATOM     16  C   UNL A   1      33.669  16.749  25.140  1.00  0.00     0.270 C 
BRANCH  16  17
ATOM     17  C   UNL A   1      32.544  15.728  24.991  1.00  0.00     0.072 C 
ATOM     18  C   UNL A   1      32.596  14.537  25.937  1.00  0.00     0.011 C 
ENDBRANCH  16  17
BRANCH  16  19
ATOM     19  N   UNL A   1      34.940  16.132  25.554  1.00  0.00    -0.347 N 
ATOM     20  H   UNL A   1      35.132  16.367  26.527  1.00  0.00     0.345 HD
ATOM     21  H   UNL A   1      35.695  16.482  24.964  1.00  0.00     0.345 HD
ATOM     22  H   UNL A   1      34.874  15.119  25.456  1.00  0.00     0.345 HD
ENDBRANCH  16  19
ENDBRANCH  13  16
ENDBRANCH  11  12
ENDBRANCH  10  11
ENDBRANCH   9  10
ENDBRANCH   8   9
ENDBRANCH   6   8
ENDBRANCH   5   6
ENDBRANCH   4   5
ENDBRANCH   3   4
ENDBRANCH   2   3
ENDBRANCH   1   2
BRANCH   1  23
ATOM     23  C   UNL A   1      34.221  30.185  27.642  1.00  0.00     0.188 C 
BRANCH  23  24
ATOM     24  O   UNL A   1      33.680  31.474  27.404  1.00  0.00    -0.377 OA
BRANCH  24  25
ATOM     25  C   UNL A   1      33.881  32.499  28.370  1.00  0.00     0.188 C 
BRANCH  25  26
ATOM     26  C   UNL A   1      34.834  33.633  27.990  1.00  0.00     0.188 C 
BRANCH  26  27
ATOM     27  O   UNL A   1      34.611  34.905  28.610  1.00  0.00    -0.376 OA
BRANCH  27  28
ATOM     28  C   UNL A   1      33.288  35.435  28.625  1.00  0.00     0.202 C 
BRANCH  28  29
ATOM     29  C   UNL A   1      32.880  36.242  29.852  1.00  0.00     0.261 C 
BRANCH  29  30
ATOM     30  O   UNL A   1      32.581  35.398  30.960  1.00  0.00    -0.460 OA
BRANCH  30  31
ATOM     31  C   UNL A   1      33.303  35.649  32.075  1.00  0.00     0.338 C 
ATOM     32  O   UNL A   1      33.038  36.419  32.983  1.00  0.00    -0.246 OA
BRANCH  31  33
ATOM     33  C   UNL A   1      34.391  34.664  32.118  1.00  0.00     0.060 A 
ATOM     34  C   UNL A   1      34.141  33.410  32.691  1.00  0.00     0.016 A 
ATOM     35  C   UNL A   1      35.645  34.991  31.598  1.00  0.00     0.016 A 
ATOM     36  C   UNL A   1      35.164  32.480  32.779  1.00  0.00     0.010 A 
ATOM     37  C   UNL A   1      36.676  34.072  31.711  1.00  0.00     0.010 A 
ATOM     38  C   UNL A   1      36.442  32.839  32.341  1.00  0.00    -0.014 A 
BRANCH  38  39
ATOM     39  C   UNL A   1      37.597  32.041  32.775  1.00  0.00     0.031 A 
ATOM     40  C   UNL A   1      38.245  32.423  34.072  1.00  0.00     0.074 A 
ATOM     41  C   UNL A   1      38.058  31.045  32.006  1.00  0.00     0.049 A 
ATOM     42  N   UNL A   1      39.329  31.955  34.622  1.00  0.00    -0.248 NA
ATOM     43  C   UNL A   1      37.586  33.492  34.851  1.00  0.00     0.031 C 
ATOM     44  C   UNL A   1      37.467  30.610  30.740  1.00  0.00     0.029 A 
ATOM     45  N   UNL A   1      39.155  30.245  32.163  1.00  0.00    -0.354 N 
ATOM     46  C   UNL A   1      39.510  32.702  35.780  1.00  0.00     0.074 A 
ATOM     47  C   UNL A   1      38.425  33.650  35.861  1.00  0.00     0.031 C 
ATOM     48  C   UNL A   1      38.235  29.640  30.214  1.00  0.00     0.029 A 
ATOM     49  C   UNL A   1      39.383  29.420  31.089  1.00  0.00     0.049 A 
ATOM     50  H   UNL A   1      39.726  30.260  32.965  1.00  0.00     0.167 HD
ATOM     51  C   UNL A   1      40.503  32.597  36.691  1.00  0.00     0.034 A 
ATOM     52  C   UNL A   1      40.428  28.609  30.840  1.00  0.00     0.034 A 
ATOM     53  C   UNL A   1      41.562  31.635  36.587  1.00  0.00     0.049 A 
ATOM     54  C   UNL A   1      41.528  28.530  31.866  1.00  0.00     0.074 A 
ATOM     55  C   UNL A   1      42.590  31.389  37.476  1.00  0.00     0.029 A 
ATOM     56  N   UNL A   1      41.737  30.775  35.514  1.00  0.00    -0.354 N 
ATOM     57  N   UNL A   1      41.633  29.153  33.016  1.00  0.00    -0.248 NA
ATOM     58  C   UNL A   1      42.639  27.614  31.575  1.00  0.00     0.031 C 
ATOM     59  C   UNL A   1      43.415  30.409  36.916  1.00  0.00     0.029 A 
ATOM     60  C   UNL A   1      42.871  30.009  35.705  1.00  0.00     0.049 A 
ATOM     61  H   UNL A   1      41.142  30.718  34.732  1.00  0.00     0.167 HD
ATOM     62  C   UNL A   1      42.796  28.673  33.606  1.00  0.00     0.074 A 
ATOM     63  C   UNL A   1      43.351  27.697  32.690  1.00  0.00     0.031 C 
ATOM     64  C   UNL A   1      43.362  29.008  34.793  1.00  0.00     0.034 A 
BRANCH  51  65
ATOM     65  C   UNL A   1      40.494  33.546  37.856  1.00  0.00     0.023 A 
ATOM     66  C   UNL A   1      41.194  34.768  37.784  1.00  0.00     0.012 A 
ATOM     67  C   UNL A   1      39.745  33.246  39.010  1.00  0.00     0.148 A 
ATOM     68  C   UNL A   1      41.168  35.664  38.853  1.00  0.00     0.002 A 
ATOM     69  C   UNL A   1      39.683  34.164  40.050  1.00  0.00     0.091 A 
ATOM     70  F   UNL A   1      39.114  32.064  39.072  1.00  0.00    -0.205 F 
ATOM     71  C   UNL A   1      40.404  35.368  39.978  1.00  0.00     0.022 A 
BRANCH  69  72
ATOM     72  S   UNL A   1      38.664  33.912  41.506  1.00  0.00     0.127 S 
ATOM     73  O   UNL A   1      39.198  34.922  42.419  1.00  0.00    -0.237 OA
ATOM     74  O   UNL A   1      37.325  34.199  40.994  1.00  0.00    -0.237 OA
ATOM     75  O   UNL A   1      38.878  32.531  41.916  1.00  0.00    -0.744 OA
ENDBRANCH  69  72
ENDBRANCH  51  65
BRANCH  52  76
ATOM     76  C   UNL A   1      40.472  27.799  29.592  1.00  0.00     0.023 A 
ATOM     77  C   UNL A   1      39.653  26.658  29.477  1.00  0.00     0.012 A 
ATOM     78  C   UNL A   1      41.311  28.153  28.517  1.00  0.00     0.148 A 
ATOM     79  C   UNL A   1      39.699  25.862  28.333  1.00  0.00     0.002 A 
ATOM     80  C   UNL A   1      41.311  27.386  27.358  1.00  0.00     0.091 A 
ATOM     81  F   UNL A   1      42.089  29.236  28.648  1.00  0.00    -0.205 F 
ATOM     82  C   UNL A   1      40.521  26.230  27.270  1.00  0.00     0.022 A 
BRANCH  80  83
ATOM     83  S   UNL A   1      42.242  27.853  25.894  1.00  0.00     0.127 S 
ATOM     84  O   UNL A   1      43.610  27.871  26.405  1.00  0.00    -0.237 OA
ATOM     85  O   UNL A   1      41.940  26.750  24.981  1.00  0.00    -0.237 OA
ATOM     86  O   UNL A   1      41.704  29.142  25.479  1.00  0.00    -0.744 OA
ENDBRANCH  80  83
ENDBRANCH  52  76
BRANCH  64  87
ATOM     87  C   UNL A   1      44.611  28.273  35.198  1.00  0.00     0.023 A 
ATOM     88  C   UNL A   1      45.878  28.826  34.929  1.00  0.00     0.012 A 
ATOM     89  C   UNL A   1      44.516  27.072  35.928  1.00  0.00     0.148 A 
ATOM     90  C   UNL A   1      47.034  28.174  35.351  1.00  0.00     0.002 A 
ATOM     91  C   UNL A   1      45.670  26.460  36.396  1.00  0.00     0.091 A 
ATOM     92  F   UNL A   1      43.299  26.559  36.161  1.00  0.00    -0.205 F 
ATOM     93  C   UNL A   1      46.930  27.001  36.095  1.00  0.00     0.022 A 
BRANCH  91  94
ATOM     94  S   UNL A   1      45.628  25.011  37.455  1.00  0.00     0.127 S 
ATOM     95  O   UNL A   1      44.536  24.242  36.861  1.00  0.00    -0.237 OA
ATOM     96  O   UNL A   1      46.959  24.441  37.250  1.00  0.00    -0.237 OA
ATOM     97  O   UNL A   1      45.381  25.503  38.804  1.00  0.00    -0.744 OA
ENDBRANCH  91  94
ENDBRANCH  64  87
ENDBRANCH  38  39
ENDBRANCH  31  33
ENDBRANCH  30  31
ENDBRANCH  29  30
ENDBRANCH  28  29
ENDBRANCH  27  28
ENDBRANCH  26  27
ENDBRANCH  25  26
ENDBRANCH  24  25
ENDBRANCH  23  24
ENDBRANCH   1  23
TORSDOF 30
ENDMDL
