MODEL 1
REMARK VINA RESULT:     -10.2      0.000      0.000
REMARK SMILES CO[C@@H]1C[C@@H](C(=O)OCCOCCOCCOCCOC(=O)c2ccc(-c3c4nc(c(-c5cccc(S(=O)(=O)[O-])c5F)c5ccc([nH]5)c(-c5cccc(S(=O)(=O)[O-])c5F)c5nc(c(-c6cccc(S(=O)(=O)[O-])c6F)c6ccc3[nH]6)C=C5)C=C4)cc2)N(S(=O)(=O)c2ccc(Cl)cc2F)C1
REMARK SMILES IDX 15 1 14 2 13 3 12 4 11 5 10 6 9 7 8 8 6 9 7 10 5 11 3 12
REMARK SMILES IDX 4 13 98 14 86 15 2 16 1 17 87 18 88 19 89 20 90 21 91 22
REMARK SMILES IDX 96 23 92 24 95 25 97 26 93 27 94 28 16 29 17 30 18 31 19 32
REMARK SMILES IDX 20 33 21 34 22 35 23 36 24 37 85 38 25 39 84 40 26 41 27 42
REMARK SMILES IDX 28 43 78 44 29 45 83 46 77 47 79 48 30 49 82 50 76 51 75 52
REMARK SMILES IDX 31 54 63 55 43 56 62 57 44 58 47 59 61 60 80 61 45 62 46 63
REMARK SMILES IDX 60 65 81 66 48 67 32 68 33 69 41 70 34 71 36 72 42 73 35 74
REMARK SMILES IDX 37 75 38 76 39 77 40 78 64 79 65 80 73 81 66 82 68 83 74 84
REMARK SMILES IDX 67 85 69 86 70 87 71 88 72 89 49 90 50 91 58 92 51 93 53 94
REMARK SMILES IDX 59 95 52 96 54 97 55 98 56 99 57 100
REMARK H PARENT 79 53 47 64
REMARK Flexibility Score: inf
ROOT
ATOM      1  C   UNL A   1      35.491  22.022  25.299  1.00  0.00     0.188 C 
ENDROOT
BRANCH   1   2
ATOM      2  O   UNL A   1      34.878  21.642  26.529  1.00  0.00    -0.377 OA
BRANCH   2   3
ATOM      3  C   UNL A   1      34.218  22.644  27.276  1.00  0.00     0.188 C 
BRANCH   3   4
ATOM      4  C   UNL A   1      32.690  22.454  27.325  1.00  0.00     0.188 C 
BRANCH   4   5
ATOM      5  O   UNL A   1      32.148  21.594  26.336  1.00  0.00    -0.376 OA
BRANCH   5   6
ATOM      6  C   UNL A   1      31.851  22.011  25.010  1.00  0.00     0.202 C 
BRANCH   6   7
ATOM      7  C   UNL A   1      31.061  23.289  24.683  1.00  0.00     0.261 C 
BRANCH   7   8
ATOM      8  O   UNL A   1      31.487  24.528  25.268  1.00  0.00    -0.462 OA
BRANCH   8   9
ATOM      9  C   UNL A   1      32.495  25.214  24.690  1.00  0.00     0.324 C 
ATOM     10  O   UNL A   1      33.292  24.762  23.883  1.00  0.00    -0.250 OA
BRANCH   9  11
ATOM     11  C   UNL A   1      32.499  26.637  25.156  1.00  0.00     0.185 C 
ATOM     12  C   UNL A   1      31.635  28.209  26.739  1.00  0.00     0.135 C 
ATOM     13  C   UNL A   1      31.902  26.729  26.557  1.00  0.00     0.065 C 
ATOM     14  C   UNL A   1      31.498  28.765  25.299  1.00  0.00     0.135 C 
ATOM     15  N   UNL A   1      31.752  27.624  24.337  1.00  0.00    -0.181 NA
BRANCH  12  16
ATOM     16  O   UNL A   1      32.729  28.834  27.425  1.00  0.00    -0.380 OA
ATOM     17  C   UNL A   1      32.761  30.252  27.258  1.00  0.00     0.195 C 
ENDBRANCH  12  16
BRANCH  15  18
ATOM     18  S   UNL A   1      30.333  27.118  23.499  1.00  0.00     0.246 S 
ATOM     19  O   UNL A   1      30.783  26.184  22.490  1.00  0.00    -0.207 OA
ATOM     20  O   UNL A   1      29.397  26.679  24.514  1.00  0.00    -0.207 OA
BRANCH  18  21
ATOM     21  C   UNL A   1      29.607  28.553  22.746  1.00  0.00     0.118 A 
ATOM     22  C   UNL A   1      30.419  29.486  22.090  1.00  0.00     0.026 A 
ATOM     23  C   UNL A   1      28.229  28.771  22.808  1.00  0.00     0.144 A 
ATOM     24  C   UNL A   1      29.835  30.594  21.456  1.00  0.00     0.022 A 
ATOM     25  C   UNL A   1      27.642  29.843  22.136  1.00  0.00     0.061 A 
ATOM     26  F   UNL A   1      27.410  27.934  23.458  1.00  0.00    -0.205 F 
ATOM     27  C   UNL A   1      28.448  30.754  21.463  1.00  0.00     0.044 A 
ATOM     28  Cl  UNL A   1      27.720  32.047  20.592  1.00  0.00    -0.084 Cl
ENDBRANCH  18  21
ENDBRANCH  15  18
ENDBRANCH   9  11
ENDBRANCH   8   9
ENDBRANCH   7   8
ENDBRANCH   6   7
ENDBRANCH   5   6
ENDBRANCH   4   5
ENDBRANCH   3   4
ENDBRANCH   2   3
ENDBRANCH   1   2
BRANCH   1  29
ATOM     29  C   UNL A   1      36.999  22.340  25.256  1.00  0.00     0.188 C 
BRANCH  29  30
ATOM     30  O   UNL A   1      37.764  21.341  24.592  1.00  0.00    -0.376 OA
BRANCH  30  31
ATOM     31  C   UNL A   1      37.599  19.990  24.978  1.00  0.00     0.202 C 
BRANCH  31  32
ATOM     32  C   UNL A   1      38.875  19.227  25.362  1.00  0.00     0.261 C 
BRANCH  32  33
ATOM     33  O   UNL A   1      39.603  19.725  26.495  1.00  0.00    -0.460 OA
BRANCH  33  34
ATOM     34  C   UNL A   1      40.918  19.994  26.337  1.00  0.00     0.338 C 
ATOM     35  O   UNL A   1      41.729  19.315  25.728  1.00  0.00    -0.246 OA
BRANCH  34  36
ATOM     36  C   UNL A   1      41.170  21.374  26.819  1.00  0.00     0.060 A 
ATOM     37  C   UNL A   1      40.651  22.447  26.078  1.00  0.00     0.016 A 
ATOM     38  C   UNL A   1      41.886  21.613  27.995  1.00  0.00     0.016 A 
ATOM     39  C   UNL A   1      40.908  23.760  26.472  1.00  0.00     0.010 A 
ATOM     40  C   UNL A   1      42.164  22.931  28.375  1.00  0.00     0.010 A 
ATOM     41  C   UNL A   1      41.722  24.006  27.584  1.00  0.00    -0.014 A 
BRANCH  41  42
ATOM     42  C   UNL A   1      42.326  25.351  27.740  1.00  0.00     0.031 A 
ATOM     43  C   UNL A   1      41.497  26.421  28.402  1.00  0.00     0.074 A 
ATOM     44  C   UNL A   1      43.583  25.620  27.347  1.00  0.00     0.049 A 
ATOM     45  N   UNL A   1      41.802  27.661  28.675  1.00  0.00    -0.248 NA
ATOM     46  C   UNL A   1      40.135  26.033  28.812  1.00  0.00     0.031 C 
ATOM     47  C   UNL A   1      44.489  24.673  26.701  1.00  0.00     0.029 A 
ATOM     48  N   UNL A   1      44.304  26.785  27.420  1.00  0.00    -0.354 N 
ATOM     49  C   UNL A   1      40.665  28.210  29.258  1.00  0.00     0.074 A 
ATOM     50  C   UNL A   1      39.659  27.173  29.287  1.00  0.00     0.031 C 
ATOM     51  C   UNL A   1      45.638  25.308  26.405  1.00  0.00     0.029 A 
ATOM     52  C   UNL A   1      45.540  26.705  26.824  1.00  0.00     0.049 A 
ATOM     53  H   UNL A   1      43.968  27.602  27.857  1.00  0.00     0.167 HD
ATOM     54  C   UNL A   1      40.476  29.459  29.743  1.00  0.00     0.034 A 
ATOM     55  C   UNL A   1      46.472  27.659  26.620  1.00  0.00     0.034 A 
ATOM     56  C   UNL A   1      41.477  30.489  29.722  1.00  0.00     0.049 A 
ATOM     57  C   UNL A   1      46.235  29.050  27.150  1.00  0.00     0.074 A 
ATOM     58  C   UNL A   1      41.401  31.773  30.228  1.00  0.00     0.029 A 
ATOM     59  N   UNL A   1      42.731  30.360  29.144  1.00  0.00    -0.354 N 
ATOM     60  N   UNL A   1      45.203  29.521  27.808  1.00  0.00    -0.248 NA
ATOM     61  C   UNL A   1      47.310  30.033  26.944  1.00  0.00     0.031 C 
ATOM     62  C   UNL A   1      42.594  32.435  29.920  1.00  0.00     0.029 A 
ATOM     63  C   UNL A   1      43.433  31.547  29.266  1.00  0.00     0.049 A 
ATOM     64  H   UNL A   1      43.072  29.544  28.712  1.00  0.00     0.167 HD
ATOM     65  C   UNL A   1      45.517  30.840  28.126  1.00  0.00     0.074 A 
ATOM     66  C   UNL A   1      46.847  31.084  27.608  1.00  0.00     0.031 C 
ATOM     67  C   UNL A   1      44.772  31.766  28.780  1.00  0.00     0.034 A 
BRANCH  54  68
ATOM     68  C   UNL A   1      39.127  29.776  30.334  1.00  0.00     0.023 A 
ATOM     69  C   UNL A   1      38.737  29.191  31.557  1.00  0.00     0.012 A 
ATOM     70  C   UNL A   1      38.254  30.671  29.687  1.00  0.00     0.148 A 
ATOM     71  C   UNL A   1      37.485  29.462  32.106  1.00  0.00     0.002 A 
ATOM     72  C   UNL A   1      37.027  30.974  30.266  1.00  0.00     0.091 A 
ATOM     73  F   UNL A   1      38.630  31.195  28.512  1.00  0.00    -0.205 F 
ATOM     74  C   UNL A   1      36.635  30.360  31.466  1.00  0.00     0.022 A 
BRANCH  72  75
ATOM     75  S   UNL A   1      35.899  32.180  29.559  1.00  0.00     0.127 S 
ATOM     76  O   UNL A   1      34.707  31.986  30.382  1.00  0.00    -0.237 OA
ATOM     77  O   UNL A   1      36.607  33.438  29.800  1.00  0.00    -0.237 OA
ATOM     78  O   UNL A   1      35.756  31.823  28.155  1.00  0.00    -0.744 OA
ENDBRANCH  72  75
ENDBRANCH  54  68
BRANCH  55  79
ATOM     79  C   UNL A   1      47.729  27.324  25.890  1.00  0.00     0.023 A 
ATOM     80  C   UNL A   1      48.801  26.718  26.572  1.00  0.00     0.012 A 
ATOM     81  C   UNL A   1      47.855  27.594  24.513  1.00  0.00     0.148 A 
ATOM     82  C   UNL A   1      49.988  26.417  25.903  1.00  0.00     0.002 A 
ATOM     83  C   UNL A   1      49.016  27.235  23.840  1.00  0.00     0.091 A 
ATOM     84  F   UNL A   1      46.829  28.188  23.887  1.00  0.00    -0.205 F 
ATOM     85  C   UNL A   1      50.092  26.664  24.536  1.00  0.00     0.022 A 
BRANCH  83  86
ATOM     86  S   UNL A   1      49.186  27.393  22.060  1.00  0.00     0.127 S 
ATOM     87  O   UNL A   1      50.634  27.484  21.903  1.00  0.00    -0.237 OA
ATOM     88  O   UNL A   1      48.591  26.140  21.592  1.00  0.00    -0.237 OA
ATOM     89  O   UNL A   1      48.435  28.586  21.694  1.00  0.00    -0.744 OA
ENDBRANCH  83  86
ENDBRANCH  55  79
BRANCH  67  90
ATOM     90  C   UNL A   1      45.389  33.122  29.016  1.00  0.00     0.023 A 
ATOM     91  C   UNL A   1      46.210  33.342  30.140  1.00  0.00     0.012 A 
ATOM     92  C   UNL A   1      45.199  34.166  28.088  1.00  0.00     0.148 A 
ATOM     93  C   UNL A   1      46.792  34.591  30.362  1.00  0.00     0.002 A 
ATOM     94  C   UNL A   1      45.826  35.390  28.285  1.00  0.00     0.091 A 
ATOM     95  F   UNL A   1      44.404  33.945  27.032  1.00  0.00    -0.205 F 
ATOM     96  C   UNL A   1      46.609  35.610  29.430  1.00  0.00     0.022 A 
BRANCH  94  97
ATOM     97  S   UNL A   1      45.729  36.724  27.086  1.00  0.00     0.127 S 
ATOM     98  O   UNL A   1      44.285  36.902  26.956  1.00  0.00    -0.237 OA
ATOM     99  O   UNL A   1      46.419  37.814  27.779  1.00  0.00    -0.237 OA
ATOM    100  O   UNL A   1      46.412  36.242  25.894  1.00  0.00    -0.744 OA
ENDBRANCH  94  97
ENDBRANCH  67  90
ENDBRANCH  41  42
ENDBRANCH  34  36
ENDBRANCH  33  34
ENDBRANCH  32  33
ENDBRANCH  31  32
ENDBRANCH  30  31
ENDBRANCH  29  30
ENDBRANCH   1  29
TORSDOF 26
ENDMDL
MODEL 2
REMARK VINA RESULT:     -10.1      1.694      7.347
REMARK SMILES CO[C@@H]1C[C@@H](C(=O)OCCOCCOCCOCCOC(=O)c2ccc(-c3c4nc(c(-c5cccc(S(=O)(=O)[O-])c5F)c5ccc([nH]5)c(-c5cccc(S(=O)(=O)[O-])c5F)c5nc(c(-c6cccc(S(=O)(=O)[O-])c6F)c6ccc3[nH]6)C=C5)C=C4)cc2)N(S(=O)(=O)c2ccc(Cl)cc2F)C1
REMARK SMILES IDX 15 1 14 2 13 3 12 4 11 5 10 6 9 7 8 8 6 9 7 10 5 11 3 12
REMARK SMILES IDX 4 13 98 14 86 15 2 16 1 17 87 18 88 19 89 20 90 21 91 22
REMARK SMILES IDX 96 23 92 24 95 25 97 26 93 27 94 28 16 29 17 30 18 31 19 32
REMARK SMILES IDX 20 33 21 34 22 35 23 36 24 37 85 38 25 39 84 40 26 41 27 42
REMARK SMILES IDX 28 43 78 44 29 45 83 46 77 47 79 48 30 49 82 50 76 51 75 52
REMARK SMILES IDX 31 54 63 55 43 56 62 57 44 58 47 59 61 60 80 61 45 62 46 63
REMARK SMILES IDX 60 65 81 66 48 67 32 68 33 69 41 70 34 71 36 72 42 73 35 74
REMARK SMILES IDX 37 75 38 76 39 77 40 78 64 79 65 80 73 81 66 82 68 83 74 84
REMARK SMILES IDX 67 85 69 86 70 87 71 88 72 89 49 90 50 91 58 92 51 93 53 94
REMARK SMILES IDX 59 95 52 96 54 97 55 98 56 99 57 100
REMARK H PARENT 79 53 47 64
REMARK Flexibility Score: inf
ROOT
ATOM      1  C   UNL A   1      35.570  22.148  25.172  1.00  0.00     0.188 C 
ENDROOT
BRANCH   1   2
ATOM      2  O   UNL A   1      34.768  21.334  26.024  1.00  0.00    -0.377 OA
BRANCH   2   3
ATOM      3  C   UNL A   1      34.395  21.859  27.282  1.00  0.00     0.188 C 
BRANCH   3   4
ATOM      4  C   UNL A   1      32.874  22.046  27.432  1.00  0.00     0.188 C 
BRANCH   4   5
ATOM      5  O   UNL A   1      32.103  21.737  26.282  1.00  0.00    -0.376 OA
BRANCH   5   6
ATOM      6  C   UNL A   1      31.208  22.654  25.667  1.00  0.00     0.202 C 
BRANCH   6   7
ATOM      7  C   UNL A   1      30.643  23.893  26.382  1.00  0.00     0.261 C 
BRANCH   7   8
ATOM      8  O   UNL A   1      31.549  24.939  26.762  1.00  0.00    -0.462 OA
BRANCH   8   9
ATOM      9  C   UNL A   1      32.408  25.428  25.844  1.00  0.00     0.324 C 
ATOM     10  O   UNL A   1      33.054  24.763  25.048  1.00  0.00    -0.250 OA
BRANCH   9  11
ATOM     11  C   UNL A   1      32.454  26.923  25.908  1.00  0.00     0.185 C 
ATOM     12  C   UNL A   1      31.527  28.896  26.895  1.00  0.00     0.135 C 
ATOM     13  C   UNL A   1      31.715  27.415  27.150  1.00  0.00     0.065 C 
ATOM     14  C   UNL A   1      31.583  29.041  25.354  1.00  0.00     0.135 C 
ATOM     15  N   UNL A   1      31.865  27.673  24.770  1.00  0.00    -0.181 NA
BRANCH  12  16
ATOM     16  O   UNL A   1      32.578  29.649  27.516  1.00  0.00    -0.380 OA
ATOM     17  C   UNL A   1      33.498  30.209  26.580  1.00  0.00     0.195 C 
ENDBRANCH  12  16
BRANCH  15  18
ATOM     18  S   UNL A   1      30.516  27.004  23.932  1.00  0.00     0.246 S 
ATOM     19  O   UNL A   1      31.062  26.011  23.033  1.00  0.00    -0.207 OA
ATOM     20  O   UNL A   1      29.565  26.602  24.949  1.00  0.00    -0.207 OA
BRANCH  18  21
ATOM     21  C   UNL A   1      29.738  28.314  23.021  1.00  0.00     0.118 A 
ATOM     22  C   UNL A   1      28.357  28.517  23.128  1.00  0.00     0.026 A 
ATOM     23  C   UNL A   1      30.488  29.144  22.185  1.00  0.00     0.144 A 
ATOM     24  C   UNL A   1      27.754  29.583  22.442  1.00  0.00     0.022 A 
ATOM     25  C   UNL A   1      29.901  30.234  21.542  1.00  0.00     0.061 A 
ATOM     26  F   UNL A   1      31.805  28.969  22.011  1.00  0.00    -0.205 F 
ATOM     27  C   UNL A   1      28.533  30.450  21.671  1.00  0.00     0.044 A 
ATOM     28  Cl  UNL A   1      27.818  31.823  20.921  1.00  0.00    -0.084 Cl
ENDBRANCH  18  21
ENDBRANCH  15  18
ENDBRANCH   9  11
ENDBRANCH   8   9
ENDBRANCH   7   8
ENDBRANCH   6   7
ENDBRANCH   5   6
ENDBRANCH   4   5
ENDBRANCH   3   4
ENDBRANCH   2   3
ENDBRANCH   1   2
BRANCH   1  29
ATOM     29  C   UNL A   1      37.082  22.291  25.442  1.00  0.00     0.188 C 
BRANCH  29  30
ATOM     30  O   UNL A   1      37.873  21.367  24.703  1.00  0.00    -0.376 OA
BRANCH  30  31
ATOM     31  C   UNL A   1      37.855  20.004  25.079  1.00  0.00     0.202 C 
BRANCH  31  32
ATOM     32  C   UNL A   1      39.206  19.381  25.460  1.00  0.00     0.261 C 
BRANCH  32  33
ATOM     33  O   UNL A   1      39.891  19.969  26.577  1.00  0.00    -0.460 OA
BRANCH  33  34
ATOM     34  C   UNL A   1      41.126  20.475  26.370  1.00  0.00     0.338 C 
ATOM     35  O   UNL A   1      41.999  19.991  25.669  1.00  0.00    -0.246 OA
BRANCH  34  36
ATOM     36  C   UNL A   1      41.168  21.843  26.941  1.00  0.00     0.060 A 
ATOM     37  C   UNL A   1      40.602  22.894  26.204  1.00  0.00     0.016 A 
ATOM     38  C   UNL A   1      41.735  22.090  28.194  1.00  0.00     0.016 A 
ATOM     39  C   UNL A   1      40.665  24.201  26.685  1.00  0.00     0.010 A 
ATOM     40  C   UNL A   1      41.821  23.404  28.665  1.00  0.00     0.010 A 
ATOM     41  C   UNL A   1      41.335  24.469  27.885  1.00  0.00    -0.014 A 
BRANCH  41  42
ATOM     42  C   UNL A   1      41.761  25.862  28.166  1.00  0.00     0.031 A 
ATOM     43  C   UNL A   1      43.154  26.266  27.756  1.00  0.00     0.074 A 
ATOM     44  C   UNL A   1      40.938  26.761  28.731  1.00  0.00     0.049 A 
ATOM     45  N   UNL A   1      43.753  27.421  27.869  1.00  0.00    -0.248 NA
ATOM     46  C   UNL A   1      43.982  25.218  27.131  1.00  0.00     0.031 C 
ATOM     47  C   UNL A   1      39.569  26.499  29.167  1.00  0.00     0.029 A 
ATOM     48  N   UNL A   1      41.151  28.078  29.053  1.00  0.00    -0.354 N 
ATOM     49  C   UNL A   1      45.034  27.233  27.360  1.00  0.00     0.074 A 
ATOM     50  C   UNL A   1      45.131  25.850  26.952  1.00  0.00     0.031 C 
ATOM     51  C   UNL A   1      39.074  27.615  29.733  1.00  0.00     0.029 A 
ATOM     52  C   UNL A   1      40.096  28.661  29.713  1.00  0.00     0.049 A 
ATOM     53  H   UNL A   1      41.981  28.561  28.832  1.00  0.00     0.167 HD
ATOM     54  C   UNL A   1      46.037  28.132  27.229  1.00  0.00     0.034 A 
ATOM     55  C   UNL A   1      39.981  29.889  30.259  1.00  0.00     0.034 A 
ATOM     56  C   UNL A   1      45.940  29.509  27.628  1.00  0.00     0.049 A 
ATOM     57  C   UNL A   1      41.117  30.869  30.119  1.00  0.00     0.074 A 
ATOM     58  C   UNL A   1      46.882  30.511  27.496  1.00  0.00     0.029 A 
ATOM     59  N   UNL A   1      44.841  30.073  28.259  1.00  0.00    -0.354 N 
ATOM     60  N   UNL A   1      42.277  30.715  29.527  1.00  0.00    -0.248 NA
ATOM     61  C   UNL A   1      40.912  32.210  30.688  1.00  0.00     0.031 C 
ATOM     62  C   UNL A   1      46.370  31.672  28.084  1.00  0.00     0.029 A 
ATOM     63  C   UNL A   1      45.088  31.406  28.537  1.00  0.00     0.049 A 
ATOM     64  H   UNL A   1      44.008  29.595  28.475  1.00  0.00     0.167 HD
ATOM     65  C   UNL A   1      42.924  31.943  29.620  1.00  0.00     0.074 A 
ATOM     66  C   UNL A   1      42.015  32.839  30.305  1.00  0.00     0.031 C 
ATOM     67  C   UNL A   1      44.160  32.298  29.185  1.00  0.00     0.034 A 
BRANCH  54  68
ATOM     68  C   UNL A   1      47.330  27.644  26.629  1.00  0.00     0.023 A 
ATOM     69  C   UNL A   1      47.566  27.790  25.246  1.00  0.00     0.012 A 
ATOM     70  C   UNL A   1      48.320  27.059  27.441  1.00  0.00     0.148 A 
ATOM     71  C   UNL A   1      48.751  27.326  24.676  1.00  0.00     0.002 A 
ATOM     72  C   UNL A   1      49.519  26.644  26.872  1.00  0.00     0.091 A 
ATOM     73  F   UNL A   1      48.066  26.903  28.748  1.00  0.00    -0.205 F 
ATOM     74  C   UNL A   1      49.730  26.763  25.489  1.00  0.00     0.022 A 
BRANCH  72  75
ATOM     75  S   UNL A   1      50.872  25.983  27.851  1.00  0.00     0.127 S 
ATOM     76  O   UNL A   1      51.348  24.896  26.997  1.00  0.00    -0.237 OA
ATOM     77  O   UNL A   1      51.776  27.130  27.937  1.00  0.00    -0.237 OA
ATOM     78  O   UNL A   1      50.288  25.572  29.119  1.00  0.00    -0.744 OA
ENDBRANCH  72  75
ENDBRANCH  54  68
BRANCH  55  79
ATOM     79  C   UNL A   1      38.730  30.267  30.978  1.00  0.00     0.023 A 
ATOM     80  C   UNL A   1      38.547  29.889  32.321  1.00  0.00     0.012 A 
ATOM     81  C   UNL A   1      37.727  31.016  30.331  1.00  0.00     0.148 A 
ATOM     82  C   UNL A   1      37.373  30.222  32.999  1.00  0.00     0.002 A 
ATOM     83  C   UNL A   1      36.588  31.396  31.030  1.00  0.00     0.091 A 
ATOM     84  F   UNL A   1      37.913  31.350  29.047  1.00  0.00    -0.205 F 
ATOM     85  C   UNL A   1      36.399  30.985  32.358  1.00  0.00     0.022 A 
BRANCH  83  86
ATOM     86  S   UNL A   1      35.347  32.489  30.329  1.00  0.00     0.127 S 
ATOM     87  O   UNL A   1      34.412  32.633  31.441  1.00  0.00    -0.237 OA
ATOM     88  O   UNL A   1      36.138  33.683  30.028  1.00  0.00    -0.237 OA
ATOM     89  O   UNL A   1      34.831  31.800  29.155  1.00  0.00    -0.744 OA
ENDBRANCH  83  86
ENDBRANCH  55  79
BRANCH  67  90
ATOM     90  C   UNL A   1      44.593  33.728  29.394  1.00  0.00     0.023 A 
ATOM     91  C   UNL A   1      45.293  34.094  30.561  1.00  0.00     0.012 A 
ATOM     92  C   UNL A   1      44.355  34.699  28.401  1.00  0.00     0.148 A 
ATOM     93  C   UNL A   1      45.706  35.412  30.757  1.00  0.00     0.002 A 
ATOM     94  C   UNL A   1      44.817  35.997  28.578  1.00  0.00     0.091 A 
ATOM     95  F   UNL A   1      43.675  34.338  27.303  1.00  0.00    -0.205 F 
ATOM     96  C   UNL A   1      45.478  36.360  29.762  1.00  0.00     0.022 A 
BRANCH  94  97
ATOM     97  S   UNL A   1      44.658  37.257  27.306  1.00  0.00     0.127 S 
ATOM     98  O   UNL A   1      45.237  38.423  27.969  1.00  0.00    -0.237 OA
ATOM     99  O   UNL A   1      45.470  36.705  26.220  1.00  0.00    -0.237 OA
ATOM    100  O   UNL A   1      43.235  37.347  27.008  1.00  0.00    -0.744 OA
ENDBRANCH  94  97
ENDBRANCH  67  90
ENDBRANCH  41  42
ENDBRANCH  34  36
ENDBRANCH  33  34
ENDBRANCH  32  33
ENDBRANCH  31  32
ENDBRANCH  30  31
ENDBRANCH  29  30
ENDBRANCH   1  29
TORSDOF 26
ENDMDL
MODEL 3
REMARK VINA RESULT:      -9.7      1.657      2.608
REMARK SMILES CO[C@@H]1C[C@@H](C(=O)OCCOCCOCCOCCOC(=O)c2ccc(-c3c4nc(c(-c5cccc(S(=O)(=O)[O-])c5F)c5ccc([nH]5)c(-c5cccc(S(=O)(=O)[O-])c5F)c5nc(c(-c6cccc(S(=O)(=O)[O-])c6F)c6ccc3[nH]6)C=C5)C=C4)cc2)N(S(=O)(=O)c2ccc(Cl)cc2F)C1
REMARK SMILES IDX 15 1 14 2 13 3 12 4 11 5 10 6 9 7 8 8 6 9 7 10 5 11 3 12
REMARK SMILES IDX 4 13 98 14 86 15 2 16 1 17 87 18 88 19 89 20 90 21 91 22
REMARK SMILES IDX 96 23 92 24 95 25 97 26 93 27 94 28 16 29 17 30 18 31 19 32
REMARK SMILES IDX 20 33 21 34 22 35 23 36 24 37 85 38 25 39 84 40 26 41 27 42
REMARK SMILES IDX 28 43 78 44 29 45 83 46 77 47 79 48 30 49 82 50 76 51 75 52
REMARK SMILES IDX 31 54 63 55 43 56 62 57 44 58 47 59 61 60 80 61 45 62 46 63
REMARK SMILES IDX 60 65 81 66 48 67 32 68 33 69 41 70 34 71 36 72 42 73 35 74
REMARK SMILES IDX 37 75 38 76 39 77 40 78 64 79 65 80 73 81 66 82 68 83 74 84
REMARK SMILES IDX 67 85 69 86 70 87 71 88 72 89 49 90 50 91 58 92 51 93 53 94
REMARK SMILES IDX 59 95 52 96 54 97 55 98 56 99 57 100
REMARK H PARENT 79 53 47 64
REMARK Flexibility Score: inf
ROOT
ATOM      1  C   UNL A   1      35.844  23.461  25.978  1.00  0.00     0.188 C 
ENDROOT
BRANCH   1   2
ATOM      2  O   UNL A   1      34.421  23.518  26.028  1.00  0.00    -0.377 OA
BRANCH   2   3
ATOM      3  C   UNL A   1      33.754  22.640  26.912  1.00  0.00     0.188 C 
BRANCH   3   4
ATOM      4  C   UNL A   1      32.615  21.853  26.239  1.00  0.00     0.188 C 
BRANCH   4   5
ATOM      5  O   UNL A   1      32.854  21.456  24.898  1.00  0.00    -0.376 OA
BRANCH   5   6
ATOM      6  C   UNL A   1      32.272  22.100  23.772  1.00  0.00     0.202 C 
BRANCH   6   7
ATOM      7  C   UNL A   1      31.131  23.126  23.883  1.00  0.00     0.261 C 
BRANCH   7   8
ATOM      8  O   UNL A   1      31.456  24.481  24.225  1.00  0.00    -0.462 OA
BRANCH   8   9
ATOM      9  C   UNL A   1      31.841  25.330  23.250  1.00  0.00     0.324 C 
ATOM     10  O   UNL A   1      32.734  25.127  22.442  1.00  0.00    -0.250 OA
BRANCH   9  11
ATOM     11  C   UNL A   1      31.003  26.570  23.269  1.00  0.00     0.185 C 
ATOM     12  C   UNL A   1      30.741  28.800  22.443  1.00  0.00     0.135 C 
ATOM     13  C   UNL A   1      31.377  27.470  22.095  1.00  0.00     0.065 C 
ATOM     14  C   UNL A   1      30.600  28.779  23.986  1.00  0.00     0.135 C 
ATOM     15  N   UNL A   1      31.088  27.431  24.476  1.00  0.00    -0.181 NA
BRANCH  12  16
ATOM     16  O   UNL A   1      29.457  28.921  21.816  1.00  0.00    -0.380 OA
ATOM     17  C   UNL A   1      29.005  30.271  21.712  1.00  0.00     0.195 C 
ENDBRANCH  12  16
BRANCH  15  18
ATOM     18  S   UNL A   1      32.577  27.524  25.338  1.00  0.00     0.246 S 
ATOM     19  O   UNL A   1      32.486  26.537  26.392  1.00  0.00    -0.207 OA
ATOM     20  O   UNL A   1      33.628  27.417  24.347  1.00  0.00    -0.207 OA
BRANCH  18  21
ATOM     21  C   UNL A   1      32.708  29.159  26.021  1.00  0.00     0.118 A 
ATOM     22  C   UNL A   1      31.641  30.057  25.894  1.00  0.00     0.026 A 
ATOM     23  C   UNL A   1      33.871  29.567  26.677  1.00  0.00     0.144 A 
ATOM     24  C   UNL A   1      31.732  31.332  26.476  1.00  0.00     0.022 A 
ATOM     25  C   UNL A   1      33.944  30.813  27.299  1.00  0.00     0.061 A 
ATOM     26  F   UNL A   1      34.937  28.764  26.789  1.00  0.00    -0.205 F 
ATOM     27  C   UNL A   1      32.873  31.694  27.194  1.00  0.00     0.044 A 
ATOM     28  Cl  UNL A   1      32.942  33.210  28.004  1.00  0.00    -0.084 Cl
ENDBRANCH  18  21
ENDBRANCH  15  18
ENDBRANCH   9  11
ENDBRANCH   8   9
ENDBRANCH   7   8
ENDBRANCH   6   7
ENDBRANCH   5   6
ENDBRANCH   4   5
ENDBRANCH   3   4
ENDBRANCH   2   3
ENDBRANCH   1   2
BRANCH   1  29
ATOM     29  C   UNL A   1      36.551  22.926  24.715  1.00  0.00     0.188 C 
BRANCH  29  30
ATOM     30  O   UNL A   1      36.006  21.699  24.245  1.00  0.00    -0.376 OA
BRANCH  30  31
ATOM     31  C   UNL A   1      36.383  20.497  24.888  1.00  0.00     0.202 C 
BRANCH  31  32
ATOM     32  C   UNL A   1      37.890  20.228  25.008  1.00  0.00     0.261 C 
BRANCH  32  33
ATOM     33  O   UNL A   1      38.500  20.550  26.267  1.00  0.00    -0.460 OA
BRANCH  33  34
ATOM     34  C   UNL A   1      39.849  20.570  26.331  1.00  0.00     0.338 C 
ATOM     35  O   UNL A   1      40.611  19.753  25.841  1.00  0.00    -0.246 OA
BRANCH  34  36
ATOM     36  C   UNL A   1      40.267  21.879  26.890  1.00  0.00     0.060 A 
ATOM     37  C   UNL A   1      39.661  23.043  26.394  1.00  0.00     0.016 A 
ATOM     38  C   UNL A   1      41.225  21.964  27.904  1.00  0.00     0.016 A 
ATOM     39  C   UNL A   1      40.061  24.295  26.858  1.00  0.00     0.010 A 
ATOM     40  C   UNL A   1      41.644  23.221  28.352  1.00  0.00     0.010 A 
ATOM     41  C   UNL A   1      41.102  24.391  27.790  1.00  0.00    -0.014 A 
BRANCH  41  42
ATOM     42  C   UNL A   1      41.794  25.693  27.953  1.00  0.00     0.031 A 
ATOM     43  C   UNL A   1      41.068  26.785  28.696  1.00  0.00     0.074 A 
ATOM     44  C   UNL A   1      43.040  25.902  27.497  1.00  0.00     0.049 A 
ATOM     45  N   UNL A   1      41.462  27.996  28.989  1.00  0.00    -0.248 NA
ATOM     46  C   UNL A   1      39.711  26.463  29.171  1.00  0.00     0.031 C 
ATOM     47  C   UNL A   1      43.851  24.927  26.770  1.00  0.00     0.029 A 
ATOM     48  N   UNL A   1      43.834  27.020  27.564  1.00  0.00    -0.354 N 
ATOM     49  C   UNL A   1      40.395  28.589  29.654  1.00  0.00     0.074 A 
ATOM     50  C   UNL A   1      39.331  27.612  29.708  1.00  0.00     0.031 C 
ATOM     51  C   UNL A   1      45.017  25.503  26.428  1.00  0.00     0.029 A 
ATOM     52  C   UNL A   1      45.027  26.889  26.896  1.00  0.00     0.049 A 
ATOM     53  H   UNL A   1      43.572  27.839  28.046  1.00  0.00     0.167 HD
ATOM     54  C   UNL A   1      40.309  29.830  30.188  1.00  0.00     0.034 A 
ATOM     55  C   UNL A   1      46.002  27.793  26.669  1.00  0.00     0.034 A 
ATOM     56  C   UNL A   1      41.367  30.799  30.141  1.00  0.00     0.049 A 
ATOM     57  C   UNL A   1      45.878  29.177  27.255  1.00  0.00     0.074 A 
ATOM     58  C   UNL A   1      41.397  32.067  30.691  1.00  0.00     0.029 A 
ATOM     59  N   UNL A   1      42.577  30.618  29.488  1.00  0.00    -0.354 N 
ATOM     60  N   UNL A   1      44.915  29.684  27.986  1.00  0.00    -0.248 NA
ATOM     61  C   UNL A   1      46.998  30.101  27.019  1.00  0.00     0.031 C 
ATOM     62  C   UNL A   1      42.608  32.669  30.335  1.00  0.00     0.029 A 
ATOM     63  C   UNL A   1      43.354  31.757  29.606  1.00  0.00     0.049 A 
ATOM     64  H   UNL A   1      42.843  29.799  29.012  1.00  0.00     0.167 HD
ATOM     65  C   UNL A   1      45.325  30.969  28.326  1.00  0.00     0.074 A 
ATOM     66  C   UNL A   1      46.637  31.154  27.740  1.00  0.00     0.031 C 
ATOM     67  C   UNL A   1      44.675  31.914  29.051  1.00  0.00     0.034 A 
BRANCH  54  68
ATOM     68  C   UNL A   1      39.016  30.203  30.866  1.00  0.00     0.023 A 
ATOM     69  C   UNL A   1      38.671  29.617  32.101  1.00  0.00     0.012 A 
ATOM     70  C   UNL A   1      38.153  31.154  30.287  1.00  0.00     0.148 A 
ATOM     71  C   UNL A   1      37.470  29.941  32.730  1.00  0.00     0.002 A 
ATOM     72  C   UNL A   1      36.981  31.508  30.945  1.00  0.00     0.091 A 
ATOM     73  F   UNL A   1      38.484  31.680  29.099  1.00  0.00    -0.205 F 
ATOM     74  C   UNL A   1      36.630  30.892  32.157  1.00  0.00     0.022 A 
BRANCH  72  75
ATOM     75  S   UNL A   1      35.877  32.783  30.328  1.00  0.00     0.127 S 
ATOM     76  O   UNL A   1      36.071  32.667  28.883  1.00  0.00    -0.237 OA
ATOM     77  O   UNL A   1      34.575  32.318  30.807  1.00  0.00    -0.237 OA
ATOM     78  O   UNL A   1      36.333  34.032  30.922  1.00  0.00    -0.744 OA
ENDBRANCH  72  75
ENDBRANCH  54  68
BRANCH  55  79
ATOM     79  C   UNL A   1      47.193  27.411  25.858  1.00  0.00     0.023 A 
ATOM     80  C   UNL A   1      48.256  26.704  26.452  1.00  0.00     0.012 A 
ATOM     81  C   UNL A   1      47.266  27.738  24.489  1.00  0.00     0.148 A 
ATOM     82  C   UNL A   1      49.383  26.357  25.707  1.00  0.00     0.002 A 
ATOM     83  C   UNL A   1      48.364  27.335  23.739  1.00  0.00     0.091 A 
ATOM     84  F   UNL A   1      46.253  28.427  23.946  1.00  0.00    -0.205 F 
ATOM     85  C   UNL A   1      49.433  26.662  24.349  1.00  0.00     0.022 A 
BRANCH  83  86
ATOM     86  S   UNL A   1      48.452  27.565  21.960  1.00  0.00     0.127 S 
ATOM     87  O   UNL A   1      49.592  28.468  21.830  1.00  0.00    -0.237 OA
ATOM     88  O   UNL A   1      48.690  26.199  21.494  1.00  0.00    -0.237 OA
ATOM     89  O   UNL A   1      47.162  28.117  21.568  1.00  0.00    -0.744 OA
ENDBRANCH  83  86
ENDBRANCH  55  79
BRANCH  67  90
ATOM     90  C   UNL A   1      45.385  33.224  29.294  1.00  0.00     0.023 A 
ATOM     91  C   UNL A   1      46.170  33.400  30.450  1.00  0.00     0.012 A 
ATOM     92  C   UNL A   1      45.317  34.261  28.342  1.00  0.00     0.148 A 
ATOM     93  C   UNL A   1      46.837  34.605  30.679  1.00  0.00     0.002 A 
ATOM     94  C   UNL A   1      46.028  35.436  28.549  1.00  0.00     0.091 A 
ATOM     95  F   UNL A   1      44.554  34.082  27.255  1.00  0.00    -0.205 F 
ATOM     96  C   UNL A   1      46.775  35.617  29.723  1.00  0.00     0.022 A 
BRANCH  94  97
ATOM     97  S   UNL A   1      46.088  36.751  27.326  1.00  0.00     0.127 S 
ATOM     98  O   UNL A   1      46.555  36.034  26.141  1.00  0.00    -0.237 OA
ATOM     99  O   UNL A   1      44.691  37.183  27.267  1.00  0.00    -0.237 OA
ATOM    100  O   UNL A   1      47.006  37.750  27.856  1.00  0.00    -0.744 OA
ENDBRANCH  94  97
ENDBRANCH  67  90
ENDBRANCH  41  42
ENDBRANCH  34  36
ENDBRANCH  33  34
ENDBRANCH  32  33
ENDBRANCH  31  32
ENDBRANCH  30  31
ENDBRANCH  29  30
ENDBRANCH   1  29
TORSDOF 26
ENDMDL
