MODEL 1
REMARK VINA RESULT:      -8.7      0.000      0.000
REMARK SMILES O=C(C[C@@H]([NH2+]Cc1ccccc1)C(=O)/N=c1/[nH]c(-c2ccccc2)cs1)OCCOCCOCCOCCOC(=O)c1ccc(-c2c3nc(c(-c4cccc(S(=O)(=O)[O-])c4F)c4ccc([nH]4)c(-c4cccc(S(=O)(=O)[O-])c4F)c4nc(c(-c5cccc(S(=O)(=O)[O-])c5F)c5ccc2[nH]5)C=C4)C=C3)cc1
REMARK SMILES IDX 32 1 31 2 30 3 29 4 28 5 27 6 2 7 1 8 3 9 4 10 5 11 6 14
REMARK SMILES IDX 7 15 8 16 12 17 9 18 11 19 10 20 13 21 14 22 15 23 16 24
REMARK SMILES IDX 17 25 26 26 18 27 25 29 19 30 20 31 24 32 21 33 23 34 22 35
REMARK SMILES IDX 33 36 34 37 35 38 36 39 37 40 38 41 39 42 40 43 41 44 42 45
REMARK SMILES IDX 43 46 104 47 44 48 103 49 45 50 46 51 47 52 97 53 48 54
REMARK SMILES IDX 102 55 96 56 98 57 49 58 101 59 95 60 94 61 50 63 82 64
REMARK SMILES IDX 62 65 81 66 63 67 66 68 80 69 99 70 64 71 65 72 79 74 100 75
REMARK SMILES IDX 67 76 51 77 52 78 60 79 53 80 55 81 61 82 54 83 56 84 57 85
REMARK SMILES IDX 58 86 59 87 83 88 84 89 92 90 85 91 87 92 93 93 86 94 88 95
REMARK SMILES IDX 89 96 90 97 91 98 68 99 69 100 77 101 70 102 72 103 78 104
REMARK SMILES IDX 71 105 73 106 74 107 75 108 76 109
REMARK H PARENT 5 12 5 13 17 28 98 62 66 73
REMARK Flexibility Score: inf
ROOT
ATOM      1  C   UNL A   1      32.319  28.212  24.953  1.00  0.00     0.188 C 
ENDROOT
BRANCH   1   2
ATOM      2  C   UNL A   1      31.671  27.604  23.712  1.00  0.00     0.188 C 
BRANCH   2   3
ATOM      3  O   UNL A   1      31.625  26.201  23.530  1.00  0.00    -0.376 OA
BRANCH   3   4
ATOM      4  C   UNL A   1      30.508  25.371  23.794  1.00  0.00     0.202 C 
BRANCH   4   5
ATOM      5  C   UNL A   1      30.670  24.050  24.541  1.00  0.00     0.261 C 
BRANCH   5   6
ATOM      6  O   UNL A   1      32.002  23.810  25.038  1.00  0.00    -0.463 OA
BRANCH   6   7
ATOM      7  C   UNL A   1      32.167  23.611  26.365  1.00  0.00     0.312 C 
ATOM      8  O   UNL A   1      31.254  23.748  27.171  1.00  0.00    -0.252 OA
BRANCH   7   9
ATOM      9  C   UNL A   1      33.584  23.283  26.771  1.00  0.00     0.198 C 
BRANCH   9  10
ATOM     10  C   UNL A   1      34.426  22.360  25.878  1.00  0.00     0.286 C 
BRANCH  10  11
ATOM     11  N   UNL A   1      33.675  21.516  24.914  1.00  0.00    -0.332 N 
ATOM     12  H   UNL A   1      34.329  21.181  24.207  1.00  0.00     0.347 HD
ATOM     13  H   UNL A   1      32.936  22.106  24.531  1.00  0.00     0.347 HD
BRANCH  11  14
ATOM     14  C   UNL A   1      33.010  20.356  25.505  1.00  0.00     0.297 C 
BRANCH  14  15
ATOM     15  C   UNL A   1      33.162  19.143  24.617  1.00  0.00     0.006 A 
ATOM     16  C   UNL A   1      32.304  18.973  23.523  1.00  0.00     0.009 A 
ATOM     17  C   UNL A   1      34.251  18.269  24.773  1.00  0.00     0.009 A 
ATOM     18  C   UNL A   1      32.559  17.987  22.573  1.00  0.00     0.001 A 
ATOM     19  C   UNL A   1      34.497  17.276  23.826  1.00  0.00     0.001 A 
ATOM     20  C   UNL A   1      33.659  17.145  22.720  1.00  0.00     0.000 A 
ENDBRANCH  14  15
ENDBRANCH  11  14
ENDBRANCH  10  11
BRANCH  10  21
ATOM     21  C   UNL A   1      35.450  23.267  25.136  1.00  0.00     0.307 C 
ATOM     22  O   UNL A   1      35.359  23.429  23.919  1.00  0.00    -0.265 OA
BRANCH  21  23
ATOM     23  N   UNL A   1      36.427  23.859  25.905  1.00  0.00    -0.180 NA
ATOM     24  C   UNL A   1      37.557  23.251  26.059  1.00  0.00     0.190 A 
ATOM     25  N   UNL A   1      38.624  23.737  26.775  1.00  0.00    -0.330 N 
ATOM     26  S   UNL A   1      38.033  21.650  25.429  1.00  0.00    -0.105 S 
ATOM     27  C   UNL A   1      39.727  22.912  26.910  1.00  0.00     0.058 A 
ATOM     28  H   UNL A   1      38.604  24.636  27.176  1.00  0.00     0.169 HD
ATOM     29  C   UNL A   1      39.563  21.732  26.280  1.00  0.00     0.095 A 
BRANCH  27  30
ATOM     30  C   UNL A   1      40.935  23.321  27.662  1.00  0.00    -0.001 A 
ATOM     31  C   UNL A   1      41.874  22.383  28.121  1.00  0.00     0.010 A 
ATOM     32  C   UNL A   1      41.165  24.675  27.977  1.00  0.00     0.010 A 
ATOM     33  C   UNL A   1      42.988  22.782  28.872  1.00  0.00     0.001 A 
ATOM     34  C   UNL A   1      42.282  25.074  28.718  1.00  0.00     0.001 A 
ATOM     35  C   UNL A   1      43.191  24.125  29.171  1.00  0.00     0.000 A 
ENDBRANCH  27  30
ENDBRANCH  21  23
ENDBRANCH  10  21
ENDBRANCH   9  10
ENDBRANCH   7   9
ENDBRANCH   6   7
ENDBRANCH   5   6
ENDBRANCH   4   5
ENDBRANCH   3   4
ENDBRANCH   2   3
ENDBRANCH   1   2
BRANCH   1  36
ATOM     36  O   UNL A   1      32.112  29.581  25.235  1.00  0.00    -0.377 OA
BRANCH  36  37
ATOM     37  C   UNL A   1      32.108  29.969  26.592  1.00  0.00     0.188 C 
BRANCH  37  38
ATOM     38  C   UNL A   1      33.509  30.132  27.224  1.00  0.00     0.188 C 
BRANCH  38  39
ATOM     39  O   UNL A   1      34.131  31.415  27.189  1.00  0.00    -0.376 OA
BRANCH  39  40
ATOM     40  C   UNL A   1      34.496  32.037  28.417  1.00  0.00     0.202 C 
BRANCH  40  41
ATOM     41  C   UNL A   1      35.725  31.480  29.134  1.00  0.00     0.261 C 
BRANCH  41  42
ATOM     42  O   UNL A   1      35.507  31.391  30.551  1.00  0.00    -0.460 OA
BRANCH  42  43
ATOM     43  C   UNL A   1      36.335  30.556  31.223  1.00  0.00     0.338 C 
ATOM     44  O   UNL A   1      36.420  29.344  31.102  1.00  0.00    -0.246 OA
BRANCH  43  45
ATOM     45  C   UNL A   1      37.316  31.362  31.975  1.00  0.00     0.060 A 
ATOM     46  C   UNL A   1      37.019  32.716  32.201  1.00  0.00     0.016 A 
ATOM     47  C   UNL A   1      38.492  30.799  32.478  1.00  0.00     0.016 A 
ATOM     48  C   UNL A   1      37.931  33.529  32.866  1.00  0.00     0.010 A 
ATOM     49  C   UNL A   1      39.414  31.617  33.131  1.00  0.00     0.010 A 
ATOM     50  C   UNL A   1      39.159  32.993  33.274  1.00  0.00    -0.014 A 
BRANCH  50  51
ATOM     51  C   UNL A   1      40.287  33.906  33.563  1.00  0.00     0.031 A 
ATOM     52  C   UNL A   1      40.409  34.421  34.972  1.00  0.00     0.074 A 
ATOM     53  C   UNL A   1      41.159  34.278  32.612  1.00  0.00     0.049 A 
ATOM     54  N   UNL A   1      41.248  35.287  35.470  1.00  0.00    -0.248 NA
ATOM     55  C   UNL A   1      39.440  33.891  35.950  1.00  0.00     0.031 C 
ATOM     56  C   UNL A   1      41.143  33.831  31.221  1.00  0.00     0.029 A 
ATOM     57  N   UNL A   1      42.214  35.153  32.674  1.00  0.00    -0.354 N 
ATOM     58  C   UNL A   1      40.886  35.434  36.804  1.00  0.00     0.074 A 
ATOM     59  C   UNL A   1      39.747  34.578  37.038  1.00  0.00     0.031 C 
ATOM     60  C   UNL A   1      42.120  34.465  30.549  1.00  0.00     0.029 A 
ATOM     61  C   UNL A   1      42.810  35.381  31.457  1.00  0.00     0.049 A 
ATOM     62  H   UNL A   1      42.515  35.577  33.510  1.00  0.00     0.167 HD
ATOM     63  C   UNL A   1      41.459  36.207  37.754  1.00  0.00     0.034 A 
ATOM     64  C   UNL A   1      43.780  36.253  31.118  1.00  0.00     0.034 A 
ATOM     65  C   UNL A   1      42.598  37.046  37.516  1.00  0.00     0.049 A 
ATOM     66  C   UNL A   1      44.387  37.124  32.190  1.00  0.00     0.074 A 
ATOM     67  C   UNL A   1      43.285  37.839  38.415  1.00  0.00     0.029 A 
ATOM     68  N   UNL A   1      43.208  37.212  36.282  1.00  0.00    -0.354 N 
ATOM     69  N   UNL A   1      44.109  37.174  33.472  1.00  0.00    -0.248 NA
ATOM     70  C   UNL A   1      45.464  38.036  31.778  1.00  0.00     0.031 C 
ATOM     71  C   UNL A   1      44.294  38.510  37.717  1.00  0.00     0.029 A 
ATOM     72  C   UNL A   1      44.259  38.103  36.393  1.00  0.00     0.049 A 
ATOM     73  H   UNL A   1      42.933  36.761  35.451  1.00  0.00     0.167 HD
ATOM     74  C   UNL A   1      45.002  38.086  34.024  1.00  0.00     0.074 A 
ATOM     75  C   UNL A   1      45.839  38.555  32.939  1.00  0.00     0.031 C 
ATOM     76  C   UNL A   1      45.116  38.508  35.308  1.00  0.00     0.034 A 
BRANCH  63  77
ATOM     77  C   UNL A   1      40.864  36.167  39.137  1.00  0.00     0.023 A 
ATOM     78  C   UNL A   1      39.849  37.078  39.491  1.00  0.00     0.012 A 
ATOM     79  C   UNL A   1      41.286  35.203  40.072  1.00  0.00     0.148 A 
ATOM     80  C   UNL A   1      39.286  37.053  40.766  1.00  0.00     0.002 A 
ATOM     81  C   UNL A   1      40.685  35.152  41.324  1.00  0.00     0.091 A 
ATOM     82  F   UNL A   1      42.273  34.365  39.726  1.00  0.00    -0.205 F 
ATOM     83  C   UNL A   1      39.695  36.084  41.677  1.00  0.00     0.022 A 
BRANCH  81  84
ATOM     84  S   UNL A   1      41.088  33.893  42.540  1.00  0.00     0.127 S 
ATOM     85  O   UNL A   1      40.770  32.665  41.810  1.00  0.00    -0.237 OA
ATOM     86  O   UNL A   1      42.516  34.122  42.755  1.00  0.00    -0.237 OA
ATOM     87  O   UNL A   1      40.246  34.166  43.696  1.00  0.00    -0.744 OA
ENDBRANCH  81  84
ENDBRANCH  63  77
BRANCH  64  88
ATOM     88  C   UNL A   1      44.259  36.331  29.709  1.00  0.00     0.023 A 
ATOM     89  C   UNL A   1      43.718  37.301  28.842  1.00  0.00     0.012 A 
ATOM     90  C   UNL A   1      45.252  35.458  29.225  1.00  0.00     0.148 A 
ATOM     91  C   UNL A   1      44.133  37.379  27.512  1.00  0.00     0.002 A 
ATOM     92  C   UNL A   1      45.701  35.577  27.914  1.00  0.00     0.091 A 
ATOM     93  F   UNL A   1      45.743  34.531  30.058  1.00  0.00    -0.205 F 
ATOM     94  C   UNL A   1      45.130  36.524  27.051  1.00  0.00     0.022 A 
BRANCH  92  95
ATOM     95  S   UNL A   1      47.070  34.608  27.272  1.00  0.00     0.127 S 
ATOM     96  O   UNL A   1      46.580  33.244  27.449  1.00  0.00    -0.237 OA
ATOM     97  O   UNL A   1      47.135  35.065  25.883  1.00  0.00    -0.237 OA
ATOM     98  O   UNL A   1      48.225  34.976  28.079  1.00  0.00    -0.744 OA
ENDBRANCH  92  95
ENDBRANCH  64  88
BRANCH  76  99
ATOM     99  C   UNL A   1      46.217  39.483  35.633  1.00  0.00     0.023 A 
ATOM    100  C   UNL A   1      47.488  39.013  36.015  1.00  0.00     0.012 A 
ATOM    101  C   UNL A   1      46.010  40.867  35.467  1.00  0.00     0.148 A 
ATOM    102  C   UNL A   1      48.528  39.909  36.259  1.00  0.00     0.002 A 
ATOM    103  C   UNL A   1      47.066  41.749  35.660  1.00  0.00     0.091 A 
ATOM    104  F   UNL A   1      44.787  41.294  35.117  1.00  0.00    -0.205 F 
ATOM    105  C   UNL A   1      48.322  41.274  36.068  1.00  0.00     0.022 A 
BRANCH 103 106
ATOM    106  S   UNL A   1      46.919  43.510  35.337  1.00  0.00     0.127 S 
ATOM    107  O   UNL A   1      46.811  43.538  33.880  1.00  0.00    -0.237 OA
ATOM    108  O   UNL A   1      45.686  43.853  36.048  1.00  0.00    -0.237 OA
ATOM    109  O   UNL A   1      48.121  44.122  35.887  1.00  0.00    -0.744 OA
ENDBRANCH 103 106
ENDBRANCH  76  99
ENDBRANCH  50  51
ENDBRANCH  43  45
ENDBRANCH  42  43
ENDBRANCH  41  42
ENDBRANCH  40  41
ENDBRANCH  39  40
ENDBRANCH  38  39
ENDBRANCH  37  38
ENDBRANCH  36  37
ENDBRANCH   1  36
TORSDOF 30
ENDMDL
MODEL 2
REMARK VINA RESULT:      -8.7      5.444     10.407
REMARK SMILES O=C(C[C@@H]([NH2+]Cc1ccccc1)C(=O)/N=c1/[nH]c(-c2ccccc2)cs1)OCCOCCOCCOCCOC(=O)c1ccc(-c2c3nc(c(-c4cccc(S(=O)(=O)[O-])c4F)c4ccc([nH]4)c(-c4cccc(S(=O)(=O)[O-])c4F)c4nc(c(-c5cccc(S(=O)(=O)[O-])c5F)c5ccc2[nH]5)C=C4)C=C3)cc1
REMARK SMILES IDX 32 1 31 2 30 3 29 4 28 5 27 6 2 7 1 8 3 9 4 10 5 11 6 14
REMARK SMILES IDX 7 15 8 16 12 17 9 18 11 19 10 20 13 21 14 22 15 23 16 24
REMARK SMILES IDX 17 25 26 26 18 27 25 29 19 30 20 31 24 32 21 33 23 34 22 35
REMARK SMILES IDX 33 36 34 37 35 38 36 39 37 40 38 41 39 42 40 43 41 44 42 45
REMARK SMILES IDX 43 46 104 47 44 48 103 49 45 50 46 51 47 52 97 53 48 54
REMARK SMILES IDX 102 55 96 56 98 57 49 58 101 59 95 60 94 61 50 63 82 64
REMARK SMILES IDX 62 65 81 66 63 67 66 68 80 69 99 70 64 71 65 72 79 74 100 75
REMARK SMILES IDX 67 76 51 77 52 78 60 79 53 80 55 81 61 82 54 83 56 84 57 85
REMARK SMILES IDX 58 86 59 87 83 88 84 89 92 90 85 91 87 92 93 93 86 94 88 95
REMARK SMILES IDX 89 96 90 97 91 98 68 99 69 100 77 101 70 102 72 103 78 104
REMARK SMILES IDX 71 105 73 106 74 107 75 108 76 109
REMARK H PARENT 5 12 5 13 17 28 98 62 66 73
REMARK Flexibility Score: inf
ROOT
ATOM      1  C   UNL A   1      32.984  30.357  27.248  1.00  0.00     0.188 C 
ENDROOT
BRANCH   1   2
ATOM      2  C   UNL A   1      33.085  28.834  27.204  1.00  0.00     0.188 C 
BRANCH   2   3
ATOM      3  O   UNL A   1      32.043  28.023  27.715  1.00  0.00    -0.376 OA
BRANCH   3   4
ATOM      4  C   UNL A   1      31.496  26.883  27.075  1.00  0.00     0.202 C 
BRANCH   4   5
ATOM      5  C   UNL A   1      32.263  26.160  25.971  1.00  0.00     0.261 C 
BRANCH   5   6
ATOM      6  O   UNL A   1      33.536  25.625  26.386  1.00  0.00    -0.463 OA
BRANCH   6   7
ATOM      7  C   UNL A   1      34.048  24.580  25.699  1.00  0.00     0.312 C 
ATOM      8  O   UNL A   1      35.227  24.520  25.371  1.00  0.00    -0.252 OA
BRANCH   7   9
ATOM      9  C   UNL A   1      33.029  23.536  25.309  1.00  0.00     0.198 C 
BRANCH   9  10
ATOM     10  C   UNL A   1      33.331  22.594  24.135  1.00  0.00     0.286 C 
BRANCH  10  11
ATOM     11  N   UNL A   1      33.007  21.159  24.346  1.00  0.00    -0.332 N 
ATOM     12  H   UNL A   1      32.672  20.775  23.462  1.00  0.00     0.347 HD
ATOM     13  H   UNL A   1      32.308  21.128  25.088  1.00  0.00     0.347 HD
BRANCH  11  14
ATOM     14  C   UNL A   1      34.127  20.340  24.803  1.00  0.00     0.297 C 
BRANCH  14  15
ATOM     15  C   UNL A   1      33.779  18.871  24.732  1.00  0.00     0.006 A 
ATOM     16  C   UNL A   1      34.691  17.970  24.168  1.00  0.00     0.009 A 
ATOM     17  C   UNL A   1      32.630  18.373  25.368  1.00  0.00     0.009 A 
ATOM     18  C   UNL A   1      34.490  16.596  24.286  1.00  0.00     0.001 A 
ATOM     19  C   UNL A   1      32.426  16.997  25.474  1.00  0.00     0.001 A 
ATOM     20  C   UNL A   1      33.362  16.111  24.945  1.00  0.00     0.000 A 
ENDBRANCH  14  15
ENDBRANCH  11  14
ENDBRANCH  10  11
BRANCH  10  21
ATOM     21  C   UNL A   1      32.567  23.155  22.901  1.00  0.00     0.307 C 
ATOM     22  O   UNL A   1      32.968  22.908  21.764  1.00  0.00    -0.265 OA
BRANCH  21  23
ATOM     23  N   UNL A   1      31.448  23.917  23.158  1.00  0.00    -0.180 NA
ATOM     24  C   UNL A   1      31.484  25.185  22.914  1.00  0.00     0.190 A 
ATOM     25  N   UNL A   1      30.436  26.054  23.099  1.00  0.00    -0.330 N 
ATOM     26  S   UNL A   1      32.864  26.145  22.313  1.00  0.00    -0.105 S 
ATOM     27  C   UNL A   1      30.678  27.398  22.870  1.00  0.00     0.058 A 
ATOM     28  H   UNL A   1      29.549  25.734  23.382  1.00  0.00     0.169 HD
ATOM     29  C   UNL A   1      31.946  27.629  22.479  1.00  0.00     0.095 A 
BRANCH  27  30
ATOM     30  C   UNL A   1      29.631  28.431  23.039  1.00  0.00    -0.001 A 
ATOM     31  C   UNL A   1      28.266  28.131  22.909  1.00  0.00     0.010 A 
ATOM     32  C   UNL A   1      29.977  29.771  23.304  1.00  0.00     0.010 A 
ATOM     33  C   UNL A   1      27.290  29.130  23.026  1.00  0.00     0.001 A 
ATOM     34  C   UNL A   1      29.003  30.767  23.430  1.00  0.00     0.001 A 
ATOM     35  C   UNL A   1      27.659  30.447  23.286  1.00  0.00     0.000 A 
ENDBRANCH  27  30
ENDBRANCH  21  23
ENDBRANCH  10  21
ENDBRANCH   9  10
ENDBRANCH   7   9
ENDBRANCH   6   7
ENDBRANCH   5   6
ENDBRANCH   4   5
ENDBRANCH   3   4
ENDBRANCH   2   3
ENDBRANCH   1   2
BRANCH   1  36
ATOM     36  O   UNL A   1      32.314  31.030  26.200  1.00  0.00    -0.377 OA
BRANCH  36  37
ATOM     37  C   UNL A   1      31.521  32.144  26.551  1.00  0.00     0.188 C 
BRANCH  37  38
ATOM     38  C   UNL A   1      32.114  33.037  27.664  1.00  0.00     0.188 C 
BRANCH  38  39
ATOM     39  O   UNL A   1      33.231  33.868  27.354  1.00  0.00    -0.376 OA
BRANCH  39  40
ATOM     40  C   UNL A   1      33.692  34.796  28.332  1.00  0.00     0.202 C 
BRANCH  40  41
ATOM     41  C   UNL A   1      32.947  34.819  29.665  1.00  0.00     0.261 C 
BRANCH  41  42
ATOM     42  O   UNL A   1      33.745  34.255  30.719  1.00  0.00    -0.460 OA
BRANCH  42  43
ATOM     43  C   UNL A   1      33.820  34.986  31.856  1.00  0.00     0.338 C 
ATOM     44  O   UNL A   1      32.973  35.742  32.307  1.00  0.00    -0.246 OA
BRANCH  43  45
ATOM     45  C   UNL A   1      35.003  34.551  32.624  1.00  0.00     0.060 A 
ATOM     46  C   UNL A   1      36.228  35.184  32.356  1.00  0.00     0.016 A 
ATOM     47  C   UNL A   1      34.913  33.566  33.610  1.00  0.00     0.016 A 
ATOM     48  C   UNL A   1      37.382  34.781  33.021  1.00  0.00     0.010 A 
ATOM     49  C   UNL A   1      36.072  33.151  34.266  1.00  0.00     0.010 A 
ATOM     50  C   UNL A   1      37.315  33.718  33.930  1.00  0.00    -0.014 A 
BRANCH  50  51
ATOM     51  C   UNL A   1      38.554  32.997  34.295  1.00  0.00     0.031 A 
ATOM     52  C   UNL A   1      38.971  31.856  33.407  1.00  0.00     0.074 A 
ATOM     53  C   UNL A   1      39.273  33.328  35.380  1.00  0.00     0.049 A 
ATOM     54  N   UNL A   1      39.960  31.015  33.543  1.00  0.00    -0.248 NA
ATOM     55  C   UNL A   1      38.147  31.626  32.205  1.00  0.00     0.031 C 
ATOM     56  C   UNL A   1      38.969  34.421  36.300  1.00  0.00     0.029 A 
ATOM     57  N   UNL A   1      40.397  32.744  35.907  1.00  0.00    -0.354 N 
ATOM     58  C   UNL A   1      39.855  30.138  32.469  1.00  0.00     0.074 A 
ATOM     59  C   UNL A   1      38.703  30.538  31.696  1.00  0.00     0.031 C 
ATOM     60  C   UNL A   1      39.865  34.406  37.303  1.00  0.00     0.029 A 
ATOM     61  C   UNL A   1      40.785  33.287  37.108  1.00  0.00     0.049 A 
ATOM     62  H   UNL A   1      40.879  32.006  35.467  1.00  0.00     0.167 HD
ATOM     63  C   UNL A   1      40.655  29.096  32.150  1.00  0.00     0.034 A 
ATOM     64  C   UNL A   1      41.754  32.898  37.961  1.00  0.00     0.034 A 
ATOM     65  C   UNL A   1      41.805  28.712  32.917  1.00  0.00     0.049 A 
ATOM     66  C   UNL A   1      42.619  31.716  37.596  1.00  0.00     0.074 A 
ATOM     67  C   UNL A   1      42.710  27.699  32.662  1.00  0.00     0.029 A 
ATOM     68  N   UNL A   1      42.198  29.318  34.100  1.00  0.00    -0.354 N 
ATOM     69  N   UNL A   1      42.578  30.962  36.522  1.00  0.00    -0.248 NA
ATOM     70  C   UNL A   1      43.682  31.351  38.542  1.00  0.00     0.031 C 
ATOM     71  C   UNL A   1      43.635  27.673  33.711  1.00  0.00     0.029 A 
ATOM     72  C   UNL A   1      43.329  28.695  34.595  1.00  0.00     0.049 A 
ATOM     73  H   UNL A   1      41.741  30.080  34.525  1.00  0.00     0.167 HD
ATOM     74  C   UNL A   1      43.634  30.065  36.644  1.00  0.00     0.074 A 
ATOM     75  C   UNL A   1      44.304  30.379  37.889  1.00  0.00     0.031 C 
ATOM     76  C   UNL A   1      44.012  29.065  35.808  1.00  0.00     0.034 A 
BRANCH  63  77
ATOM     77  C   UNL A   1      40.315  28.311  30.911  1.00  0.00     0.023 A 
ATOM     78  C   UNL A   1      39.213  27.432  30.918  1.00  0.00     0.012 A 
ATOM     79  C   UNL A   1      41.065  28.470  29.731  1.00  0.00     0.148 A 
ATOM     80  C   UNL A   1      38.882  26.700  29.779  1.00  0.00     0.002 A 
ATOM     81  C   UNL A   1      40.700  27.775  28.585  1.00  0.00     0.091 A 
ATOM     82  F   UNL A   1      42.127  29.288  29.754  1.00  0.00    -0.205 F 
ATOM     83  C   UNL A   1      39.617  26.879  28.611  1.00  0.00     0.022 A 
BRANCH  81  84
ATOM     84  S   UNL A   1      41.535  27.995  27.010  1.00  0.00     0.127 S 
ATOM     85  O   UNL A   1      42.857  28.452  27.439  1.00  0.00    -0.237 OA
ATOM     86  O   UNL A   1      41.507  26.641  26.458  1.00  0.00    -0.237 OA
ATOM     87  O   UNL A   1      40.748  28.971  26.270  1.00  0.00    -0.744 OA
ENDBRANCH  81  84
ENDBRANCH  63  77
BRANCH  64  88
ATOM     88  C   UNL A   1      41.980  33.646  39.230  1.00  0.00     0.023 A 
ATOM     89  C   UNL A   1      42.897  34.715  39.256  1.00  0.00     0.012 A 
ATOM     90  C   UNL A   1      41.286  33.310  40.409  1.00  0.00     0.148 A 
ATOM     91  C   UNL A   1      43.143  35.414  40.438  1.00  0.00     0.002 A 
ATOM     92  C   UNL A   1      41.494  34.047  41.570  1.00  0.00     0.091 A 
ATOM     93  F   UNL A   1      40.430  32.280  40.370  1.00  0.00    -0.205 F 
ATOM     94  C   UNL A   1      42.435  35.087  41.591  1.00  0.00     0.022 A 
BRANCH  92  95
ATOM     95  S   UNL A   1      40.535  33.783  43.065  1.00  0.00     0.127 S 
ATOM     96  O   UNL A   1      40.977  32.451  43.472  1.00  0.00    -0.237 OA
ATOM     97  O   UNL A   1      41.004  34.876  43.918  1.00  0.00    -0.237 OA
ATOM     98  O   UNL A   1      39.140  33.892  42.662  1.00  0.00    -0.744 OA
ENDBRANCH  92  95
ENDBRANCH  64  88
BRANCH  76  99
ATOM     99  C   UNL A   1      45.237  28.268  36.174  1.00  0.00     0.023 A 
ATOM    100  C   UNL A   1      46.520  28.802  35.951  1.00  0.00     0.012 A 
ATOM    101  C   UNL A   1      45.106  27.026  36.827  1.00  0.00     0.148 A 
ATOM    102  C   UNL A   1      47.657  28.095  36.343  1.00  0.00     0.002 A 
ATOM    103  C   UNL A   1      46.241  26.353  37.261  1.00  0.00     0.091 A 
ATOM    104  F   UNL A   1      43.874  26.529  37.015  1.00  0.00    -0.205 F 
ATOM    105  C   UNL A   1      47.517  26.880  37.009  1.00  0.00     0.022 A 
BRANCH 103 106
ATOM    106  S   UNL A   1      46.152  24.835  38.217  1.00  0.00     0.127 S 
ATOM    107  O   UNL A   1      47.514  24.321  38.086  1.00  0.00    -0.237 OA
ATOM    108  O   UNL A   1      45.810  25.328  39.551  1.00  0.00    -0.237 OA
ATOM    109  O   UNL A   1      45.115  24.025  37.590  1.00  0.00    -0.744 OA
ENDBRANCH 103 106
ENDBRANCH  76  99
ENDBRANCH  50  51
ENDBRANCH  43  45
ENDBRANCH  42  43
ENDBRANCH  41  42
ENDBRANCH  40  41
ENDBRANCH  39  40
ENDBRANCH  38  39
ENDBRANCH  37  38
ENDBRANCH  36  37
ENDBRANCH   1  36
TORSDOF 30
ENDMDL
MODEL 3
REMARK VINA RESULT:      -8.6      3.154      8.098
REMARK SMILES O=C(C[C@@H]([NH2+]Cc1ccccc1)C(=O)/N=c1/[nH]c(-c2ccccc2)cs1)OCCOCCOCCOCCOC(=O)c1ccc(-c2c3nc(c(-c4cccc(S(=O)(=O)[O-])c4F)c4ccc([nH]4)c(-c4cccc(S(=O)(=O)[O-])c4F)c4nc(c(-c5cccc(S(=O)(=O)[O-])c5F)c5ccc2[nH]5)C=C4)C=C3)cc1
REMARK SMILES IDX 32 1 31 2 30 3 29 4 28 5 27 6 2 7 1 8 3 9 4 10 5 11 6 14
REMARK SMILES IDX 7 15 8 16 12 17 9 18 11 19 10 20 13 21 14 22 15 23 16 24
REMARK SMILES IDX 17 25 26 26 18 27 25 29 19 30 20 31 24 32 21 33 23 34 22 35
REMARK SMILES IDX 33 36 34 37 35 38 36 39 37 40 38 41 39 42 40 43 41 44 42 45
REMARK SMILES IDX 43 46 104 47 44 48 103 49 45 50 46 51 47 52 97 53 48 54
REMARK SMILES IDX 102 55 96 56 98 57 49 58 101 59 95 60 94 61 50 63 82 64
REMARK SMILES IDX 62 65 81 66 63 67 66 68 80 69 99 70 64 71 65 72 79 74 100 75
REMARK SMILES IDX 67 76 51 77 52 78 60 79 53 80 55 81 61 82 54 83 56 84 57 85
REMARK SMILES IDX 58 86 59 87 83 88 84 89 92 90 85 91 87 92 93 93 86 94 88 95
REMARK SMILES IDX 89 96 90 97 91 98 68 99 69 100 77 101 70 102 72 103 78 104
REMARK SMILES IDX 71 105 73 106 74 107 75 108 76 109
REMARK H PARENT 5 12 5 13 17 28 98 62 66 73
REMARK Flexibility Score: inf
ROOT
ATOM      1  C   UNL A   1      32.710  28.825  25.328  1.00  0.00     0.188 C 
ENDROOT
BRANCH   1   2
ATOM      2  C   UNL A   1      31.781  28.573  24.144  1.00  0.00     0.188 C 
BRANCH   2   3
ATOM      3  O   UNL A   1      31.659  27.280  23.579  1.00  0.00    -0.376 OA
BRANCH   3   4
ATOM      4  C   UNL A   1      30.458  26.696  23.107  1.00  0.00     0.202 C 
BRANCH   4   5
ATOM      5  C   UNL A   1      29.922  25.404  23.717  1.00  0.00     0.261 C 
BRANCH   5   6
ATOM      6  O   UNL A   1      30.937  24.545  24.275  1.00  0.00    -0.463 OA
BRANCH   6   7
ATOM      7  C   UNL A   1      31.042  24.465  25.620  1.00  0.00     0.312 C 
ATOM      8  O   UNL A   1      30.080  24.603  26.367  1.00  0.00    -0.252 OA
BRANCH   7   9
ATOM      9  C   UNL A   1      32.453  24.265  26.120  1.00  0.00     0.198 C 
BRANCH   9  10
ATOM     10  C   UNL A   1      33.294  23.112  25.555  1.00  0.00     0.286 C 
BRANCH  10  11
ATOM     11  N   UNL A   1      32.580  22.148  24.679  1.00  0.00    -0.332 N 
ATOM     12  H   UNL A   1      33.191  21.915  23.896  1.00  0.00     0.347 HD
ATOM     13  H   UNL A   1      31.715  22.606  24.391  1.00  0.00     0.347 HD
BRANCH  11  14
ATOM     14  C   UNL A   1      32.186  20.902  25.334  1.00  0.00     0.297 C 
BRANCH  14  15
ATOM     15  C   UNL A   1      32.596  19.708  24.503  1.00  0.00     0.006 A 
ATOM     16  C   UNL A   1      33.110  18.569  25.134  1.00  0.00     0.009 A 
ATOM     17  C   UNL A   1      32.319  19.661  23.126  1.00  0.00     0.009 A 
ATOM     18  C   UNL A   1      33.291  17.387  24.419  1.00  0.00     0.001 A 
ATOM     19  C   UNL A   1      32.511  18.479  22.411  1.00  0.00     0.001 A 
ATOM     20  C   UNL A   1      32.984  17.340  23.061  1.00  0.00     0.000 A 
ENDBRANCH  14  15
ENDBRANCH  11  14
ENDBRANCH  10  11
BRANCH  10  21
ATOM     21  C   UNL A   1      34.492  23.758  24.800  1.00  0.00     0.307 C 
ATOM     22  O   UNL A   1      34.413  23.976  23.591  1.00  0.00    -0.265 OA
BRANCH  21  23
ATOM     23  N   UNL A   1      35.606  24.064  25.551  1.00  0.00    -0.180 NA
ATOM     24  C   UNL A   1      36.589  23.227  25.582  1.00  0.00     0.190 A 
ATOM     25  N   UNL A   1      37.766  23.417  26.266  1.00  0.00    -0.330 N 
ATOM     26  S   UNL A   1      36.691  21.627  24.796  1.00  0.00    -0.105 S 
ATOM     27  C   UNL A   1      38.677  22.375  26.263  1.00  0.00     0.058 A 
ATOM     28  H   UNL A   1      37.952  24.260  26.739  1.00  0.00     0.169 HD
ATOM     29  C   UNL A   1      38.241  21.317  25.551  1.00  0.00     0.095 A 
BRANCH  27  30
ATOM     30  C   UNL A   1      39.977  22.457  26.967  1.00  0.00    -0.001 A 
ATOM     31  C   UNL A   1      40.402  23.635  27.602  1.00  0.00     0.010 A 
ATOM     32  C   UNL A   1      40.854  21.355  26.992  1.00  0.00     0.010 A 
ATOM     33  C   UNL A   1      41.655  23.711  28.224  1.00  0.00     0.001 A 
ATOM     34  C   UNL A   1      42.101  21.427  27.621  1.00  0.00     0.001 A 
ATOM     35  C   UNL A   1      42.504  22.608  28.233  1.00  0.00     0.000 A 
ENDBRANCH  27  30
ENDBRANCH  21  23
ENDBRANCH  10  21
ENDBRANCH   9  10
ENDBRANCH   7   9
ENDBRANCH   6   7
ENDBRANCH   5   6
ENDBRANCH   4   5
ENDBRANCH   3   4
ENDBRANCH   2   3
ENDBRANCH   1   2
BRANCH   1  36
ATOM     36  O   UNL A   1      32.851  30.142  25.823  1.00  0.00    -0.377 OA
BRANCH  36  37
ATOM     37  C   UNL A   1      33.022  30.295  27.215  1.00  0.00     0.188 C 
BRANCH  37  38
ATOM     38  C   UNL A   1      34.026  31.396  27.627  1.00  0.00     0.188 C 
BRANCH  38  39
ATOM     39  O   UNL A   1      33.524  32.682  27.984  1.00  0.00    -0.376 OA
BRANCH  39  40
ATOM     40  C   UNL A   1      34.424  33.651  28.513  1.00  0.00     0.202 C 
BRANCH  40  41
ATOM     41  C   UNL A   1      35.889  33.235  28.636  1.00  0.00     0.261 C 
BRANCH  41  42
ATOM     42  O   UNL A   1      36.214  32.861  29.985  1.00  0.00    -0.460 OA
BRANCH  42  43
ATOM     43  C   UNL A   1      37.498  32.490  30.200  1.00  0.00     0.338 C 
ATOM     44  O   UNL A   1      38.332  32.188  29.360  1.00  0.00    -0.246 OA
BRANCH  43  45
ATOM     45  C   UNL A   1      37.833  32.735  31.617  1.00  0.00     0.060 A 
ATOM     46  C   UNL A   1      37.253  33.847  32.246  1.00  0.00     0.016 A 
ATOM     47  C   UNL A   1      38.675  31.875  32.328  1.00  0.00     0.016 A 
ATOM     48  C   UNL A   1      37.571  34.147  33.567  1.00  0.00     0.010 A 
ATOM     49  C   UNL A   1      39.006  32.183  33.647  1.00  0.00     0.010 A 
ATOM     50  C   UNL A   1      38.500  33.350  34.247  1.00  0.00    -0.014 A 
BRANCH  50  51
ATOM     51  C   UNL A   1      39.174  33.889  35.449  1.00  0.00     0.031 A 
ATOM     52  C   UNL A   1      40.369  34.775  35.226  1.00  0.00     0.074 A 
ATOM     53  C   UNL A   1      38.755  33.591  36.690  1.00  0.00     0.049 A 
ATOM     54  N   UNL A   1      41.183  35.308  36.096  1.00  0.00    -0.248 NA
ATOM     55  C   UNL A   1      40.697  35.093  33.823  1.00  0.00     0.031 C 
ATOM     56  C   UNL A   1      37.603  32.755  37.021  1.00  0.00     0.029 A 
ATOM     57  N   UNL A   1      39.283  33.938  37.908  1.00  0.00    -0.354 N 
ATOM     58  C   UNL A   1      42.136  35.989  35.348  1.00  0.00     0.074 A 
ATOM     59  C   UNL A   1      41.810  35.797  33.955  1.00  0.00     0.031 C 
ATOM     60  C   UNL A   1      37.534  32.622  38.357  1.00  0.00     0.029 A 
ATOM     61  C   UNL A   1      38.650  33.340  38.971  1.00  0.00     0.049 A 
ATOM     62  H   UNL A   1      40.043  34.556  38.010  1.00  0.00     0.167 HD
ATOM     63  C   UNL A   1      43.187  36.721  35.784  1.00  0.00     0.034 A 
ATOM     64  C   UNL A   1      38.962  33.352  40.282  1.00  0.00     0.034 A 
ATOM     65  C   UNL A   1      43.497  36.918  37.171  1.00  0.00     0.049 A 
ATOM     66  C   UNL A   1      40.154  34.154  40.743  1.00  0.00     0.074 A 
ATOM     67  C   UNL A   1      44.512  37.673  37.726  1.00  0.00     0.029 A 
ATOM     68  N   UNL A   1      42.802  36.339  38.222  1.00  0.00    -0.354 N 
ATOM     69  N   UNL A   1      40.983  34.884  40.035  1.00  0.00    -0.248 NA
ATOM     70  C   UNL A   1      40.434  34.161  42.186  1.00  0.00     0.031 C 
ATOM     71  C   UNL A   1      44.449  37.526  39.115  1.00  0.00     0.029 A 
ATOM     72  C   UNL A   1      43.371  36.712  39.425  1.00  0.00     0.049 A 
ATOM     73  H   UNL A   1      42.019  35.750  38.125  1.00  0.00     0.167 HD
ATOM     74  C   UNL A   1      41.854  35.470  40.948  1.00  0.00     0.074 A 
ATOM     75  C   UNL A   1      41.441  35.020  42.261  1.00  0.00     0.031 C 
ATOM     76  C   UNL A   1      42.905  36.298  40.723  1.00  0.00     0.034 A 
BRANCH  63  77
ATOM     77  C   UNL A   1      44.064  37.368  34.746  1.00  0.00     0.023 A 
ATOM     78  C   UNL A   1      45.195  36.684  34.256  1.00  0.00     0.012 A 
ATOM     79  C   UNL A   1      43.747  38.639  34.229  1.00  0.00     0.148 A 
ATOM     80  C   UNL A   1      46.015  37.268  33.293  1.00  0.00     0.002 A 
ATOM     81  C   UNL A   1      44.541  39.193  33.234  1.00  0.00     0.091 A 
ATOM     82  F   UNL A   1      42.684  39.286  34.729  1.00  0.00    -0.205 F 
ATOM     83  C   UNL A   1      45.683  38.515  32.774  1.00  0.00     0.022 A 
BRANCH  81  84
ATOM     84  S   UNL A   1      44.154  40.760  32.446  1.00  0.00     0.127 S 
ATOM     85  O   UNL A   1      42.732  40.596  32.145  1.00  0.00    -0.237 OA
ATOM     86  O   UNL A   1      44.445  41.718  33.512  1.00  0.00    -0.237 OA
ATOM     87  O   UNL A   1      45.029  40.855  31.286  1.00  0.00    -0.744 OA
ENDBRANCH  81  84
ENDBRANCH  63  77
BRANCH  64  88
ATOM     88  C   UNL A   1      38.122  32.602  41.259  1.00  0.00     0.023 A 
ATOM     89  C   UNL A   1      38.431  31.260  41.558  1.00  0.00     0.012 A 
ATOM     90  C   UNL A   1      37.026  33.212  41.900  1.00  0.00     0.148 A 
ATOM     91  C   UNL A   1      37.645  30.530  42.451  1.00  0.00     0.002 A 
ATOM     92  C   UNL A   1      36.280  32.496  42.830  1.00  0.00     0.091 A 
ATOM     93  F   UNL A   1      36.737  34.483  41.591  1.00  0.00    -0.205 F 
ATOM     94  C   UNL A   1      36.577  31.151  43.094  1.00  0.00     0.022 A 
BRANCH  92  95
ATOM     95  S   UNL A   1      34.971  33.249  43.802  1.00  0.00     0.127 S 
ATOM     96  O   UNL A   1      35.420  34.637  43.883  1.00  0.00    -0.237 OA
ATOM     97  O   UNL A   1      33.802  33.026  42.951  1.00  0.00    -0.237 OA
ATOM     98  O   UNL A   1      34.945  32.517  45.061  1.00  0.00    -0.744 OA
ENDBRANCH  92  95
ENDBRANCH  64  88
BRANCH  76  99
ATOM     99  C   UNL A   1      43.655  36.822  41.919  1.00  0.00     0.023 A 
ATOM    100  C   UNL A   1      44.795  36.145  42.392  1.00  0.00     0.012 A 
ATOM    101  C   UNL A   1      43.276  38.043  42.514  1.00  0.00     0.148 A 
ATOM    102  C   UNL A   1      45.528  36.659  43.462  1.00  0.00     0.002 A 
ATOM    103  C   UNL A   1      44.042  38.574  43.544  1.00  0.00     0.091 A 
ATOM    104  F   UNL A   1      42.178  38.663  42.058  1.00  0.00    -0.205 F 
ATOM    105  C   UNL A   1      45.161  37.878  44.028  1.00  0.00     0.022 A 
BRANCH 103 106
ATOM    106  S   UNL A   1      43.704  40.186  44.261  1.00  0.00     0.127 S 
ATOM    107  O   UNL A   1      43.763  41.053  43.086  1.00  0.00    -0.237 OA
ATOM    108  O   UNL A   1      42.363  40.001  44.818  1.00  0.00    -0.237 OA
ATOM    109  O   UNL A   1      44.744  40.410  45.257  1.00  0.00    -0.744 OA
ENDBRANCH 103 106
ENDBRANCH  76  99
ENDBRANCH  50  51
ENDBRANCH  43  45
ENDBRANCH  42  43
ENDBRANCH  41  42
ENDBRANCH  40  41
ENDBRANCH  39  40
ENDBRANCH  38  39
ENDBRANCH  37  38
ENDBRANCH  36  37
ENDBRANCH   1  36
TORSDOF 30
ENDMDL
