MODEL 1
REMARK VINA RESULT:      -8.1      0.000      0.000
REMARK SMILES O=C(COc1ccccc1C[N@@H+]1C[C@@H]2[C@H]3CC[C@H](C3)[C@@H]2C1)OCCOCCOCCOCCOC(=O)c1ccc(-c2c3nc(c(-c4cccc(S(=O)(=O)[O-])c4F)c4ccc([nH]4)c(-c4cccc(S(=O)(=O)[O-])c4F)c4nc(c(-c5cccc(S(=O)(=O)[O-])c5F)c5ccc2[nH]5)C=C4)C=C3)cc1
REMARK SMILES IDX 27 1 26 2 25 3 24 4 23 5 22 6 2 7 1 8 3 9 4 10 5 11 6 12
REMARK SMILES IDX 10 13 7 14 9 15 8 16 11 17 12 18 13 19 21 20 14 22 20 23
REMARK SMILES IDX 15 24 18 25 16 26 19 27 17 28 28 29 29 30 30 31 31 32 32 33
REMARK SMILES IDX 33 34 34 35 35 36 36 37 37 38 38 39 99 40 39 41 98 42 40 43
REMARK SMILES IDX 41 44 42 45 92 46 43 47 97 48 91 49 93 50 44 51 96 52 90 53
REMARK SMILES IDX 89 54 45 56 77 57 57 58 76 59 58 60 61 61 75 62 94 63 59 64
REMARK SMILES IDX 60 65 74 67 95 68 62 69 46 70 47 71 55 72 48 73 50 74 56 75
REMARK SMILES IDX 49 76 51 77 52 78 53 79 54 80 78 81 79 82 87 83 80 84 82 85
REMARK SMILES IDX 88 86 81 87 83 88 84 89 85 90 86 91 63 92 64 93 72 94 65 95
REMARK SMILES IDX 67 96 73 97 66 98 68 99 69 100 70 101 71 102
REMARK H PARENT 12 21 93 55 61 66
REMARK Flexibility Score: inf
ROOT
ATOM      1  C   UNL A   1      37.481  31.943  34.890  1.00  0.00     0.188 C 
ENDROOT
BRANCH   1   2
ATOM      2  C   UNL A   1      36.967  33.408  34.951  1.00  0.00     0.188 C 
BRANCH   2   3
ATOM      3  O   UNL A   1      35.574  33.679  34.888  1.00  0.00    -0.376 OA
BRANCH   3   4
ATOM      4  C   UNL A   1      34.930  34.631  34.070  1.00  0.00     0.202 C 
BRANCH   4   5
ATOM      5  C   UNL A   1      33.911  34.240  33.015  1.00  0.00     0.261 C 
BRANCH   5   6
ATOM      6  O   UNL A   1      34.126  34.817  31.723  1.00  0.00    -0.461 OA
BRANCH   6   7
ATOM      7  C   UNL A   1      34.539  34.194  30.596  1.00  0.00     0.344 C 
ATOM      8  O   UNL A   1      34.610  34.813  29.536  1.00  0.00    -0.248 OA
BRANCH   7   9
ATOM      9  C   UNL A   1      34.869  32.732  30.686  1.00  0.00     0.351 C 
BRANCH   9  10
ATOM     10  O   UNL A   1      36.025  32.498  31.473  1.00  0.00    -0.481 OA
BRANCH  10  11
ATOM     11  C   UNL A   1      37.131  33.050  30.892  1.00  0.00     0.129 A 
ATOM     12  C   UNL A   1      37.764  34.017  31.682  1.00  0.00     0.047 A 
ATOM     13  C   UNL A   1      37.562  32.759  29.581  1.00  0.00     0.048 A 
ATOM     14  C   UNL A   1      38.889  34.672  31.206  1.00  0.00     0.004 A 
ATOM     15  C   UNL A   1      38.742  33.390  29.156  1.00  0.00     0.013 A 
ATOM     16  C   UNL A   1      39.391  34.341  29.953  1.00  0.00     0.001 A 
BRANCH  13  17
ATOM     17  C   UNL A   1      36.816  31.880  28.587  1.00  0.00     0.302 C 
BRANCH  17  18
ATOM     18  N   UNL A   1      37.046  30.461  28.624  1.00  0.00    -0.331 N 
ATOM     19  C   UNL A   1      36.439  29.609  29.594  1.00  0.00     0.266 C 
ATOM     20  C   UNL A   1      38.096  29.773  27.905  1.00  0.00     0.266 C 
ATOM     21  H   UNL A   1      36.415  30.849  27.922  1.00  0.00     0.348 HD
ATOM     22  C   UNL A   1      37.625  28.798  30.084  1.00  0.00     0.056 C 
ATOM     23  C   UNL A   1      38.605  28.705  28.892  1.00  0.00     0.056 C 
ATOM     24  C   UNL A   1      38.506  29.479  31.167  1.00  0.00    -0.002 C 
ATOM     25  C   UNL A   1      39.970  29.049  29.545  1.00  0.00    -0.002 C 
ATOM     26  C   UNL A   1      39.360  28.365  31.783  1.00  0.00     0.004 C 
ATOM     27  C   UNL A   1      39.607  30.237  30.416  1.00  0.00     0.008 C 
ATOM     28  C   UNL A   1      40.334  28.026  30.637  1.00  0.00     0.004 C 
ENDBRANCH  17  18
ENDBRANCH  13  17
ENDBRANCH  10  11
ENDBRANCH   9  10
ENDBRANCH   7   9
ENDBRANCH   6   7
ENDBRANCH   5   6
ENDBRANCH   4   5
ENDBRANCH   3   4
ENDBRANCH   2   3
ENDBRANCH   1   2
BRANCH   1  29
ATOM     29  O   UNL A   1      37.825  31.263  36.085  1.00  0.00    -0.377 OA
BRANCH  29  30
ATOM     30  C   UNL A   1      38.380  32.049  37.119  1.00  0.00     0.188 C 
BRANCH  30  31
ATOM     31  C   UNL A   1      37.523  32.017  38.391  1.00  0.00     0.188 C 
BRANCH  31  32
ATOM     32  O   UNL A   1      38.196  32.064  39.635  1.00  0.00    -0.376 OA
BRANCH  32  33
ATOM     33  C   UNL A   1      38.449  33.265  40.347  1.00  0.00     0.202 C 
BRANCH  33  34
ATOM     34  C   UNL A   1      39.350  34.446  39.937  1.00  0.00     0.261 C 
BRANCH  34  35
ATOM     35  O   UNL A   1      38.954  35.286  38.865  1.00  0.00    -0.460 OA
BRANCH  35  36
ATOM     36  C   UNL A   1      39.817  36.231  38.459  1.00  0.00     0.338 C 
ATOM     37  O   UNL A   1      40.116  37.266  39.031  1.00  0.00    -0.246 OA
BRANCH  36  38
ATOM     38  C   UNL A   1      40.501  35.654  37.287  1.00  0.00     0.060 A 
ATOM     39  C   UNL A   1      39.737  35.213  36.195  1.00  0.00     0.016 A 
ATOM     40  C   UNL A   1      41.897  35.621  37.247  1.00  0.00     0.016 A 
ATOM     41  C   UNL A   1      40.368  34.708  35.066  1.00  0.00     0.010 A 
ATOM     42  C   UNL A   1      42.529  35.070  36.140  1.00  0.00     0.010 A 
ATOM     43  C   UNL A   1      41.760  34.574  35.072  1.00  0.00    -0.014 A 
BRANCH  43  44
ATOM     44  C   UNL A   1      42.401  33.626  34.144  1.00  0.00     0.031 A 
ATOM     45  C   UNL A   1      42.681  34.129  32.759  1.00  0.00     0.074 A 
ATOM     46  C   UNL A   1      42.635  32.354  34.493  1.00  0.00     0.049 A 
ATOM     47  N   UNL A   1      43.051  33.470  31.698  1.00  0.00    -0.248 NA
ATOM     48  C   UNL A   1      42.492  35.574  32.541  1.00  0.00     0.031 C 
ATOM     49  C   UNL A   1      42.407  31.783  35.817  1.00  0.00     0.029 A 
ATOM     50  N   UNL A   1      43.063  31.300  33.729  1.00  0.00    -0.354 N 
ATOM     51  C   UNL A   1      43.081  34.408  30.674  1.00  0.00     0.074 A 
ATOM     52  C   UNL A   1      42.701  35.681  31.241  1.00  0.00     0.031 C 
ATOM     53  C   UNL A   1      42.639  30.460  35.759  1.00  0.00     0.029 A 
ATOM     54  C   UNL A   1      42.986  30.096  34.386  1.00  0.00     0.049 A 
ATOM     55  H   UNL A   1      43.393  31.394  32.807  1.00  0.00     0.167 HD
ATOM     56  C   UNL A   1      43.390  34.221  29.372  1.00  0.00     0.034 A 
ATOM     57  C   UNL A   1      43.123  28.844  33.909  1.00  0.00     0.034 A 
ATOM     58  C   UNL A   1      43.754  32.945  28.826  1.00  0.00     0.049 A 
ATOM     59  C   UNL A   1      43.448  28.648  32.452  1.00  0.00     0.074 A 
ATOM     60  C   UNL A   1      44.141  32.640  27.535  1.00  0.00     0.029 A 
ATOM     61  N   UNL A   1      43.741  31.754  29.538  1.00  0.00    -0.354 N 
ATOM     62  N   UNL A   1      43.584  29.549  31.508  1.00  0.00    -0.248 NA
ATOM     63  C   UNL A   1      43.665  27.267  31.997  1.00  0.00     0.031 C 
ATOM     64  C   UNL A   1      44.320  31.256  27.455  1.00  0.00     0.029 A 
ATOM     65  C   UNL A   1      44.098  30.707  28.710  1.00  0.00     0.049 A 
ATOM     66  H   UNL A   1      43.513  31.668  30.490  1.00  0.00     0.167 HD
ATOM     67  C   UNL A   1      43.943  28.852  30.359  1.00  0.00     0.074 A 
ATOM     68  C   UNL A   1      44.005  27.452  30.727  1.00  0.00     0.031 C 
ATOM     69  C   UNL A   1      44.200  29.326  29.114  1.00  0.00     0.034 A 
BRANCH  56  70
ATOM     70  C   UNL A   1      43.315  35.419  28.466  1.00  0.00     0.023 A 
ATOM     71  C   UNL A   1      42.102  35.753  27.828  1.00  0.00     0.012 A 
ATOM     72  C   UNL A   1      44.456  36.211  28.237  1.00  0.00     0.148 A 
ATOM     73  C   UNL A   1      42.040  36.822  26.936  1.00  0.00     0.002 A 
ATOM     74  C   UNL A   1      44.372  37.310  27.391  1.00  0.00     0.091 A 
ATOM     75  F   UNL A   1      45.609  35.861  28.825  1.00  0.00    -0.205 F 
ATOM     76  C   UNL A   1      43.172  37.606  26.726  1.00  0.00     0.022 A 
BRANCH  74  77
ATOM     77  S   UNL A   1      45.752  38.427  27.127  1.00  0.00     0.127 S 
ATOM     78  O   UNL A   1      45.929  38.999  28.461  1.00  0.00    -0.237 OA
ATOM     79  O   UNL A   1      46.814  37.511  26.711  1.00  0.00    -0.237 OA
ATOM     80  O   UNL A   1      45.320  39.360  26.097  1.00  0.00    -0.744 OA
ENDBRANCH  74  77
ENDBRANCH  56  70
BRANCH  57  81
ATOM     81  C   UNL A   1      42.958  27.690  34.834  1.00  0.00     0.023 A 
ATOM     82  C   UNL A   1      41.728  27.007  34.882  1.00  0.00     0.012 A 
ATOM     83  C   UNL A   1      44.035  27.227  35.616  1.00  0.00     0.148 A 
ATOM     84  C   UNL A   1      41.569  25.892  35.705  1.00  0.00     0.002 A 
ATOM     85  C   UNL A   1      43.886  26.084  36.391  1.00  0.00     0.091 A 
ATOM     86  F   UNL A   1      45.194  27.898  35.556  1.00  0.00    -0.205 F 
ATOM     87  C   UNL A   1      42.649  25.423  36.448  1.00  0.00     0.022 A 
BRANCH  85  88
ATOM     88  S   UNL A   1      45.252  25.329  37.279  1.00  0.00     0.127 S 
ATOM     89  O   UNL A   1      44.557  24.376  38.141  1.00  0.00    -0.237 OA
ATOM     90  O   UNL A   1      46.019  24.728  36.188  1.00  0.00    -0.237 OA
ATOM     91  O   UNL A   1      45.929  26.418  37.970  1.00  0.00    -0.744 OA
ENDBRANCH  85  88
ENDBRANCH  57  81
BRANCH  69  92
ATOM     92  C   UNL A   1      44.639  28.344  28.059  1.00  0.00     0.023 A 
ATOM     93  C   UNL A   1      46.003  28.038  27.893  1.00  0.00     0.012 A 
ATOM     94  C   UNL A   1      43.673  27.635  27.315  1.00  0.00     0.148 A 
ATOM     95  C   UNL A   1      46.400  27.057  26.986  1.00  0.00     0.002 A 
ATOM     96  C   UNL A   1      44.073  26.623  26.454  1.00  0.00     0.091 A 
ATOM     97  F   UNL A   1      42.381  27.955  27.480  1.00  0.00    -0.205 F 
ATOM     98  C   UNL A   1      45.437  26.339  26.280  1.00  0.00     0.022 A 
BRANCH  96  99
ATOM     99  S   UNL A   1      42.897  25.576  25.589  1.00  0.00     0.127 S 
ATOM    100  O   UNL A   1      43.786  24.720  24.803  1.00  0.00    -0.237 OA
ATOM    101  O   UNL A   1      42.215  24.899  26.692  1.00  0.00    -0.237 OA
ATOM    102  O   UNL A   1      42.052  26.472  24.811  1.00  0.00    -0.744 OA
ENDBRANCH  96  99
ENDBRANCH  69  92
ENDBRANCH  43  44
ENDBRANCH  36  38
ENDBRANCH  35  36
ENDBRANCH  34  35
ENDBRANCH  33  34
ENDBRANCH  32  33
ENDBRANCH  31  32
ENDBRANCH  30  31
ENDBRANCH  29  30
ENDBRANCH   1  29
TORSDOF 27
ENDMDL
MODEL 2
REMARK VINA RESULT:      -6.6      5.511     12.041
REMARK SMILES O=C(COc1ccccc1C[N@@H+]1C[C@@H]2[C@H]3CC[C@H](C3)[C@@H]2C1)OCCOCCOCCOCCOC(=O)c1ccc(-c2c3nc(c(-c4cccc(S(=O)(=O)[O-])c4F)c4ccc([nH]4)c(-c4cccc(S(=O)(=O)[O-])c4F)c4nc(c(-c5cccc(S(=O)(=O)[O-])c5F)c5ccc2[nH]5)C=C4)C=C3)cc1
REMARK SMILES IDX 27 1 26 2 25 3 24 4 23 5 22 6 2 7 1 8 3 9 4 10 5 11 6 12
REMARK SMILES IDX 10 13 7 14 9 15 8 16 11 17 12 18 13 19 21 20 14 22 20 23
REMARK SMILES IDX 15 24 18 25 16 26 19 27 17 28 28 29 29 30 30 31 31 32 32 33
REMARK SMILES IDX 33 34 34 35 35 36 36 37 37 38 38 39 99 40 39 41 98 42 40 43
REMARK SMILES IDX 41 44 42 45 92 46 43 47 97 48 91 49 93 50 44 51 96 52 90 53
REMARK SMILES IDX 89 54 45 56 77 57 57 58 76 59 58 60 61 61 75 62 94 63 59 64
REMARK SMILES IDX 60 65 74 67 95 68 62 69 46 70 47 71 55 72 48 73 50 74 56 75
REMARK SMILES IDX 49 76 51 77 52 78 53 79 54 80 78 81 79 82 87 83 80 84 82 85
REMARK SMILES IDX 88 86 81 87 83 88 84 89 85 90 86 91 63 92 64 93 72 94 65 95
REMARK SMILES IDX 67 96 73 97 66 98 68 99 69 100 70 101 71 102
REMARK H PARENT 12 21 93 55 61 66
REMARK Flexibility Score: inf
ROOT
ATOM      1  C   UNL A   1      46.741  41.957  28.996  1.00  0.00     0.188 C 
ENDROOT
BRANCH   1   2
ATOM      2  C   UNL A   1      45.444  41.907  29.851  1.00  0.00     0.188 C 
BRANCH   2   3
ATOM      3  O   UNL A   1      44.172  41.982  29.223  1.00  0.00    -0.376 OA
BRANCH   3   4
ATOM      4  C   UNL A   1      43.486  40.937  28.569  1.00  0.00     0.202 C 
BRANCH   4   5
ATOM      5  C   UNL A   1      44.003  40.300  27.293  1.00  0.00     0.261 C 
BRANCH   5   6
ATOM      6  O   UNL A   1      43.106  40.359  26.180  1.00  0.00    -0.461 OA
BRANCH   6   7
ATOM      7  C   UNL A   1      42.939  41.378  25.305  1.00  0.00     0.344 C 
ATOM      8  O   UNL A   1      42.017  41.351  24.491  1.00  0.00    -0.248 OA
BRANCH   7   9
ATOM      9  C   UNL A   1      43.930  42.506  25.347  1.00  0.00     0.351 C 
BRANCH   9  10
ATOM     10  O   UNL A   1      44.275  42.956  24.047  1.00  0.00    -0.481 OA
BRANCH  10  11
ATOM     11  C   UNL A   1      45.580  43.355  24.000  1.00  0.00     0.129 A 
ATOM     12  C   UNL A   1      45.979  44.121  25.103  1.00  0.00     0.047 A 
ATOM     13  C   UNL A   1      46.442  43.111  22.911  1.00  0.00     0.048 A 
ATOM     14  C   UNL A   1      47.275  44.608  25.176  1.00  0.00     0.004 A 
ATOM     15  C   UNL A   1      47.765  43.560  23.047  1.00  0.00     0.013 A 
ATOM     16  C   UNL A   1      48.174  44.307  24.159  1.00  0.00     0.001 A 
BRANCH  13  17
ATOM     17  C   UNL A   1      46.030  42.469  21.593  1.00  0.00     0.302 C 
BRANCH  17  18
ATOM     18  N   UNL A   1      45.942  43.303  20.426  1.00  0.00    -0.331 N 
ATOM     19  C   UNL A   1      47.094  43.793  19.741  1.00  0.00     0.266 C 
ATOM     20  C   UNL A   1      44.740  43.969  19.973  1.00  0.00     0.266 C 
ATOM     21  H   UNL A   1      45.772  42.301  20.340  1.00  0.00     0.348 HD
ATOM     22  C   UNL A   1      46.762  45.265  19.584  1.00  0.00     0.056 C 
ATOM     23  C   UNL A   1      45.222  45.353  19.494  1.00  0.00     0.056 C 
ATOM     24  C   UNL A   1      47.061  46.159  20.819  1.00  0.00    -0.002 C 
ATOM     25  C   UNL A   1      44.889  46.509  20.474  1.00  0.00    -0.002 C 
ATOM     26  C   UNL A   1      47.038  47.606  20.312  1.00  0.00     0.004 C 
ATOM     27  C   UNL A   1      45.777  46.179  21.658  1.00  0.00     0.008 C 
ATOM     28  C   UNL A   1      45.541  47.827  20.017  1.00  0.00     0.004 C 
ENDBRANCH  17  18
ENDBRANCH  13  17
ENDBRANCH  10  11
ENDBRANCH   9  10
ENDBRANCH   7   9
ENDBRANCH   6   7
ENDBRANCH   5   6
ENDBRANCH   4   5
ENDBRANCH   3   4
ENDBRANCH   2   3
ENDBRANCH   1   2
BRANCH   1  29
ATOM     29  O   UNL A   1      47.605  40.834  28.955  1.00  0.00    -0.377 OA
BRANCH  29  30
ATOM     30  C   UNL A   1      48.617  40.854  27.969  1.00  0.00     0.188 C 
BRANCH  30  31
ATOM     31  C   UNL A   1      49.674  39.768  28.207  1.00  0.00     0.188 C 
BRANCH  31  32
ATOM     32  O   UNL A   1      49.457  38.501  27.616  1.00  0.00    -0.376 OA
BRANCH  32  33
ATOM     33  C   UNL A   1      48.170  37.968  27.348  1.00  0.00     0.202 C 
BRANCH  33  34
ATOM     34  C   UNL A   1      47.347  36.985  28.203  1.00  0.00     0.261 C 
BRANCH  34  35
ATOM     35  O   UNL A   1      45.943  37.159  28.312  1.00  0.00    -0.460 OA
BRANCH  35  36
ATOM     36  C   UNL A   1      45.338  36.687  29.413  1.00  0.00     0.338 C 
ATOM     37  O   UNL A   1      44.879  37.327  30.345  1.00  0.00    -0.246 OA
BRANCH  36  38
ATOM     38  C   UNL A   1      45.139  35.249  29.160  1.00  0.00     0.060 A 
ATOM     39  C   UNL A   1      44.536  34.840  27.961  1.00  0.00     0.016 A 
ATOM     40  C   UNL A   1      45.617  34.313  30.080  1.00  0.00     0.016 A 
ATOM     41  C   UNL A   1      44.381  33.487  27.688  1.00  0.00     0.010 A 
ATOM     42  C   UNL A   1      45.419  32.960  29.833  1.00  0.00     0.010 A 
ATOM     43  C   UNL A   1      44.760  32.554  28.658  1.00  0.00    -0.014 A 
BRANCH  43  44
ATOM     44  C   UNL A   1      44.183  31.199  28.626  1.00  0.00     0.031 A 
ATOM     45  C   UNL A   1      44.951  30.160  27.864  1.00  0.00     0.074 A 
ATOM     46  C   UNL A   1      42.987  30.934  29.169  1.00  0.00     0.049 A 
ATOM     47  N   UNL A   1      44.593  28.959  27.510  1.00  0.00    -0.248 NA
ATOM     48  C   UNL A   1      46.303  30.546  27.421  1.00  0.00     0.031 C 
ATOM     49  C   UNL A   1      42.178  31.875  29.937  1.00  0.00     0.029 A 
ATOM     50  N   UNL A   1      42.225  29.797  29.099  1.00  0.00    -0.354 N 
ATOM     51  C   UNL A   1      45.649  28.468  26.754  1.00  0.00     0.074 A 
ATOM     52  C   UNL A   1      46.663  29.495  26.706  1.00  0.00     0.031 C 
ATOM     53  C   UNL A   1      40.997  31.298  30.216  1.00  0.00     0.029 A 
ATOM     54  C   UNL A   1      40.961  29.969  29.607  1.00  0.00     0.049 A 
ATOM     55  H   UNL A   1      42.549  28.947  28.724  1.00  0.00     0.167 HD
ATOM     56  C   UNL A   1      45.758  27.267  26.144  1.00  0.00     0.034 A 
ATOM     57  C   UNL A   1      39.885  29.161  29.532  1.00  0.00     0.034 A 
ATOM     58  C   UNL A   1      44.734  26.264  26.193  1.00  0.00     0.049 A 
ATOM     59  C   UNL A   1      40.014  27.834  28.832  1.00  0.00     0.074 A 
ATOM     60  C   UNL A   1      44.752  24.988  25.662  1.00  0.00     0.029 A 
ATOM     61  N   UNL A   1      43.492  26.440  26.784  1.00  0.00    -0.354 N 
ATOM     62  N   UNL A   1      41.052  27.327  28.211  1.00  0.00    -0.248 NA
ATOM     63  C   UNL A   1      38.836  26.957  28.844  1.00  0.00     0.031 C 
ATOM     64  C   UNL A   1      43.501  24.408  25.893  1.00  0.00     0.029 A 
ATOM     65  C   UNL A   1      42.725  25.302  26.618  1.00  0.00     0.049 A 
ATOM     66  H   UNL A   1      43.199  27.254  27.253  1.00  0.00     0.167 HD
ATOM     67  C   UNL A   1      40.669  26.055  27.795  1.00  0.00     0.074 A 
ATOM     68  C   UNL A   1      39.302  25.871  28.238  1.00  0.00     0.031 C 
ATOM     69  C   UNL A   1      41.382  25.125  27.112  1.00  0.00     0.034 A 
BRANCH  56  70
ATOM     70  C   UNL A   1      47.014  27.004  25.358  1.00  0.00     0.023 A 
ATOM     71  C   UNL A   1      48.082  26.292  25.941  1.00  0.00     0.012 A 
ATOM     72  C   UNL A   1      47.140  27.478  24.038  1.00  0.00     0.148 A 
ATOM     73  C   UNL A   1      49.273  26.100  25.244  1.00  0.00     0.002 A 
ATOM     74  C   UNL A   1      48.309  27.234  23.329  1.00  0.00     0.091 A 
ATOM     75  F   UNL A   1      46.129  28.183  23.510  1.00  0.00    -0.205 F 
ATOM     76  C   UNL A   1      49.383  26.563  23.935  1.00  0.00     0.022 A 
BRANCH  74  77
ATOM     77  S   UNL A   1      48.509  27.715  21.611  1.00  0.00     0.127 S 
ATOM     78  O   UNL A   1      48.625  26.414  20.952  1.00  0.00    -0.237 OA
ATOM     79  O   UNL A   1      47.257  28.424  21.343  1.00  0.00    -0.237 OA
ATOM     80  O   UNL A   1      49.700  28.551  21.564  1.00  0.00    -0.744 OA
ENDBRANCH  74  77
ENDBRANCH  56  70
BRANCH  57  81
ATOM     81  C   UNL A   1      38.602  29.598  30.147  1.00  0.00     0.023 A 
ATOM     82  C   UNL A   1      38.327  29.271  31.488  1.00  0.00     0.012 A 
ATOM     83  C   UNL A   1      37.687  30.393  29.428  1.00  0.00     0.148 A 
ATOM     84  C   UNL A   1      37.154  29.714  32.098  1.00  0.00     0.002 A 
ATOM     85  C   UNL A   1      36.548  30.877  30.059  1.00  0.00     0.091 A 
ATOM     86  F   UNL A   1      37.970  30.687  28.152  1.00  0.00    -0.205 F 
ATOM     87  C   UNL A   1      36.272  30.526  31.390  1.00  0.00     0.022 A 
BRANCH  85  88
ATOM     88  S   UNL A   1      35.420  32.033  29.274  1.00  0.00     0.127 S 
ATOM     89  O   UNL A   1      36.318  33.128  28.913  1.00  0.00    -0.237 OA
ATOM     90  O   UNL A   1      34.924  31.245  28.147  1.00  0.00    -0.237 OA
ATOM     91  O   UNL A   1      34.416  32.355  30.280  1.00  0.00    -0.744 OA
ENDBRANCH  85  88
ENDBRANCH  57  81
BRANCH  69  92
ATOM     92  C   UNL A   1      40.736  23.790  26.850  1.00  0.00     0.023 A 
ATOM     93  C   UNL A   1      39.413  23.719  26.372  1.00  0.00     0.012 A 
ATOM     94  C   UNL A   1      41.496  22.608  26.967  1.00  0.00     0.148 A 
ATOM     95  C   UNL A   1      38.851  22.488  26.035  1.00  0.00     0.002 A 
ATOM     96  C   UNL A   1      40.947  21.394  26.579  1.00  0.00     0.091 A 
ATOM     97  F   UNL A   1      42.748  22.700  27.439  1.00  0.00    -0.205 F 
ATOM     98  C   UNL A   1      39.621  21.330  26.123  1.00  0.00     0.022 A 
BRANCH  96  99
ATOM     99  S   UNL A   1      41.899  19.871  26.555  1.00  0.00     0.127 S 
ATOM    100  O   UNL A   1      41.961  19.539  27.978  1.00  0.00    -0.237 OA
ATOM    101  O   UNL A   1      41.048  18.987  25.758  1.00  0.00    -0.237 OA
ATOM    102  O   UNL A   1      43.177  20.201  25.939  1.00  0.00    -0.744 OA
ENDBRANCH  96  99
ENDBRANCH  69  92
ENDBRANCH  43  44
ENDBRANCH  36  38
ENDBRANCH  35  36
ENDBRANCH  34  35
ENDBRANCH  33  34
ENDBRANCH  32  33
ENDBRANCH  31  32
ENDBRANCH  30  31
ENDBRANCH  29  30
ENDBRANCH   1  29
TORSDOF 27
ENDMDL
MODEL 3
REMARK VINA RESULT:      -6.5      2.282      3.286
REMARK SMILES O=C(COc1ccccc1C[N@@H+]1C[C@@H]2[C@H]3CC[C@H](C3)[C@@H]2C1)OCCOCCOCCOCCOC(=O)c1ccc(-c2c3nc(c(-c4cccc(S(=O)(=O)[O-])c4F)c4ccc([nH]4)c(-c4cccc(S(=O)(=O)[O-])c4F)c4nc(c(-c5cccc(S(=O)(=O)[O-])c5F)c5ccc2[nH]5)C=C4)C=C3)cc1
REMARK SMILES IDX 27 1 26 2 25 3 24 4 23 5 22 6 2 7 1 8 3 9 4 10 5 11 6 12
REMARK SMILES IDX 10 13 7 14 9 15 8 16 11 17 12 18 13 19 21 20 14 22 20 23
REMARK SMILES IDX 15 24 18 25 16 26 19 27 17 28 28 29 29 30 30 31 31 32 32 33
REMARK SMILES IDX 33 34 34 35 35 36 36 37 37 38 38 39 99 40 39 41 98 42 40 43
REMARK SMILES IDX 41 44 42 45 92 46 43 47 97 48 91 49 93 50 44 51 96 52 90 53
REMARK SMILES IDX 89 54 45 56 77 57 57 58 76 59 58 60 61 61 75 62 94 63 59 64
REMARK SMILES IDX 60 65 74 67 95 68 62 69 46 70 47 71 55 72 48 73 50 74 56 75
REMARK SMILES IDX 49 76 51 77 52 78 53 79 54 80 78 81 79 82 87 83 80 84 82 85
REMARK SMILES IDX 88 86 81 87 83 88 84 89 85 90 86 91 63 92 64 93 72 94 65 95
REMARK SMILES IDX 67 96 73 97 66 98 68 99 69 100 70 101 71 102
REMARK H PARENT 12 21 93 55 61 66
REMARK Flexibility Score: inf
ROOT
ATOM      1  C   UNL A   1      37.661  31.457  34.822  1.00  0.00     0.188 C 
ENDROOT
BRANCH   1   2
ATOM      2  C   UNL A   1      37.223  32.913  34.500  1.00  0.00     0.188 C 
BRANCH   2   3
ATOM      3  O   UNL A   1      35.964  33.394  34.948  1.00  0.00    -0.376 OA
BRANCH   3   4
ATOM      4  C   UNL A   1      34.980  34.045  34.173  1.00  0.00     0.202 C 
BRANCH   4   5
ATOM      5  C   UNL A   1      34.088  33.297  33.199  1.00  0.00     0.261 C 
BRANCH   5   6
ATOM      6  O   UNL A   1      34.406  33.491  31.817  1.00  0.00    -0.461 OA
BRANCH   6   7
ATOM      7  C   UNL A   1      35.483  33.027  31.142  1.00  0.00     0.344 C 
ATOM      8  O   UNL A   1      36.135  33.781  30.421  1.00  0.00    -0.248 OA
BRANCH   7   9
ATOM      9  C   UNL A   1      35.823  31.572  31.283  1.00  0.00     0.351 C 
BRANCH   9  10
ATOM     10  O   UNL A   1      37.211  31.369  31.490  1.00  0.00    -0.481 OA
BRANCH  10  11
ATOM     11  C   UNL A   1      37.698  30.418  30.640  1.00  0.00     0.129 A 
ATOM     12  C   UNL A   1      36.929  30.246  29.482  1.00  0.00     0.047 A 
ATOM     13  C   UNL A   1      38.815  29.605  30.921  1.00  0.00     0.048 A 
ATOM     14  C   UNL A   1      37.298  29.298  28.540  1.00  0.00     0.004 A 
ATOM     15  C   UNL A   1      39.201  28.704  29.916  1.00  0.00     0.013 A 
ATOM     16  C   UNL A   1      38.448  28.544  28.746  1.00  0.00     0.001 A 
BRANCH  13  17
ATOM     17  C   UNL A   1      39.579  29.587  32.238  1.00  0.00     0.302 C 
BRANCH  17  18
ATOM     18  N   UNL A   1      40.681  30.495  32.400  1.00  0.00    -0.331 N 
ATOM     19  C   UNL A   1      40.580  31.702  33.155  1.00  0.00     0.266 C 
ATOM     20  C   UNL A   1      41.901  30.464  31.623  1.00  0.00     0.266 C 
ATOM     21  H   UNL A   1      40.658  29.632  32.944  1.00  0.00     0.348 HD
ATOM     22  C   UNL A   1      41.191  32.716  32.206  1.00  0.00     0.056 C 
ATOM     23  C   UNL A   1      42.233  31.946  31.364  1.00  0.00     0.056 C 
ATOM     24  C   UNL A   1      40.241  33.270  31.108  1.00  0.00    -0.002 C 
ATOM     25  C   UNL A   1      41.920  32.418  29.919  1.00  0.00    -0.002 C 
ATOM     26  C   UNL A   1      40.920  34.527  30.552  1.00  0.00     0.004 C 
ATOM     27  C   UNL A   1      40.405  32.351  29.891  1.00  0.00     0.008 C 
ATOM     28  C   UNL A   1      42.118  33.939  29.780  1.00  0.00     0.004 C 
ENDBRANCH  17  18
ENDBRANCH  13  17
ENDBRANCH  10  11
ENDBRANCH   9  10
ENDBRANCH   7   9
ENDBRANCH   6   7
ENDBRANCH   5   6
ENDBRANCH   4   5
ENDBRANCH   3   4
ENDBRANCH   2   3
ENDBRANCH   1   2
BRANCH   1  29
ATOM     29  O   UNL A   1      38.257  31.157  36.073  1.00  0.00    -0.377 OA
BRANCH  29  30
ATOM     30  C   UNL A   1      38.497  32.250  36.934  1.00  0.00     0.188 C 
BRANCH  30  31
ATOM     31  C   UNL A   1      37.685  32.150  38.232  1.00  0.00     0.188 C 
BRANCH  31  32
ATOM     32  O   UNL A   1      38.397  32.195  39.454  1.00  0.00    -0.376 OA
BRANCH  32  33
ATOM     33  C   UNL A   1      38.586  33.380  40.211  1.00  0.00     0.202 C 
BRANCH  33  34
ATOM     34  C   UNL A   1      39.318  34.671  39.796  1.00  0.00     0.261 C 
BRANCH  34  35
ATOM     35  O   UNL A   1      38.881  35.384  38.649  1.00  0.00    -0.460 OA
BRANCH  35  36
ATOM     36  C   UNL A   1      39.520  36.523  38.339  1.00  0.00     0.338 C 
ATOM     37  O   UNL A   1      39.459  37.595  38.918  1.00  0.00    -0.246 OA
BRANCH  36  38
ATOM     38  C   UNL A   1      40.486  36.152  37.290  1.00  0.00     0.060 A 
ATOM     39  C   UNL A   1      40.019  35.565  36.104  1.00  0.00     0.016 A 
ATOM     40  C   UNL A   1      41.839  36.455  37.457  1.00  0.00     0.016 A 
ATOM     41  C   UNL A   1      40.912  35.250  35.087  1.00  0.00     0.010 A 
ATOM     42  C   UNL A   1      42.741  36.096  36.463  1.00  0.00     0.010 A 
ATOM     43  C   UNL A   1      42.279  35.453  35.300  1.00  0.00    -0.014 A 
BRANCH  43  44
ATOM     44  C   UNL A   1      43.258  34.707  34.491  1.00  0.00     0.031 A 
ATOM     45  C   UNL A   1      43.738  35.373  33.237  1.00  0.00     0.074 A 
ATOM     46  C   UNL A   1      43.627  33.459  34.812  1.00  0.00     0.049 A 
ATOM     47  N   UNL A   1      44.435  34.881  32.252  1.00  0.00    -0.248 NA
ATOM     48  C   UNL A   1      43.354  36.786  33.063  1.00  0.00     0.031 C 
ATOM     49  C   UNL A   1      43.222  32.739  36.016  1.00  0.00     0.029 A 
ATOM     50  N   UNL A   1      44.384  32.560  34.108  1.00  0.00    -0.354 N 
ATOM     51  C   UNL A   1      44.523  35.904  31.316  1.00  0.00     0.074 A 
ATOM     52  C   UNL A   1      43.816  37.044  31.852  1.00  0.00     0.031 C 
ATOM     53  C   UNL A   1      43.684  31.479  35.938  1.00  0.00     0.029 A 
ATOM     54  C   UNL A   1      44.375  31.304  34.662  1.00  0.00     0.049 A 
ATOM     55  H   UNL A   1      44.883  32.790  33.291  1.00  0.00     0.167 HD
ATOM     56  C   UNL A   1      45.131  35.889  30.110  1.00  0.00     0.034 A 
ATOM     57  C   UNL A   1      44.825  30.137  34.159  1.00  0.00     0.034 A 
ATOM     58  C   UNL A   1      45.818  34.741  29.590  1.00  0.00     0.049 A 
ATOM     59  C   UNL A   1      45.484  30.130  32.805  1.00  0.00     0.074 A 
ATOM     60  C   UNL A   1      46.520  34.622  28.406  1.00  0.00     0.029 A 
ATOM     61  N   UNL A   1      45.858  33.502  30.212  1.00  0.00    -0.354 N 
ATOM     62  N   UNL A   1      45.663  31.126  31.969  1.00  0.00    -0.248 NA
ATOM     63  C   UNL A   1      46.028  28.849  32.335  1.00  0.00     0.031 C 
ATOM     64  C   UNL A   1      46.947  33.295  28.291  1.00  0.00     0.029 A 
ATOM     65  C   UNL A   1      46.559  32.605  29.430  1.00  0.00     0.049 A 
ATOM     66  H   UNL A   1      45.448  33.294  31.082  1.00  0.00     0.167 HD
ATOM     67  C   UNL A   1      46.376  30.603  30.894  1.00  0.00     0.074 A 
ATOM     68  C   UNL A   1      46.597  29.202  31.188  1.00  0.00     0.031 C 
ATOM     69  C   UNL A   1      46.808  31.225  29.769  1.00  0.00     0.034 A 
BRANCH  56  70
ATOM     70  C   UNL A   1      45.047  37.140  29.279  1.00  0.00     0.023 A 
ATOM     71  C   UNL A   1      43.920  37.380  28.467  1.00  0.00     0.012 A 
ATOM     72  C   UNL A   1      46.098  38.077  29.294  1.00  0.00     0.148 A 
ATOM     73  C   UNL A   1      43.862  38.504  27.645  1.00  0.00     0.002 A 
ATOM     74  C   UNL A   1      46.009  39.223  28.515  1.00  0.00     0.091 A 
ATOM     75  F   UNL A   1      47.178  37.817  30.046  1.00  0.00    -0.205 F 
ATOM     76  C   UNL A   1      44.902  39.430  27.676  1.00  0.00     0.022 A 
BRANCH  74  77
ATOM     77  S   UNL A   1      47.257  40.513  28.556  1.00  0.00     0.127 S 
ATOM     78  O   UNL A   1      46.545  41.592  29.239  1.00  0.00    -0.237 OA
ATOM     79  O   UNL A   1      48.318  39.888  29.347  1.00  0.00    -0.237 OA
ATOM     80  O   UNL A   1      47.610  40.773  27.168  1.00  0.00    -0.744 OA
ENDBRANCH  74  77
ENDBRANCH  56  70
BRANCH  57  81
ATOM     81  C   UNL A   1      44.666  28.891  34.957  1.00  0.00     0.023 A 
ATOM     82  C   UNL A   1      45.770  28.368  35.656  1.00  0.00     0.012 A 
ATOM     83  C   UNL A   1      43.411  28.263  35.078  1.00  0.00     0.148 A 
ATOM     84  C   UNL A   1      45.630  27.230  36.450  1.00  0.00     0.002 A 
ATOM     85  C   UNL A   1      43.267  27.163  35.914  1.00  0.00     0.091 A 
ATOM     86  F   UNL A   1      42.377  28.778  34.399  1.00  0.00    -0.205 F 
ATOM     87  C   UNL A   1      44.378  26.636  36.589  1.00  0.00     0.022 A 
BRANCH  85  88
ATOM     88  S   UNL A   1      41.674  26.409  36.261  1.00  0.00     0.127 S 
ATOM     89  O   UNL A   1      42.060  25.241  37.047  1.00  0.00    -0.237 OA
ATOM     90  O   UNL A   1      41.004  27.467  37.017  1.00  0.00    -0.237 OA
ATOM     91  O   UNL A   1      41.079  26.121  34.962  1.00  0.00    -0.744 OA
ENDBRANCH  85  88
ENDBRANCH  57  81
BRANCH  69  92
ATOM     92  C   UNL A   1      47.626  30.426  28.789  1.00  0.00     0.023 A 
ATOM     93  C   UNL A   1      48.987  30.169  29.038  1.00  0.00     0.012 A 
ATOM     94  C   UNL A   1      46.998  29.828  27.675  1.00  0.00     0.148 A 
ATOM     95  C   UNL A   1      49.718  29.346  28.181  1.00  0.00     0.002 A 
ATOM     96  C   UNL A   1      47.719  28.967  26.859  1.00  0.00     0.091 A 
ATOM     97  F   UNL A   1      45.705  30.099  27.451  1.00  0.00    -0.205 F 
ATOM     98  C   UNL A   1      49.081  28.733  27.103  1.00  0.00     0.022 A 
BRANCH  96  99
ATOM     99  S   UNL A   1      46.955  28.051  25.515  1.00  0.00     0.127 S 
ATOM    100  O   UNL A   1      45.817  27.428  26.191  1.00  0.00    -0.237 OA
ATOM    101  O   UNL A   1      46.600  29.117  24.578  1.00  0.00    -0.237 OA
ATOM    102  O   UNL A   1      47.969  27.127  25.027  1.00  0.00    -0.744 OA
ENDBRANCH  96  99
ENDBRANCH  69  92
ENDBRANCH  43  44
ENDBRANCH  36  38
ENDBRANCH  35  36
ENDBRANCH  34  35
ENDBRANCH  33  34
ENDBRANCH  32  33
ENDBRANCH  31  32
ENDBRANCH  30  31
ENDBRANCH  29  30
ENDBRANCH   1  29
TORSDOF 27
ENDMDL
