MODEL 1
REMARK VINA RESULT:     -10.2      0.000      0.000
REMARK SMILES Cc1ccc(-c2cc3cccnc3n2CCC(=O)OCCOCCOCCOCCOC(=O)c2ccc(-c3c4nc(c(-c5cccc(S(=O)(=O)[O-])c5F)c5ccc([nH]5)c(-c5cccc(S(=O)(=O)[O-])c5F)c5nc(c(-c6cccc(S(=O)(=O)[O-])c6F)c6ccc3[nH]6)C=C5)C=C4)cc2)cn1
REMARK SMILES IDX 25 1 24 2 23 3 22 4 21 5 20 6 19 7 17 8 18 9 16 10 15 11
REMARK SMILES IDX 14 12 6 13 7 14 8 15 13 16 9 17 12 18 10 19 11 20 5 21 1 22
REMARK SMILES IDX 2 23 3 24 98 25 4 26 97 27 26 28 27 29 28 30 29 31 30 32
REMARK SMILES IDX 31 33 32 34 33 35 34 36 35 37 96 38 36 39 95 40 37 41 38 42
REMARK SMILES IDX 39 43 89 44 40 45 94 46 88 47 90 48 41 49 93 50 87 51 86 52
REMARK SMILES IDX 42 54 74 55 54 56 73 57 55 58 58 59 72 60 91 61 56 62 57 63
REMARK SMILES IDX 71 65 92 66 59 67 43 68 44 69 52 70 45 71 47 72 53 73 46 74
REMARK SMILES IDX 48 75 49 76 50 77 51 78 75 79 76 80 84 81 77 82 79 83 85 84
REMARK SMILES IDX 78 85 80 86 81 87 82 88 83 89 60 90 61 91 69 92 62 93 64 94
REMARK SMILES IDX 70 95 63 96 65 97 66 98 67 99 68 100
REMARK H PARENT 90 53 58 64
REMARK Flexibility Score: inf
ROOT
ATOM      1  O   UNL A   1      33.966  33.874  28.731  1.00  0.00    -0.377 OA
ENDROOT
BRANCH   1   2
ATOM      2  C   UNL A   1      33.381  32.969  27.809  1.00  0.00     0.188 C 
BRANCH   2   3
ATOM      3  C   UNL A   1      34.092  31.629  27.637  1.00  0.00     0.188 C 
BRANCH   3   4
ATOM      4  O   UNL A   1      33.087  30.564  27.116  1.00  0.00    -0.376 OA
BRANCH   4   5
ATOM      5  C   UNL A   1      32.762  28.665  26.598  1.00  0.00     0.202 C 
BRANCH   5   6
ATOM      6  C   UNL A   1      31.814  27.390  27.341  1.00  0.00     0.261 C 
BRANCH   6   7
ATOM      7  O   UNL A   1      30.621  26.819  26.725  1.00  0.00    -0.463 OA
BRANCH   7   8
ATOM      8  C   UNL A   1      30.648  25.541  26.271  1.00  0.00     0.307 C 
ATOM      9  O   UNL A   1      31.237  24.631  26.848  1.00  0.00    -0.252 OA
BRANCH   8  10
ATOM     10  C   UNL A   1      29.771  25.273  25.039  1.00  0.00     0.144 C 
BRANCH  10  11
ATOM     11  C   UNL A   1      30.371  24.884  23.678  1.00  0.00     0.136 C 
BRANCH  11  12
ATOM     12  N   UNL A   1      31.728  25.307  23.436  1.00  0.00    -0.325 N 
ATOM     13  C   UNL A   1      32.831  24.485  23.465  1.00  0.00     0.052 A 
ATOM     14  C   UNL A   1      33.903  25.257  23.039  1.00  0.00     0.039 A 
ATOM     15  C   UNL A   1      33.471  26.586  22.880  1.00  0.00     0.020 A 
ATOM     16  C   UNL A   1      32.115  26.605  23.184  1.00  0.00     0.140 A 
ATOM     17  C   UNL A   1      34.095  27.786  22.514  1.00  0.00     0.013 A 
ATOM     18  N   UNL A   1      31.317  27.692  23.207  1.00  0.00    -0.238 NA
ATOM     19  C   UNL A   1      33.322  28.940  22.552  1.00  0.00     0.021 A 
ATOM     20  C   UNL A   1      31.984  28.838  22.916  1.00  0.00     0.113 A 
BRANCH  13  21
ATOM     21  C   UNL A   1      32.869  23.042  23.741  1.00  0.00     0.017 A 
ATOM     22  C   UNL A   1      32.956  18.040  23.786  1.00  0.00     0.066 C 
ATOM     23  C   UNL A   1      32.637  19.492  23.970  1.00  0.00     0.037 A 
ATOM     24  C   UNL A   1      33.234  20.380  25.410  1.00  0.00     0.024 A 
ATOM     25  N   UNL A   1      32.122  20.299  22.519  1.00  0.00    -0.261 NA
ATOM     26  C   UNL A   1      33.353  22.192  25.302  1.00  0.00     0.014 A 
ATOM     27  C   UNL A   1      32.271  22.032  22.396  1.00  0.00     0.121 A 
ENDBRANCH  13  21
ENDBRANCH  11  12
ENDBRANCH  10  11
ENDBRANCH   8  10
ENDBRANCH   7   8
ENDBRANCH   6   7
ENDBRANCH   5   6
ENDBRANCH   4   5
ENDBRANCH   3   4
ENDBRANCH   2   3
ENDBRANCH   1   2
BRANCH   1  28
ATOM     28  C   UNL A   1      33.838  35.269  28.515  1.00  0.00     0.188 C 
BRANCH  28  29
ATOM     29  C   UNL A   1      33.071  36.079  29.561  1.00  0.00     0.188 C 
BRANCH  29  30
ATOM     30  O   UNL A   1      32.564  35.484  30.747  1.00  0.00    -0.376 OA
BRANCH  30  31
ATOM     31  C   UNL A   1      32.891  35.970  32.042  1.00  0.00     0.202 C 
BRANCH  31  32
ATOM     32  C   UNL A   1      34.059  35.404  32.862  1.00  0.00     0.261 C 
BRANCH  32  33
ATOM     33  O   UNL A   1      34.967  34.647  32.079  1.00  0.00    -0.460 OA
BRANCH  33  34
ATOM     34  C   UNL A   1      34.766  33.316  32.163  1.00  0.00     0.338 C 
ATOM     35  O   UNL A   1      33.987  32.754  32.920  1.00  0.00    -0.246 OA
BRANCH  34  36
ATOM     36  C   UNL A   1      35.619  32.608  31.146  1.00  0.00     0.060 A 
ATOM     37  C   UNL A   1      35.835  31.291  31.555  1.00  0.00     0.016 A 
ATOM     38  C   UNL A   1      36.694  33.420  30.788  1.00  0.00     0.016 A 
ATOM     39  C   UNL A   1      36.972  31.087  32.291  1.00  0.00     0.010 A 
ATOM     40  C   UNL A   1      37.824  33.258  31.542  1.00  0.00     0.010 A 
ATOM     41  C   UNL A   1      37.878  32.150  32.387  1.00  0.00    -0.014 A 
BRANCH  41  42
ATOM     42  C   UNL A   1      38.947  32.018  33.337  1.00  0.00     0.031 A 
ATOM     43  C   UNL A   1      38.736  32.914  34.484  1.00  0.00     0.074 A 
ATOM     44  C   UNL A   1      39.967  31.156  33.178  1.00  0.00     0.049 A 
ATOM     45  N   UNL A   1      39.343  34.028  34.721  1.00  0.00    -0.248 NA
ATOM     46  C   UNL A   1      37.546  32.673  35.315  1.00  0.00     0.031 C 
ATOM     47  C   UNL A   1      40.110  30.065  32.212  1.00  0.00     0.029 A 
ATOM     48  N   UNL A   1      41.061  31.009  33.967  1.00  0.00    -0.354 N 
ATOM     49  C   UNL A   1      38.765  34.491  35.893  1.00  0.00     0.074 A 
ATOM     50  C   UNL A   1      37.530  33.773  36.065  1.00  0.00     0.031 C 
ATOM     51  C   UNL A   1      41.079  29.221  32.644  1.00  0.00     0.029 A 
ATOM     52  C   UNL A   1      41.701  29.782  33.832  1.00  0.00     0.049 A 
ATOM     53  H   UNL A   1      41.376  31.711  34.581  1.00  0.00     0.167 HD
ATOM     54  C   UNL A   1      39.492  35.188  36.802  1.00  0.00     0.034 A 
ATOM     55  C   UNL A   1      42.588  29.261  34.720  1.00  0.00     0.034 A 
ATOM     56  C   UNL A   1      40.717  35.694  36.249  1.00  0.00     0.049 A 
ATOM     57  C   UNL A   1      43.102  30.404  35.519  1.00  0.00     0.074 A 
ATOM     58  C   UNL A   1      41.035  36.546  35.210  1.00  0.00     0.029 A 
ATOM     59  N   UNL A   1      41.856  34.979  36.526  1.00  0.00    -0.354 N 
ATOM     60  N   UNL A   1      43.829  31.367  35.026  1.00  0.00    -0.248 NA
ATOM     61  C   UNL A   1      42.439  30.704  36.781  1.00  0.00     0.031 C 
ATOM     62  C   UNL A   1      42.207  35.990  34.623  1.00  0.00     0.029 A 
ATOM     63  C   UNL A   1      42.570  34.862  35.363  1.00  0.00     0.049 A 
ATOM     64  H   UNL A   1      42.114  34.617  37.404  1.00  0.00     0.167 HD
ATOM     65  C   UNL A   1      43.364  32.513  35.659  1.00  0.00     0.074 A 
ATOM     66  C   UNL A   1      42.586  32.031  36.799  1.00  0.00     0.031 C 
ATOM     67  C   UNL A   1      43.404  33.726  35.037  1.00  0.00     0.034 A 
BRANCH  54  68
ATOM     68  C   UNL A   1      39.271  35.050  38.279  1.00  0.00     0.023 A 
ATOM     69  C   UNL A   1      39.183  36.224  39.047  1.00  0.00     0.012 A 
ATOM     70  C   UNL A   1      39.389  33.823  38.974  1.00  0.00     0.148 A 
ATOM     71  C   UNL A   1      39.204  36.175  40.444  1.00  0.00     0.002 A 
ATOM     72  C   UNL A   1      39.311  33.770  40.357  1.00  0.00     0.091 A 
ATOM     73  F   UNL A   1      39.723  32.708  38.312  1.00  0.00    -0.205 F 
ATOM     74  C   UNL A   1      39.244  34.948  41.099  1.00  0.00     0.022 A 
BRANCH  72  75
ATOM     75  S   UNL A   1      39.301  32.201  41.229  1.00  0.00     0.127 S 
ATOM     76  O   UNL A   1      40.698  31.794  41.116  1.00  0.00    -0.237 OA
ATOM     77  O   UNL A   1      38.877  32.606  42.569  1.00  0.00    -0.237 OA
ATOM     78  O   UNL A   1      38.329  31.374  40.524  1.00  0.00    -0.744 OA
ENDBRANCH  72  75
ENDBRANCH  54  68
BRANCH  55  79
ATOM     79  C   UNL A   1      42.779  27.857  35.177  1.00  0.00     0.023 A 
ATOM     80  C   UNL A   1      41.651  27.130  35.620  1.00  0.00     0.012 A 
ATOM     81  C   UNL A   1      43.958  27.130  34.898  1.00  0.00     0.148 A 
ATOM     82  C   UNL A   1      41.672  25.732  35.709  1.00  0.00     0.002 A 
ATOM     83  C   UNL A   1      43.978  25.740  35.000  1.00  0.00     0.091 A 
ATOM     84  F   UNL A   1      45.033  27.780  34.437  1.00  0.00    -0.205 F 
ATOM     85  C   UNL A   1      42.830  25.036  35.384  1.00  0.00     0.022 A 
BRANCH  83  86
ATOM     86  S   UNL A   1      45.440  24.773  34.591  1.00  0.00     0.127 S 
ATOM     87  O   UNL A   1      45.595  25.041  33.161  1.00  0.00    -0.237 OA
ATOM     88  O   UNL A   1      46.457  25.384  35.442  1.00  0.00    -0.237 OA
ATOM     89  O   UNL A   1      45.099  23.390  34.902  1.00  0.00    -0.744 OA
ENDBRANCH  83  86
ENDBRANCH  55  79
BRANCH  67  90
ATOM     90  C   UNL A   1      44.192  33.839  33.758  1.00  0.00     0.023 A 
ATOM     91  C   UNL A   1      45.594  34.005  33.749  1.00  0.00     0.012 A 
ATOM     92  C   UNL A   1      43.528  33.558  32.555  1.00  0.00     0.148 A 
ATOM     93  C   UNL A   1      46.316  33.887  32.558  1.00  0.00     0.002 A 
ATOM     94  C   UNL A   1      44.252  33.402  31.381  1.00  0.00     0.091 A 
ATOM     95  F   UNL A   1      42.197  33.394  32.596  1.00  0.00    -0.205 F 
ATOM     96  C   UNL A   1      45.646  33.570  31.377  1.00  0.00     0.022 A 
BRANCH  94  97
ATOM     97  S   UNL A   1      43.470  32.884  29.853  1.00  0.00     0.127 S 
ATOM     98  O   UNL A   1      42.651  34.046  29.517  1.00  0.00    -0.237 OA
ATOM     99  O   UNL A   1      44.620  32.670  28.972  1.00  0.00    -0.237 OA
ATOM    100  O   UNL A   1      42.724  31.671  30.167  1.00  0.00    -0.744 OA
ENDBRANCH  94  97
ENDBRANCH  67  90
ENDBRANCH  41  42
ENDBRANCH  34  36
ENDBRANCH  33  34
ENDBRANCH  32  33
ENDBRANCH  31  32
ENDBRANCH  30  31
ENDBRANCH  29  30
ENDBRANCH  28  29
ENDBRANCH   1  28
TORSDOF 26
ENDMDL
MODEL 2
REMARK VINA RESULT:      -9.9      4.606      9.383
REMARK SMILES Cc1ccc(-c2cc3cccnc3n2CCC(=O)OCCOCCOCCOCCOC(=O)c2ccc(-c3c4nc(c(-c5cccc(S(=O)(=O)[O-])c5F)c5ccc([nH]5)c(-c5cccc(S(=O)(=O)[O-])c5F)c5nc(c(-c6cccc(S(=O)(=O)[O-])c6F)c6ccc3[nH]6)C=C5)C=C4)cc2)cn1
REMARK SMILES IDX 25 1 24 2 23 3 22 4 21 5 20 6 19 7 17 8 18 9 16 10 15 11
REMARK SMILES IDX 14 12 6 13 7 14 8 15 13 16 9 17 12 18 10 19 11 20 5 21 1 22
REMARK SMILES IDX 2 23 3 24 98 25 4 26 97 27 26 28 27 29 28 30 29 31 30 32
REMARK SMILES IDX 31 33 32 34 33 35 34 36 35 37 96 38 36 39 95 40 37 41 38 42
REMARK SMILES IDX 39 43 89 44 40 45 94 46 88 47 90 48 41 49 93 50 87 51 86 52
REMARK SMILES IDX 42 54 74 55 54 56 73 57 55 58 58 59 72 60 91 61 56 62 57 63
REMARK SMILES IDX 71 65 92 66 59 67 43 68 44 69 52 70 45 71 47 72 53 73 46 74
REMARK SMILES IDX 48 75 49 76 50 77 51 78 75 79 76 80 84 81 77 82 79 83 85 84
REMARK SMILES IDX 78 85 80 86 81 87 82 88 83 89 60 90 61 91 69 92 62 93 64 94
REMARK SMILES IDX 70 95 63 96 65 97 66 98 67 99 68 100
REMARK H PARENT 90 53 58 64
REMARK Flexibility Score: inf
ROOT
ATOM      1  O   UNL A   1      36.186  32.650  28.862  1.00  0.00    -0.377 OA
ENDROOT
BRANCH   1   2
ATOM      2  C   UNL A   1      34.878  32.315  28.432  1.00  0.00     0.188 C 
BRANCH   2   3
ATOM      3  C   UNL A   1      34.752  31.060  27.571  1.00  0.00     0.188 C 
BRANCH   3   4
ATOM      4  O   UNL A   1      33.326  30.461  27.722  1.00  0.00    -0.376 OA
BRANCH   4   5
ATOM      5  C   UNL A   1      31.898  29.298  26.954  1.00  0.00     0.202 C 
BRANCH   5   6
ATOM      6  C   UNL A   1      31.799  27.564  26.711  1.00  0.00     0.261 C 
BRANCH   6   7
ATOM      7  O   UNL A   1      30.617  26.776  27.050  1.00  0.00    -0.463 OA
BRANCH   7   8
ATOM      8  C   UNL A   1      30.412  25.582  26.442  1.00  0.00     0.307 C 
ATOM      9  O   UNL A   1      30.936  24.535  26.814  1.00  0.00    -0.252 OA
BRANCH   8  10
ATOM     10  C   UNL A   1      29.364  25.598  25.319  1.00  0.00     0.144 C 
BRANCH  10  11
ATOM     11  C   UNL A   1      29.756  25.558  23.833  1.00  0.00     0.136 C 
BRANCH  11  12
ATOM     12  N   UNL A   1      30.325  26.767  23.293  1.00  0.00    -0.325 N 
ATOM     13  C   UNL A   1      31.667  26.981  23.071  1.00  0.00     0.052 A 
ATOM     14  C   UNL A   1      31.763  28.201  22.416  1.00  0.00     0.039 A 
ATOM     15  C   UNL A   1      30.486  28.790  22.361  1.00  0.00     0.020 A 
ATOM     16  C   UNL A   1      29.608  27.896  22.964  1.00  0.00     0.140 A 
ATOM     17  C   UNL A   1      29.981  30.000  21.867  1.00  0.00     0.013 A 
ATOM     18  N   UNL A   1      28.289  28.089  23.168  1.00  0.00    -0.238 NA
ATOM     19  C   UNL A   1      28.633  30.259  22.080  1.00  0.00     0.021 A 
ATOM     20  C   UNL A   1      27.864  29.305  22.736  1.00  0.00     0.113 A 
BRANCH  13  21
ATOM     21  C   UNL A   1      32.778  26.055  23.328  1.00  0.00     0.017 A 
ATOM     22  C   UNL A   1      36.520  22.735  23.320  1.00  0.00     0.066 C 
ATOM     23  C   UNL A   1      35.255  23.501  23.554  1.00  0.00     0.037 A 
ATOM     24  C   UNL A   1      35.131  24.661  24.917  1.00  0.00     0.024 A 
ATOM     25  N   UNL A   1      34.185  23.547  22.184  1.00  0.00    -0.261 NA
ATOM     26  C   UNL A   1      33.868  25.966  24.811  1.00  0.00     0.014 A 
ATOM     27  C   UNL A   1      32.999  24.819  22.059  1.00  0.00     0.121 A 
ENDBRANCH  13  21
ENDBRANCH  11  12
ENDBRANCH  10  11
ENDBRANCH   8  10
ENDBRANCH   7   8
ENDBRANCH   6   7
ENDBRANCH   5   6
ENDBRANCH   4   5
ENDBRANCH   3   4
ENDBRANCH   2   3
ENDBRANCH   1   2
BRANCH   1  28
ATOM     28  C   UNL A   1      36.356  33.441  30.026  1.00  0.00     0.188 C 
BRANCH  28  29
ATOM     29  C   UNL A   1      37.769  33.925  30.354  1.00  0.00     0.188 C 
BRANCH  29  30
ATOM     30  O   UNL A   1      38.533  33.352  31.406  1.00  0.00    -0.376 OA
BRANCH  30  31
ATOM     31  C   UNL A   1      38.052  32.271  32.193  1.00  0.00     0.202 C 
BRANCH  31  32
ATOM     32  C   UNL A   1      38.510  30.823  31.971  1.00  0.00     0.261 C 
BRANCH  32  33
ATOM     33  O   UNL A   1      38.399  30.411  30.619  1.00  0.00    -0.460 OA
BRANCH  33  34
ATOM     34  C   UNL A   1      37.312  29.649  30.379  1.00  0.00     0.338 C 
ATOM     35  O   UNL A   1      36.294  29.619  31.056  1.00  0.00    -0.246 OA
BRANCH  34  36
ATOM     36  C   UNL A   1      37.513  28.859  29.115  1.00  0.00     0.060 A 
ATOM     37  C   UNL A   1      38.133  27.645  29.418  1.00  0.00     0.016 A 
ATOM     38  C   UNL A   1      38.034  29.687  28.121  1.00  0.00     0.016 A 
ATOM     39  C   UNL A   1      39.501  27.652  29.341  1.00  0.00     0.010 A 
ATOM     40  C   UNL A   1      39.400  29.737  28.061  1.00  0.00     0.010 A 
ATOM     41  C   UNL A   1      40.110  28.786  28.791  1.00  0.00    -0.014 A 
BRANCH  41  42
ATOM     42  C   UNL A   1      41.537  28.892  28.921  1.00  0.00     0.031 A 
ATOM     43  C   UNL A   1      42.208  27.826  28.162  1.00  0.00     0.074 A 
ATOM     44  C   UNL A   1      42.138  29.869  29.622  1.00  0.00     0.049 A 
ATOM     45  N   UNL A   1      42.755  26.759  28.640  1.00  0.00    -0.248 NA
ATOM     46  C   UNL A   1      42.025  27.822  26.702  1.00  0.00     0.031 C 
ATOM     47  C   UNL A   1      41.560  31.095  30.177  1.00  0.00     0.029 A 
ATOM     48  N   UNL A   1      43.463  30.017  29.874  1.00  0.00    -0.354 N 
ATOM     49  C   UNL A   1      43.211  26.078  27.522  1.00  0.00     0.074 A 
ATOM     50  C   UNL A   1      42.528  26.632  26.383  1.00  0.00     0.031 C 
ATOM     51  C   UNL A   1      42.563  31.966  30.454  1.00  0.00     0.029 A 
ATOM     52  C   UNL A   1      43.839  31.311  30.218  1.00  0.00     0.049 A 
ATOM     53  H   UNL A   1      44.104  29.272  29.818  1.00  0.00     0.167 HD
ATOM     54  C   UNL A   1      44.349  25.339  27.571  1.00  0.00     0.034 A 
ATOM     55  C   UNL A   1      45.109  31.790  30.189  1.00  0.00     0.034 A 
ATOM     56  C   UNL A   1      44.751  25.046  28.918  1.00  0.00     0.049 A 
ATOM     57  C   UNL A   1      46.006  30.605  30.232  1.00  0.00     0.074 A 
ATOM     58  C   UNL A   1      44.172  24.388  29.984  1.00  0.00     0.029 A 
ATOM     59  N   UNL A   1      45.750  25.830  29.444  1.00  0.00    -0.354 N 
ATOM     60  N   UNL A   1      46.101  29.803  31.255  1.00  0.00    -0.248 NA
ATOM     61  C   UNL A   1      46.477  30.064  28.965  1.00  0.00     0.031 C 
ATOM     62  C   UNL A   1      44.551  25.140  31.133  1.00  0.00     0.029 A 
ATOM     63  C   UNL A   1      45.379  26.184  30.714  1.00  0.00     0.049 A 
ATOM     64  H   UNL A   1      46.583  26.089  28.989  1.00  0.00     0.167 HD
ATOM     65  C   UNL A   1      46.214  28.537  30.694  1.00  0.00     0.074 A 
ATOM     66  C   UNL A   1      46.544  28.769  29.289  1.00  0.00     0.031 C 
ATOM     67  C   UNL A   1      45.741  27.435  31.342  1.00  0.00     0.034 A 
BRANCH  54  68
ATOM     68  C   UNL A   1      45.292  25.243  26.409  1.00  0.00     0.023 A 
ATOM     69  C   UNL A   1      45.713  23.965  26.004  1.00  0.00     0.012 A 
ATOM     70  C   UNL A   1      45.967  26.359  25.859  1.00  0.00     0.148 A 
ATOM     71  C   UNL A   1      46.755  23.807  25.085  1.00  0.00     0.002 A 
ATOM     72  C   UNL A   1      46.932  26.201  24.877  1.00  0.00     0.091 A 
ATOM     73  F   UNL A   1      45.785  27.577  26.384  1.00  0.00    -0.205 F 
ATOM     74  C   UNL A   1      47.349  24.925  24.504  1.00  0.00     0.022 A 
BRANCH  72  75
ATOM     75  S   UNL A   1      47.674  27.620  24.066  1.00  0.00     0.127 S 
ATOM     76  O   UNL A   1      48.013  27.067  22.760  1.00  0.00    -0.237 OA
ATOM     77  O   UNL A   1      46.569  28.579  24.070  1.00  0.00    -0.237 OA
ATOM     78  O   UNL A   1      48.797  28.006  24.915  1.00  0.00    -0.744 OA
ENDBRANCH  72  75
ENDBRANCH  54  68
BRANCH  55  79
ATOM     79  C   UNL A   1      45.623  33.128  29.784  1.00  0.00     0.023 A 
ATOM     80  C   UNL A   1      46.623  33.735  30.576  1.00  0.00     0.012 A 
ATOM     81  C   UNL A   1      45.389  33.666  28.499  1.00  0.00     0.148 A 
ATOM     82  C   UNL A   1      47.409  34.784  30.082  1.00  0.00     0.002 A 
ATOM     83  C   UNL A   1      46.165  34.719  28.016  1.00  0.00     0.091 A 
ATOM     84  F   UNL A   1      44.478  33.090  27.706  1.00  0.00    -0.205 F 
ATOM     85  C   UNL A   1      47.191  35.266  28.796  1.00  0.00     0.022 A 
BRANCH  83  86
ATOM     86  S   UNL A   1      45.941  35.388  26.360  1.00  0.00     0.127 S 
ATOM     87  O   UNL A   1      44.497  35.622  26.316  1.00  0.00    -0.237 OA
ATOM     88  O   UNL A   1      46.755  36.599  26.410  1.00  0.00    -0.237 OA
ATOM     89  O   UNL A   1      46.403  34.350  25.448  1.00  0.00    -0.744 OA
ENDBRANCH  83  86
ENDBRANCH  55  79
BRANCH  67  90
ATOM     90  C   UNL A   1      45.328  27.586  32.784  1.00  0.00     0.023 A 
ATOM     91  C   UNL A   1      46.266  27.611  33.838  1.00  0.00     0.012 A 
ATOM     92  C   UNL A   1      43.992  27.922  33.048  1.00  0.00     0.148 A 
ATOM     93  C   UNL A   1      45.873  27.971  35.131  1.00  0.00     0.002 A 
ATOM     94  C   UNL A   1      43.613  28.316  34.323  1.00  0.00     0.091 A 
ATOM     95  F   UNL A   1      43.125  27.900  32.024  1.00  0.00    -0.205 F 
ATOM     96  C   UNL A   1      44.549  28.338  35.370  1.00  0.00     0.022 A 
BRANCH  94  97
ATOM     97  S   UNL A   1      41.957  28.909  34.674  1.00  0.00     0.127 S 
ATOM     98  O   UNL A   1      42.059  29.286  36.083  1.00  0.00    -0.237 OA
ATOM     99  O   UNL A   1      41.827  30.034  33.747  1.00  0.00    -0.237 OA
ATOM    100  O   UNL A   1      41.057  27.796  34.396  1.00  0.00    -0.744 OA
ENDBRANCH  94  97
ENDBRANCH  67  90
ENDBRANCH  41  42
ENDBRANCH  34  36
ENDBRANCH  33  34
ENDBRANCH  32  33
ENDBRANCH  31  32
ENDBRANCH  30  31
ENDBRANCH  29  30
ENDBRANCH  28  29
ENDBRANCH   1  28
TORSDOF 26
ENDMDL
MODEL 3
REMARK VINA RESULT:      -9.9      5.705     10.320
REMARK SMILES Cc1ccc(-c2cc3cccnc3n2CCC(=O)OCCOCCOCCOCCOC(=O)c2ccc(-c3c4nc(c(-c5cccc(S(=O)(=O)[O-])c5F)c5ccc([nH]5)c(-c5cccc(S(=O)(=O)[O-])c5F)c5nc(c(-c6cccc(S(=O)(=O)[O-])c6F)c6ccc3[nH]6)C=C5)C=C4)cc2)cn1
REMARK SMILES IDX 25 1 24 2 23 3 22 4 21 5 20 6 19 7 17 8 18 9 16 10 15 11
REMARK SMILES IDX 14 12 6 13 7 14 8 15 13 16 9 17 12 18 10 19 11 20 5 21 1 22
REMARK SMILES IDX 2 23 3 24 98 25 4 26 97 27 26 28 27 29 28 30 29 31 30 32
REMARK SMILES IDX 31 33 32 34 33 35 34 36 35 37 96 38 36 39 95 40 37 41 38 42
REMARK SMILES IDX 39 43 89 44 40 45 94 46 88 47 90 48 41 49 93 50 87 51 86 52
REMARK SMILES IDX 42 54 74 55 54 56 73 57 55 58 58 59 72 60 91 61 56 62 57 63
REMARK SMILES IDX 71 65 92 66 59 67 43 68 44 69 52 70 45 71 47 72 53 73 46 74
REMARK SMILES IDX 48 75 49 76 50 77 51 78 75 79 76 80 84 81 77 82 79 83 85 84
REMARK SMILES IDX 78 85 80 86 81 87 82 88 83 89 60 90 61 91 69 92 62 93 64 94
REMARK SMILES IDX 70 95 63 96 65 97 66 98 67 99 68 100
REMARK H PARENT 90 53 58 64
REMARK Flexibility Score: inf
ROOT
ATOM      1  O   UNL A   1      33.128  28.719  26.911  1.00  0.00    -0.377 OA
ENDROOT
BRANCH   1   2
ATOM      2  C   UNL A   1      34.267  28.581  26.079  1.00  0.00     0.188 C 
BRANCH   2   3
ATOM      3  C   UNL A   1      34.025  28.720  24.577  1.00  0.00     0.188 C 
BRANCH   3   4
ATOM      4  O   UNL A   1      32.822  27.831  24.154  1.00  0.00    -0.376 OA
BRANCH   4   5
ATOM      5  C   UNL A   1      31.651  27.174  22.679  1.00  0.00     0.202 C 
BRANCH   5   6
ATOM      6  C   UNL A   1      31.869  25.915  21.477  1.00  0.00     0.261 C 
BRANCH   6   7
ATOM      7  O   UNL A   1      33.111  25.165  21.323  1.00  0.00    -0.463 OA
BRANCH   7   8
ATOM      8  C   UNL A   1      33.387  24.144  22.172  1.00  0.00     0.307 C 
ATOM      9  O   UNL A   1      32.856  23.039  22.096  1.00  0.00    -0.252 OA
BRANCH   8  10
ATOM     10  C   UNL A   1      34.520  24.421  23.172  1.00  0.00     0.144 C 
BRANCH  10  11
ATOM     11  C   UNL A   1      34.246  24.906  24.605  1.00  0.00     0.136 C 
BRANCH  11  12
ATOM     12  N   UNL A   1      33.541  23.986  25.463  1.00  0.00    -0.325 N 
ATOM     13  C   UNL A   1      34.090  22.865  26.044  1.00  0.00     0.052 A 
ATOM     14  C   UNL A   1      33.120  22.355  26.897  1.00  0.00     0.039 A 
ATOM     15  C   UNL A   1      31.934  23.094  26.731  1.00  0.00     0.020 A 
ATOM     16  C   UNL A   1      32.206  24.080  25.789  1.00  0.00     0.140 A 
ATOM     17  C   UNL A   1      30.647  23.024  27.280  1.00  0.00     0.013 A 
ATOM     18  N   UNL A   1      31.328  24.979  25.299  1.00  0.00    -0.238 NA
ATOM     19  C   UNL A   1      29.698  23.910  26.785  1.00  0.00     0.021 A 
ATOM     20  C   UNL A   1      30.079  24.823  25.809  1.00  0.00     0.113 A 
BRANCH  13  21
ATOM     21  C   UNL A   1      35.468  22.373  25.919  1.00  0.00     0.017 A 
ATOM     22  C   UNL A   1      40.355  21.318  26.114  1.00  0.00     0.066 C 
ATOM     23  C   UNL A   1      38.962  21.696  25.712  1.00  0.00     0.037 A 
ATOM     24  C   UNL A   1      37.837  20.462  25.056  1.00  0.00     0.024 A 
ATOM     25  N   UNL A   1      38.413  23.206  26.376  1.00  0.00    -0.261 NA
ATOM     26  C   UNL A   1      36.052  20.801  25.155  1.00  0.00     0.014 A 
ATOM     27  C   UNL A   1      36.703  23.519  26.509  1.00  0.00     0.121 A 
ENDBRANCH  13  21
ENDBRANCH  11  12
ENDBRANCH  10  11
ENDBRANCH   8  10
ENDBRANCH   7   8
ENDBRANCH   6   7
ENDBRANCH   5   6
ENDBRANCH   4   5
ENDBRANCH   3   4
ENDBRANCH   2   3
ENDBRANCH   1   2
BRANCH   1  28
ATOM     28  C   UNL A   1      32.657  30.015  27.238  1.00  0.00     0.188 C 
BRANCH  28  29
ATOM     29  C   UNL A   1      33.674  31.158  27.239  1.00  0.00     0.188 C 
BRANCH  29  30
ATOM     30  O   UNL A   1      33.851  32.003  28.368  1.00  0.00    -0.376 OA
BRANCH  30  31
ATOM     31  C   UNL A   1      34.986  31.908  29.217  1.00  0.00     0.202 C 
BRANCH  31  32
ATOM     32  C   UNL A   1      36.356  31.433  28.711  1.00  0.00     0.261 C 
BRANCH  32  33
ATOM     33  O   UNL A   1      37.152  30.857  29.733  1.00  0.00    -0.460 OA
BRANCH  33  34
ATOM     34  C   UNL A   1      38.337  30.392  29.291  1.00  0.00     0.338 C 
ATOM     35  O   UNL A   1      39.438  30.839  29.582  1.00  0.00    -0.246 OA
BRANCH  34  36
ATOM     36  C   UNL A   1      38.116  29.197  28.405  1.00  0.00     0.060 A 
ATOM     37  C   UNL A   1      38.341  28.028  29.134  1.00  0.00     0.016 A 
ATOM     38  C   UNL A   1      38.751  29.396  27.180  1.00  0.00     0.016 A 
ATOM     39  C   UNL A   1      39.617  27.534  29.067  1.00  0.00     0.010 A 
ATOM     40  C   UNL A   1      40.042  28.946  27.112  1.00  0.00     0.010 A 
ATOM     41  C   UNL A   1      40.489  28.123  28.143  1.00  0.00    -0.014 A 
BRANCH  41  42
ATOM     42  C   UNL A   1      41.878  27.767  28.232  1.00  0.00     0.031 A 
ATOM     43  C   UNL A   1      42.121  26.461  27.600  1.00  0.00     0.074 A 
ATOM     44  C   UNL A   1      42.804  28.563  28.794  1.00  0.00     0.049 A 
ATOM     45  N   UNL A   1      42.318  25.334  28.197  1.00  0.00    -0.248 NA
ATOM     46  C   UNL A   1      41.861  26.354  26.155  1.00  0.00     0.031 C 
ATOM     47  C   UNL A   1      42.690  29.965  29.202  1.00  0.00     0.029 A 
ATOM     48  N   UNL A   1      44.118  28.292  29.001  1.00  0.00    -0.354 N 
ATOM     49  C   UNL A   1      42.462  24.419  27.165  1.00  0.00     0.074 A 
ATOM     50  C   UNL A   1      41.931  25.037  25.979  1.00  0.00     0.031 C 
ATOM     51  C   UNL A   1      43.935  30.482  29.349  1.00  0.00     0.029 A 
ATOM     52  C   UNL A   1      44.913  29.420  29.174  1.00  0.00     0.049 A 
ATOM     53  H   UNL A   1      44.477  27.377  29.026  1.00  0.00     0.167 HD
ATOM     54  C   UNL A   1      43.298  23.358  27.285  1.00  0.00     0.034 A 
ATOM     55  C   UNL A   1      46.266  29.448  29.061  1.00  0.00     0.034 A 
ATOM     56  C   UNL A   1      43.662  23.101  28.651  1.00  0.00     0.049 A 
ATOM     57  C   UNL A   1      46.730  28.046  29.236  1.00  0.00     0.074 A 
ATOM     58  C   UNL A   1      42.964  22.795  29.801  1.00  0.00     0.029 A 
ATOM     59  N   UNL A   1      44.890  23.566  29.055  1.00  0.00    -0.354 N 
ATOM     60  N   UNL A   1      46.619  27.377  30.348  1.00  0.00    -0.248 NA
ATOM     61  C   UNL A   1      46.924  27.241  28.038  1.00  0.00     0.031 C 
ATOM     62  C   UNL A   1      43.633  23.503  30.839  1.00  0.00     0.029 A 
ATOM     63  C   UNL A   1      44.730  24.162  30.278  1.00  0.00     0.049 A 
ATOM     64  H   UNL A   1      45.734  23.483  28.557  1.00  0.00     0.167 HD
ATOM     65  C   UNL A   1      46.282  26.090  29.948  1.00  0.00     0.074 A 
ATOM     66  C   UNL A   1      46.586  26.042  28.519  1.00  0.00     0.031 C 
ATOM     67  C   UNL A   1      45.515  25.286  30.738  1.00  0.00     0.034 A 
BRANCH  54  68
ATOM     68  C   UNL A   1      44.089  22.827  26.127  1.00  0.00     0.023 A 
ATOM     69  C   UNL A   1      44.660  23.753  25.237  1.00  0.00     0.012 A 
ATOM     70  C   UNL A   1      44.091  21.465  25.743  1.00  0.00     0.148 A 
ATOM     71  C   UNL A   1      45.213  23.338  24.022  1.00  0.00     0.002 A 
ATOM     72  C   UNL A   1      44.727  21.046  24.585  1.00  0.00     0.091 A 
ATOM     73  F   UNL A   1      43.352  20.577  26.420  1.00  0.00    -0.205 F 
ATOM     74  C   UNL A   1      45.269  21.983  23.707  1.00  0.00     0.022 A 
BRANCH  72  75
ATOM     75  S   UNL A   1      44.867  19.304  24.178  1.00  0.00     0.127 S 
ATOM     76  O   UNL A   1      46.231  19.012  24.606  1.00  0.00    -0.237 OA
ATOM     77  O   UNL A   1      43.815  18.717  25.008  1.00  0.00    -0.237 OA
ATOM     78  O   UNL A   1      44.608  19.220  22.745  1.00  0.00    -0.744 OA
ENDBRANCH  72  75
ENDBRANCH  54  68
BRANCH  55  79
ATOM     79  C   UNL A   1      47.162  30.487  28.483  1.00  0.00     0.023 A 
ATOM     80  C   UNL A   1      46.923  30.928  27.162  1.00  0.00     0.012 A 
ATOM     81  C   UNL A   1      48.027  31.264  29.285  1.00  0.00     0.148 A 
ATOM     82  C   UNL A   1      47.461  32.130  26.684  1.00  0.00     0.002 A 
ATOM     83  C   UNL A   1      48.571  32.453  28.801  1.00  0.00     0.091 A 
ATOM     84  F   UNL A   1      48.244  30.899  30.554  1.00  0.00    -0.205 F 
ATOM     85  C   UNL A   1      48.272  32.900  27.509  1.00  0.00     0.022 A 
BRANCH  83  86
ATOM     86  S   UNL A   1      49.625  33.503  29.815  1.00  0.00     0.127 S 
ATOM     87  O   UNL A   1      50.841  32.698  29.930  1.00  0.00    -0.237 OA
ATOM     88  O   UNL A   1      49.758  34.695  28.982  1.00  0.00    -0.237 OA
ATOM     89  O   UNL A   1      48.911  33.683  31.072  1.00  0.00    -0.744 OA
ENDBRANCH  83  86
ENDBRANCH  55  79
BRANCH  67  90
ATOM     90  C   UNL A   1      45.258  25.725  32.157  1.00  0.00     0.023 A 
ATOM     91  C   UNL A   1      46.186  25.495  33.196  1.00  0.00     0.012 A 
ATOM     92  C   UNL A   1      44.163  26.570  32.390  1.00  0.00     0.148 A 
ATOM     93  C   UNL A   1      46.019  26.103  34.444  1.00  0.00     0.002 A 
ATOM     94  C   UNL A   1      44.022  27.202  33.617  1.00  0.00     0.091 A 
ATOM     95  F   UNL A   1      43.305  26.779  31.381  1.00  0.00    -0.205 F 
ATOM     96  C   UNL A   1      44.946  26.969  34.649  1.00  0.00     0.022 A 
BRANCH  94  97
ATOM     97  S   UNL A   1      42.733  28.414  33.912  1.00  0.00     0.127 S 
ATOM     98  O   UNL A   1      42.701  29.142  32.644  1.00  0.00    -0.237 OA
ATOM     99  O   UNL A   1      41.564  27.570  34.163  1.00  0.00    -0.237 OA
ATOM    100  O   UNL A   1      43.165  29.197  35.063  1.00  0.00    -0.744 OA
ENDBRANCH  94  97
ENDBRANCH  67  90
ENDBRANCH  41  42
ENDBRANCH  34  36
ENDBRANCH  33  34
ENDBRANCH  32  33
ENDBRANCH  31  32
ENDBRANCH  30  31
ENDBRANCH  29  30
ENDBRANCH  28  29
ENDBRANCH   1  28
TORSDOF 26
ENDMDL
