MODEL 1
REMARK VINA RESULT:      -8.4      0.000      0.000
REMARK SMILES Cc1cc2c(c(C)c1Cl)C=C(C(=O)OCCOCCOCCOCCOC(=O)c1ccc(-c3c4nc(c(-c5cccc(S(=O)(=O)[O-])c5F)c5ccc([nH]5)c(-c5cccc(S(=O)(=O)[O-])c5F)c5nc(c(-c6cccc(S(=O)(=O)[O-])c6F)c6ccc3[nH]6)C=C5)C=C4)cc1)[C@@H](C(F)(F)F)O2
REMARK SMILES IDX 21 1 20 2 19 3 18 4 17 5 16 6 15 7 14 8 12 9 13 10 11 11
REMARK SMILES IDX 1 12 2 13 3 14 8 15 4 16 6 17 9 18 5 19 97 20 7 21 10 22
REMARK SMILES IDX 92 23 93 24 94 25 95 26 96 27 22 28 23 29 24 30 25 31 26 32
REMARK SMILES IDX 27 33 28 34 29 35 30 36 91 37 31 38 90 39 32 40 33 41 34 42
REMARK SMILES IDX 84 43 35 44 89 45 83 46 85 47 36 48 88 49 82 50 81 51 37 53
REMARK SMILES IDX 69 54 49 55 68 56 50 57 53 58 67 59 86 60 51 61 52 62 66 64
REMARK SMILES IDX 87 65 54 66 38 67 39 68 47 69 40 70 42 71 48 72 41 73 43 74
REMARK SMILES IDX 44 75 45 76 46 77 70 78 71 79 79 80 72 81 74 82 80 83 73 84
REMARK SMILES IDX 75 85 76 86 77 87 78 88 55 89 56 90 64 91 57 92 59 93 65 94
REMARK SMILES IDX 58 95 60 96 61 97 62 98 63 99
REMARK H PARENT 85 52 53 63
REMARK Flexibility Score: inf
ROOT
ATOM      1  C   UNL A   1      38.911  28.526  29.812  1.00  0.00     0.188 C 
ENDROOT
BRANCH   1   2
ATOM      2  O   UNL A   1      37.851  29.415  29.456  1.00  0.00    -0.377 OA
BRANCH   2   3
ATOM      3  C   UNL A   1      36.871  28.961  28.539  1.00  0.00     0.188 C 
BRANCH   3   4
ATOM      4  C   UNL A   1      36.392  30.057  27.571  1.00  0.00     0.188 C 
BRANCH   4   5
ATOM      5  O   UNL A   1      34.990  30.284  27.638  1.00  0.00    -0.376 OA
BRANCH   5   6
ATOM      6  C   UNL A   1      34.117  29.465  26.873  1.00  0.00     0.202 C 
BRANCH   6   7
ATOM      7  C   UNL A   1      32.897  30.065  26.148  1.00  0.00     0.261 C 
BRANCH   7   8
ATOM      8  O   UNL A   1      31.975  29.132  25.575  1.00  0.00    -0.460 OA
BRANCH   8   9
ATOM      9  C   UNL A   1      32.347  28.475  24.463  1.00  0.00     0.338 C 
ATOM     10  O   UNL A   1      32.932  28.936  23.499  1.00  0.00    -0.246 OA
BRANCH   9  11
ATOM     11  C   UNL A   1      32.101  27.033  24.696  1.00  0.00     0.087 C 
ATOM     12  C   UNL A   1      32.160  20.589  24.835  1.00  0.00     0.046 C 
ATOM     13  C   UNL A   1      32.513  22.042  25.005  1.00  0.00    -0.028 A 
ATOM     14  C   UNL A   1      31.451  22.955  25.006  1.00  0.00     0.052 A 
ATOM     15  C   UNL A   1      33.825  22.530  25.158  1.00  0.00     0.047 A 
ATOM     16  C   UNL A   1      31.684  24.327  25.025  1.00  0.00     0.128 A 
ATOM     17  C   UNL A   1      34.079  23.923  25.209  1.00  0.00    -0.021 A 
ATOM     18  Cl  UNL A   1      35.141  21.399  25.255  1.00  0.00    -0.084 Cl
ATOM     19  C   UNL A   1      32.991  24.820  25.059  1.00  0.00     0.022 A 
ATOM     20  O   UNL A   1      30.563  25.102  24.993  1.00  0.00    -0.475 OA
ATOM     21  C   UNL A   1      35.470  24.475  25.424  1.00  0.00     0.047 C 
ATOM     22  C   UNL A   1      33.180  26.255  24.858  1.00  0.00     0.027 C 
ATOM     23  C   UNL A   1      30.684  26.537  24.809  1.00  0.00     0.316 C 
BRANCH  23  24
ATOM     24  C   UNL A   1      29.832  26.928  23.593  1.00  0.00     0.430 C 
ATOM     25  F   UNL A   1      28.764  26.110  23.459  1.00  0.00    -0.167 F 
ATOM     26  F   UNL A   1      29.368  28.192  23.686  1.00  0.00    -0.167 F 
ATOM     27  F   UNL A   1      30.553  26.845  22.447  1.00  0.00    -0.167 F 
ENDBRANCH  23  24
ENDBRANCH   9  11
ENDBRANCH   8   9
ENDBRANCH   7   8
ENDBRANCH   6   7
ENDBRANCH   5   6
ENDBRANCH   4   5
ENDBRANCH   3   4
ENDBRANCH   2   3
ENDBRANCH   1   2
BRANCH   1  28
ATOM     28  C   UNL A   1      38.882  27.019  29.456  1.00  0.00     0.188 C 
BRANCH  28  29
ATOM     29  O   UNL A   1      39.137  26.728  28.085  1.00  0.00    -0.376 OA
BRANCH  29  30
ATOM     30  C   UNL A   1      40.450  26.315  27.740  1.00  0.00     0.202 C 
BRANCH  30  31
ATOM     31  C   UNL A   1      40.577  25.629  26.375  1.00  0.00     0.261 C 
BRANCH  31  32
ATOM     32  O   UNL A   1      41.303  26.366  25.380  1.00  0.00    -0.460 OA
BRANCH  32  33
ATOM     33  C   UNL A   1      42.645  26.451  25.515  1.00  0.00     0.338 C 
ATOM     34  O   UNL A   1      43.484  25.723  25.015  1.00  0.00    -0.246 OA
BRANCH  33  35
ATOM     35  C   UNL A   1      42.930  27.710  26.230  1.00  0.00     0.060 A 
ATOM     36  C   UNL A   1      43.834  27.701  27.299  1.00  0.00     0.016 A 
ATOM     37  C   UNL A   1      42.333  28.902  25.812  1.00  0.00     0.016 A 
ATOM     38  C   UNL A   1      44.130  28.890  27.966  1.00  0.00     0.010 A 
ATOM     39  C   UNL A   1      42.619  30.087  26.491  1.00  0.00     0.010 A 
ATOM     40  C   UNL A   1      43.499  30.083  27.586  1.00  0.00    -0.014 A 
BRANCH  40  41
ATOM     41  C   UNL A   1      43.635  31.293  28.429  1.00  0.00     0.031 A 
ATOM     42  C   UNL A   1      44.738  32.266  28.112  1.00  0.00     0.074 A 
ATOM     43  C   UNL A   1      42.795  31.525  29.454  1.00  0.00     0.049 A 
ATOM     44  N   UNL A   1      45.037  33.394  28.698  1.00  0.00    -0.248 NA
ATOM     45  C   UNL A   1      45.619  31.922  26.983  1.00  0.00     0.031 C 
ATOM     46  C   UNL A   1      41.692  30.655  29.856  1.00  0.00     0.029 A 
ATOM     47  N   UNL A   1      42.752  32.563  30.353  1.00  0.00    -0.354 N 
ATOM     48  C   UNL A   1      46.140  33.892  28.016  1.00  0.00     0.074 A 
ATOM     49  C   UNL A   1      46.477  32.931  26.991  1.00  0.00     0.031 C 
ATOM     50  C   UNL A   1      41.083  31.192  30.928  1.00  0.00     0.029 A 
ATOM     51  C   UNL A   1      41.763  32.432  31.301  1.00  0.00     0.049 A 
ATOM     52  H   UNL A   1      43.370  33.329  30.322  1.00  0.00     0.167 HD
ATOM     53  C   UNL A   1      46.795  35.059  28.208  1.00  0.00     0.034 A 
ATOM     54  C   UNL A   1      41.449  33.222  32.347  1.00  0.00     0.034 A 
ATOM     55  C   UNL A   1      46.452  36.016  29.224  1.00  0.00     0.049 A 
ATOM     56  C   UNL A   1      42.227  34.496  32.569  1.00  0.00     0.074 A 
ATOM     57  C   UNL A   1      47.044  37.239  29.482  1.00  0.00     0.029 A 
ATOM     58  N   UNL A   1      45.436  35.856  30.152  1.00  0.00    -0.354 N 
ATOM     59  N   UNL A   1      43.194  35.008  31.846  1.00  0.00    -0.248 NA
ATOM     60  C   UNL A   1      41.851  35.318  33.730  1.00  0.00     0.031 C 
ATOM     61  C   UNL A   1      46.402  37.807  30.585  1.00  0.00     0.029 A 
ATOM     62  C   UNL A   1      45.388  36.955  30.991  1.00  0.00     0.049 A 
ATOM     63  H   UNL A   1      44.836  35.076  30.206  1.00  0.00     0.167 HD
ATOM     64  C   UNL A   1      43.512  36.227  32.438  1.00  0.00     0.074 A 
ATOM     65  C   UNL A   1      42.628  36.383  33.573  1.00  0.00     0.031 C 
ATOM     66  C   UNL A   1      44.459  37.128  32.079  1.00  0.00     0.034 A 
BRANCH  53  67
ATOM     67  C   UNL A   1      47.921  35.400  27.268  1.00  0.00     0.023 A 
ATOM     68  C   UNL A   1      47.669  36.251  26.172  1.00  0.00     0.012 A 
ATOM     69  C   UNL A   1      49.236  34.963  27.518  1.00  0.00     0.148 A 
ATOM     70  C   UNL A   1      48.705  36.647  25.328  1.00  0.00     0.002 A 
ATOM     71  C   UNL A   1      50.271  35.399  26.701  1.00  0.00     0.091 A 
ATOM     72  F   UNL A   1      49.448  34.138  28.554  1.00  0.00    -0.205 F 
ATOM     73  C   UNL A   1      50.006  36.232  25.600  1.00  0.00     0.022 A 
BRANCH  71  74
ATOM     74  S   UNL A   1      51.993  34.995  27.013  1.00  0.00     0.127 S 
ATOM     75  O   UNL A   1      51.967  33.533  26.953  1.00  0.00    -0.237 OA
ATOM     76  O   UNL A   1      52.667  35.639  25.887  1.00  0.00    -0.237 OA
ATOM     77  O   UNL A   1      52.309  35.555  28.319  1.00  0.00    -0.744 OA
ENDBRANCH  71  74
ENDBRANCH  53  67
BRANCH  54  78
ATOM     78  C   UNL A   1      40.296  32.869  33.228  1.00  0.00     0.023 A 
ATOM     79  C   UNL A   1      40.526  32.112  34.395  1.00  0.00     0.012 A 
ATOM     80  C   UNL A   1      38.987  33.300  32.937  1.00  0.00     0.148 A 
ATOM     81  C   UNL A   1      39.471  31.774  35.243  1.00  0.00     0.002 A 
ATOM     82  C   UNL A   1      37.950  33.007  33.816  1.00  0.00     0.091 A 
ATOM     83  F   UNL A   1      38.786  34.002  31.813  1.00  0.00    -0.205 F 
ATOM     84  C   UNL A   1      38.187  32.230  34.962  1.00  0.00     0.022 A 
BRANCH  82  85
ATOM     85  S   UNL A   1      36.290  33.660  33.605  1.00  0.00     0.127 S 
ATOM     86  O   UNL A   1      35.902  33.083  32.320  1.00  0.00    -0.237 OA
ATOM     87  O   UNL A   1      35.599  33.099  34.766  1.00  0.00    -0.237 OA
ATOM     88  O   UNL A   1      36.431  35.109  33.630  1.00  0.00    -0.744 OA
ENDBRANCH  82  85
ENDBRANCH  54  78
BRANCH  66  89
ATOM     89  C   UNL A   1      44.588  38.398  32.881  1.00  0.00     0.023 A 
ATOM     90  C   UNL A   1      45.521  38.465  33.935  1.00  0.00     0.012 A 
ATOM     91  C   UNL A   1      43.901  39.565  32.488  1.00  0.00     0.148 A 
ATOM     92  C   UNL A   1      45.759  39.672  34.592  1.00  0.00     0.002 A 
ATOM     93  C   UNL A   1      44.183  40.775  33.112  1.00  0.00     0.091 A 
ATOM     94  F   UNL A   1      43.010  39.475  31.490  1.00  0.00    -0.205 F 
ATOM     95  C   UNL A   1      45.105  40.828  34.170  1.00  0.00     0.022 A 
BRANCH  93  96
ATOM     96  S   UNL A   1      43.478  42.335  32.566  1.00  0.00     0.127 S 
ATOM     97  O   UNL A   1      42.050  42.108  32.782  1.00  0.00    -0.237 OA
ATOM     98  O   UNL A   1      44.091  43.289  33.488  1.00  0.00    -0.237 OA
ATOM     99  O   UNL A   1      43.876  42.494  31.173  1.00  0.00    -0.744 OA
ENDBRANCH  93  96
ENDBRANCH  66  89
ENDBRANCH  40  41
ENDBRANCH  33  35
ENDBRANCH  32  33
ENDBRANCH  31  32
ENDBRANCH  30  31
ENDBRANCH  29  30
ENDBRANCH  28  29
ENDBRANCH   1  28
TORSDOF 24
ENDMDL
MODEL 2
REMARK VINA RESULT:      -8.2     10.196     14.352
REMARK SMILES Cc1cc2c(c(C)c1Cl)C=C(C(=O)OCCOCCOCCOCCOC(=O)c1ccc(-c3c4nc(c(-c5cccc(S(=O)(=O)[O-])c5F)c5ccc([nH]5)c(-c5cccc(S(=O)(=O)[O-])c5F)c5nc(c(-c6cccc(S(=O)(=O)[O-])c6F)c6ccc3[nH]6)C=C5)C=C4)cc1)[C@@H](C(F)(F)F)O2
REMARK SMILES IDX 21 1 20 2 19 3 18 4 17 5 16 6 15 7 14 8 12 9 13 10 11 11
REMARK SMILES IDX 1 12 2 13 3 14 8 15 4 16 6 17 9 18 5 19 97 20 7 21 10 22
REMARK SMILES IDX 92 23 93 24 94 25 95 26 96 27 22 28 23 29 24 30 25 31 26 32
REMARK SMILES IDX 27 33 28 34 29 35 30 36 91 37 31 38 90 39 32 40 33 41 34 42
REMARK SMILES IDX 84 43 35 44 89 45 83 46 85 47 36 48 88 49 82 50 81 51 37 53
REMARK SMILES IDX 69 54 49 55 68 56 50 57 53 58 67 59 86 60 51 61 52 62 66 64
REMARK SMILES IDX 87 65 54 66 38 67 39 68 47 69 40 70 42 71 48 72 41 73 43 74
REMARK SMILES IDX 44 75 45 76 46 77 70 78 71 79 79 80 72 81 74 82 80 83 73 84
REMARK SMILES IDX 75 85 76 86 77 87 78 88 55 89 56 90 64 91 57 92 59 93 65 94
REMARK SMILES IDX 58 95 60 96 61 97 62 98 63 99
REMARK H PARENT 85 52 53 63
REMARK Flexibility Score: inf
ROOT
ATOM      1  C   UNL A   1      49.427  22.148  35.810  1.00  0.00     0.188 C 
ENDROOT
BRANCH   1   2
ATOM      2  O   UNL A   1      49.192  22.092  37.218  1.00  0.00    -0.377 OA
BRANCH   2   3
ATOM      3  C   UNL A   1      48.770  20.864  37.783  1.00  0.00     0.188 C 
BRANCH   3   4
ATOM      4  C   UNL A   1      49.341  20.615  39.191  1.00  0.00     0.188 C 
BRANCH   4   5
ATOM      5  O   UNL A   1      48.744  19.501  39.842  1.00  0.00    -0.376 OA
BRANCH   5   6
ATOM      6  C   UNL A   1      49.430  18.878  40.919  1.00  0.00     0.202 C 
BRANCH   6   7
ATOM      7  C   UNL A   1      48.687  18.471  42.206  1.00  0.00     0.261 C 
BRANCH   7   8
ATOM      8  O   UNL A   1      47.434  17.802  42.033  1.00  0.00    -0.460 OA
BRANCH   8   9
ATOM      9  C   UNL A   1      46.313  18.543  42.031  1.00  0.00     0.338 C 
ATOM     10  O   UNL A   1      46.235  19.754  42.138  1.00  0.00    -0.246 OA
BRANCH   9  11
ATOM     11  C   UNL A   1      45.189  17.649  41.670  1.00  0.00     0.087 C 
ATOM     12  C   UNL A   1      41.078  12.765  40.781  1.00  0.00     0.046 C 
ATOM     13  C   UNL A   1      41.926  13.848  41.392  1.00  0.00    -0.028 A 
ATOM     14  C   UNL A   1      42.281  14.917  40.561  1.00  0.00     0.052 A 
ATOM     15  C   UNL A   1      42.379  13.847  42.725  1.00  0.00     0.047 A 
ATOM     16  C   UNL A   1      43.169  15.898  40.993  1.00  0.00     0.128 A 
ATOM     17  C   UNL A   1      43.260  14.854  43.192  1.00  0.00    -0.021 A 
ATOM     18  Cl  UNL A   1      41.865  12.575  43.792  1.00  0.00    -0.084 Cl
ATOM     19  C   UNL A   1      43.714  15.839  42.279  1.00  0.00     0.022 A 
ATOM     20  O   UNL A   1      43.451  16.865  40.074  1.00  0.00    -0.475 OA
ATOM     21  C   UNL A   1      43.722  14.909  44.630  1.00  0.00     0.047 C 
ATOM     22  C   UNL A   1      44.799  16.765  42.598  1.00  0.00     0.027 C 
ATOM     23  C   UNL A   1      44.509  17.823  40.338  1.00  0.00     0.316 C 
BRANCH  23  24
ATOM     24  C   UNL A   1      45.500  17.763  39.167  1.00  0.00     0.430 C 
ATOM     25  F   UNL A   1      44.894  17.348  38.032  1.00  0.00    -0.167 F 
ATOM     26  F   UNL A   1      46.058  18.966  38.913  1.00  0.00    -0.167 F 
ATOM     27  F   UNL A   1      46.510  16.896  39.428  1.00  0.00    -0.167 F 
ENDBRANCH  23  24
ENDBRANCH   9  11
ENDBRANCH   8   9
ENDBRANCH   7   8
ENDBRANCH   6   7
ENDBRANCH   5   6
ENDBRANCH   4   5
ENDBRANCH   3   4
ENDBRANCH   2   3
ENDBRANCH   1   2
BRANCH   1  28
ATOM     28  C   UNL A   1      50.589  22.968  35.197  1.00  0.00     0.188 C 
BRANCH  28  29
ATOM     29  O   UNL A   1      51.083  24.013  36.031  1.00  0.00    -0.376 OA
BRANCH  29  30
ATOM     30  C   UNL A   1      50.760  25.345  35.666  1.00  0.00     0.202 C 
BRANCH  30  31
ATOM     31  C   UNL A   1      50.287  26.236  36.819  1.00  0.00     0.261 C 
BRANCH  31  32
ATOM     32  O   UNL A   1      48.964  26.774  36.680  1.00  0.00    -0.460 OA
BRANCH  32  33
ATOM     33  C   UNL A   1      47.922  25.929  36.835  1.00  0.00     0.338 C 
ATOM     34  O   UNL A   1      47.878  24.932  37.535  1.00  0.00    -0.246 OA
BRANCH  33  35
ATOM     35  C   UNL A   1      46.765  26.534  36.148  1.00  0.00     0.060 A 
ATOM     36  C   UNL A   1      45.490  25.990  36.344  1.00  0.00     0.016 A 
ATOM     37  C   UNL A   1      46.941  27.664  35.345  1.00  0.00     0.016 A 
ATOM     38  C   UNL A   1      44.385  26.570  35.719  1.00  0.00     0.010 A 
ATOM     39  C   UNL A   1      45.837  28.232  34.708  1.00  0.00     0.010 A 
ATOM     40  C   UNL A   1      44.558  27.673  34.872  1.00  0.00    -0.014 A 
BRANCH  40  41
ATOM     41  C   UNL A   1      43.433  28.148  34.034  1.00  0.00     0.031 A 
ATOM     42  C   UNL A   1      43.295  27.598  32.642  1.00  0.00     0.074 A 
ATOM     43  C   UNL A   1      42.549  29.049  34.502  1.00  0.00     0.049 A 
ATOM     44  N   UNL A   1      42.385  27.854  31.739  1.00  0.00    -0.248 NA
ATOM     45  C   UNL A   1      44.317  26.630  32.208  1.00  0.00     0.031 C 
ATOM     46  C   UNL A   1      42.582  29.652  35.833  1.00  0.00     0.029 A 
ATOM     47  N   UNL A   1      41.457  29.621  33.899  1.00  0.00    -0.354 N 
ATOM     48  C   UNL A   1      42.725  27.084  30.634  1.00  0.00     0.074 A 
ATOM     49  C   UNL A   1      43.940  26.376  30.964  1.00  0.00     0.031 C 
ATOM     50  C   UNL A   1      41.559  30.518  35.944  1.00  0.00     0.029 A 
ATOM     51  C   UNL A   1      40.811  30.545  34.688  1.00  0.00     0.049 A 
ATOM     52  H   UNL A   1      41.162  29.392  32.988  1.00  0.00     0.167 HD
ATOM     53  C   UNL A   1      42.067  26.959  29.459  1.00  0.00     0.034 A 
ATOM     54  C   UNL A   1      39.741  31.323  34.422  1.00  0.00     0.034 A 
ATOM     55  C   UNL A   1      40.855  27.660  29.137  1.00  0.00     0.049 A 
ATOM     56  C   UNL A   1      39.054  31.199  33.084  1.00  0.00     0.074 A 
ATOM     57  C   UNL A   1      40.103  27.580  27.979  1.00  0.00     0.029 A 
ATOM     58  N   UNL A   1      40.224  28.572  29.966  1.00  0.00    -0.354 N 
ATOM     59  N   UNL A   1      39.322  30.384  32.092  1.00  0.00    -0.248 NA
ATOM     60  C   UNL A   1      37.898  32.076  32.840  1.00  0.00     0.031 C 
ATOM     61  C   UNL A   1      39.030  28.466  28.098  1.00  0.00     0.029 A 
ATOM     62  C   UNL A   1      39.094  29.070  29.343  1.00  0.00     0.049 A 
ATOM     63  H   UNL A   1      40.533  28.828  30.866  1.00  0.00     0.167 HD
ATOM     64  C   UNL A   1      38.346  30.620  31.128  1.00  0.00     0.074 A 
ATOM     65  C   UNL A   1      37.474  31.646  31.658  1.00  0.00     0.031 C 
ATOM     66  C   UNL A   1      38.196  30.046  29.909  1.00  0.00     0.034 A 
BRANCH  53  67
ATOM     67  C   UNL A   1      42.612  25.987  28.446  1.00  0.00     0.023 A 
ATOM     68  C   UNL A   1      41.950  24.758  28.246  1.00  0.00     0.012 A 
ATOM     69  C   UNL A   1      43.709  26.324  27.630  1.00  0.00     0.148 A 
ATOM     70  C   UNL A   1      42.383  23.870  27.263  1.00  0.00     0.002 A 
ATOM     71  C   UNL A   1      44.106  25.455  26.621  1.00  0.00     0.091 A 
ATOM     72  F   UNL A   1      44.335  27.488  27.852  1.00  0.00    -0.205 F 
ATOM     73  C   UNL A   1      43.452  24.224  26.443  1.00  0.00     0.022 A 
BRANCH  71  74
ATOM     74  S   UNL A   1      45.414  25.852  25.456  1.00  0.00     0.127 S 
ATOM     75  O   UNL A   1      45.333  24.724  24.528  1.00  0.00    -0.237 OA
ATOM     76  O   UNL A   1      44.958  27.127  24.906  1.00  0.00    -0.237 OA
ATOM     77  O   UNL A   1      46.642  25.924  26.236  1.00  0.00    -0.744 OA
ENDBRANCH  71  74
ENDBRANCH  53  67
BRANCH  54  78
ATOM     78  C   UNL A   1      39.208  32.240  35.472  1.00  0.00     0.023 A 
ATOM     79  C   UNL A   1      38.161  31.800  36.307  1.00  0.00     0.012 A 
ATOM     80  C   UNL A   1      39.749  33.526  35.671  1.00  0.00     0.148 A 
ATOM     81  C   UNL A   1      37.648  32.631  37.303  1.00  0.00     0.002 A 
ATOM     82  C   UNL A   1      39.270  34.327  36.702  1.00  0.00     0.091 A 
ATOM     83  F   UNL A   1      40.731  33.935  34.855  1.00  0.00    -0.205 F 
ATOM     84  C   UNL A   1      38.209  33.887  37.510  1.00  0.00     0.022 A 
BRANCH  82  85
ATOM     85  S   UNL A   1      40.015  35.905  37.127  1.00  0.00     0.127 S 
ATOM     86  O   UNL A   1      39.749  36.695  35.927  1.00  0.00    -0.237 OA
ATOM     87  O   UNL A   1      39.240  36.293  38.305  1.00  0.00    -0.237 OA
ATOM     88  O   UNL A   1      41.417  35.618  37.395  1.00  0.00    -0.744 OA
ENDBRANCH  82  85
ENDBRANCH  54  78
BRANCH  66  89
ATOM     89  C   UNL A   1      37.028  30.465  29.052  1.00  0.00     0.023 A 
ATOM     90  C   UNL A   1      36.184  29.486  28.494  1.00  0.00     0.012 A 
ATOM     91  C   UNL A   1      36.681  31.828  28.935  1.00  0.00     0.148 A 
ATOM     92  C   UNL A   1      35.019  29.856  27.824  1.00  0.00     0.002 A 
ATOM     93  C   UNL A   1      35.492  32.185  28.312  1.00  0.00     0.091 A 
ATOM     94  F   UNL A   1      37.505  32.744  29.464  1.00  0.00    -0.205 F 
ATOM     95  C   UNL A   1      34.664  31.201  27.747  1.00  0.00     0.022 A 
BRANCH  93  96
ATOM     96  S   UNL A   1      34.893  33.879  28.264  1.00  0.00     0.127 S 
ATOM     97  O   UNL A   1      33.446  33.685  28.321  1.00  0.00    -0.237 OA
ATOM     98  O   UNL A   1      35.482  34.448  29.476  1.00  0.00    -0.237 OA
ATOM     99  O   UNL A   1      35.393  34.450  27.020  1.00  0.00    -0.744 OA
ENDBRANCH  93  96
ENDBRANCH  66  89
ENDBRANCH  40  41
ENDBRANCH  33  35
ENDBRANCH  32  33
ENDBRANCH  31  32
ENDBRANCH  30  31
ENDBRANCH  29  30
ENDBRANCH  28  29
ENDBRANCH   1  28
TORSDOF 24
ENDMDL
MODEL 3
REMARK VINA RESULT:      -8.2      7.411     15.837
REMARK SMILES Cc1cc2c(c(C)c1Cl)C=C(C(=O)OCCOCCOCCOCCOC(=O)c1ccc(-c3c4nc(c(-c5cccc(S(=O)(=O)[O-])c5F)c5ccc([nH]5)c(-c5cccc(S(=O)(=O)[O-])c5F)c5nc(c(-c6cccc(S(=O)(=O)[O-])c6F)c6ccc3[nH]6)C=C5)C=C4)cc1)[C@@H](C(F)(F)F)O2
REMARK SMILES IDX 21 1 20 2 19 3 18 4 17 5 16 6 15 7 14 8 12 9 13 10 11 11
REMARK SMILES IDX 1 12 2 13 3 14 8 15 4 16 6 17 9 18 5 19 97 20 7 21 10 22
REMARK SMILES IDX 92 23 93 24 94 25 95 26 96 27 22 28 23 29 24 30 25 31 26 32
REMARK SMILES IDX 27 33 28 34 29 35 30 36 91 37 31 38 90 39 32 40 33 41 34 42
REMARK SMILES IDX 84 43 35 44 89 45 83 46 85 47 36 48 88 49 82 50 81 51 37 53
REMARK SMILES IDX 69 54 49 55 68 56 50 57 53 58 67 59 86 60 51 61 52 62 66 64
REMARK SMILES IDX 87 65 54 66 38 67 39 68 47 69 40 70 42 71 48 72 41 73 43 74
REMARK SMILES IDX 44 75 45 76 46 77 70 78 71 79 79 80 72 81 74 82 80 83 73 84
REMARK SMILES IDX 75 85 76 86 77 87 78 88 55 89 56 90 64 91 57 92 59 93 65 94
REMARK SMILES IDX 58 95 60 96 61 97 62 98 63 99
REMARK H PARENT 85 52 53 63
REMARK Flexibility Score: inf
ROOT
ATOM      1  C   UNL A   1      45.875  40.935  29.083  1.00  0.00     0.188 C 
ENDROOT
BRANCH   1   2
ATOM      2  O   UNL A   1      46.528  41.823  28.174  1.00  0.00    -0.377 OA
BRANCH   2   3
ATOM      3  C   UNL A   1      47.672  41.357  27.480  1.00  0.00     0.188 C 
BRANCH   3   4
ATOM      4  C   UNL A   1      47.539  39.901  26.998  1.00  0.00     0.188 C 
BRANCH   4   5
ATOM      5  O   UNL A   1      47.329  39.797  25.596  1.00  0.00    -0.376 OA
BRANCH   5   6
ATOM      6  C   UNL A   1      46.398  40.668  24.968  1.00  0.00     0.202 C 
BRANCH   6   7
ATOM      7  C   UNL A   1      46.815  41.550  23.776  1.00  0.00     0.261 C 
BRANCH   7   8
ATOM      8  O   UNL A   1      45.775  41.931  22.870  1.00  0.00    -0.460 OA
BRANCH   8   9
ATOM      9  C   UNL A   1      45.203  43.136  23.032  1.00  0.00     0.338 C 
ATOM     10  O   UNL A   1      45.355  43.900  23.968  1.00  0.00    -0.246 OA
BRANCH   9  11
ATOM     11  C   UNL A   1      44.505  43.471  21.768  1.00  0.00     0.087 C 
ATOM     12  C   UNL A   1      41.885  46.266  16.585  1.00  0.00     0.046 C 
ATOM     13  C   UNL A   1      42.855  45.730  17.603  1.00  0.00    -0.028 A 
ATOM     14  C   UNL A   1      42.410  44.671  18.405  1.00  0.00     0.052 A 
ATOM     15  C   UNL A   1      44.159  46.224  17.798  1.00  0.00     0.047 A 
ATOM     16  C   UNL A   1      43.182  44.196  19.460  1.00  0.00     0.128 A 
ATOM     17  C   UNL A   1      44.971  45.731  18.849  1.00  0.00    -0.021 A 
ATOM     18  Cl  UNL A   1      44.756  47.471  16.746  1.00  0.00    -0.084 Cl
ATOM     19  C   UNL A   1      44.431  44.761  19.731  1.00  0.00     0.022 A 
ATOM     20  O   UNL A   1      42.617  43.183  20.177  1.00  0.00    -0.475 OA
ATOM     21  C   UNL A   1      46.393  46.204  19.050  1.00  0.00     0.047 C 
ATOM     22  C   UNL A   1      45.095  44.374  20.974  1.00  0.00     0.027 C 
ATOM     23  C   UNL A   1      43.236  42.743  21.414  1.00  0.00     0.316 C 
BRANCH  23  24
ATOM     24  C   UNL A   1      42.181  42.837  22.526  1.00  0.00     0.430 C 
ATOM     25  F   UNL A   1      42.107  44.090  23.028  1.00  0.00    -0.167 F 
ATOM     26  F   UNL A   1      40.949  42.503  22.085  1.00  0.00    -0.167 F 
ATOM     27  F   UNL A   1      42.483  42.006  23.553  1.00  0.00    -0.167 F 
ENDBRANCH  23  24
ENDBRANCH   9  11
ENDBRANCH   8   9
ENDBRANCH   7   8
ENDBRANCH   6   7
ENDBRANCH   5   6
ENDBRANCH   4   5
ENDBRANCH   3   4
ENDBRANCH   2   3
ENDBRANCH   1   2
BRANCH   1  28
ATOM     28  C   UNL A   1      44.766  41.413  30.052  1.00  0.00     0.188 C 
BRANCH  28  29
ATOM     29  O   UNL A   1      43.664  40.519  30.182  1.00  0.00    -0.376 OA
BRANCH  29  30
ATOM     30  C   UNL A   1      42.363  41.061  30.017  1.00  0.00     0.202 C 
BRANCH  30  31
ATOM     31  C   UNL A   1      41.547  40.448  28.873  1.00  0.00     0.261 C 
BRANCH  31  32
ATOM     32  O   UNL A   1      41.754  39.045  28.650  1.00  0.00    -0.460 OA
BRANCH  32  33
ATOM     33  C   UNL A   1      41.836  38.619  27.370  1.00  0.00     0.338 C 
ATOM     34  O   UNL A   1      41.357  39.149  26.384  1.00  0.00    -0.246 OA
BRANCH  33  35
ATOM     35  C   UNL A   1      42.780  37.485  27.351  1.00  0.00     0.060 A 
ATOM     36  C   UNL A   1      43.766  37.397  28.342  1.00  0.00     0.016 A 
ATOM     37  C   UNL A   1      42.660  36.490  26.377  1.00  0.00     0.016 A 
ATOM     38  C   UNL A   1      44.647  36.316  28.348  1.00  0.00     0.010 A 
ATOM     39  C   UNL A   1      43.553  35.418  26.377  1.00  0.00     0.010 A 
ATOM     40  C   UNL A   1      44.566  35.339  27.346  1.00  0.00    -0.014 A 
BRANCH  40  41
ATOM     41  C   UNL A   1      45.634  34.320  27.217  1.00  0.00     0.031 A 
ATOM     42  C   UNL A   1      45.319  32.900  27.597  1.00  0.00     0.074 A 
ATOM     43  C   UNL A   1      46.859  34.651  26.770  1.00  0.00     0.049 A 
ATOM     44  N   UNL A   1      46.085  31.843  27.551  1.00  0.00    -0.248 NA
ATOM     45  C   UNL A   1      43.957  32.635  28.092  1.00  0.00     0.031 C 
ATOM     46  C   UNL A   1      47.281  35.993  26.374  1.00  0.00     0.029 A 
ATOM     47  N   UNL A   1      47.979  33.877  26.586  1.00  0.00    -0.354 N 
ATOM     48  C   UNL A   1      45.305  30.792  28.013  1.00  0.00     0.074 A 
ATOM     49  C   UNL A   1      44.014  31.339  28.364  1.00  0.00     0.031 C 
ATOM     50  C   UNL A   1      48.572  35.950  26.001  1.00  0.00     0.029 A 
ATOM     51  C   UNL A   1      49.074  34.585  26.148  1.00  0.00     0.049 A 
ATOM     52  H   UNL A   1      47.996  32.906  26.752  1.00  0.00     0.167 HD
ATOM     53  C   UNL A   1      45.626  29.482  28.110  1.00  0.00     0.034 A 
ATOM     54  C   UNL A   1      50.335  34.175  25.900  1.00  0.00     0.034 A 
ATOM     55  C   UNL A   1      46.908  28.939  27.754  1.00  0.00     0.049 A 
ATOM     56  C   UNL A   1      50.681  32.715  26.062  1.00  0.00     0.074 A 
ATOM     57  C   UNL A   1      47.321  27.620  27.797  1.00  0.00     0.029 A 
ATOM     58  N   UNL A   1      47.984  29.684  27.300  1.00  0.00    -0.354 N 
ATOM     59  N   UNL A   1      49.900  31.714  26.392  1.00  0.00    -0.248 NA
ATOM     60  C   UNL A   1      52.072  32.321  25.788  1.00  0.00     0.031 C 
ATOM     61  C   UNL A   1      48.657  27.571  27.393  1.00  0.00     0.029 A 
ATOM     62  C   UNL A   1      49.065  28.853  27.065  1.00  0.00     0.049 A 
ATOM     63  H   UNL A   1      47.980  30.659  27.163  1.00  0.00     0.167 HD
ATOM     64  C   UNL A   1      50.691  30.571  26.323  1.00  0.00     0.074 A 
ATOM     65  C   UNL A   1      52.010  31.000  25.910  1.00  0.00     0.031 C 
ATOM     66  C   UNL A   1      50.356  29.285  26.591  1.00  0.00     0.034 A 
BRANCH  53  67
ATOM     67  C   UNL A   1      44.559  28.525  28.573  1.00  0.00     0.023 A 
ATOM     68  C   UNL A   1      44.444  28.235  29.948  1.00  0.00     0.012 A 
ATOM     69  C   UNL A   1      43.618  27.992  27.671  1.00  0.00     0.148 A 
ATOM     70  C   UNL A   1      43.419  27.415  30.417  1.00  0.00     0.002 A 
ATOM     71  C   UNL A   1      42.572  27.213  28.151  1.00  0.00     0.091 A 
ATOM     72  F   UNL A   1      43.759  28.264  26.366  1.00  0.00    -0.205 F 
ATOM     73  C   UNL A   1      42.478  26.916  29.522  1.00  0.00     0.022 A 
BRANCH  71  74
ATOM     74  S   UNL A   1      41.259  26.592  27.097  1.00  0.00     0.127 S 
ATOM     75  O   UNL A   1      40.454  25.827  28.048  1.00  0.00    -0.237 OA
ATOM     76  O   UNL A   1      40.634  27.827  26.625  1.00  0.00    -0.237 OA
ATOM     77  O   UNL A   1      41.911  25.801  26.062  1.00  0.00    -0.744 OA
ENDBRANCH  71  74
ENDBRANCH  53  67
BRANCH  54  78
ATOM     78  C   UNL A   1      51.350  35.149  25.400  1.00  0.00     0.023 A 
ATOM     79  C   UNL A   1      51.699  35.143  24.035  1.00  0.00     0.012 A 
ATOM     80  C   UNL A   1      51.945  36.097  26.255  1.00  0.00     0.148 A 
ATOM     81  C   UNL A   1      52.637  36.047  23.536  1.00  0.00     0.002 A 
ATOM     82  C   UNL A   1      52.837  37.031  25.740  1.00  0.00     0.091 A 
ATOM     83  F   UNL A   1      51.615  36.075  27.554  1.00  0.00    -0.205 F 
ATOM     84  C   UNL A   1      53.197  36.998  24.383  1.00  0.00     0.022 A 
BRANCH  82  85
ATOM     85  S   UNL A   1      53.508  38.374  26.726  1.00  0.00     0.127 S 
ATOM     86  O   UNL A   1      52.300  39.106  27.097  1.00  0.00    -0.237 OA
ATOM     87  O   UNL A   1      54.149  37.647  27.823  1.00  0.00    -0.237 OA
ATOM     88  O   UNL A   1      54.431  39.082  25.851  1.00  0.00    -0.744 OA
ENDBRANCH  82  85
ENDBRANCH  54  78
BRANCH  66  89
ATOM     89  C   UNL A   1      51.403  28.215  26.416  1.00  0.00     0.023 A 
ATOM     90  C   UNL A   1      51.573  27.603  25.159  1.00  0.00     0.012 A 
ATOM     91  C   UNL A   1      52.318  27.934  27.453  1.00  0.00     0.148 A 
ATOM     92  C   UNL A   1      52.630  26.720  24.940  1.00  0.00     0.002 A 
ATOM     93  C   UNL A   1      53.399  27.095  27.211  1.00  0.00     0.091 A 
ATOM     94  F   UNL A   1      52.131  28.520  28.645  1.00  0.00    -0.205 F 
ATOM     95  C   UNL A   1      53.551  26.479  25.957  1.00  0.00     0.022 A 
BRANCH  93  96
ATOM     96  S   UNL A   1      54.699  26.814  28.420  1.00  0.00     0.127 S 
ATOM     97  O   UNL A   1      53.952  26.219  29.526  1.00  0.00    -0.237 OA
ATOM     98  O   UNL A   1      55.582  25.888  27.712  1.00  0.00    -0.237 OA
ATOM     99  O   UNL A   1      55.283  28.120  28.697  1.00  0.00    -0.744 OA
ENDBRANCH  93  96
ENDBRANCH  66  89
ENDBRANCH  40  41
ENDBRANCH  33  35
ENDBRANCH  32  33
ENDBRANCH  31  32
ENDBRANCH  30  31
ENDBRANCH  29  30
ENDBRANCH  28  29
ENDBRANCH   1  28
TORSDOF 24
ENDMDL
