MODEL 1
REMARK VINA RESULT:      -9.4      0.000      0.000
REMARK SMILES O=C(OCCOCCOCCOCCOC(=O)[C@H]1CS[C@]2(c3ccccc3)CCC(=O)N12)c1ccc(-c2c3nc(c(-c4cccc(S(=O)(=O)[O-])c4F)c4ccc([nH]4)c(-c4cccc(S(=O)(=O)[O-])c4F)c4nc(c(-c5cccc(S(=O)(=O)[O-])c5F)c5ccc2[nH]5)C=C4)C=C3)cc1
REMARK SMILES IDX 8 1 7 2 6 3 5 4 4 5 3 6 2 7 1 8 33 9 34 10 95 11 35 12 94 13
REMARK SMILES IDX 36 14 37 15 38 16 88 17 39 18 93 19 87 20 89 21 40 22 92 23
REMARK SMILES IDX 86 24 85 25 41 27 73 28 53 29 72 30 54 31 57 32 71 33 90 34
REMARK SMILES IDX 55 35 56 36 70 38 91 39 58 40 42 41 43 42 51 43 44 44 46 45
REMARK SMILES IDX 52 46 45 47 47 48 48 49 49 50 50 51 74 52 75 53 83 54 76 55
REMARK SMILES IDX 78 56 84 57 77 58 79 59 80 60 81 61 82 62 59 63 60 64 68 65
REMARK SMILES IDX 61 66 63 67 69 68 62 69 64 70 65 71 66 72 67 73 9 74 10 75
REMARK SMILES IDX 11 76 12 77 13 78 14 79 15 80 16 81 17 82 18 83 19 84 32 85
REMARK SMILES IDX 20 86 21 87 30 88 28 89 29 90 31 91 22 92 23 93 27 94 24 95
REMARK SMILES IDX 26 96 25 97
REMARK H PARENT 89 26 57 37
REMARK Flexibility Score: inf
ROOT
ATOM      1  C   UNL A   1      41.570  20.722  27.679  1.00  0.00     0.188 C 
ENDROOT
BRANCH   1   2
ATOM      2  C   UNL A   1      41.605  19.658  26.606  1.00  0.00     0.188 C 
BRANCH   2   3
ATOM      3  O   UNL A   1      42.553  18.654  26.936  1.00  0.00    -0.376 OA
BRANCH   3   4
ATOM      4  C   UNL A   1      43.175  17.938  25.881  1.00  0.00     0.202 C 
BRANCH   4   5
ATOM      5  C   UNL A   1      44.691  18.077  25.756  1.00  0.00     0.261 C 
BRANCH   5   6
ATOM      6  O   UNL A   1      45.192  18.845  24.645  1.00  0.00    -0.460 OA
BRANCH   6   7
ATOM      7  C   UNL A   1      44.768  19.970  24.023  1.00  0.00     0.338 C 
ATOM      8  O   UNL A   1      44.623  19.919  22.800  1.00  0.00    -0.246 OA
BRANCH   7   9
ATOM      9  C   UNL A   1      44.548  21.292  24.684  1.00  0.00     0.060 A 
ATOM     10  C   UNL A   1      43.993  22.409  24.072  1.00  0.00     0.016 A 
ATOM     11  C   UNL A   1      44.854  21.393  26.054  1.00  0.00     0.016 A 
ATOM     12  C   UNL A   1      43.767  23.592  24.741  1.00  0.00     0.010 A 
ATOM     13  C   UNL A   1      44.678  22.598  26.742  1.00  0.00     0.010 A 
ATOM     14  C   UNL A   1      44.177  23.710  26.057  1.00  0.00    -0.014 A 
BRANCH  14  15
ATOM     15  C   UNL A   1      44.381  25.088  26.514  1.00  0.00     0.031 A 
ATOM     16  C   UNL A   1      45.664  25.742  26.100  1.00  0.00     0.074 A 
ATOM     17  C   UNL A   1      43.355  25.776  27.040  1.00  0.00     0.049 A 
ATOM     18  N   UNL A   1      46.109  26.937  26.364  1.00  0.00    -0.248 NA
ATOM     19  C   UNL A   1      46.563  24.944  25.241  1.00  0.00     0.031 C 
ATOM     20  C   UNL A   1      42.005  25.248  27.253  1.00  0.00     0.029 A 
ATOM     21  N   UNL A   1      43.279  27.074  27.454  1.00  0.00    -0.354 N 
ATOM     22  C   UNL A   1      47.368  26.998  25.781  1.00  0.00     0.074 A 
ATOM     23  C   UNL A   1      47.606  25.744  25.113  1.00  0.00     0.031 C 
ATOM     24  C   UNL A   1      41.235  26.218  27.771  1.00  0.00     0.029 A 
ATOM     25  C   UNL A   1      42.059  27.397  27.993  1.00  0.00     0.049 A 
ATOM     26  H   UNL A   1      44.024  27.714  27.374  1.00  0.00     0.167 HD
ATOM     27  C   UNL A   1      48.253  28.016  25.832  1.00  0.00     0.034 A 
ATOM     28  C   UNL A   1      41.689  28.517  28.641  1.00  0.00     0.034 A 
ATOM     29  C   UNL A   1      47.961  29.247  26.507  1.00  0.00     0.049 A 
ATOM     30  C   UNL A   1      42.723  29.599  28.776  1.00  0.00     0.074 A 
ATOM     31  C   UNL A   1      48.773  30.343  26.707  1.00  0.00     0.029 A 
ATOM     32  N   UNL A   1      46.740  29.526  27.110  1.00  0.00    -0.354 N 
ATOM     33  N   UNL A   1      43.941  29.642  28.283  1.00  0.00    -0.248 NA
ATOM     34  C   UNL A   1      42.342  30.788  29.544  1.00  0.00     0.031 C 
ATOM     35  C   UNL A   1      48.056  31.268  27.474  1.00  0.00     0.029 A 
ATOM     36  C   UNL A   1      46.777  30.772  27.700  1.00  0.00     0.049 A 
ATOM     37  H   UNL A   1      45.962  28.923  27.116  1.00  0.00     0.167 HD
ATOM     38  C   UNL A   1      44.460  30.875  28.647  1.00  0.00     0.074 A 
ATOM     39  C   UNL A   1      43.416  31.553  29.394  1.00  0.00     0.031 C 
ATOM     40  C   UNL A   1      45.683  31.407  28.396  1.00  0.00     0.034 A 
BRANCH  27  41
ATOM     41  C   UNL A   1      49.615  27.765  25.245  1.00  0.00     0.023 A 
ATOM     42  C   UNL A   1      49.832  27.836  23.853  1.00  0.00     0.012 A 
ATOM     43  C   UNL A   1      50.673  27.369  26.087  1.00  0.00     0.148 A 
ATOM     44  C   UNL A   1      51.061  27.463  23.307  1.00  0.00     0.002 A 
ATOM     45  C   UNL A   1      51.908  27.049  25.541  1.00  0.00     0.091 A 
ATOM     46  F   UNL A   1      50.436  27.267  27.402  1.00  0.00    -0.205 F 
ATOM     47  C   UNL A   1      52.100  27.076  24.151  1.00  0.00     0.022 A 
BRANCH  45  48
ATOM     48  S   UNL A   1      53.322  26.601  26.552  1.00  0.00     0.127 S 
ATOM     49  O   UNL A   1      53.033  25.201  26.863  1.00  0.00    -0.237 OA
ATOM     50  O   UNL A   1      54.435  26.802  25.624  1.00  0.00    -0.237 OA
ATOM     51  O   UNL A   1      53.308  27.509  27.691  1.00  0.00    -0.744 OA
ENDBRANCH  45  48
ENDBRANCH  27  41
BRANCH  28  52
ATOM     52  C   UNL A   1      40.319  28.641  29.214  1.00  0.00     0.023 A 
ATOM     53  C   UNL A   1      40.058  28.168  30.514  1.00  0.00     0.012 A 
ATOM     54  C   UNL A   1      39.276  29.253  28.487  1.00  0.00     0.148 A 
ATOM     55  C   UNL A   1      38.781  28.280  31.069  1.00  0.00     0.002 A 
ATOM     56  C   UNL A   1      38.021  29.407  29.065  1.00  0.00     0.091 A 
ATOM     57  F   UNL A   1      39.538  29.688  27.247  1.00  0.00    -0.205 F 
ATOM     58  C   UNL A   1      37.767  28.905  30.349  1.00  0.00     0.022 A 
BRANCH  56  59
ATOM     59  S   UNL A   1      36.686  30.297  28.256  1.00  0.00     0.127 S 
ATOM     60  O   UNL A   1      36.741  29.752  26.901  1.00  0.00    -0.237 OA
ATOM     61  O   UNL A   1      35.526  29.877  29.042  1.00  0.00    -0.237 OA
ATOM     62  O   UNL A   1      37.017  31.710  28.379  1.00  0.00    -0.744 OA
ENDBRANCH  56  59
ENDBRANCH  28  52
BRANCH  40  63
ATOM     63  C   UNL A   1      45.926  32.808  28.876  1.00  0.00     0.023 A 
ATOM     64  C   UNL A   1      46.505  33.036  30.138  1.00  0.00     0.012 A 
ATOM     65  C   UNL A   1      45.661  33.893  28.019  1.00  0.00     0.148 A 
ATOM     66  C   UNL A   1      46.787  34.335  30.554  1.00  0.00     0.002 A 
ATOM     67  C   UNL A   1      46.003  35.175  28.414  1.00  0.00     0.091 A 
ATOM     68  F   UNL A   1      45.090  33.645  26.830  1.00  0.00    -0.205 F 
ATOM     69  C   UNL A   1      46.550  35.402  29.687  1.00  0.00     0.022 A 
BRANCH  67  70
ATOM     70  S   UNL A   1      45.848  36.584  27.313  1.00  0.00     0.127 S 
ATOM     71  O   UNL A   1      46.283  37.683  28.172  1.00  0.00    -0.237 OA
ATOM     72  O   UNL A   1      46.783  36.239  26.240  1.00  0.00    -0.237 OA
ATOM     73  O   UNL A   1      44.451  36.624  26.905  1.00  0.00    -0.744 OA
ENDBRANCH  67  70
ENDBRANCH  40  63
ENDBRANCH  14  15
ENDBRANCH   7   9
ENDBRANCH   6   7
ENDBRANCH   5   6
ENDBRANCH   4   5
ENDBRANCH   3   4
ENDBRANCH   2   3
ENDBRANCH   1   2
BRANCH   1  74
ATOM     74  O   UNL A   1      40.390  21.494  27.687  1.00  0.00    -0.377 OA
BRANCH  74  75
ATOM     75  C   UNL A   1      39.966  22.092  26.475  1.00  0.00     0.188 C 
BRANCH  75  76
ATOM     76  C   UNL A   1      38.927  23.220  26.499  1.00  0.00     0.188 C 
BRANCH  76  77
ATOM     77  O   UNL A   1      37.783  22.976  25.726  1.00  0.00    -0.376 OA
BRANCH  77  78
ATOM     78  C   UNL A   1      36.514  23.468  26.110  1.00  0.00     0.202 C 
BRANCH  78  79
ATOM     79  C   UNL A   1      35.602  24.440  25.321  1.00  0.00     0.261 C 
BRANCH  79  80
ATOM     80  O   UNL A   1      34.277  24.782  25.757  1.00  0.00    -0.462 OA
BRANCH  80  81
ATOM     81  C   UNL A   1      33.299  23.889  25.485  1.00  0.00     0.329 C 
ATOM     82  O   UNL A   1      33.118  22.859  26.128  1.00  0.00    -0.250 OA
BRANCH  81  83
ATOM     83  C   UNL A   1      32.378  24.305  24.330  1.00  0.00     0.206 C 
ATOM     84  C   UNL A   1      30.886  23.962  24.282  1.00  0.00     0.109 C 
ATOM     85  N   UNL A   1      32.548  25.671  23.832  1.00  0.00    -0.309 N 
ATOM     86  S   UNL A   1      29.943  25.519  24.156  1.00  0.00    -0.126 SA
ATOM     87  C   UNL A   1      31.435  26.612  23.977  1.00  0.00     0.116 C 
ATOM     88  C   UNL A   1      33.070  25.668  22.529  1.00  0.00     0.224 C 
ATOM     89  C   UNL A   1      31.403  27.297  22.591  1.00  0.00     0.055 C 
ATOM     90  C   UNL A   1      32.054  26.319  21.640  1.00  0.00     0.104 C 
ATOM     91  O   UNL A   1      34.015  25.014  22.136  1.00  0.00    -0.275 OA
BRANCH  87  92
ATOM     92  C   UNL A   1      31.535  27.633  25.140  1.00  0.00    -0.012 A 
ATOM     93  C   UNL A   1      31.691  29.007  24.900  1.00  0.00     0.007 A 
ATOM     94  C   UNL A   1      31.546  27.271  26.506  1.00  0.00     0.007 A 
ATOM     95  C   UNL A   1      31.839  29.956  25.925  1.00  0.00     0.000 A 
ATOM     96  C   UNL A   1      31.707  28.211  27.540  1.00  0.00     0.000 A 
ATOM     97  C   UNL A   1      31.847  29.557  27.251  1.00  0.00     0.000 A 
ENDBRANCH  87  92
ENDBRANCH  81  83
ENDBRANCH  80  81
ENDBRANCH  79  80
ENDBRANCH  78  79
ENDBRANCH  77  78
ENDBRANCH  76  77
ENDBRANCH  75  76
ENDBRANCH  74  75
ENDBRANCH   1  74
TORSDOF 24
ENDMDL
MODEL 2
REMARK VINA RESULT:      -9.2      5.112      7.650
REMARK SMILES O=C(OCCOCCOCCOCCOC(=O)[C@H]1CS[C@]2(c3ccccc3)CCC(=O)N12)c1ccc(-c2c3nc(c(-c4cccc(S(=O)(=O)[O-])c4F)c4ccc([nH]4)c(-c4cccc(S(=O)(=O)[O-])c4F)c4nc(c(-c5cccc(S(=O)(=O)[O-])c5F)c5ccc2[nH]5)C=C4)C=C3)cc1
REMARK SMILES IDX 8 1 7 2 6 3 5 4 4 5 3 6 2 7 1 8 33 9 34 10 95 11 35 12 94 13
REMARK SMILES IDX 36 14 37 15 38 16 88 17 39 18 93 19 87 20 89 21 40 22 92 23
REMARK SMILES IDX 86 24 85 25 41 27 73 28 53 29 72 30 54 31 57 32 71 33 90 34
REMARK SMILES IDX 55 35 56 36 70 38 91 39 58 40 42 41 43 42 51 43 44 44 46 45
REMARK SMILES IDX 52 46 45 47 47 48 48 49 49 50 50 51 74 52 75 53 83 54 76 55
REMARK SMILES IDX 78 56 84 57 77 58 79 59 80 60 81 61 82 62 59 63 60 64 68 65
REMARK SMILES IDX 61 66 63 67 69 68 62 69 64 70 65 71 66 72 67 73 9 74 10 75
REMARK SMILES IDX 11 76 12 77 13 78 14 79 15 80 16 81 17 82 18 83 19 84 32 85
REMARK SMILES IDX 20 86 21 87 30 88 28 89 29 90 31 91 22 92 23 93 27 94 24 95
REMARK SMILES IDX 26 96 25 97
REMARK H PARENT 89 26 57 37
REMARK Flexibility Score: inf
ROOT
ATOM      1  C   UNL A   1      40.374  22.017  26.940  1.00  0.00     0.188 C 
ENDROOT
BRANCH   1   2
ATOM      2  C   UNL A   1      41.426  21.792  25.879  1.00  0.00     0.188 C 
BRANCH   2   3
ATOM      3  O   UNL A   1      42.668  21.455  26.478  1.00  0.00    -0.376 OA
BRANCH   3   4
ATOM      4  C   UNL A   1      43.853  21.628  25.718  1.00  0.00     0.202 C 
BRANCH   4   5
ATOM      5  C   UNL A   1      45.025  22.312  26.419  1.00  0.00     0.261 C 
BRANCH   5   6
ATOM      6  O   UNL A   1      45.237  23.708  26.136  1.00  0.00    -0.460 OA
BRANCH   6   7
ATOM      7  C   UNL A   1      44.434  24.700  25.684  1.00  0.00     0.338 C 
ATOM      8  O   UNL A   1      44.485  24.965  24.481  1.00  0.00    -0.246 OA
BRANCH   7   9
ATOM      9  C   UNL A   1      43.558  25.559  26.537  1.00  0.00     0.060 A 
ATOM     10  C   UNL A   1      43.665  26.939  26.658  1.00  0.00     0.016 A 
ATOM     11  C   UNL A   1      42.493  24.934  27.212  1.00  0.00     0.016 A 
ATOM     12  C   UNL A   1      42.801  27.691  27.422  1.00  0.00     0.010 A 
ATOM     13  C   UNL A   1      41.632  25.670  28.032  1.00  0.00     0.010 A 
ATOM     14  C   UNL A   1      41.828  27.048  28.167  1.00  0.00    -0.014 A 
BRANCH  14  15
ATOM     15  C   UNL A   1      41.320  27.820  29.306  1.00  0.00     0.031 A 
ATOM     16  C   UNL A   1      42.219  27.909  30.502  1.00  0.00     0.074 A 
ATOM     17  C   UNL A   1      40.237  28.599  29.156  1.00  0.00     0.049 A 
ATOM     18  N   UNL A   1      42.028  28.510  31.640  1.00  0.00    -0.248 NA
ATOM     19  C   UNL A   1      43.536  27.249  30.387  1.00  0.00     0.031 C 
ATOM     20  C   UNL A   1      39.452  28.724  27.925  1.00  0.00     0.029 A 
ATOM     21  N   UNL A   1      39.635  29.456  30.030  1.00  0.00    -0.354 N 
ATOM     22  C   UNL A   1      43.155  28.227  32.401  1.00  0.00     0.074 A 
ATOM     23  C   UNL A   1      44.047  27.438  31.590  1.00  0.00     0.031 C 
ATOM     24  C   UNL A   1      38.460  29.605  28.130  1.00  0.00     0.029 A 
ATOM     25  C   UNL A   1      38.501  30.038  29.520  1.00  0.00     0.049 A 
ATOM     26  H   UNL A   1      39.979  29.639  30.934  1.00  0.00     0.167 HD
ATOM     27  C   UNL A   1      43.398  28.580  33.681  1.00  0.00     0.034 A 
ATOM     28  C   UNL A   1      37.581  30.792  30.146  1.00  0.00     0.034 A 
ATOM     29  C   UNL A   1      42.476  29.372  34.441  1.00  0.00     0.049 A 
ATOM     30  C   UNL A   1      37.818  31.089  31.601  1.00  0.00     0.074 A 
ATOM     31  C   UNL A   1      42.543  29.756  35.764  1.00  0.00     0.029 A 
ATOM     32  N   UNL A   1      41.295  29.893  33.924  1.00  0.00    -0.354 N 
ATOM     33  N   UNL A   1      38.852  30.771  32.349  1.00  0.00    -0.248 NA
ATOM     34  C   UNL A   1      36.779  31.850  32.300  1.00  0.00     0.031 C 
ATOM     35  C   UNL A   1      41.376  30.469  36.059  1.00  0.00     0.029 A 
ATOM     36  C   UNL A   1      40.612  30.582  34.903  1.00  0.00     0.049 A 
ATOM     37  H   UNL A   1      40.990  29.786  32.993  1.00  0.00     0.167 HD
ATOM     38  C   UNL A   1      38.608  31.325  33.596  1.00  0.00     0.074 A 
ATOM     39  C   UNL A   1      37.331  32.008  33.497  1.00  0.00     0.031 C 
ATOM     40  C   UNL A   1      39.359  31.277  34.725  1.00  0.00     0.034 A 
BRANCH  27  41
ATOM     41  C   UNL A   1      44.633  28.009  34.323  1.00  0.00     0.023 A 
ATOM     42  C   UNL A   1      45.865  28.693  34.265  1.00  0.00     0.012 A 
ATOM     43  C   UNL A   1      44.581  26.733  34.917  1.00  0.00     0.148 A 
ATOM     44  C   UNL A   1      47.033  28.092  34.738  1.00  0.00     0.002 A 
ATOM     45  C   UNL A   1      45.737  26.163  35.431  1.00  0.00     0.091 A 
ATOM     46  F   UNL A   1      43.410  26.081  34.925  1.00  0.00    -0.205 F 
ATOM     47  C   UNL A   1      46.968  26.830  35.326  1.00  0.00     0.022 A 
BRANCH  45  48
ATOM     48  S   UNL A   1      45.739  24.571  36.261  1.00  0.00     0.127 S 
ATOM     49  O   UNL A   1      44.398  24.537  36.842  1.00  0.00    -0.237 OA
ATOM     50  O   UNL A   1      45.944  23.647  35.145  1.00  0.00    -0.237 OA
ATOM     51  O   UNL A   1      46.834  24.618  37.220  1.00  0.00    -0.744 OA
ENDBRANCH  45  48
ENDBRANCH  27  41
BRANCH  28  52
ATOM     52  C   UNL A   1      36.374  31.274  29.417  1.00  0.00     0.023 A 
ATOM     53  C   UNL A   1      35.656  30.391  28.590  1.00  0.00     0.012 A 
ATOM     54  C   UNL A   1      35.916  32.602  29.560  1.00  0.00     0.148 A 
ATOM     55  C   UNL A   1      34.521  30.825  27.902  1.00  0.00     0.002 A 
ATOM     56  C   UNL A   1      34.757  33.013  28.914  1.00  0.00     0.091 A 
ATOM     57  F   UNL A   1      36.618  33.433  30.342  1.00  0.00    -0.205 F 
ATOM     58  C   UNL A   1      34.067  32.131  28.069  1.00  0.00     0.022 A 
BRANCH  56  59
ATOM     59  S   UNL A   1      34.038  34.641  29.157  1.00  0.00     0.127 S 
ATOM     60  O   UNL A   1      34.390  34.918  30.548  1.00  0.00    -0.237 OA
ATOM     61  O   UNL A   1      34.761  35.440  28.168  1.00  0.00    -0.237 OA
ATOM     62  O   UNL A   1      32.614  34.492  28.888  1.00  0.00    -0.744 OA
ENDBRANCH  56  59
ENDBRANCH  28  52
BRANCH  40  63
ATOM     63  C   UNL A   1      38.847  32.037  35.914  1.00  0.00     0.023 A 
ATOM     64  C   UNL A   1      38.968  33.438  35.967  1.00  0.00     0.012 A 
ATOM     65  C   UNL A   1      38.160  31.353  36.934  1.00  0.00     0.148 A 
ATOM     66  C   UNL A   1      38.436  34.147  37.041  1.00  0.00     0.002 A 
ATOM     67  C   UNL A   1      37.579  32.070  37.967  1.00  0.00     0.091 A 
ATOM     68  F   UNL A   1      38.079  30.016  36.866  1.00  0.00    -0.205 F 
ATOM     69  C   UNL A   1      37.729  33.465  38.032  1.00  0.00     0.022 A 
BRANCH  67  70
ATOM     70  S   UNL A   1      36.549  31.286  39.209  1.00  0.00     0.127 S 
ATOM     71  O   UNL A   1      36.226  30.013  38.568  1.00  0.00    -0.237 OA
ATOM     72  O   UNL A   1      37.465  31.182  40.347  1.00  0.00    -0.237 OA
ATOM     73  O   UNL A   1      35.423  32.183  39.423  1.00  0.00    -0.744 OA
ENDBRANCH  67  70
ENDBRANCH  40  63
ENDBRANCH  14  15
ENDBRANCH   7   9
ENDBRANCH   6   7
ENDBRANCH   5   6
ENDBRANCH   4   5
ENDBRANCH   3   4
ENDBRANCH   2   3
ENDBRANCH   1   2
BRANCH   1  74
ATOM     74  O   UNL A   1      39.164  21.330  26.710  1.00  0.00    -0.377 OA
BRANCH  74  75
ATOM     75  C   UNL A   1      38.632  21.324  25.396  1.00  0.00     0.188 C 
BRANCH  75  76
ATOM     76  C   UNL A   1      37.349  22.106  25.086  1.00  0.00     0.188 C 
BRANCH  76  77
ATOM     77  O   UNL A   1      36.227  21.306  24.826  1.00  0.00    -0.376 OA
BRANCH  77  78
ATOM     78  C   UNL A   1      35.141  21.242  25.730  1.00  0.00     0.202 C 
BRANCH  78  79
ATOM     79  C   UNL A   1      34.983  22.002  27.070  1.00  0.00     0.261 C 
BRANCH  79  80
ATOM     80  O   UNL A   1      33.911  22.927  27.312  1.00  0.00    -0.462 OA
BRANCH  80  81
ATOM     81  C   UNL A   1      33.655  23.827  26.336  1.00  0.00     0.329 C 
ATOM     82  O   UNL A   1      34.474  24.645  25.930  1.00  0.00    -0.250 OA
BRANCH  81  83
ATOM     83  C   UNL A   1      32.254  23.697  25.721  1.00  0.00     0.206 C 
ATOM     84  C   UNL A   1      31.006  23.357  26.542  1.00  0.00     0.109 C 
ATOM     85  N   UNL A   1      31.887  24.714  24.734  1.00  0.00    -0.309 N 
ATOM     86  S   UNL A   1      29.791  24.701  26.321  1.00  0.00    -0.126 SA
ATOM     87  C   UNL A   1      30.777  25.618  25.041  1.00  0.00     0.116 C 
ATOM     88  C   UNL A   1      31.772  24.151  23.454  1.00  0.00     0.224 C 
ATOM     89  C   UNL A   1      29.992  25.635  23.708  1.00  0.00     0.055 C 
ATOM     90  C   UNL A   1      30.355  24.346  23.007  1.00  0.00     0.104 C 
ATOM     91  O   UNL A   1      32.565  23.397  22.926  1.00  0.00    -0.275 OA
BRANCH  87  92
ATOM     92  C   UNL A   1      31.153  27.042  25.525  1.00  0.00    -0.012 A 
ATOM     93  C   UNL A   1      31.501  27.296  26.861  1.00  0.00     0.007 A 
ATOM     94  C   UNL A   1      31.114  28.188  24.701  1.00  0.00     0.007 A 
ATOM     95  C   UNL A   1      31.796  28.580  27.349  1.00  0.00     0.000 A 
ATOM     96  C   UNL A   1      31.394  29.480  25.182  1.00  0.00     0.000 A 
ATOM     97  C   UNL A   1      31.742  29.677  26.507  1.00  0.00     0.000 A 
ENDBRANCH  87  92
ENDBRANCH  81  83
ENDBRANCH  80  81
ENDBRANCH  79  80
ENDBRANCH  78  79
ENDBRANCH  77  78
ENDBRANCH  76  77
ENDBRANCH  75  76
ENDBRANCH  74  75
ENDBRANCH   1  74
TORSDOF 24
ENDMDL
MODEL 3
REMARK VINA RESULT:      -9.2      1.264      7.485
REMARK SMILES O=C(OCCOCCOCCOCCOC(=O)[C@H]1CS[C@]2(c3ccccc3)CCC(=O)N12)c1ccc(-c2c3nc(c(-c4cccc(S(=O)(=O)[O-])c4F)c4ccc([nH]4)c(-c4cccc(S(=O)(=O)[O-])c4F)c4nc(c(-c5cccc(S(=O)(=O)[O-])c5F)c5ccc2[nH]5)C=C4)C=C3)cc1
REMARK SMILES IDX 8 1 7 2 6 3 5 4 4 5 3 6 2 7 1 8 33 9 34 10 95 11 35 12 94 13
REMARK SMILES IDX 36 14 37 15 38 16 88 17 39 18 93 19 87 20 89 21 40 22 92 23
REMARK SMILES IDX 86 24 85 25 41 27 73 28 53 29 72 30 54 31 57 32 71 33 90 34
REMARK SMILES IDX 55 35 56 36 70 38 91 39 58 40 42 41 43 42 51 43 44 44 46 45
REMARK SMILES IDX 52 46 45 47 47 48 48 49 49 50 50 51 74 52 75 53 83 54 76 55
REMARK SMILES IDX 78 56 84 57 77 58 79 59 80 60 81 61 82 62 59 63 60 64 68 65
REMARK SMILES IDX 61 66 63 67 69 68 62 69 64 70 65 71 66 72 67 73 9 74 10 75
REMARK SMILES IDX 11 76 12 77 13 78 14 79 15 80 16 81 17 82 18 83 19 84 32 85
REMARK SMILES IDX 20 86 21 87 30 88 28 89 29 90 31 91 22 92 23 93 27 94 24 95
REMARK SMILES IDX 26 96 25 97
REMARK H PARENT 89 26 57 37
REMARK Flexibility Score: inf
ROOT
ATOM      1  C   UNL A   1      41.117  21.581  27.300  1.00  0.00     0.188 C 
ENDROOT
BRANCH   1   2
ATOM      2  C   UNL A   1      41.365  20.454  26.324  1.00  0.00     0.188 C 
BRANCH   2   3
ATOM      3  O   UNL A   1      42.163  19.446  26.926  1.00  0.00    -0.376 OA
BRANCH   3   4
ATOM      4  C   UNL A   1      42.588  18.354  26.127  1.00  0.00     0.202 C 
BRANCH   4   5
ATOM      5  C   UNL A   1      44.091  18.087  26.071  1.00  0.00     0.261 C 
BRANCH   5   6
ATOM      6  O   UNL A   1      44.849  18.798  25.074  1.00  0.00    -0.460 OA
BRANCH   6   7
ATOM      7  C   UNL A   1      44.621  19.922  24.356  1.00  0.00     0.338 C 
ATOM      8  O   UNL A   1      44.530  19.803  23.132  1.00  0.00    -0.246 OA
BRANCH   7   9
ATOM      9  C   UNL A   1      44.559  21.307  24.915  1.00  0.00     0.060 A 
ATOM     10  C   UNL A   1      44.217  22.445  24.195  1.00  0.00     0.016 A 
ATOM     11  C   UNL A   1      44.790  21.463  26.295  1.00  0.00     0.016 A 
ATOM     12  C   UNL A   1      44.129  23.694  24.770  1.00  0.00     0.010 A 
ATOM     13  C   UNL A   1      44.753  22.727  26.890  1.00  0.00     0.010 A 
ATOM     14  C   UNL A   1      44.467  23.847  26.103  1.00  0.00    -0.014 A 
BRANCH  14  15
ATOM     15  C   UNL A   1      44.845  25.210  26.486  1.00  0.00     0.031 A 
ATOM     16  C   UNL A   1      43.851  25.970  27.310  1.00  0.00     0.074 A 
ATOM     17  C   UNL A   1      46.112  25.624  26.318  1.00  0.00     0.049 A 
ATOM     18  N   UNL A   1      43.915  27.183  27.777  1.00  0.00    -0.248 NA
ATOM     19  C   UNL A   1      42.618  25.248  27.684  1.00  0.00     0.031 C 
ATOM     20  C   UNL A   1      47.188  24.828  25.723  1.00  0.00     0.029 A 
ATOM     21  N   UNL A   1      46.713  26.799  26.666  1.00  0.00    -0.354 N 
ATOM     22  C   UNL A   1      42.701  27.395  28.420  1.00  0.00     0.074 A 
ATOM     23  C   UNL A   1      41.934  26.179  28.324  1.00  0.00     0.031 C 
ATOM     24  C   UNL A   1      48.322  25.547  25.739  1.00  0.00     0.029 A 
ATOM     25  C   UNL A   1      48.026  26.870  26.271  1.00  0.00     0.049 A 
ATOM     26  H   UNL A   1      46.252  27.522  27.151  1.00  0.00     0.167 HD
ATOM     27  C   UNL A   1      42.268  28.527  29.013  1.00  0.00     0.034 A 
ATOM     28  C   UNL A   1      48.863  27.922  26.298  1.00  0.00     0.034 A 
ATOM     29  C   UNL A   1      43.077  29.708  29.085  1.00  0.00     0.049 A 
ATOM     30  C   UNL A   1      48.326  29.205  26.870  1.00  0.00     0.074 A 
ATOM     31  C   UNL A   1      42.759  30.952  29.589  1.00  0.00     0.029 A 
ATOM     32  N   UNL A   1      44.383  29.780  28.613  1.00  0.00    -0.354 N 
ATOM     33  N   UNL A   1      47.156  29.435  27.424  1.00  0.00    -0.248 NA
ATOM     34  C   UNL A   1      49.214  30.371  26.833  1.00  0.00     0.031 C 
ATOM     35  C   UNL A   1      43.859  31.790  29.378  1.00  0.00     0.029 A 
ATOM     36  C   UNL A   1      44.884  31.051  28.797  1.00  0.00     0.049 A 
ATOM     37  H   UNL A   1      44.879  29.032  28.207  1.00  0.00     0.167 HD
ATOM     38  C   UNL A   1      47.179  30.758  27.836  1.00  0.00     0.074 A 
ATOM     39  C   UNL A   1      48.487  31.275  27.476  1.00  0.00     0.031 C 
ATOM     40  C   UNL A   1      46.216  31.489  28.452  1.00  0.00     0.034 A 
BRANCH  27  41
ATOM     41  C   UNL A   1      40.844  28.539  29.501  1.00  0.00     0.023 A 
ATOM     42  C   UNL A   1      40.468  27.836  30.664  1.00  0.00     0.012 A 
ATOM     43  C   UNL A   1      39.854  29.190  28.739  1.00  0.00     0.148 A 
ATOM     44  C   UNL A   1      39.124  27.736  31.028  1.00  0.00     0.002 A 
ATOM     45  C   UNL A   1      38.526  29.129  29.136  1.00  0.00     0.091 A 
ATOM     46  F   UNL A   1      40.226  29.817  27.614  1.00  0.00    -0.205 F 
ATOM     47  C   UNL A   1      38.155  28.387  30.268  1.00  0.00     0.022 A 
BRANCH  45  48
ATOM     48  S   UNL A   1      37.217  29.987  28.256  1.00  0.00     0.127 S 
ATOM     49  O   UNL A   1      36.036  29.592  29.023  1.00  0.00    -0.237 OA
ATOM     50  O   UNL A   1      37.609  31.387  28.418  1.00  0.00    -0.237 OA
ATOM     51  O   UNL A   1      37.264  29.497  26.886  1.00  0.00    -0.744 OA
ENDBRANCH  45  48
ENDBRANCH  27  41
BRANCH  28  52
ATOM     52  C   UNL A   1      50.244  27.805  25.753  1.00  0.00     0.023 A 
ATOM     53  C   UNL A   1      51.340  27.722  26.632  1.00  0.00     0.012 A 
ATOM     54  C   UNL A   1      50.478  27.747  24.362  1.00  0.00     0.148 A 
ATOM     55  C   UNL A   1      52.641  27.608  26.139  1.00  0.00     0.002 A 
ATOM     56  C   UNL A   1      51.770  27.582  23.879  1.00  0.00     0.091 A 
ATOM     57  F   UNL A   1      49.425  27.840  23.538  1.00  0.00    -0.205 F 
ATOM     58  C   UNL A   1      52.856  27.530  24.766  1.00  0.00     0.022 A 
BRANCH  56  59
ATOM     59  S   UNL A   1      52.131  27.361  22.133  1.00  0.00     0.127 S 
ATOM     60  O   UNL A   1      53.277  26.456  22.177  1.00  0.00    -0.237 OA
ATOM     61  O   UNL A   1      50.890  26.760  21.644  1.00  0.00    -0.237 OA
ATOM     62  O   UNL A   1      52.402  28.693  21.611  1.00  0.00    -0.744 OA
ENDBRANCH  56  59
ENDBRANCH  28  52
BRANCH  40  63
ATOM     63  C   UNL A   1      46.570  32.898  28.831  1.00  0.00     0.023 A 
ATOM     64  C   UNL A   1      47.265  33.159  30.026  1.00  0.00     0.012 A 
ATOM     65  C   UNL A   1      46.289  33.950  27.938  1.00  0.00     0.148 A 
ATOM     66  C   UNL A   1      47.647  34.460  30.344  1.00  0.00     0.002 A 
ATOM     67  C   UNL A   1      46.728  35.230  28.231  1.00  0.00     0.091 A 
ATOM     68  F   UNL A   1      45.607  33.673  26.816  1.00  0.00    -0.205 F 
ATOM     69  C   UNL A   1      47.392  35.492  29.440  1.00  0.00     0.022 A 
BRANCH  67  70
ATOM     70  S   UNL A   1      46.553  36.586  27.068  1.00  0.00     0.127 S 
ATOM     71  O   UNL A   1      45.124  36.537  26.766  1.00  0.00    -0.237 OA
ATOM     72  O   UNL A   1      46.970  37.736  27.872  1.00  0.00    -0.237 OA
ATOM     73  O   UNL A   1      47.438  36.277  25.954  1.00  0.00    -0.744 OA
ENDBRANCH  67  70
ENDBRANCH  40  63
ENDBRANCH  14  15
ENDBRANCH   7   9
ENDBRANCH   6   7
ENDBRANCH   5   6
ENDBRANCH   4   5
ENDBRANCH   3   4
ENDBRANCH   2   3
ENDBRANCH   1   2
BRANCH   1  74
ATOM     74  O   UNL A   1      39.940  22.317  27.046  1.00  0.00    -0.377 OA
BRANCH  74  75
ATOM     75  C   UNL A   1      39.003  21.791  26.122  1.00  0.00     0.188 C 
BRANCH  75  76
ATOM     76  C   UNL A   1      37.756  22.604  25.750  1.00  0.00     0.188 C 
BRANCH  76  77
ATOM     77  O   UNL A   1      36.567  21.862  25.711  1.00  0.00    -0.376 OA
BRANCH  77  78
ATOM     78  C   UNL A   1      35.316  22.455  25.999  1.00  0.00     0.202 C 
BRANCH  78  79
ATOM     79  C   UNL A   1      34.860  23.899  25.671  1.00  0.00     0.261 C 
BRANCH  79  80
ATOM     80  O   UNL A   1      33.580  24.414  26.068  1.00  0.00    -0.462 OA
BRANCH  80  81
ATOM     81  C   UNL A   1      32.492  23.763  25.597  1.00  0.00     0.329 C 
ATOM     82  O   UNL A   1      31.968  22.810  26.165  1.00  0.00    -0.250 OA
BRANCH  81  83
ATOM     83  C   UNL A   1      31.917  24.363  24.306  1.00  0.00     0.206 C 
ATOM     84  C   UNL A   1      30.419  24.394  23.991  1.00  0.00     0.109 C 
ATOM     85  N   UNL A   1      32.501  25.633  23.872  1.00  0.00    -0.309 N 
ATOM     86  S   UNL A   1      29.923  26.131  23.731  1.00  0.00    -0.126 SA
ATOM     87  C   UNL A   1      31.645  26.821  23.838  1.00  0.00     0.116 C 
ATOM     88  C   UNL A   1      33.226  25.471  22.681  1.00  0.00     0.224 C 
ATOM     89  C   UNL A   1      32.024  27.459  22.481  1.00  0.00     0.055 C 
ATOM     90  C   UNL A   1      32.572  26.327  21.640  1.00  0.00     0.104 C 
ATOM     91  O   UNL A   1      34.035  24.595  22.447  1.00  0.00    -0.275 OA
BRANCH  87  92
ATOM     92  C   UNL A   1      31.788  27.815  25.019  1.00  0.00    -0.012 A 
ATOM     93  C   UNL A   1      31.724  27.384  26.354  1.00  0.00     0.007 A 
ATOM     94  C   UNL A   1      31.924  29.212  24.859  1.00  0.00     0.007 A 
ATOM     95  C   UNL A   1      31.795  28.260  27.449  1.00  0.00     0.000 A 
ATOM     96  C   UNL A   1      31.983  30.099  25.949  1.00  0.00     0.000 A 
ATOM     97  C   UNL A   1      31.925  29.623  27.248  1.00  0.00     0.000 A 
ENDBRANCH  87  92
ENDBRANCH  81  83
ENDBRANCH  80  81
ENDBRANCH  79  80
ENDBRANCH  78  79
ENDBRANCH  77  78
ENDBRANCH  76  77
ENDBRANCH  75  76
ENDBRANCH  74  75
ENDBRANCH   1  74
TORSDOF 24
ENDMDL
