MODEL 1
REMARK VINA RESULT:     -10.9      0.000      0.000
REMARK SMILES Cc1ccc(C(=O)N2CCC3(CCC(=O)N(CC(=O)OCCOCCOCCOCCOC(=O)c4ccc(-c5c6nc(c(-c7cccc(S(=O)(=O)[O-])c7F)c7ccc([nH]7)c(-c7cccc(S(=O)(=O)[O-])c7F)c7nc(c(-c8cccc(S(=O)(=O)[O-])c8F)c8ccc5[nH]8)C=C7)C=C6)cc4)C3)CC2)cc1O
REMARK SMILES IDX 26 1 25 2 24 3 23 4 22 5 21 6 20 7 18 8 19 9 17 10 16 11
REMARK SMILES IDX 6 12 7 13 8 14 9 15 100 16 10 17 99 18 11 19 12 20 98 21
REMARK SMILES IDX 13 22 14 23 15 24 5 25 1 26 2 27 3 28 102 29 4 30 101 31
REMARK SMILES IDX 103 32 27 34 28 35 29 36 30 37 31 38 32 39 33 40 34 41 35 42
REMARK SMILES IDX 36 43 97 44 37 45 96 46 38 47 39 48 40 49 90 50 41 51 95 52
REMARK SMILES IDX 89 53 91 54 42 55 94 56 88 57 87 58 43 60 75 61 55 62 74 63
REMARK SMILES IDX 56 64 59 65 73 66 92 67 57 68 58 69 72 71 93 72 60 73 44 74
REMARK SMILES IDX 45 75 53 76 46 77 48 78 54 79 47 80 49 81 50 82 51 83 52 84
REMARK SMILES IDX 76 85 77 86 85 87 78 88 80 89 86 90 79 91 81 92 82 93 83 94
REMARK SMILES IDX 84 95 61 96 62 97 70 98 63 99 65 100 71 101 64 102 66 103
REMARK SMILES IDX 67 104 68 105 69 106
REMARK H PARENT 103 33 91 59 59 70
REMARK Flexibility Score: inf
ROOT
ATOM      1  O   UNL A   1      36.439  23.317  25.106  1.00  0.00    -0.377 OA
ENDROOT
BRANCH   1   2
ATOM      2  C   UNL A   1      36.141  23.140  23.743  1.00  0.00     0.188 C 
BRANCH   2   3
ATOM      3  C   UNL A   1      34.805  23.757  23.334  1.00  0.00     0.188 C 
BRANCH   3   4
ATOM      4  O   UNL A   1      34.256  23.464  22.056  1.00  0.00    -0.376 OA
BRANCH   4   5
ATOM      5  C   UNL A   1      32.979  23.994  21.693  1.00  0.00     0.202 C 
BRANCH   5   6
ATOM      6  C   UNL A   1      32.865  24.998  20.521  1.00  0.00     0.261 C 
BRANCH   6   7
ATOM      7  O   UNL A   1      32.483  26.356  20.872  1.00  0.00    -0.462 OA
BRANCH   7   8
ATOM      8  C   UNL A   1      33.253  27.016  21.767  1.00  0.00     0.325 C 
ATOM      9  O   UNL A   1      34.471  26.862  21.864  1.00  0.00    -0.250 OA
BRANCH   8  10
ATOM     10  C   UNL A   1      32.538  28.099  22.621  1.00  0.00     0.242 C 
BRANCH  10  11
ATOM     11  N   UNL A   1      31.352  27.891  23.479  1.00  0.00    -0.331 N 
ATOM     12  C   UNL A   1      33.323  22.561  26.687  1.00  0.00     0.253 C 
ATOM     13  O   UNL A   1      34.343  22.507  27.373  1.00  0.00    -0.269 OA
ATOM     14  N   UNL A   1      32.628  23.745  26.497  1.00  0.00    -0.339 N 
ATOM     15  C   UNL A   1      33.398  24.960  26.344  1.00  0.00     0.120 C 
ATOM     16  C   UNL A   1      31.177  23.892  26.607  1.00  0.00     0.120 C 
ATOM     17  C   UNL A   1      32.923  25.660  25.072  1.00  0.00     0.030 C 
ATOM     18  C   UNL A   1      30.599  24.714  25.453  1.00  0.00     0.030 C 
ATOM     19  C   UNL A   1      31.407  25.996  25.130  1.00  0.00    -0.008 C 
ATOM     20  C   UNL A   1      31.141  27.064  26.231  1.00  0.00     0.019 C 
ATOM     21  C   UNL A   1      30.911  26.534  23.744  1.00  0.00     0.127 C 
ATOM     22  C   UNL A   1      31.714  28.414  25.818  1.00  0.00     0.101 C 
ATOM     23  C   UNL A   1      31.013  28.746  24.525  1.00  0.00     0.223 C 
ATOM     24  O   UNL A   1      30.008  29.444  24.547  1.00  0.00    -0.275 OA
BRANCH  12  25
ATOM     25  C   UNL A   1      32.941  21.382  25.859  1.00  0.00     0.043 A 
ATOM     26  C   UNL A   1      32.385  17.921  23.335  1.00  0.00     0.048 C 
ATOM     27  C   UNL A   1      32.563  19.103  24.240  1.00  0.00    -0.009 A 
ATOM     28  C   UNL A   1      32.426  20.385  23.704  1.00  0.00     0.008 A 
ATOM     29  C   UNL A   1      32.904  18.981  25.594  1.00  0.00     0.119 A 
ATOM     30  C   UNL A   1      32.640  21.509  24.499  1.00  0.00     0.014 A 
ATOM     31  C   UNL A   1      33.078  20.104  26.403  1.00  0.00     0.060 A 
BRANCH  29  32
ATOM     32  O   UNL A   1      33.119  17.771  26.192  1.00  0.00    -0.508 OA
ATOM     33  H   UNL A   1      33.370  17.733  27.094  1.00  0.00     0.293 HD
ENDBRANCH  29  32
ENDBRANCH  12  25
ENDBRANCH  10  11
ENDBRANCH   8  10
ENDBRANCH   7   8
ENDBRANCH   6   7
ENDBRANCH   5   6
ENDBRANCH   4   5
ENDBRANCH   3   4
ENDBRANCH   2   3
ENDBRANCH   1   2
BRANCH   1  34
ATOM     34  C   UNL A   1      37.784  23.255  25.536  1.00  0.00     0.188 C 
BRANCH  34  35
ATOM     35  C   UNL A   1      38.313  21.855  25.845  1.00  0.00     0.188 C 
BRANCH  35  36
ATOM     36  O   UNL A   1      37.961  20.894  24.858  1.00  0.00    -0.376 OA
BRANCH  36  37
ATOM     37  C   UNL A   1      38.470  19.571  24.968  1.00  0.00     0.202 C 
BRANCH  37  38
ATOM     38  C   UNL A   1      39.525  19.212  26.032  1.00  0.00     0.261 C 
BRANCH  38  39
ATOM     39  O   UNL A   1      40.913  19.316  25.682  1.00  0.00    -0.460 OA
BRANCH  39  40
ATOM     40  C   UNL A   1      41.822  19.609  26.626  1.00  0.00     0.338 C 
ATOM     41  O   UNL A   1      42.648  18.852  27.114  1.00  0.00    -0.246 OA
BRANCH  40  42
ATOM     42  C   UNL A   1      41.785  21.072  26.843  1.00  0.00     0.060 A 
ATOM     43  C   UNL A   1      41.772  21.927  25.732  1.00  0.00     0.016 A 
ATOM     44  C   UNL A   1      41.775  21.596  28.137  1.00  0.00     0.016 A 
ATOM     45  C   UNL A   1      41.796  23.311  25.912  1.00  0.00     0.010 A 
ATOM     46  C   UNL A   1      41.823  22.981  28.315  1.00  0.00     0.010 A 
ATOM     47  C   UNL A   1      41.875  23.843  27.204  1.00  0.00    -0.014 A 
BRANCH  47  48
ATOM     48  C   UNL A   1      42.225  25.270  27.406  1.00  0.00     0.031 A 
ATOM     49  C   UNL A   1      43.587  25.731  26.966  1.00  0.00     0.074 A 
ATOM     50  C   UNL A   1      41.373  26.130  27.991  1.00  0.00     0.049 A 
ATOM     51  N   UNL A   1      44.173  26.884  27.148  1.00  0.00    -0.248 NA
ATOM     52  C   UNL A   1      44.403  24.752  26.226  1.00  0.00     0.031 C 
ATOM     53  C   UNL A   1      40.017  25.811  28.432  1.00  0.00     0.029 A 
ATOM     54  N   UNL A   1      41.544  27.445  28.351  1.00  0.00    -0.354 N 
ATOM     55  C   UNL A   1      45.439  26.756  26.588  1.00  0.00     0.074 A 
ATOM     56  C   UNL A   1      45.538  25.415  26.058  1.00  0.00     0.031 C 
ATOM     57  C   UNL A   1      39.495  26.888  29.046  1.00  0.00     0.029 A 
ATOM     58  C   UNL A   1      40.493  27.956  29.074  1.00  0.00     0.049 A 
ATOM     59  H   UNL A   1      42.343  27.970  28.113  1.00  0.00     0.167 HD
ATOM     60  C   UNL A   1      46.430  27.675  26.522  1.00  0.00     0.034 A 
ATOM     61  C   UNL A   1      40.370  29.133  29.722  1.00  0.00     0.034 A 
ATOM     62  C   UNL A   1      46.322  29.010  27.039  1.00  0.00     0.049 A 
ATOM     63  C   UNL A   1      41.505  30.127  29.668  1.00  0.00     0.074 A 
ATOM     64  C   UNL A   1      47.254  30.031  26.983  1.00  0.00     0.029 A 
ATOM     65  N   UNL A   1      45.223  29.505  27.723  1.00  0.00    -0.354 N 
ATOM     66  N   UNL A   1      42.663  30.026  29.060  1.00  0.00    -0.248 NA
ATOM     67  C   UNL A   1      41.307  31.408  30.364  1.00  0.00     0.031 C 
ATOM     68  C   UNL A   1      46.736  31.130  27.674  1.00  0.00     0.029 A 
ATOM     69  C   UNL A   1      45.459  30.812  28.109  1.00  0.00     0.049 A 
ATOM     70  H   UNL A   1      44.397  29.001  27.908  1.00  0.00     0.167 HD
ATOM     71  C   UNL A   1      43.306  31.245  29.256  1.00  0.00     0.074 A 
ATOM     72  C   UNL A   1      42.409  32.070  30.038  1.00  0.00     0.031 C 
ATOM     73  C   UNL A   1      44.529  31.643  28.830  1.00  0.00     0.034 A 
BRANCH  60  74
ATOM     74  C   UNL A   1      47.724  27.268  25.869  1.00  0.00     0.023 A 
ATOM     75  C   UNL A   1      48.717  26.607  26.619  1.00  0.00     0.012 A 
ATOM     76  C   UNL A   1      47.927  27.483  24.491  1.00  0.00     0.148 A 
ATOM     77  C   UNL A   1      49.906  26.196  26.016  1.00  0.00     0.002 A 
ATOM     78  C   UNL A   1      49.090  27.026  23.887  1.00  0.00     0.091 A 
ATOM     79  F   UNL A   1      46.979  28.132  23.800  1.00  0.00    -0.205 F 
ATOM     80  C   UNL A   1      50.086  26.395  24.649  1.00  0.00     0.022 A 
BRANCH  78  81
ATOM     81  S   UNL A   1      49.380  27.159  22.119  1.00  0.00     0.127 S 
ATOM     82  O   UNL A   1      48.860  28.496  21.835  1.00  0.00    -0.237 OA
ATOM     83  O   UNL A   1      50.836  27.041  22.039  1.00  0.00    -0.237 OA
ATOM     84  O   UNL A   1      48.645  26.062  21.505  1.00  0.00    -0.744 OA
ENDBRANCH  78  81
ENDBRANCH  60  74
BRANCH  61  85
ATOM     85  C   UNL A   1      39.124  29.445  30.480  1.00  0.00     0.023 A 
ATOM     86  C   UNL A   1      38.879  28.809  31.713  1.00  0.00     0.012 A 
ATOM     87  C   UNL A   1      38.179  30.365  29.983  1.00  0.00     0.148 A 
ATOM     88  C   UNL A   1      37.700  29.055  32.419  1.00  0.00     0.002 A 
ATOM     89  C   UNL A   1      37.035  30.650  30.719  1.00  0.00     0.091 A 
ATOM     90  F   UNL A   1      38.421  30.947  28.801  1.00  0.00    -0.205 F 
ATOM     91  C   UNL A   1      36.784  29.982  31.928  1.00  0.00     0.022 A 
BRANCH  89  92
ATOM     92  S   UNL A   1      35.859  31.916  30.226  1.00  0.00     0.127 S 
ATOM     93  O   UNL A   1      34.902  31.883  31.329  1.00  0.00    -0.237 OA
ATOM     94  O   UNL A   1      36.704  33.109  30.180  1.00  0.00    -0.237 OA
ATOM     95  O   UNL A   1      35.342  31.496  28.931  1.00  0.00    -0.744 OA
ENDBRANCH  89  92
ENDBRANCH  61  85
BRANCH  73  96
ATOM     96  C   UNL A   1      44.959  33.059  29.115  1.00  0.00     0.023 A 
ATOM     97  C   UNL A   1      45.623  33.376  30.314  1.00  0.00     0.012 A 
ATOM     98  C   UNL A   1      44.802  34.052  28.125  1.00  0.00     0.148 A 
ATOM     99  C   UNL A   1      46.105  34.666  30.535  1.00  0.00     0.002 A 
ATOM    100  C   UNL A   1      45.333  35.319  28.328  1.00  0.00     0.091 A 
ATOM    101  F   UNL A   1      44.155  33.730  26.996  1.00  0.00    -0.205 F 
ATOM    102  C   UNL A   1      45.974  35.632  29.537  1.00  0.00     0.022 A 
BRANCH 100 103
ATOM    103  S   UNL A   1      45.305  36.592  27.061  1.00  0.00     0.127 S 
ATOM    104  O   UNL A   1      45.992  35.926  25.955  1.00  0.00    -0.237 OA
ATOM    105  O   UNL A   1      43.870  36.789  26.857  1.00  0.00    -0.237 OA
ATOM    106  O   UNL A   1      46.002  37.740  27.624  1.00  0.00    -0.744 OA
ENDBRANCH 100 103
ENDBRANCH  73  96
ENDBRANCH  47  48
ENDBRANCH  40  42
ENDBRANCH  39  40
ENDBRANCH  38  39
ENDBRANCH  37  38
ENDBRANCH  36  37
ENDBRANCH  35  36
ENDBRANCH  34  35
ENDBRANCH   1  34
TORSDOF 26
ENDMDL
MODEL 2
REMARK VINA RESULT:     -10.4      1.672      2.739
REMARK SMILES Cc1ccc(C(=O)N2CCC3(CCC(=O)N(CC(=O)OCCOCCOCCOCCOC(=O)c4ccc(-c5c6nc(c(-c7cccc(S(=O)(=O)[O-])c7F)c7ccc([nH]7)c(-c7cccc(S(=O)(=O)[O-])c7F)c7nc(c(-c8cccc(S(=O)(=O)[O-])c8F)c8ccc5[nH]8)C=C7)C=C6)cc4)C3)CC2)cc1O
REMARK SMILES IDX 26 1 25 2 24 3 23 4 22 5 21 6 20 7 18 8 19 9 17 10 16 11
REMARK SMILES IDX 6 12 7 13 8 14 9 15 100 16 10 17 99 18 11 19 12 20 98 21
REMARK SMILES IDX 13 22 14 23 15 24 5 25 1 26 2 27 3 28 102 29 4 30 101 31
REMARK SMILES IDX 103 32 27 34 28 35 29 36 30 37 31 38 32 39 33 40 34 41 35 42
REMARK SMILES IDX 36 43 97 44 37 45 96 46 38 47 39 48 40 49 90 50 41 51 95 52
REMARK SMILES IDX 89 53 91 54 42 55 94 56 88 57 87 58 43 60 75 61 55 62 74 63
REMARK SMILES IDX 56 64 59 65 73 66 92 67 57 68 58 69 72 71 93 72 60 73 44 74
REMARK SMILES IDX 45 75 53 76 46 77 48 78 54 79 47 80 49 81 50 82 51 83 52 84
REMARK SMILES IDX 76 85 77 86 85 87 78 88 80 89 86 90 79 91 81 92 82 93 83 94
REMARK SMILES IDX 84 95 61 96 62 97 70 98 63 99 65 100 71 101 64 102 66 103
REMARK SMILES IDX 67 104 68 105 69 106
REMARK H PARENT 103 33 91 59 59 70
REMARK Flexibility Score: inf
ROOT
ATOM      1  O   UNL A   1      35.867  23.466  26.502  1.00  0.00    -0.377 OA
ENDROOT
BRANCH   1   2
ATOM      2  C   UNL A   1      34.879  22.475  26.362  1.00  0.00     0.188 C 
BRANCH   2   3
ATOM      3  C   UNL A   1      34.048  22.273  27.629  1.00  0.00     0.188 C 
BRANCH   3   4
ATOM      4  O   UNL A   1      32.661  22.584  27.616  1.00  0.00    -0.376 OA
BRANCH   4   5
ATOM      5  C   UNL A   1      32.228  23.887  27.223  1.00  0.00     0.202 C 
BRANCH   5   6
ATOM      6  C   UNL A   1      30.827  24.078  26.593  1.00  0.00     0.261 C 
BRANCH   6   7
ATOM      7  O   UNL A   1      30.258  25.413  26.684  1.00  0.00    -0.462 OA
BRANCH   7   8
ATOM      8  C   UNL A   1      30.521  26.281  25.680  1.00  0.00     0.325 C 
ATOM      9  O   UNL A   1      29.779  26.450  24.711  1.00  0.00    -0.250 OA
BRANCH   8  10
ATOM     10  C   UNL A   1      31.780  27.173  25.857  1.00  0.00     0.242 C 
BRANCH  10  11
ATOM     11  N   UNL A   1      33.046  27.054  25.103  1.00  0.00    -0.331 N 
ATOM     12  C   UNL A   1      31.984  21.304  22.206  1.00  0.00     0.253 C 
ATOM     13  O   UNL A   1      31.035  21.074  21.457  1.00  0.00    -0.269 OA
ATOM     14  N   UNL A   1      32.516  22.575  22.348  1.00  0.00    -0.339 N 
ATOM     15  C   UNL A   1      31.597  23.693  22.349  1.00  0.00     0.120 C 
ATOM     16  C   UNL A   1      33.943  22.894  22.327  1.00  0.00     0.120 C 
ATOM     17  C   UNL A   1      31.883  24.536  23.590  1.00  0.00     0.030 C 
ATOM     18  C   UNL A   1      34.326  23.862  23.449  1.00  0.00     0.030 C 
ATOM     19  C   UNL A   1      33.348  25.053  23.610  1.00  0.00    -0.008 C 
ATOM     20  C   UNL A   1      33.571  26.064  22.447  1.00  0.00     0.019 C 
ATOM     21  C   UNL A   1      33.666  25.747  24.979  1.00  0.00     0.127 C 
ATOM     22  C   UNL A   1      32.811  27.359  22.710  1.00  0.00     0.101 C 
ATOM     23  C   UNL A   1      33.363  27.867  24.017  1.00  0.00     0.223 C 
ATOM     24  O   UNL A   1      34.276  28.682  24.009  1.00  0.00    -0.275 OA
BRANCH  12  25
ATOM     25  C   UNL A   1      32.437  20.244  23.151  1.00  0.00     0.043 A 
ATOM     26  C   UNL A   1      33.200  17.048  25.955  1.00  0.00     0.048 C 
ATOM     27  C   UNL A   1      32.956  18.139  24.956  1.00  0.00    -0.009 A 
ATOM     28  C   UNL A   1      32.832  19.452  25.414  1.00  0.00     0.008 A 
ATOM     29  C   UNL A   1      32.804  17.896  23.584  1.00  0.00     0.119 A 
ATOM     30  C   UNL A   1      32.548  20.486  24.524  1.00  0.00     0.014 A 
ATOM     31  C   UNL A   1      32.561  18.934  22.685  1.00  0.00     0.060 A 
BRANCH  29  32
ATOM     32  O   UNL A   1      32.848  16.638  23.051  1.00  0.00    -0.508 OA
ATOM     33  H   UNL A   1      32.968  16.525  22.129  1.00  0.00     0.293 HD
ENDBRANCH  29  32
ENDBRANCH  12  25
ENDBRANCH  10  11
ENDBRANCH   8  10
ENDBRANCH   7   8
ENDBRANCH   6   7
ENDBRANCH   5   6
ENDBRANCH   4   5
ENDBRANCH   3   4
ENDBRANCH   2   3
ENDBRANCH   1   2
BRANCH   1  34
ATOM     34  C   UNL A   1      37.053  23.376  25.736  1.00  0.00     0.188 C 
BRANCH  34  35
ATOM     35  C   UNL A   1      37.846  22.081  25.901  1.00  0.00     0.188 C 
BRANCH  35  36
ATOM     36  O   UNL A   1      37.687  21.185  24.808  1.00  0.00    -0.376 OA
BRANCH  36  37
ATOM     37  C   UNL A   1      38.382  19.944  24.824  1.00  0.00     0.202 C 
BRANCH  37  38
ATOM     38  C   UNL A   1      39.330  19.580  25.983  1.00  0.00     0.261 C 
BRANCH  38  39
ATOM     39  O   UNL A   1      40.710  19.321  25.683  1.00  0.00    -0.460 OA
BRANCH  39  40
ATOM     40  C   UNL A   1      41.656  19.584  26.599  1.00  0.00     0.338 C 
ATOM     41  O   UNL A   1      42.493  18.808  27.036  1.00  0.00    -0.246 OA
BRANCH  40  42
ATOM     42  C   UNL A   1      41.640  21.040  26.854  1.00  0.00     0.060 A 
ATOM     43  C   UNL A   1      41.495  21.921  25.773  1.00  0.00     0.016 A 
ATOM     44  C   UNL A   1      41.777  21.534  28.153  1.00  0.00     0.016 A 
ATOM     45  C   UNL A   1      41.536  23.301  25.983  1.00  0.00     0.010 A 
ATOM     46  C   UNL A   1      41.841  22.914  28.358  1.00  0.00     0.010 A 
ATOM     47  C   UNL A   1      41.761  23.802  27.269  1.00  0.00    -0.014 A 
BRANCH  47  48
ATOM     48  C   UNL A   1      42.127  25.227  27.464  1.00  0.00     0.031 A 
ATOM     49  C   UNL A   1      43.501  25.666  27.038  1.00  0.00     0.074 A 
ATOM     50  C   UNL A   1      41.280  26.102  28.032  1.00  0.00     0.049 A 
ATOM     51  N   UNL A   1      44.100  26.813  27.218  1.00  0.00    -0.248 NA
ATOM     52  C   UNL A   1      44.313  24.670  26.316  1.00  0.00     0.031 C 
ATOM     53  C   UNL A   1      39.914  25.805  28.458  1.00  0.00     0.029 A 
ATOM     54  N   UNL A   1      41.464  27.418  28.383  1.00  0.00    -0.354 N 
ATOM     55  C   UNL A   1      45.371  26.664  26.676  1.00  0.00     0.074 A 
ATOM     56  C   UNL A   1      45.459  25.316  26.157  1.00  0.00     0.031 C 
ATOM     57  C   UNL A   1      39.399  26.894  29.056  1.00  0.00     0.029 A 
ATOM     58  C   UNL A   1      40.410  27.949  29.088  1.00  0.00     0.049 A 
ATOM     59  H   UNL A   1      42.273  27.931  28.150  1.00  0.00     0.167 HD
ATOM     60  C   UNL A   1      46.375  27.569  26.614  1.00  0.00     0.034 A 
ATOM     61  C   UNL A   1      40.295  29.133  29.725  1.00  0.00     0.034 A 
ATOM     62  C   UNL A   1      46.278  28.909  27.119  1.00  0.00     0.049 A 
ATOM     63  C   UNL A   1      41.444  30.111  29.677  1.00  0.00     0.074 A 
ATOM     64  C   UNL A   1      47.224  29.917  27.066  1.00  0.00     0.029 A 
ATOM     65  N   UNL A   1      45.177  29.424  27.785  1.00  0.00    -0.354 N 
ATOM     66  N   UNL A   1      42.608  29.990  29.085  1.00  0.00    -0.248 NA
ATOM     67  C   UNL A   1      41.254  31.400  30.361  1.00  0.00     0.031 C 
ATOM     68  C   UNL A   1      46.713  31.028  27.742  1.00  0.00     0.029 A 
ATOM     69  C   UNL A   1      45.426  30.731  28.163  1.00  0.00     0.049 A 
ATOM     70  H   UNL A   1      44.343  28.933  27.963  1.00  0.00     0.167 HD
ATOM     71  C   UNL A   1      43.264  31.202  29.279  1.00  0.00     0.074 A 
ATOM     72  C   UNL A   1      42.369  32.045  30.043  1.00  0.00     0.031 C 
ATOM     73  C   UNL A   1      44.498  31.580  28.865  1.00  0.00     0.034 A 
BRANCH  60  74
ATOM     74  C   UNL A   1      47.672  27.139  25.981  1.00  0.00     0.023 A 
ATOM     75  C   UNL A   1      47.929  27.433  24.627  1.00  0.00     0.012 A 
ATOM     76  C   UNL A   1      48.664  26.499  26.750  1.00  0.00     0.148 A 
ATOM     77  C   UNL A   1      49.140  27.069  24.039  1.00  0.00     0.002 A 
ATOM     78  C   UNL A   1      49.887  26.185  26.171  1.00  0.00     0.091 A 
ATOM     79  F   UNL A   1      48.392  26.209  28.029  1.00  0.00    -0.205 F 
ATOM     80  C   UNL A   1      50.122  26.457  24.814  1.00  0.00     0.022 A 
BRANCH  78  81
ATOM     81  S   UNL A   1      51.245  25.472  27.106  1.00  0.00     0.127 S 
ATOM     82  O   UNL A   1      50.535  24.579  28.022  1.00  0.00    -0.237 OA
ATOM     83  O   UNL A   1      52.010  24.791  26.061  1.00  0.00    -0.237 OA
ATOM     84  O   UNL A   1      51.933  26.589  27.736  1.00  0.00    -0.744 OA
ENDBRANCH  78  81
ENDBRANCH  60  74
BRANCH  61  85
ATOM     85  C   UNL A   1      39.044  29.467  30.464  1.00  0.00     0.023 A 
ATOM     86  C   UNL A   1      38.799  28.882  31.722  1.00  0.00     0.012 A 
ATOM     87  C   UNL A   1      38.095  30.359  29.926  1.00  0.00     0.148 A 
ATOM     88  C   UNL A   1      37.615  29.149  32.413  1.00  0.00     0.002 A 
ATOM     89  C   UNL A   1      36.946  30.666  30.645  1.00  0.00     0.091 A 
ATOM     90  F   UNL A   1      38.338  30.893  28.721  1.00  0.00    -0.205 F 
ATOM     91  C   UNL A   1      36.694  30.048  31.880  1.00  0.00     0.022 A 
BRANCH  89  92
ATOM     92  S   UNL A   1      35.763  31.902  30.095  1.00  0.00     0.127 S 
ATOM     93  O   UNL A   1      34.861  31.985  31.241  1.00  0.00    -0.237 OA
ATOM     94  O   UNL A   1      36.620  33.072  29.900  1.00  0.00    -0.237 OA
ATOM     95  O   UNL A   1      35.178  31.375  28.870  1.00  0.00    -0.744 OA
ENDBRANCH  89  92
ENDBRANCH  61  85
BRANCH  73  96
ATOM     96  C   UNL A   1      44.943  32.992  29.144  1.00  0.00     0.023 A 
ATOM     97  C   UNL A   1      45.669  33.296  30.311  1.00  0.00     0.012 A 
ATOM     98  C   UNL A   1      44.735  33.997  28.176  1.00  0.00     0.148 A 
ATOM     99  C   UNL A   1      46.163  34.583  30.522  1.00  0.00     0.002 A 
ATOM    100  C   UNL A   1      45.277  35.262  28.366  1.00  0.00     0.091 A 
ATOM    101  F   UNL A   1      44.029  33.689  27.079  1.00  0.00    -0.205 F 
ATOM    102  C   UNL A   1      45.980  35.560  29.544  1.00  0.00     0.022 A 
BRANCH 100 103
ATOM    103  S   UNL A   1      45.183  36.550  27.117  1.00  0.00     0.127 S 
ATOM    104  O   UNL A   1      45.715  37.704  27.840  1.00  0.00    -0.237 OA
ATOM    105  O   UNL A   1      46.062  36.027  26.071  1.00  0.00    -0.237 OA
ATOM    106  O   UNL A   1      43.780  36.647  26.740  1.00  0.00    -0.744 OA
ENDBRANCH 100 103
ENDBRANCH  73  96
ENDBRANCH  47  48
ENDBRANCH  40  42
ENDBRANCH  39  40
ENDBRANCH  38  39
ENDBRANCH  37  38
ENDBRANCH  36  37
ENDBRANCH  35  36
ENDBRANCH  34  35
ENDBRANCH   1  34
TORSDOF 26
ENDMDL
MODEL 3
REMARK VINA RESULT:     -10.3      1.645      2.729
REMARK SMILES Cc1ccc(C(=O)N2CCC3(CCC(=O)N(CC(=O)OCCOCCOCCOCCOC(=O)c4ccc(-c5c6nc(c(-c7cccc(S(=O)(=O)[O-])c7F)c7ccc([nH]7)c(-c7cccc(S(=O)(=O)[O-])c7F)c7nc(c(-c8cccc(S(=O)(=O)[O-])c8F)c8ccc5[nH]8)C=C7)C=C6)cc4)C3)CC2)cc1O
REMARK SMILES IDX 26 1 25 2 24 3 23 4 22 5 21 6 20 7 18 8 19 9 17 10 16 11
REMARK SMILES IDX 6 12 7 13 8 14 9 15 100 16 10 17 99 18 11 19 12 20 98 21
REMARK SMILES IDX 13 22 14 23 15 24 5 25 1 26 2 27 3 28 102 29 4 30 101 31
REMARK SMILES IDX 103 32 27 34 28 35 29 36 30 37 31 38 32 39 33 40 34 41 35 42
REMARK SMILES IDX 36 43 97 44 37 45 96 46 38 47 39 48 40 49 90 50 41 51 95 52
REMARK SMILES IDX 89 53 91 54 42 55 94 56 88 57 87 58 43 60 75 61 55 62 74 63
REMARK SMILES IDX 56 64 59 65 73 66 92 67 57 68 58 69 72 71 93 72 60 73 44 74
REMARK SMILES IDX 45 75 53 76 46 77 48 78 54 79 47 80 49 81 50 82 51 83 52 84
REMARK SMILES IDX 76 85 77 86 85 87 78 88 80 89 86 90 79 91 81 92 82 93 83 94
REMARK SMILES IDX 84 95 61 96 62 97 70 98 63 99 65 100 71 101 64 102 66 103
REMARK SMILES IDX 67 104 68 105 69 106
REMARK H PARENT 103 33 91 59 59 70
REMARK Flexibility Score: inf
ROOT
ATOM      1  O   UNL A   1      36.039  23.150  26.610  1.00  0.00    -0.377 OA
ENDROOT
BRANCH   1   2
ATOM      2  C   UNL A   1      35.022  22.185  26.499  1.00  0.00     0.188 C 
BRANCH   2   3
ATOM      3  C   UNL A   1      34.044  22.205  27.673  1.00  0.00     0.188 C 
BRANCH   3   4
ATOM      4  O   UNL A   1      32.659  22.418  27.431  1.00  0.00    -0.376 OA
BRANCH   4   5
ATOM      5  C   UNL A   1      32.204  23.698  26.988  1.00  0.00     0.202 C 
BRANCH   5   6
ATOM      6  C   UNL A   1      30.716  23.901  26.614  1.00  0.00     0.261 C 
BRANCH   6   7
ATOM      7  O   UNL A   1      30.191  25.248  26.772  1.00  0.00    -0.462 OA
BRANCH   7   8
ATOM      8  C   UNL A   1      30.277  26.086  25.714  1.00  0.00     0.325 C 
ATOM      9  O   UNL A   1      29.480  26.083  24.774  1.00  0.00    -0.250 OA
BRANCH   8  10
ATOM     10  C   UNL A   1      31.387  27.170  25.786  1.00  0.00     0.242 C 
BRANCH  10  11
ATOM     11  N   UNL A   1      32.742  27.070  25.204  1.00  0.00    -0.331 N 
ATOM     12  C   UNL A   1      32.132  21.334  22.150  1.00  0.00     0.253 C 
ATOM     13  O   UNL A   1      31.292  21.102  21.282  1.00  0.00    -0.269 OA
ATOM     14  N   UNL A   1      32.627  22.610  22.370  1.00  0.00    -0.339 N 
ATOM     15  C   UNL A   1      31.703  23.718  22.259  1.00  0.00     0.120 C 
ATOM     16  C   UNL A   1      34.040  22.943  22.540  1.00  0.00     0.120 C 
ATOM     17  C   UNL A   1      31.815  24.554  23.533  1.00  0.00     0.030 C 
ATOM     18  C   UNL A   1      34.263  23.905  23.709  1.00  0.00     0.030 C 
ATOM     19  C   UNL A   1      33.259  25.085  23.749  1.00  0.00    -0.008 C 
ATOM     20  C   UNL A   1      33.622  26.109  22.633  1.00  0.00     0.019 C 
ATOM     21  C   UNL A   1      33.387  25.770  25.153  1.00  0.00     0.127 C 
ATOM     22  C   UNL A   1      32.820  27.393  22.803  1.00  0.00     0.101 C 
ATOM     23  C   UNL A   1      33.190  27.896  24.174  1.00  0.00     0.223 C 
ATOM     24  O   UNL A   1      34.087  28.719  24.293  1.00  0.00    -0.275 OA
BRANCH  12  25
ATOM     25  C   UNL A   1      32.468  20.271  23.139  1.00  0.00     0.043 A 
ATOM     26  C   UNL A   1      32.888  17.083  26.023  1.00  0.00     0.048 C 
ATOM     27  C   UNL A   1      32.765  18.170  24.998  1.00  0.00    -0.009 A 
ATOM     28  C   UNL A   1      32.644  19.491  25.434  1.00  0.00     0.008 A 
ATOM     29  C   UNL A   1      32.722  17.917  23.620  1.00  0.00     0.119 A 
ATOM     30  C   UNL A   1      32.470  20.524  24.515  1.00  0.00     0.014 A 
ATOM     31  C   UNL A   1      32.590  18.953  22.696  1.00  0.00     0.060 A 
BRANCH  29  32
ATOM     32  O   UNL A   1      32.771  16.654  23.103  1.00  0.00    -0.508 OA
ATOM     33  H   UNL A   1      32.992  15.930  23.655  1.00  0.00     0.293 HD
ENDBRANCH  29  32
ENDBRANCH  12  25
ENDBRANCH  10  11
ENDBRANCH   8  10
ENDBRANCH   7   8
ENDBRANCH   6   7
ENDBRANCH   5   6
ENDBRANCH   4   5
ENDBRANCH   3   4
ENDBRANCH   2   3
ENDBRANCH   1   2
BRANCH   1  34
ATOM     34  C   UNL A   1      37.062  23.195  25.634  1.00  0.00     0.188 C 
BRANCH  34  35
ATOM     35  C   UNL A   1      38.084  22.061  25.700  1.00  0.00     0.188 C 
BRANCH  35  36
ATOM     36  O   UNL A   1      37.813  21.009  24.783  1.00  0.00    -0.376 OA
BRANCH  36  37
ATOM     37  C   UNL A   1      38.549  19.796  24.884  1.00  0.00     0.202 C 
BRANCH  37  38
ATOM     38  C   UNL A   1      39.506  19.544  26.065  1.00  0.00     0.261 C 
BRANCH  38  39
ATOM     39  O   UNL A   1      40.874  19.217  25.779  1.00  0.00    -0.460 OA
BRANCH  39  40
ATOM     40  C   UNL A   1      41.841  19.569  26.641  1.00  0.00     0.338 C 
ATOM     41  O   UNL A   1      42.713  18.847  27.105  1.00  0.00    -0.246 OA
BRANCH  40  42
ATOM     42  C   UNL A   1      41.795  21.039  26.791  1.00  0.00     0.060 A 
ATOM     43  C   UNL A   1      41.959  21.847  25.657  1.00  0.00     0.016 A 
ATOM     44  C   UNL A   1      41.600  21.617  28.047  1.00  0.00     0.016 A 
ATOM     45  C   UNL A   1      41.977  23.237  25.783  1.00  0.00     0.010 A 
ATOM     46  C   UNL A   1      41.641  23.008  28.175  1.00  0.00     0.010 A 
ATOM     47  C   UNL A   1      41.871  23.822  27.050  1.00  0.00    -0.014 A 
BRANCH  47  48
ATOM     48  C   UNL A   1      42.208  25.253  27.244  1.00  0.00     0.031 A 
ATOM     49  C   UNL A   1      43.559  25.728  26.785  1.00  0.00     0.074 A 
ATOM     50  C   UNL A   1      41.355  26.105  27.839  1.00  0.00     0.049 A 
ATOM     51  N   UNL A   1      44.135  26.888  26.957  1.00  0.00    -0.248 NA
ATOM     52  C   UNL A   1      44.376  24.756  26.036  1.00  0.00     0.031 C 
ATOM     53  C   UNL A   1      40.008  25.773  28.299  1.00  0.00     0.029 A 
ATOM     54  N   UNL A   1      41.517  27.423  28.193  1.00  0.00    -0.354 N 
ATOM     55  C   UNL A   1      45.394  26.772  26.380  1.00  0.00     0.074 A 
ATOM     56  C   UNL A   1      45.501  25.430  25.852  1.00  0.00     0.031 C 
ATOM     57  C   UNL A   1      39.483  26.846  28.916  1.00  0.00     0.029 A 
ATOM     58  C   UNL A   1      40.469  27.924  28.929  1.00  0.00     0.049 A 
ATOM     59  H   UNL A   1      42.306  27.956  27.943  1.00  0.00     0.167 HD
ATOM     60  C   UNL A   1      46.375  27.701  26.298  1.00  0.00     0.034 A 
ATOM     61  C   UNL A   1      40.342  29.102  29.576  1.00  0.00     0.034 A 
ATOM     62  C   UNL A   1      46.259  29.036  26.814  1.00  0.00     0.049 A 
ATOM     63  C   UNL A   1      41.466  30.107  29.504  1.00  0.00     0.074 A 
ATOM     64  C   UNL A   1      47.179  30.067  26.743  1.00  0.00     0.029 A 
ATOM     65  N   UNL A   1      45.164  29.521  27.512  1.00  0.00    -0.354 N 
ATOM     66  N   UNL A   1      42.617  30.017  28.882  1.00  0.00    -0.248 NA
ATOM     67  C   UNL A   1      41.264  31.388  30.201  1.00  0.00     0.031 C 
ATOM     68  C   UNL A   1      46.659  31.162  27.439  1.00  0.00     0.029 A 
ATOM     69  C   UNL A   1      45.391  30.831  27.891  1.00  0.00     0.049 A 
ATOM     70  H   UNL A   1      44.347  29.009  27.708  1.00  0.00     0.167 HD
ATOM     71  C   UNL A   1      43.249  31.244  29.066  1.00  0.00     0.074 A 
ATOM     72  C   UNL A   1      42.354  32.060  29.858  1.00  0.00     0.031 C 
ATOM     73  C   UNL A   1      44.462  31.654  28.623  1.00  0.00     0.034 A 
BRANCH  60  74
ATOM     74  C   UNL A   1      47.664  27.306  25.629  1.00  0.00     0.023 A 
ATOM     75  C   UNL A   1      48.636  26.577  26.342  1.00  0.00     0.012 A 
ATOM     76  C   UNL A   1      47.883  27.604  24.269  1.00  0.00     0.148 A 
ATOM     77  C   UNL A   1      49.820  26.177  25.722  1.00  0.00     0.002 A 
ATOM     78  C   UNL A   1      49.040  27.159  23.645  1.00  0.00     0.091 A 
ATOM     79  F   UNL A   1      46.956  28.317  23.615  1.00  0.00    -0.205 F 
ATOM     80  C   UNL A   1      50.015  26.458  24.372  1.00  0.00     0.022 A 
BRANCH  78  81
ATOM     81  S   UNL A   1      49.347  27.397  21.891  1.00  0.00     0.127 S 
ATOM     82  O   UNL A   1      50.683  26.820  21.744  1.00  0.00    -0.237 OA
ATOM     83  O   UNL A   1      48.273  26.610  21.284  1.00  0.00    -0.237 OA
ATOM     84  O   UNL A   1      49.260  28.831  21.655  1.00  0.00    -0.744 OA
ENDBRANCH  78  81
ENDBRANCH  60  74
BRANCH  61  85
ATOM     85  C   UNL A   1      39.103  29.402  30.350  1.00  0.00     0.023 A 
ATOM     86  C   UNL A   1      38.880  28.763  31.585  1.00  0.00     0.012 A 
ATOM     87  C   UNL A   1      38.145  30.313  29.866  1.00  0.00     0.148 A 
ATOM     88  C   UNL A   1      37.708  28.998  32.306  1.00  0.00     0.002 A 
ATOM     89  C   UNL A   1      37.007  30.588  30.617  1.00  0.00     0.091 A 
ATOM     90  F   UNL A   1      38.366  30.899  28.681  1.00  0.00    -0.205 F 
ATOM     91  C   UNL A   1      36.777  29.916  31.828  1.00  0.00     0.022 A 
BRANCH  89  92
ATOM     92  S   UNL A   1      35.814  31.844  30.140  1.00  0.00     0.127 S 
ATOM     93  O   UNL A   1      35.172  31.224  28.983  1.00  0.00    -0.237 OA
ATOM     94  O   UNL A   1      34.976  31.931  31.335  1.00  0.00    -0.237 OA
ATOM     95  O   UNL A   1      36.590  33.044  29.861  1.00  0.00    -0.744 OA
ENDBRANCH  89  92
ENDBRANCH  61  85
BRANCH  73  96
ATOM     96  C   UNL A   1      44.881  33.075  28.899  1.00  0.00     0.023 A 
ATOM     97  C   UNL A   1      44.534  34.108  28.007  1.00  0.00     0.012 A 
ATOM     98  C   UNL A   1      45.521  33.394  30.114  1.00  0.00     0.148 A 
ATOM     99  C   UNL A   1      44.838  35.434  28.311  1.00  0.00     0.002 A 
ATOM    100  C   UNL A   1      45.771  34.722  30.435  1.00  0.00     0.091 A 
ATOM    101  F   UNL A   1      45.854  32.393  30.941  1.00  0.00    -0.205 F 
ATOM    102  C   UNL A   1      45.442  35.742  29.530  1.00  0.00     0.022 A 
BRANCH 100 103
ATOM    103  S   UNL A   1      46.447  35.220  32.023  1.00  0.00     0.127 S 
ATOM    104  O   UNL A   1      45.944  36.588  32.145  1.00  0.00    -0.237 OA
ATOM    105  O   UNL A   1      45.827  34.259  32.936  1.00  0.00    -0.237 OA
ATOM    106  O   UNL A   1      47.893  35.099  31.904  1.00  0.00    -0.744 OA
ENDBRANCH 100 103
ENDBRANCH  73  96
ENDBRANCH  47  48
ENDBRANCH  40  42
ENDBRANCH  39  40
ENDBRANCH  38  39
ENDBRANCH  37  38
ENDBRANCH  36  37
ENDBRANCH  35  36
ENDBRANCH  34  35
ENDBRANCH   1  34
TORSDOF 26
ENDMDL
