MODEL 1
REMARK VINA RESULT:      -9.2      0.000      0.000
REMARK SMILES Cc1cc(Br)cc2c1O[C@H](C(F)(F)F)C(C(=O)OCCOCCOCCOCCOC(=O)c1ccc(-c3c4nc(c(-c5cccc(S(=O)(=O)[O-])c5F)c5ccc([nH]5)c(-c5cccc(S(=O)(=O)[O-])c5F)c5nc(c(-c6cccc(S(=O)(=O)[O-])c6F)c6ccc3[nH]6)C=C5)C=C4)cc1)=C2
REMARK SMILES IDX 25 1 24 2 23 3 22 4 21 5 20 6 19 7 18 8 16 9 17 10 15 11
REMARK SMILES IDX 1 12 2 13 3 14 8 15 4 16 7 17 9 18 5 19 6 20 96 21 10 22
REMARK SMILES IDX 11 23 12 24 13 25 14 26 26 27 27 28 28 29 29 30 30 31 31 32
REMARK SMILES IDX 32 33 33 34 34 35 95 36 35 37 94 38 36 39 37 40 38 41 88 42
REMARK SMILES IDX 39 43 93 44 87 45 89 46 40 47 92 48 86 49 85 50 41 52 73 53
REMARK SMILES IDX 53 54 72 55 54 56 57 57 71 58 90 59 55 60 56 61 70 63 91 64
REMARK SMILES IDX 58 65 42 66 43 67 51 68 44 69 46 70 52 71 45 72 47 73 48 74
REMARK SMILES IDX 49 75 50 76 74 77 75 78 83 79 76 80 78 81 84 82 77 83 79 84
REMARK SMILES IDX 80 85 81 86 82 87 59 88 60 89 68 90 61 91 63 92 69 93 62 94
REMARK SMILES IDX 64 95 65 96 66 97 67 98
REMARK H PARENT 89 51 57 62
REMARK Flexibility Score: inf
ROOT
ATOM      1  C   UNL A   1      36.989  22.494  24.765  1.00  0.00     0.188 C 
ENDROOT
BRANCH   1   2
ATOM      2  O   UNL A   1      36.090  21.391  24.709  1.00  0.00    -0.377 OA
BRANCH   2   3
ATOM      3  C   UNL A   1      35.179  21.245  25.780  1.00  0.00     0.188 C 
BRANCH   3   4
ATOM      4  C   UNL A   1      35.410  22.262  26.915  1.00  0.00     0.188 C 
BRANCH   4   5
ATOM      5  O   UNL A   1      34.340  22.577  27.785  1.00  0.00    -0.376 OA
BRANCH   5   6
ATOM      6  C   UNL A   1      33.068  21.949  27.732  1.00  0.00     0.202 C 
BRANCH   6   7
ATOM      7  C   UNL A   1      31.692  22.635  27.605  1.00  0.00     0.261 C 
BRANCH   7   8
ATOM      8  O   UNL A   1      31.664  24.007  27.233  1.00  0.00    -0.460 OA
BRANCH   8   9
ATOM      9  C   UNL A   1      30.593  24.416  26.530  1.00  0.00     0.338 C 
ATOM     10  O   UNL A   1      29.424  24.156  26.751  1.00  0.00    -0.246 OA
BRANCH   9  11
ATOM     11  C   UNL A   1      31.061  25.408  25.539  1.00  0.00     0.087 C 
ATOM     12  C   UNL A   1      33.371  27.866  21.699  1.00  0.00     0.048 C 
ATOM     13  C   UNL A   1      32.173  28.119  22.572  1.00  0.00    -0.007 A 
ATOM     14  C   UNL A   1      31.358  29.236  22.333  1.00  0.00     0.023 A 
ATOM     15  C   UNL A   1      31.859  27.257  23.635  1.00  0.00     0.130 A 
ATOM     16  C   UNL A   1      30.248  29.479  23.139  1.00  0.00     0.019 A 
ATOM     17  C   UNL A   1      30.713  27.480  24.404  1.00  0.00     0.019 A 
ATOM     18  O   UNL A   1      32.714  26.215  23.857  1.00  0.00    -0.475 OA
ATOM     19  Br  UNL A   1      29.146  30.977  22.796  1.00  0.00    -0.051 Br
ATOM     20  C   UNL A   1      29.922  28.610  24.176  1.00  0.00     0.027 A 
ATOM     21  C   UNL A   1      30.302  26.500  25.391  1.00  0.00     0.027 C 
ATOM     22  C   UNL A   1      32.361  25.179  24.814  1.00  0.00     0.316 C 
BRANCH  22  23
ATOM     23  C   UNL A   1      32.378  23.829  24.085  1.00  0.00     0.430 C 
ATOM     24  F   UNL A   1      32.850  23.954  22.824  1.00  0.00    -0.167 F 
ATOM     25  F   UNL A   1      33.158  22.923  24.716  1.00  0.00    -0.167 F 
ATOM     26  F   UNL A   1      31.134  23.301  24.002  1.00  0.00    -0.167 F 
ENDBRANCH  22  23
ENDBRANCH   9  11
ENDBRANCH   8   9
ENDBRANCH   7   8
ENDBRANCH   6   7
ENDBRANCH   5   6
ENDBRANCH   4   5
ENDBRANCH   3   4
ENDBRANCH   2   3
ENDBRANCH   1   2
BRANCH   1  27
ATOM     27  C   UNL A   1      38.355  22.332  25.473  1.00  0.00     0.188 C 
BRANCH  27  28
ATOM     28  O   UNL A   1      39.059  21.146  25.120  1.00  0.00    -0.376 OA
BRANCH  28  29
ATOM     29  C   UNL A   1      39.035  20.044  26.010  1.00  0.00     0.202 C 
BRANCH  29  30
ATOM     30  C   UNL A   1      40.121  18.975  25.821  1.00  0.00     0.261 C 
BRANCH  30  31
ATOM     31  O   UNL A   1      41.430  19.465  25.504  1.00  0.00    -0.460 OA
BRANCH  31  32
ATOM     32  C   UNL A   1      42.252  19.747  26.536  1.00  0.00     0.338 C 
ATOM     33  O   UNL A   1      43.033  18.985  27.083  1.00  0.00    -0.246 OA
BRANCH  32  34
ATOM     34  C   UNL A   1      42.190  21.202  26.771  1.00  0.00     0.060 A 
ATOM     35  C   UNL A   1      42.185  22.070  25.670  1.00  0.00     0.016 A 
ATOM     36  C   UNL A   1      42.138  21.702  28.074  1.00  0.00     0.016 A 
ATOM     37  C   UNL A   1      42.173  23.449  25.874  1.00  0.00     0.010 A 
ATOM     38  C   UNL A   1      42.149  23.081  28.276  1.00  0.00     0.010 A 
ATOM     39  C   UNL A   1      42.207  23.958  27.178  1.00  0.00    -0.014 A 
BRANCH  39  40
ATOM     40  C   UNL A   1      42.513  25.388  27.410  1.00  0.00     0.031 A 
ATOM     41  C   UNL A   1      43.884  25.886  27.043  1.00  0.00     0.074 A 
ATOM     42  C   UNL A   1      41.606  26.217  27.953  1.00  0.00     0.049 A 
ATOM     43  N   UNL A   1      44.423  27.056  27.250  1.00  0.00    -0.248 NA
ATOM     44  C   UNL A   1      44.766  24.930  26.349  1.00  0.00     0.031 C 
ATOM     45  C   UNL A   1      40.237  25.854  28.311  1.00  0.00     0.029 A 
ATOM     46  N   UNL A   1      41.717  27.535  28.321  1.00  0.00    -0.354 N 
ATOM     47  C   UNL A   1      45.712  26.973  26.739  1.00  0.00     0.074 A 
ATOM     48  C   UNL A   1      45.881  25.634  26.221  1.00  0.00     0.031 C 
ATOM     49  C   UNL A   1      39.641  26.918  28.877  1.00  0.00     0.029 A 
ATOM     50  C   UNL A   1      40.598  28.020  28.955  1.00  0.00     0.049 A 
ATOM     51  H   UNL A   1      42.518  28.079  28.147  1.00  0.00     0.167 HD
ATOM     52  C   UNL A   1      46.666  27.931  26.695  1.00  0.00     0.034 A 
ATOM     53  C   UNL A   1      40.387  29.209  29.557  1.00  0.00     0.034 A 
ATOM     54  C   UNL A   1      46.487  29.263  27.208  1.00  0.00     0.049 A 
ATOM     55  C   UNL A   1      41.485  30.242  29.546  1.00  0.00     0.074 A 
ATOM     56  C   UNL A   1      47.388  30.312  27.202  1.00  0.00     0.029 A 
ATOM     57  N   UNL A   1      45.335  29.726  27.825  1.00  0.00    -0.354 N 
ATOM     58  N   UNL A   1      42.677  30.176  29.003  1.00  0.00    -0.248 NA
ATOM     59  C   UNL A   1      41.201  31.524  30.207  1.00  0.00     0.031 C 
ATOM     60  C   UNL A   1      46.792  31.400  27.846  1.00  0.00     0.029 A 
ATOM     61  C   UNL A   1      45.503  31.045  28.210  1.00  0.00     0.049 A 
ATOM     62  H   UNL A   1      44.518  29.196  27.968  1.00  0.00     0.167 HD
ATOM     63  C   UNL A   1      43.268  31.417  29.219  1.00  0.00     0.074 A 
ATOM     64  C   UNL A   1      42.293  32.222  29.927  1.00  0.00     0.031 C 
ATOM     65  C   UNL A   1      44.506  31.849  28.871  1.00  0.00     0.034 A 
BRANCH  52  66
ATOM     66  C   UNL A   1      47.984  27.588  26.052  1.00  0.00     0.023 A 
ATOM     67  C   UNL A   1      49.032  27.068  26.840  1.00  0.00     0.012 A 
ATOM     68  C   UNL A   1      48.158  27.697  24.658  1.00  0.00     0.148 A 
ATOM     69  C   UNL A   1      50.237  26.683  26.255  1.00  0.00     0.002 A 
ATOM     70  C   UNL A   1      49.343  27.264  24.075  1.00  0.00     0.091 A 
ATOM     71  F   UNL A   1      47.160  28.218  23.930  1.00  0.00    -0.205 F 
ATOM     72  C   UNL A   1      50.387  26.767  24.873  1.00  0.00     0.022 A 
BRANCH  70  73
ATOM     73  S   UNL A   1      49.602  27.245  22.299  1.00  0.00     0.127 S 
ATOM     74  O   UNL A   1      49.322  28.636  21.944  1.00  0.00    -0.237 OA
ATOM     75  O   UNL A   1      51.011  26.862  22.200  1.00  0.00    -0.237 OA
ATOM     76  O   UNL A   1      48.664  26.268  21.764  1.00  0.00    -0.744 OA
ENDBRANCH  70  73
ENDBRANCH  52  66
BRANCH  53  77
ATOM     77  C   UNL A   1      39.064  29.499  30.182  1.00  0.00     0.023 A 
ATOM     78  C   UNL A   1      38.766  28.965  31.451  1.00  0.00     0.012 A 
ATOM     79  C   UNL A   1      38.119  30.331  29.549  1.00  0.00     0.148 A 
ATOM     80  C   UNL A   1      37.545  29.236  32.068  1.00  0.00     0.002 A 
ATOM     81  C   UNL A   1      36.931  30.646  30.197  1.00  0.00     0.091 A 
ATOM     82  F   UNL A   1      38.414  30.814  28.334  1.00  0.00    -0.205 F 
ATOM     83  C   UNL A   1      36.634  30.086  31.449  1.00  0.00     0.022 A 
BRANCH  81  84
ATOM     84  S   UNL A   1      35.759  31.840  29.542  1.00  0.00     0.127 S 
ATOM     85  O   UNL A   1      36.625  32.702  28.742  1.00  0.00    -0.237 OA
ATOM     86  O   UNL A   1      34.861  30.980  28.771  1.00  0.00    -0.237 OA
ATOM     87  O   UNL A   1      35.145  32.469  30.702  1.00  0.00    -0.744 OA
ENDBRANCH  81  84
ENDBRANCH  53  77
BRANCH  65  88
ATOM     88  C   UNL A   1      44.880  33.273  29.207  1.00  0.00     0.023 A 
ATOM     89  C   UNL A   1      45.492  33.569  30.441  1.00  0.00     0.012 A 
ATOM     90  C   UNL A   1      44.711  34.301  28.257  1.00  0.00     0.148 A 
ATOM     91  C   UNL A   1      45.894  34.870  30.740  1.00  0.00     0.002 A 
ATOM     92  C   UNL A   1      45.168  35.583  28.538  1.00  0.00     0.091 A 
ATOM     93  F   UNL A   1      44.116  34.005  27.093  1.00  0.00    -0.205 F 
ATOM     94  C   UNL A   1      45.745  35.873  29.784  1.00  0.00     0.022 A 
BRANCH  92  95
ATOM     95  S   UNL A   1      45.121  36.911  27.329  1.00  0.00     0.127 S 
ATOM     96  O   UNL A   1      45.647  38.035  28.100  1.00  0.00    -0.237 OA
ATOM     97  O   UNL A   1      46.020  36.412  26.287  1.00  0.00    -0.237 OA
ATOM     98  O   UNL A   1      43.729  37.033  26.918  1.00  0.00    -0.744 OA
ENDBRANCH  92  95
ENDBRANCH  65  88
ENDBRANCH  39  40
ENDBRANCH  32  34
ENDBRANCH  31  32
ENDBRANCH  30  31
ENDBRANCH  29  30
ENDBRANCH  28  29
ENDBRANCH  27  28
ENDBRANCH   1  27
TORSDOF 24
ENDMDL
MODEL 2
REMARK VINA RESULT:      -9.1      5.892     11.220
REMARK SMILES Cc1cc(Br)cc2c1O[C@H](C(F)(F)F)C(C(=O)OCCOCCOCCOCCOC(=O)c1ccc(-c3c4nc(c(-c5cccc(S(=O)(=O)[O-])c5F)c5ccc([nH]5)c(-c5cccc(S(=O)(=O)[O-])c5F)c5nc(c(-c6cccc(S(=O)(=O)[O-])c6F)c6ccc3[nH]6)C=C5)C=C4)cc1)=C2
REMARK SMILES IDX 25 1 24 2 23 3 22 4 21 5 20 6 19 7 18 8 16 9 17 10 15 11
REMARK SMILES IDX 1 12 2 13 3 14 8 15 4 16 7 17 9 18 5 19 6 20 96 21 10 22
REMARK SMILES IDX 11 23 12 24 13 25 14 26 26 27 27 28 28 29 29 30 30 31 31 32
REMARK SMILES IDX 32 33 33 34 34 35 95 36 35 37 94 38 36 39 37 40 38 41 88 42
REMARK SMILES IDX 39 43 93 44 87 45 89 46 40 47 92 48 86 49 85 50 41 52 73 53
REMARK SMILES IDX 53 54 72 55 54 56 57 57 71 58 90 59 55 60 56 61 70 63 91 64
REMARK SMILES IDX 58 65 42 66 43 67 51 68 44 69 46 70 52 71 45 72 47 73 48 74
REMARK SMILES IDX 49 75 50 76 74 77 75 78 83 79 76 80 78 81 84 82 77 83 79 84
REMARK SMILES IDX 80 85 81 86 82 87 59 88 60 89 68 90 61 91 63 92 69 93 62 94
REMARK SMILES IDX 64 95 65 96 66 97 67 98
REMARK H PARENT 89 51 57 62
REMARK Flexibility Score: inf
ROOT
ATOM      1  C   UNL A   1      44.757  21.322  24.508  1.00  0.00     0.188 C 
ENDROOT
BRANCH   1   2
ATOM      2  O   UNL A   1      43.786  21.100  25.528  1.00  0.00    -0.377 OA
BRANCH   2   3
ATOM      3  C   UNL A   1      43.332  19.773  25.709  1.00  0.00     0.188 C 
BRANCH   3   4
ATOM      4  C   UNL A   1      41.889  19.693  26.244  1.00  0.00     0.188 C 
BRANCH   4   5
ATOM      5  O   UNL A   1      41.357  20.794  26.956  1.00  0.00    -0.376 OA
BRANCH   5   6
ATOM      6  C   UNL A   1      40.293  21.603  26.480  1.00  0.00     0.202 C 
BRANCH   6   7
ATOM      7  C   UNL A   1      39.972  23.057  26.881  1.00  0.00     0.261 C 
BRANCH   7   8
ATOM      8  O   UNL A   1      40.979  23.798  27.560  1.00  0.00    -0.460 OA
BRANCH   8   9
ATOM      9  C   UNL A   1      41.077  25.102  27.247  1.00  0.00     0.338 C 
ATOM     10  O   UNL A   1      40.634  25.658  26.257  1.00  0.00    -0.246 OA
BRANCH   9  11
ATOM     11  C   UNL A   1      41.658  25.799  28.414  1.00  0.00     0.087 C 
ATOM     12  C   UNL A   1      42.515  28.724  32.517  1.00  0.00     0.048 C 
ATOM     13  C   UNL A   1      43.201  27.554  31.867  1.00  0.00    -0.007 A 
ATOM     14  C   UNL A   1      44.327  26.980  32.475  1.00  0.00     0.023 A 
ATOM     15  C   UNL A   1      42.737  27.029  30.650  1.00  0.00     0.130 A 
ATOM     16  C   UNL A   1      44.970  25.898  31.879  1.00  0.00     0.019 A 
ATOM     17  C   UNL A   1      43.357  25.910  30.088  1.00  0.00     0.019 A 
ATOM     18  O   UNL A   1      41.670  27.658  30.075  1.00  0.00    -0.475 OA
ATOM     19  Br  UNL A   1      46.477  25.120  32.717  1.00  0.00    -0.051 Br
ATOM     20  C   UNL A   1      44.495  25.360  30.686  1.00  0.00     0.027 A 
ATOM     21  C   UNL A   1      42.777  25.271  28.922  1.00  0.00     0.027 C 
ATOM     22  C   UNL A   1      41.018  27.066  28.917  1.00  0.00     0.316 C 
BRANCH  22  23
ATOM     23  C   UNL A   1      39.536  26.863  29.256  1.00  0.00     0.430 C 
ATOM     24  F   UNL A   1      38.740  27.625  28.471  1.00  0.00    -0.167 F 
ATOM     25  F   UNL A   1      39.150  25.577  29.089  1.00  0.00    -0.167 F 
ATOM     26  F   UNL A   1      39.276  27.197  30.542  1.00  0.00    -0.167 F 
ENDBRANCH  22  23
ENDBRANCH   9  11
ENDBRANCH   8   9
ENDBRANCH   7   8
ENDBRANCH   6   7
ENDBRANCH   5   6
ENDBRANCH   4   5
ENDBRANCH   3   4
ENDBRANCH   2   3
ENDBRANCH   1   2
BRANCH   1  27
ATOM     27  C   UNL A   1      44.654  22.580  23.615  1.00  0.00     0.188 C 
BRANCH  27  28
ATOM     28  O   UNL A   1      45.623  23.581  23.901  1.00  0.00    -0.376 OA
BRANCH  28  29
ATOM     29  C   UNL A   1      45.424  24.429  25.020  1.00  0.00     0.202 C 
BRANCH  29  30
ATOM     30  C   UNL A   1      44.134  25.261  25.039  1.00  0.00     0.261 C 
BRANCH  30  31
ATOM     31  O   UNL A   1      44.132  26.391  25.920  1.00  0.00    -0.460 OA
BRANCH  31  32
ATOM     32  C   UNL A   1      43.516  27.511  25.488  1.00  0.00     0.338 C 
ATOM     33  O   UNL A   1      42.930  27.665  24.428  1.00  0.00    -0.246 OA
BRANCH  32  34
ATOM     34  C   UNL A   1      43.503  28.473  26.606  1.00  0.00     0.060 A 
ATOM     35  C   UNL A   1      42.582  29.530  26.585  1.00  0.00     0.016 A 
ATOM     36  C   UNL A   1      44.398  28.328  27.668  1.00  0.00     0.016 A 
ATOM     37  C   UNL A   1      42.585  30.473  27.610  1.00  0.00     0.010 A 
ATOM     38  C   UNL A   1      44.415  29.286  28.681  1.00  0.00     0.010 A 
ATOM     39  C   UNL A   1      43.536  30.383  28.634  1.00  0.00    -0.014 A 
BRANCH  39  40
ATOM     40  C   UNL A   1      43.762  31.530  29.542  1.00  0.00     0.031 A 
ATOM     41  C   UNL A   1      42.670  31.892  30.510  1.00  0.00     0.074 A 
ATOM     42  C   UNL A   1      44.899  32.246  29.493  1.00  0.00     0.049 A 
ATOM     43  N   UNL A   1      42.586  32.910  31.322  1.00  0.00    -0.248 NA
ATOM     44  C   UNL A   1      41.515  30.978  30.568  1.00  0.00     0.031 C 
ATOM     45  C   UNL A   1      46.038  31.965  28.623  1.00  0.00     0.029 A 
ATOM     46  N   UNL A   1      45.264  33.378  30.178  1.00  0.00    -0.354 N 
ATOM     47  C   UNL A   1      41.362  32.778  31.967  1.00  0.00     0.074 A 
ATOM     48  C   UNL A   1      40.731  31.587  31.444  1.00  0.00     0.031 C 
ATOM     49  C   UNL A   1      46.968  32.918  28.806  1.00  0.00     0.029 A 
ATOM     50  C   UNL A   1      46.472  33.895  29.774  1.00  0.00     0.049 A 
ATOM     51  H   UNL A   1      44.716  33.779  30.890  1.00  0.00     0.167 HD
ATOM     52  C   UNL A   1      40.819  33.573  32.917  1.00  0.00     0.034 A 
ATOM     53  C   UNL A   1      47.087  35.043  30.125  1.00  0.00     0.034 A 
ATOM     54  C   UNL A   1      41.457  34.753  33.434  1.00  0.00     0.049 A 
ATOM     55  C   UNL A   1      46.435  35.943  31.144  1.00  0.00     0.074 A 
ATOM     56  C   UNL A   1      40.996  35.621  34.407  1.00  0.00     0.029 A 
ATOM     57  N   UNL A   1      42.689  35.236  33.017  1.00  0.00    -0.354 N 
ATOM     58  N   UNL A   1      45.309  35.775  31.795  1.00  0.00    -0.248 NA
ATOM     59  C   UNL A   1      47.152  37.176  31.499  1.00  0.00     0.031 C 
ATOM     60  C   UNL A   1      41.933  36.647  34.554  1.00  0.00     0.029 A 
ATOM     61  C   UNL A   1      43.001  36.394  33.708  1.00  0.00     0.049 A 
ATOM     62  H   UNL A   1      43.257  34.816  32.331  1.00  0.00     0.167 HD
ATOM     63  C   UNL A   1      45.203  36.857  32.664  1.00  0.00     0.074 A 
ATOM     64  C   UNL A   1      46.390  37.664  32.468  1.00  0.00     0.031 C 
ATOM     65  C   UNL A   1      44.210  37.160  33.537  1.00  0.00     0.034 A 
BRANCH  52  66
ATOM     66  C   UNL A   1      39.477  33.185  33.480  1.00  0.00     0.023 A 
ATOM     67  C   UNL A   1      39.410  32.348  34.613  1.00  0.00     0.012 A 
ATOM     68  C   UNL A   1      38.288  33.716  32.943  1.00  0.00     0.148 A 
ATOM     69  C   UNL A   1      38.181  32.030  35.190  1.00  0.00     0.002 A 
ATOM     70  C   UNL A   1      37.071  33.435  33.552  1.00  0.00     0.091 A 
ATOM     71  F   UNL A   1      38.370  34.488  31.850  1.00  0.00    -0.205 F 
ATOM     72  C   UNL A   1      37.015  32.584  34.669  1.00  0.00     0.022 A 
BRANCH  70  73
ATOM     73  S   UNL A   1      35.523  34.170  33.017  1.00  0.00     0.127 S 
ATOM     74  O   UNL A   1      35.536  33.876  31.584  1.00  0.00    -0.237 OA
ATOM     75  O   UNL A   1      34.540  33.408  33.787  1.00  0.00    -0.237 OA
ATOM     76  O   UNL A   1      35.606  35.583  33.359  1.00  0.00    -0.744 OA
ENDBRANCH  70  73
ENDBRANCH  52  66
BRANCH  53  77
ATOM     77  C   UNL A   1      48.415  35.382  29.536  1.00  0.00     0.023 A 
ATOM     78  C   UNL A   1      49.571  34.744  30.024  1.00  0.00     0.012 A 
ATOM     79  C   UNL A   1      48.534  36.297  28.470  1.00  0.00     0.148 A 
ATOM     80  C   UNL A   1      50.824  35.026  29.479  1.00  0.00     0.002 A 
ATOM     81  C   UNL A   1      49.776  36.526  27.891  1.00  0.00     0.091 A 
ATOM     82  F   UNL A   1      47.424  36.906  28.032  1.00  0.00    -0.205 F 
ATOM     83  C   UNL A   1      50.925  35.906  28.405  1.00  0.00     0.022 A 
BRANCH  81  84
ATOM     84  S   UNL A   1      49.986  37.533  26.418  1.00  0.00     0.127 S 
ATOM     85  O   UNL A   1      49.475  38.826  26.865  1.00  0.00    -0.237 OA
ATOM     86  O   UNL A   1      51.435  37.474  26.224  1.00  0.00    -0.237 OA
ATOM     87  O   UNL A   1      49.209  36.877  25.377  1.00  0.00    -0.744 OA
ENDBRANCH  81  84
ENDBRANCH  53  77
BRANCH  65  88
ATOM     88  C   UNL A   1      44.369  38.395  34.390  1.00  0.00     0.023 A 
ATOM     89  C   UNL A   1      45.163  38.352  35.553  1.00  0.00     0.012 A 
ATOM     90  C   UNL A   1      43.808  39.624  33.985  1.00  0.00     0.148 A 
ATOM     91  C   UNL A   1      45.365  39.499  36.318  1.00  0.00     0.002 A 
ATOM     92  C   UNL A   1      44.062  40.775  34.719  1.00  0.00     0.091 A 
ATOM     93  F   UNL A   1      43.045  39.645  32.883  1.00  0.00    -0.205 F 
ATOM     94  C   UNL A   1      44.826  40.713  35.895  1.00  0.00     0.022 A 
BRANCH  92  95
ATOM     95  S   UNL A   1      43.505  42.400  34.190  1.00  0.00     0.127 S 
ATOM     96  O   UNL A   1      42.053  42.260  34.275  1.00  0.00    -0.237 OA
ATOM     97  O   UNL A   1      44.094  43.275  35.205  1.00  0.00    -0.237 OA
ATOM     98  O   UNL A   1      44.037  42.589  32.847  1.00  0.00    -0.744 OA
ENDBRANCH  92  95
ENDBRANCH  65  88
ENDBRANCH  39  40
ENDBRANCH  32  34
ENDBRANCH  31  32
ENDBRANCH  30  31
ENDBRANCH  29  30
ENDBRANCH  28  29
ENDBRANCH  27  28
ENDBRANCH   1  27
TORSDOF 24
ENDMDL
MODEL 3
REMARK VINA RESULT:      -9.0      9.007     17.299
REMARK SMILES Cc1cc(Br)cc2c1O[C@H](C(F)(F)F)C(C(=O)OCCOCCOCCOCCOC(=O)c1ccc(-c3c4nc(c(-c5cccc(S(=O)(=O)[O-])c5F)c5ccc([nH]5)c(-c5cccc(S(=O)(=O)[O-])c5F)c5nc(c(-c6cccc(S(=O)(=O)[O-])c6F)c6ccc3[nH]6)C=C5)C=C4)cc1)=C2
REMARK SMILES IDX 25 1 24 2 23 3 22 4 21 5 20 6 19 7 18 8 16 9 17 10 15 11
REMARK SMILES IDX 1 12 2 13 3 14 8 15 4 16 7 17 9 18 5 19 6 20 96 21 10 22
REMARK SMILES IDX 11 23 12 24 13 25 14 26 26 27 27 28 28 29 29 30 30 31 31 32
REMARK SMILES IDX 32 33 33 34 34 35 95 36 35 37 94 38 36 39 37 40 38 41 88 42
REMARK SMILES IDX 39 43 93 44 87 45 89 46 40 47 92 48 86 49 85 50 41 52 73 53
REMARK SMILES IDX 53 54 72 55 54 56 57 57 71 58 90 59 55 60 56 61 70 63 91 64
REMARK SMILES IDX 58 65 42 66 43 67 51 68 44 69 46 70 52 71 45 72 47 73 48 74
REMARK SMILES IDX 49 75 50 76 74 77 75 78 83 79 76 80 78 81 84 82 77 83 79 84
REMARK SMILES IDX 80 85 81 86 82 87 59 88 60 89 68 90 61 91 63 92 69 93 62 94
REMARK SMILES IDX 64 95 65 96 66 97 67 98
REMARK H PARENT 89 51 57 62
REMARK Flexibility Score: inf
ROOT
ATOM      1  C   UNL A   1      42.301  41.632  24.694  1.00  0.00     0.188 C 
ENDROOT
BRANCH   1   2
ATOM      2  O   UNL A   1      41.526  42.403  23.778  1.00  0.00    -0.377 OA
BRANCH   2   3
ATOM      3  C   UNL A   1      41.772  42.204  22.400  1.00  0.00     0.188 C 
BRANCH   3   4
ATOM      4  C   UNL A   1      41.987  43.520  21.627  1.00  0.00     0.188 C 
BRANCH   4   5
ATOM      5  O   UNL A   1      42.247  43.467  20.237  1.00  0.00    -0.376 OA
BRANCH   5   6
ATOM      6  C   UNL A   1      41.238  43.322  19.249  1.00  0.00     0.202 C 
BRANCH   6   7
ATOM      7  C   UNL A   1      40.580  44.440  18.416  1.00  0.00     0.261 C 
BRANCH   7   8
ATOM      8  O   UNL A   1      41.336  45.618  18.166  1.00  0.00    -0.460 OA
BRANCH   8   9
ATOM      9  C   UNL A   1      42.248  45.547  17.180  1.00  0.00     0.338 C 
ATOM     10  O   UNL A   1      42.082  45.115  16.053  1.00  0.00    -0.246 OA
BRANCH   9  11
ATOM     11  C   UNL A   1      43.456  46.266  17.636  1.00  0.00     0.087 C 
ATOM     12  C   UNL A   1      47.159  49.682  18.501  1.00  0.00     0.048 C 
ATOM     13  C   UNL A   1      46.713  48.394  19.137  1.00  0.00    -0.007 A 
ATOM     14  C   UNL A   1      47.338  47.941  20.308  1.00  0.00     0.023 A 
ATOM     15  C   UNL A   1      45.681  47.628  18.571  1.00  0.00     0.130 A 
ATOM     16  C   UNL A   1      46.933  46.748  20.902  1.00  0.00     0.019 A 
ATOM     17  C   UNL A   1      45.246  46.461  19.204  1.00  0.00     0.019 A 
ATOM     18  O   UNL A   1      45.142  48.088  17.403  1.00  0.00    -0.475 OA
ATOM     19  Br  UNL A   1      47.771  46.156  22.491  1.00  0.00    -0.051 Br
ATOM     20  C   UNL A   1      45.892  46.002  20.356  1.00  0.00     0.027 A 
ATOM     21  C   UNL A   1      44.075  45.763  18.709  1.00  0.00     0.027 C 
ATOM     22  C   UNL A   1      43.952  47.456  16.856  1.00  0.00     0.316 C 
BRANCH  22  23
ATOM     23  C   UNL A   1      42.868  48.530  16.700  1.00  0.00     0.430 C 
ATOM     24  F   UNL A   1      43.384  49.690  16.234  1.00  0.00    -0.167 F 
ATOM     25  F   UNL A   1      41.898  48.149  15.839  1.00  0.00    -0.167 F 
ATOM     26  F   UNL A   1      42.271  48.799  17.886  1.00  0.00    -0.167 F 
ENDBRANCH  22  23
ENDBRANCH   9  11
ENDBRANCH   8   9
ENDBRANCH   7   8
ENDBRANCH   6   7
ENDBRANCH   5   6
ENDBRANCH   4   5
ENDBRANCH   3   4
ENDBRANCH   2   3
ENDBRANCH   1   2
BRANCH   1  27
ATOM     27  C   UNL A   1      41.588  40.734  25.732  1.00  0.00     0.188 C 
BRANCH  27  28
ATOM     28  O   UNL A   1      42.392  40.384  26.852  1.00  0.00    -0.376 OA
BRANCH  28  29
ATOM     29  C   UNL A   1      43.462  39.471  26.670  1.00  0.00     0.202 C 
BRANCH  29  30
ATOM     30  C   UNL A   1      44.121  38.913  27.939  1.00  0.00     0.261 C 
BRANCH  30  31
ATOM     31  O   UNL A   1      45.454  38.410  27.781  1.00  0.00    -0.460 OA
BRANCH  31  32
ATOM     32  C   UNL A   1      45.622  37.352  26.962  1.00  0.00     0.338 C 
ATOM     33  O   UNL A   1      46.140  37.353  25.856  1.00  0.00    -0.246 OA
BRANCH  32  34
ATOM     34  C   UNL A   1      45.246  36.141  27.714  1.00  0.00     0.060 A 
ATOM     35  C   UNL A   1      45.655  36.012  29.048  1.00  0.00     0.016 A 
ATOM     36  C   UNL A   1      44.491  35.138  27.100  1.00  0.00     0.016 A 
ATOM     37  C   UNL A   1      45.347  34.855  29.761  1.00  0.00     0.010 A 
ATOM     38  C   UNL A   1      44.205  33.971  27.807  1.00  0.00     0.010 A 
ATOM     39  C   UNL A   1      44.666  33.809  29.125  1.00  0.00    -0.014 A 
BRANCH  39  40
ATOM     40  C   UNL A   1      44.611  32.469  29.751  1.00  0.00     0.031 A 
ATOM     41  C   UNL A   1      43.440  32.151  30.639  1.00  0.00     0.074 A 
ATOM     42  C   UNL A   1      45.586  31.565  29.554  1.00  0.00     0.049 A 
ATOM     43  N   UNL A   1      43.223  31.098  31.380  1.00  0.00    -0.248 NA
ATOM     44  C   UNL A   1      42.368  33.161  30.699  1.00  0.00     0.031 C 
ATOM     45  C   UNL A   1      46.745  31.750  28.685  1.00  0.00     0.029 A 
ATOM     46  N   UNL A   1      45.763  30.318  30.099  1.00  0.00    -0.354 N 
ATOM     47  C   UNL A   1      42.009  31.327  32.015  1.00  0.00     0.074 A 
ATOM     48  C   UNL A   1      41.539  32.625  31.582  1.00  0.00     0.031 C 
ATOM     49  C   UNL A   1      47.533  30.664  28.778  1.00  0.00     0.029 A 
ATOM     50  C   UNL A   1      46.952  29.729  29.741  1.00  0.00     0.049 A 
ATOM     51  H   UNL A   1      45.103  29.887  30.688  1.00  0.00     0.167 HD
ATOM     52  C   UNL A   1      41.341  30.524  32.873  1.00  0.00     0.034 A 
ATOM     53  C   UNL A   1      47.518  28.582  30.169  1.00  0.00     0.034 A 
ATOM     54  C   UNL A   1      41.814  29.233  33.294  1.00  0.00     0.049 A 
ATOM     55  C   UNL A   1      46.780  27.729  31.170  1.00  0.00     0.074 A 
ATOM     56  C   UNL A   1      41.205  28.334  34.151  1.00  0.00     0.029 A 
ATOM     57  N   UNL A   1      43.011  28.659  32.896  1.00  0.00    -0.354 N 
ATOM     58  N   UNL A   1      45.603  27.924  31.714  1.00  0.00    -0.248 NA
ATOM     59  C   UNL A   1      47.436  26.484  31.595  1.00  0.00     0.031 C 
ATOM     60  C   UNL A   1      42.052  27.232  34.298  1.00  0.00     0.029 A 
ATOM     61  C   UNL A   1      43.165  27.421  33.495  1.00  0.00     0.049 A 
ATOM     62  H   UNL A   1      43.657  29.072  32.277  1.00  0.00     0.167 HD
ATOM     63  C   UNL A   1      45.358  26.810  32.511  1.00  0.00     0.074 A 
ATOM     64  C   UNL A   1      46.504  25.936  32.364  1.00  0.00     0.031 C 
ATOM     65  C   UNL A   1      44.289  26.539  33.300  1.00  0.00     0.034 A 
BRANCH  52  66
ATOM     66  C   UNL A   1      40.013  31.002  33.401  1.00  0.00     0.023 A 
ATOM     67  C   UNL A   1      38.824  30.631  32.740  1.00  0.00     0.012 A 
ATOM     68  C   UNL A   1      39.936  31.745  34.595  1.00  0.00     0.148 A 
ATOM     69  C   UNL A   1      37.581  31.007  33.248  1.00  0.00     0.002 A 
ATOM     70  C   UNL A   1      38.693  32.074  35.123  1.00  0.00     0.091 A 
ATOM     71  F   UNL A   1      41.078  32.111  35.194  1.00  0.00    -0.205 F 
ATOM     72  C   UNL A   1      37.516  31.716  34.445  1.00  0.00     0.022 A 
BRANCH  70  73
ATOM     73  S   UNL A   1      38.496  32.903  36.703  1.00  0.00     0.127 S 
ATOM     74  O   UNL A   1      39.129  34.195  36.439  1.00  0.00    -0.237 OA
ATOM     75  O   UNL A   1      37.041  32.954  36.843  1.00  0.00    -0.237 OA
ATOM     76  O   UNL A   1      39.176  32.069  37.685  1.00  0.00    -0.744 OA
ENDBRANCH  70  73
ENDBRANCH  52  66
BRANCH  53  77
ATOM     77  C   UNL A   1      48.836  28.155  29.617  1.00  0.00     0.023 A 
ATOM     78  C   UNL A   1      50.020  28.692  30.157  1.00  0.00     0.012 A 
ATOM     79  C   UNL A   1      48.925  27.192  28.591  1.00  0.00     0.148 A 
ATOM     80  C   UNL A   1      51.267  28.295  29.674  1.00  0.00     0.002 A 
ATOM     81  C   UNL A   1      50.172  26.756  28.158  1.00  0.00     0.091 A 
ATOM     82  F   UNL A   1      47.786  26.706  28.078  1.00  0.00    -0.205 F 
ATOM     83  C   UNL A   1      51.344  27.320  28.685  1.00  0.00     0.022 A 
BRANCH  81  84
ATOM     84  S   UNL A   1      50.372  25.406  26.990  1.00  0.00     0.127 S 
ATOM     85  O   UNL A   1      51.821  25.218  26.995  1.00  0.00    -0.237 OA
ATOM     86  O   UNL A   1      49.609  24.339  27.638  1.00  0.00    -0.237 OA
ATOM     87  O   UNL A   1      49.805  25.880  25.736  1.00  0.00    -0.744 OA
ENDBRANCH  81  84
ENDBRANCH  53  77
BRANCH  65  88
ATOM     88  C   UNL A   1      44.270  25.224  34.042  1.00  0.00     0.023 A 
ATOM     89  C   UNL A   1      43.746  24.073  33.422  1.00  0.00     0.012 A 
ATOM     90  C   UNL A   1      44.860  25.112  35.317  1.00  0.00     0.148 A 
ATOM     91  C   UNL A   1      43.774  22.841  34.073  1.00  0.00     0.002 A 
ATOM     92  C   UNL A   1      44.938  23.870  35.936  1.00  0.00     0.091 A 
ATOM     93  F   UNL A   1      45.342  26.220  35.898  1.00  0.00    -0.205 F 
ATOM     94  C   UNL A   1      44.382  22.737  35.323  1.00  0.00     0.022 A 
BRANCH  92  95
ATOM     95  S   UNL A   1      45.801  23.619  37.491  1.00  0.00     0.127 S 
ATOM     96  O   UNL A   1      45.939  22.165  37.524  1.00  0.00    -0.237 OA
ATOM     97  O   UNL A   1      47.052  24.346  37.272  1.00  0.00    -0.237 OA
ATOM     98  O   UNL A   1      44.944  24.189  38.523  1.00  0.00    -0.744 OA
ENDBRANCH  92  95
ENDBRANCH  65  88
ENDBRANCH  39  40
ENDBRANCH  32  34
ENDBRANCH  31  32
ENDBRANCH  30  31
ENDBRANCH  29  30
ENDBRANCH  28  29
ENDBRANCH  27  28
ENDBRANCH   1  27
TORSDOF 24
ENDMDL
