MODEL 1
REMARK VINA RESULT:     -10.6      0.000      0.000
REMARK SMILES Cc1ccc(S(=O)(=O)n2cc(C(=O)C(=O)N[C@@H](Cc3c[nH]c4ccccc34)C(=O)NCC(=O)OCCOCCOCCOCCOC(=O)c3ccc(-c4c5nc(c(-c6cccc(S(=O)(=O)[O-])c6F)c6ccc([nH]6)c(-c6cccc(S(=O)(=O)[O-])c6F)c6nc(c(-c7cccc(S(=O)(=O)[O-])c7F)c7ccc4[nH]7)C=C6)C=C5)cc3)c3ccccc32)cc1
REMARK SMILES IDX 38 1 37 2 36 3 35 4 34 5 32 6 33 7 31 8 30 9 28 10 29 11
REMARK SMILES IDX 17 13 16 14 14 15 15 16 12 18 13 19 11 20 9 21 10 22 117 23
REMARK SMILES IDX 112 24 116 25 113 26 115 27 114 28 6 29 7 30 8 31 5 32 1 33
REMARK SMILES IDX 2 34 3 35 119 36 4 37 118 38 18 39 19 40 20 41 27 42 21 43
REMARK SMILES IDX 22 44 26 45 23 47 25 48 24 49 39 50 40 51 41 52 42 53 43 54
REMARK SMILES IDX 44 55 45 56 46 57 47 58 48 59 49 60 50 61 111 62 51 63
REMARK SMILES IDX 110 64 52 65 53 66 54 67 104 68 55 69 109 70 103 71 105 72
REMARK SMILES IDX 56 73 108 74 102 75 101 76 57 78 89 79 69 80 88 81 70 82
REMARK SMILES IDX 73 83 87 84 106 85 71 86 72 87 86 89 107 90 74 91 58 92
REMARK SMILES IDX 59 93 67 94 60 95 62 96 68 97 61 98 63 99 64 100 65 101
REMARK SMILES IDX 66 102 90 103 91 104 99 105 92 106 94 107 100 108 93 109
REMARK SMILES IDX 95 110 96 111 97 112 98 113 75 114 76 115 84 116 77 117
REMARK SMILES IDX 79 118 85 119 78 120 80 121 81 122 82 123 83 124
REMARK H PARENT 30 12 16 17 21 46 105 77 73 88
REMARK Flexibility Score: inf
ROOT
ATOM      1  C   UNL A   1      35.114  30.699  27.304  1.00  0.00     0.188 C 
ENDROOT
BRANCH   1   2
ATOM      2  O   UNL A   1      34.061  29.685  26.856  1.00  0.00    -0.376 OA
BRANCH   2   3
ATOM      3  C   UNL A   1      32.684  29.057  27.524  1.00  0.00     0.202 C 
BRANCH   3   4
ATOM      4  C   UNL A   1      31.767  27.455  27.597  1.00  0.00     0.261 C 
BRANCH   4   5
ATOM      5  O   UNL A   1      30.539  26.725  26.607  1.00  0.00    -0.462 OA
BRANCH   5   6
ATOM      6  C   UNL A   1      29.787  25.571  26.221  1.00  0.00     0.325 C 
ATOM      7  O   UNL A   1      29.233  24.742  26.962  1.00  0.00    -0.250 OA
BRANCH   6   8
ATOM      8  C   UNL A   1      29.199  25.481  24.677  1.00  0.00     0.238 C 
BRANCH   8   9
ATOM      9  N   UNL A   1      30.075  25.857  23.399  1.00  0.00    -0.343 N 
ATOM     10  C   UNL A   1      30.530  26.997  22.744  1.00  0.00     0.243 C 
ATOM     11  O   UNL A   1      30.695  26.901  21.513  1.00  0.00    -0.273 OA
ATOM     12  H   UNL A   1      30.387  25.044  22.939  1.00  0.00     0.164 HD
BRANCH  10  13
ATOM     13  C   UNL A   1      31.080  28.311  23.437  1.00  0.00     0.176 C 
BRANCH  13  14
ATOM     14  N   UNL A   1      32.397  28.278  24.143  1.00  0.00    -0.337 N 
ATOM     15  C   UNL A   1      33.589  27.556  23.999  1.00  0.00     0.293 C 
ATOM     16  O   UNL A   1      34.468  27.675  24.854  1.00  0.00    -0.265 OA
ATOM     17  H   UNL A   1      32.436  28.918  24.890  1.00  0.00     0.164 HD
BRANCH  15  18
ATOM     18  C   UNL A   1      33.892  26.605  22.816  1.00  0.00     0.252 C 
ATOM     19  O   UNL A   1      34.196  27.132  21.747  1.00  0.00    -0.283 OA
BRANCH  18  20
ATOM     20  C   UNL A   1      33.686  25.121  22.900  1.00  0.00     0.054 A 
ATOM     21  N   UNL A   1      33.255  22.900  22.584  1.00  0.00    -0.240 N 
ATOM     22  C   UNL A   1      32.894  24.195  22.180  1.00  0.00     0.117 A 
ATOM     23  C   UNL A   1      34.322  23.037  23.491  1.00  0.00     0.065 A 
ATOM     24  C   UNL A   1      34.264  24.347  23.952  1.00  0.00     0.012 A 
ATOM     25  C   UNL A   1      35.126  22.070  24.130  1.00  0.00     0.028 A 
ATOM     26  C   UNL A   1      34.815  24.636  25.217  1.00  0.00     0.011 A 
ATOM     27  C   UNL A   1      35.616  22.362  25.399  1.00  0.00     0.002 A 
ATOM     28  C   UNL A   1      35.413  23.613  25.962  1.00  0.00     0.001 A 
BRANCH  21  29
ATOM     29  S   UNL A   1      32.271  21.507  22.986  1.00  0.00     0.268 S 
ATOM     30  O   UNL A   1      31.898  20.988  21.679  1.00  0.00    -0.201 OA
ATOM     31  O   UNL A   1      31.267  22.129  23.847  1.00  0.00    -0.201 OA
BRANCH  29  32
ATOM     32  C   UNL A   1      32.596  20.065  23.943  1.00  0.00     0.088 A 
ATOM     33  C   UNL A   1      32.964  15.996  25.408  1.00  0.00     0.044 C 
ATOM     34  C   UNL A   1      32.893  17.418  24.928  1.00  0.00    -0.051 A 
ATOM     35  C   UNL A   1      32.752  17.625  23.566  1.00  0.00     0.005 A 
ATOM     36  C   UNL A   1      32.913  18.544  25.785  1.00  0.00     0.005 A 
ATOM     37  C   UNL A   1      32.623  18.922  23.092  1.00  0.00     0.022 A 
ATOM     38  C   UNL A   1      32.762  19.877  25.302  1.00  0.00     0.022 A 
ENDBRANCH  29  32
ENDBRANCH  21  29
ENDBRANCH  18  20
ENDBRANCH  15  18
ENDBRANCH  13  14
BRANCH  13  39
ATOM     39  C   UNL A   1      30.996  29.391  22.280  1.00  0.00     0.072 C 
BRANCH  39  40
ATOM     40  C   UNL A   1      29.633  30.051  22.219  1.00  0.00    -0.020 A 
ATOM     41  C   UNL A   1      28.692  29.941  21.203  1.00  0.00     0.087 A 
ATOM     42  C   UNL A   1      29.291  31.203  22.984  1.00  0.00     0.003 A 
ATOM     43  N   UNL A   1      27.920  31.083  21.225  1.00  0.00    -0.361 N 
ATOM     44  C   UNL A   1      28.351  31.911  22.236  1.00  0.00     0.046 A 
ATOM     45  C   UNL A   1      29.935  31.822  24.069  1.00  0.00     0.010 A 
ATOM     46  H   UNL A   1      27.176  31.276  20.611  1.00  0.00     0.166 HD
ATOM     47  C   UNL A   1      28.107  33.267  22.452  1.00  0.00     0.026 A 
ATOM     48  C   UNL A   1      29.810  33.198  24.208  1.00  0.00     0.001 A 
ATOM     49  C   UNL A   1      28.914  33.895  23.405  1.00  0.00     0.002 A 
ENDBRANCH  39  40
ENDBRANCH  13  39
ENDBRANCH  10  13
ENDBRANCH   8   9
ENDBRANCH   6   8
ENDBRANCH   5   6
ENDBRANCH   4   5
ENDBRANCH   3   4
ENDBRANCH   2   3
ENDBRANCH   1   2
BRANCH   1  50
ATOM     50  C   UNL A   1      34.808  32.009  28.148  1.00  0.00     0.188 C 
BRANCH  50  51
ATOM     51  O   UNL A   1      35.827  32.979  28.090  1.00  0.00    -0.377 OA
BRANCH  51  52
ATOM     52  C   UNL A   1      35.539  34.127  28.884  1.00  0.00     0.188 C 
BRANCH  52  53
ATOM     53  C   UNL A   1      34.050  34.493  28.982  1.00  0.00     0.188 C 
BRANCH  53  54
ATOM     54  O   UNL A   1      33.847  35.519  29.950  1.00  0.00    -0.376 OA
BRANCH  54  55
ATOM     55  C   UNL A   1      32.727  35.590  30.785  1.00  0.00     0.202 C 
BRANCH  55  56
ATOM     56  C   UNL A   1      33.144  35.508  32.253  1.00  0.00     0.261 C 
BRANCH  56  57
ATOM     57  O   UNL A   1      34.012  34.370  32.449  1.00  0.00    -0.460 OA
BRANCH  57  58
ATOM     58  C   UNL A   1      35.285  34.633  32.869  1.00  0.00     0.338 C 
ATOM     59  O   UNL A   1      35.759  35.744  33.010  1.00  0.00    -0.246 OA
BRANCH  58  60
ATOM     60  C   UNL A   1      36.035  33.335  32.910  1.00  0.00     0.060 A 
ATOM     61  C   UNL A   1      36.306  32.700  34.120  1.00  0.00     0.016 A 
ATOM     62  C   UNL A   1      36.736  32.921  31.773  1.00  0.00     0.016 A 
ATOM     63  C   UNL A   1      37.415  31.838  34.199  1.00  0.00     0.010 A 
ATOM     64  C   UNL A   1      37.947  32.259  31.926  1.00  0.00     0.010 A 
ATOM     65  C   UNL A   1      38.400  31.877  33.197  1.00  0.00    -0.014 A 
BRANCH  65  66
ATOM     66  C   UNL A   1      39.949  31.558  33.286  1.00  0.00     0.031 A 
ATOM     67  C   UNL A   1      40.527  33.057  33.460  1.00  0.00     0.074 A 
ATOM     68  C   UNL A   1      40.654  30.276  32.959  1.00  0.00     0.049 A 
ATOM     69  N   UNL A   1      41.514  33.636  32.831  1.00  0.00    -0.248 NA
ATOM     70  C   UNL A   1      39.731  34.088  34.168  1.00  0.00     0.031 C 
ATOM     71  C   UNL A   1      41.673  29.467  33.617  1.00  0.00     0.029 A 
ATOM     72  N   UNL A   1      40.733  29.335  31.798  1.00  0.00    -0.354 N 
ATOM     73  C   UNL A   1      41.670  34.920  33.308  1.00  0.00     0.074 A 
ATOM     74  C   UNL A   1      40.422  35.206  33.948  1.00  0.00     0.031 C 
ATOM     75  C   UNL A   1      42.448  28.789  32.689  1.00  0.00     0.029 A 
ATOM     76  C   UNL A   1      41.963  28.932  31.378  1.00  0.00     0.049 A 
ATOM     77  H   UNL A   1      39.916  29.016  31.351  1.00  0.00     0.167 HD
ATOM     78  C   UNL A   1      42.876  35.563  33.302  1.00  0.00     0.034 A 
ATOM     79  C   UNL A   1      42.524  28.742  30.143  1.00  0.00     0.034 A 
ATOM     80  C   UNL A   1      43.972  34.755  32.704  1.00  0.00     0.049 A 
ATOM     81  C   UNL A   1      43.694  29.703  29.732  1.00  0.00     0.074 A 
ATOM     82  C   UNL A   1      45.183  34.303  33.208  1.00  0.00     0.029 A 
ATOM     83  N   UNL A   1      43.868  34.167  31.427  1.00  0.00    -0.354 N 
ATOM     84  N   UNL A   1      44.154  30.743  30.393  1.00  0.00    -0.248 NA
ATOM     85  C   UNL A   1      44.407  29.559  28.457  1.00  0.00     0.031 C 
ATOM     86  C   UNL A   1      45.848  33.581  32.197  1.00  0.00     0.029 A 
ATOM     87  C   UNL A   1      44.997  33.405  31.127  1.00  0.00     0.049 A 
ATOM     88  H   UNL A   1      43.097  34.280  30.825  1.00  0.00     0.167 HD
ATOM     89  C   UNL A   1      44.950  31.535  29.567  1.00  0.00     0.074 A 
ATOM     90  C   UNL A   1      45.203  30.644  28.444  1.00  0.00     0.031 C 
ATOM     91  C   UNL A   1      45.307  32.856  29.805  1.00  0.00     0.034 A 
BRANCH  78  92
ATOM     92  C   UNL A   1      43.116  36.779  34.247  1.00  0.00     0.023 A 
ATOM     93  C   UNL A   1      43.283  38.064  33.685  1.00  0.00     0.012 A 
ATOM     94  C   UNL A   1      43.297  36.736  35.653  1.00  0.00     0.148 A 
ATOM     95  C   UNL A   1      43.824  39.151  34.389  1.00  0.00     0.002 A 
ATOM     96  C   UNL A   1      43.898  37.795  36.355  1.00  0.00     0.091 A 
ATOM     97  F   UNL A   1      42.771  35.718  36.348  1.00  0.00    -0.205 F 
ATOM     98  C   UNL A   1      44.193  38.997  35.712  1.00  0.00     0.022 A 
BRANCH  96  99
ATOM     99  S   UNL A   1      44.402  37.670  38.081  1.00  0.00     0.127 S 
ATOM    100  O   UNL A   1      45.255  38.849  38.242  1.00  0.00    -0.237 OA
ATOM    101  O   UNL A   1      43.125  37.747  38.788  1.00  0.00    -0.237 OA
ATOM    102  O   UNL A   1      45.111  36.402  38.200  1.00  0.00    -0.744 OA
ENDBRANCH  96  99
ENDBRANCH  78  92
BRANCH  79 103
ATOM    103  C   UNL A   1      41.566  28.113  29.154  1.00  0.00     0.023 A 
ATOM    104  C   UNL A   1      40.746  29.041  28.471  1.00  0.00     0.012 A 
ATOM    105  C   UNL A   1      41.714  26.832  28.591  1.00  0.00     0.148 A 
ATOM    106  C   UNL A   1      40.288  28.795  27.175  1.00  0.00     0.002 A 
ATOM    107  C   UNL A   1      41.325  26.617  27.259  1.00  0.00     0.091 A 
ATOM    108  F   UNL A   1      42.378  25.899  29.289  1.00  0.00    -0.205 F 
ATOM    109  C   UNL A   1      40.635  27.609  26.545  1.00  0.00     0.022 A 
BRANCH 107 110
ATOM    110  S   UNL A   1      41.938  25.223  26.281  1.00  0.00     0.127 S 
ATOM    111  O   UNL A   1      40.765  24.353  26.235  1.00  0.00    -0.237 OA
ATOM    112  O   UNL A   1      42.279  25.850  25.004  1.00  0.00    -0.237 OA
ATOM    113  O   UNL A   1      43.078  24.703  27.026  1.00  0.00    -0.744 OA
ENDBRANCH 107 110
ENDBRANCH  79 103
BRANCH  91 114
ATOM    114  C   UNL A   1      46.196  33.773  28.903  1.00  0.00     0.023 A 
ATOM    115  C   UNL A   1      47.441  33.375  28.386  1.00  0.00     0.012 A 
ATOM    116  C   UNL A   1      45.792  35.101  28.532  1.00  0.00     0.148 A 
ATOM    117  C   UNL A   1      48.289  34.257  27.690  1.00  0.00     0.002 A 
ATOM    118  C   UNL A   1      46.627  35.976  27.833  1.00  0.00     0.091 A 
ATOM    119  F   UNL A   1      44.564  35.540  28.824  1.00  0.00    -0.205 F 
ATOM    120  C   UNL A   1      47.895  35.562  27.434  1.00  0.00     0.022 A 
BRANCH 118 121
ATOM    121  S   UNL A   1      46.150  37.660  27.393  1.00  0.00     0.127 S 
ATOM    122  O   UNL A   1      46.292  38.353  28.671  1.00  0.00    -0.237 OA
ATOM    123  O   UNL A   1      47.154  38.009  26.393  1.00  0.00    -0.237 OA
ATOM    124  O   UNL A   1      44.780  37.586  26.885  1.00  0.00    -0.744 OA
ENDBRANCH 118 121
ENDBRANCH  91 114
ENDBRANCH  65  66
ENDBRANCH  58  60
ENDBRANCH  57  58
ENDBRANCH  56  57
ENDBRANCH  55  56
ENDBRANCH  54  55
ENDBRANCH  53  54
ENDBRANCH  52  53
ENDBRANCH  51  52
ENDBRANCH  50  51
ENDBRANCH   1  50
TORSDOF 32
ENDMDL
MODEL 2
REMARK VINA RESULT:     -10.3      2.006      2.456
REMARK SMILES Cc1ccc(S(=O)(=O)n2cc(C(=O)C(=O)N[C@@H](Cc3c[nH]c4ccccc34)C(=O)NCC(=O)OCCOCCOCCOCCOC(=O)c3ccc(-c4c5nc(c(-c6cccc(S(=O)(=O)[O-])c6F)c6ccc([nH]6)c(-c6cccc(S(=O)(=O)[O-])c6F)c6nc(c(-c7cccc(S(=O)(=O)[O-])c7F)c7ccc4[nH]7)C=C6)C=C5)cc3)c3ccccc32)cc1
REMARK SMILES IDX 38 1 37 2 36 3 35 4 34 5 32 6 33 7 31 8 30 9 28 10 29 11
REMARK SMILES IDX 17 13 16 14 14 15 15 16 12 18 13 19 11 20 9 21 10 22 117 23
REMARK SMILES IDX 112 24 116 25 113 26 115 27 114 28 6 29 7 30 8 31 5 32 1 33
REMARK SMILES IDX 2 34 3 35 119 36 4 37 118 38 18 39 19 40 20 41 27 42 21 43
REMARK SMILES IDX 22 44 26 45 23 47 25 48 24 49 39 50 40 51 41 52 42 53 43 54
REMARK SMILES IDX 44 55 45 56 46 57 47 58 48 59 49 60 50 61 111 62 51 63
REMARK SMILES IDX 110 64 52 65 53 66 54 67 104 68 55 69 109 70 103 71 105 72
REMARK SMILES IDX 56 73 108 74 102 75 101 76 57 78 89 79 69 80 88 81 70 82
REMARK SMILES IDX 73 83 87 84 106 85 71 86 72 87 86 89 107 90 74 91 58 92
REMARK SMILES IDX 59 93 67 94 60 95 62 96 68 97 61 98 63 99 64 100 65 101
REMARK SMILES IDX 66 102 90 103 91 104 99 105 92 106 94 107 100 108 93 109
REMARK SMILES IDX 95 110 96 111 97 112 98 113 75 114 76 115 84 116 77 117
REMARK SMILES IDX 79 118 85 119 78 120 80 121 81 122 82 123 83 124
REMARK H PARENT 30 12 16 17 21 46 105 77 73 88
REMARK Flexibility Score: inf
ROOT
ATOM      1  C   UNL A   1      34.609  31.003  27.399  1.00  0.00     0.188 C 
ENDROOT
BRANCH   1   2
ATOM      2  O   UNL A   1      33.614  29.971  26.866  1.00  0.00    -0.376 OA
BRANCH   2   3
ATOM      3  C   UNL A   1      32.157  29.378  27.379  1.00  0.00     0.202 C 
BRANCH   3   4
ATOM      4  C   UNL A   1      31.290  27.757  27.559  1.00  0.00     0.261 C 
BRANCH   4   5
ATOM      5  O   UNL A   1      30.370  26.758  26.476  1.00  0.00    -0.462 OA
BRANCH   5   6
ATOM      6  C   UNL A   1      29.737  25.508  26.183  1.00  0.00     0.325 C 
ATOM      7  O   UNL A   1      29.140  24.755  26.970  1.00  0.00    -0.250 OA
BRANCH   6   8
ATOM      8  C   UNL A   1      29.359  25.155  24.611  1.00  0.00     0.238 C 
BRANCH   8   9
ATOM      9  N   UNL A   1      30.437  25.185  23.438  1.00  0.00    -0.343 N 
ATOM     10  C   UNL A   1      31.027  26.113  22.586  1.00  0.00     0.243 C 
ATOM     11  O   UNL A   1      31.381  25.693  21.468  1.00  0.00    -0.273 OA
ATOM     12  H   UNL A   1      30.791  24.281  23.267  1.00  0.00     0.164 HD
BRANCH  10  13
ATOM     13  C   UNL A   1      31.503  27.571  22.984  1.00  0.00     0.176 C 
BRANCH  13  14
ATOM     14  N   UNL A   1      32.954  27.920  22.905  1.00  0.00    -0.337 N 
ATOM     15  C   UNL A   1      34.079  27.707  23.713  1.00  0.00     0.293 C 
ATOM     16  O   UNL A   1      35.141  28.255  23.417  1.00  0.00    -0.265 OA
ATOM     17  H   UNL A   1      33.172  28.421  22.085  1.00  0.00     0.164 HD
BRANCH  15  18
ATOM     18  C   UNL A   1      34.085  26.808  24.973  1.00  0.00     0.252 C 
ATOM     19  O   UNL A   1      34.425  27.339  26.029  1.00  0.00    -0.283 OA
BRANCH  18  20
ATOM     20  C   UNL A   1      33.839  25.329  24.910  1.00  0.00     0.054 A 
ATOM     21  N   UNL A   1      33.057  23.200  24.639  1.00  0.00    -0.240 N 
ATOM     22  C   UNL A   1      32.675  24.524  24.906  1.00  0.00     0.117 A 
ATOM     23  C   UNL A   1      34.444  23.215  24.401  1.00  0.00     0.065 A 
ATOM     24  C   UNL A   1      34.915  24.392  24.969  1.00  0.00     0.012 A 
ATOM     25  C   UNL A   1      35.326  22.190  23.998  1.00  0.00     0.028 A 
ATOM     26  C   UNL A   1      36.265  24.445  25.375  1.00  0.00     0.011 A 
ATOM     27  C   UNL A   1      36.640  22.242  24.454  1.00  0.00     0.002 A 
ATOM     28  C   UNL A   1      37.090  23.331  25.184  1.00  0.00     0.001 A 
BRANCH  21  29
ATOM     29  S   UNL A   1      32.569  21.691  25.386  1.00  0.00     0.268 S 
ATOM     30  O   UNL A   1      31.165  21.922  25.689  1.00  0.00    -0.201 OA
ATOM     31  O   UNL A   1      33.551  21.599  26.465  1.00  0.00    -0.201 OA
BRANCH  29  32
ATOM     32  C   UNL A   1      32.619  20.023  24.826  1.00  0.00     0.088 A 
ATOM     33  C   UNL A   1      33.194  15.737  24.455  1.00  0.00     0.044 C 
ATOM     34  C   UNL A   1      32.939  17.214  24.552  1.00  0.00    -0.051 A 
ATOM     35  C   UNL A   1      32.922  17.776  25.818  1.00  0.00     0.005 A 
ATOM     36  C   UNL A   1      32.766  18.063  23.433  1.00  0.00     0.005 A 
ATOM     37  C   UNL A   1      32.750  19.146  25.943  1.00  0.00     0.022 A 
ATOM     38  C   UNL A   1      32.608  19.474  23.558  1.00  0.00     0.022 A 
ENDBRANCH  29  32
ENDBRANCH  21  29
ENDBRANCH  18  20
ENDBRANCH  15  18
ENDBRANCH  13  14
BRANCH  13  39
ATOM     39  C   UNL A   1      30.565  28.506  22.115  1.00  0.00     0.072 C 
BRANCH  39  40
ATOM     40  C   UNL A   1      29.279  28.850  22.841  1.00  0.00    -0.020 A 
ATOM     41  C   UNL A   1      28.053  28.211  22.723  1.00  0.00     0.087 A 
ATOM     42  C   UNL A   1      29.033  30.127  23.424  1.00  0.00     0.003 A 
ATOM     43  N   UNL A   1      27.073  29.127  23.039  1.00  0.00    -0.361 N 
ATOM     44  C   UNL A   1      27.655  30.333  23.358  1.00  0.00     0.046 A 
ATOM     45  C   UNL A   1      29.891  31.206  23.696  1.00  0.00     0.010 A 
ATOM     46  H   UNL A   1      26.105  28.947  23.036  1.00  0.00     0.166 HD
ATOM     47  C   UNL A   1      27.095  31.608  23.436  1.00  0.00     0.026 A 
ATOM     48  C   UNL A   1      29.369  32.491  23.636  1.00  0.00     0.001 A 
ATOM     49  C   UNL A   1      27.998  32.674  23.503  1.00  0.00     0.002 A 
ENDBRANCH  39  40
ENDBRANCH  13  39
ENDBRANCH  10  13
ENDBRANCH   8   9
ENDBRANCH   6   8
ENDBRANCH   5   6
ENDBRANCH   4   5
ENDBRANCH   3   4
ENDBRANCH   2   3
ENDBRANCH   1   2
BRANCH   1  50
ATOM     50  C   UNL A   1      34.213  32.428  27.977  1.00  0.00     0.188 C 
BRANCH  50  51
ATOM     51  O   UNL A   1      35.149  33.441  27.695  1.00  0.00    -0.377 OA
BRANCH  51  52
ATOM     52  C   UNL A   1      35.010  34.572  28.550  1.00  0.00     0.188 C 
BRANCH  52  53
ATOM     53  C   UNL A   1      33.601  34.784  29.125  1.00  0.00     0.188 C 
BRANCH  53  54
ATOM     54  O   UNL A   1      33.655  35.556  30.321  1.00  0.00    -0.376 OA
BRANCH  54  55
ATOM     55  C   UNL A   1      32.820  35.344  31.422  1.00  0.00     0.202 C 
BRANCH  55  56
ATOM     56  C   UNL A   1      33.646  35.091  32.683  1.00  0.00     0.261 C 
BRANCH  56  57
ATOM     57  O   UNL A   1      34.593  34.028  32.440  1.00  0.00    -0.460 OA
BRANCH  57  58
ATOM     58  C   UNL A   1      35.884  34.254  32.824  1.00  0.00     0.338 C 
ATOM     59  O   UNL A   1      36.355  35.345  33.085  1.00  0.00    -0.246 OA
BRANCH  58  60
ATOM     60  C   UNL A   1      36.648  32.975  32.653  1.00  0.00     0.060 A 
ATOM     61  C   UNL A   1      36.978  32.183  33.751  1.00  0.00     0.016 A 
ATOM     62  C   UNL A   1      37.303  32.733  31.441  1.00  0.00     0.016 A 
ATOM     63  C   UNL A   1      38.097  31.337  33.664  1.00  0.00     0.010 A 
ATOM     64  C   UNL A   1      38.526  32.075  31.450  1.00  0.00     0.010 A 
ATOM     65  C   UNL A   1      39.037  31.528  32.636  1.00  0.00    -0.014 A 
BRANCH  65  66
ATOM     66  C   UNL A   1      40.592  31.225  32.615  1.00  0.00     0.031 A 
ATOM     67  C   UNL A   1      41.166  32.735  32.659  1.00  0.00     0.074 A 
ATOM     68  C   UNL A   1      41.282  29.931  32.302  1.00  0.00     0.049 A 
ATOM     69  N   UNL A   1      42.092  33.284  31.920  1.00  0.00    -0.248 NA
ATOM     70  C   UNL A   1      40.420  33.799  33.372  1.00  0.00     0.031 C 
ATOM     71  C   UNL A   1      42.360  29.166  32.917  1.00  0.00     0.029 A 
ATOM     72  N   UNL A   1      41.275  28.928  31.192  1.00  0.00    -0.354 N 
ATOM     73  C   UNL A   1      42.273  34.593  32.311  1.00  0.00     0.074 A 
ATOM     74  C   UNL A   1      41.078  34.907  33.035  1.00  0.00     0.031 C 
ATOM     75  C   UNL A   1      43.063  28.443  31.967  1.00  0.00     0.029 A 
ATOM     76  C   UNL A   1      42.471  28.509  30.695  1.00  0.00     0.049 A 
ATOM     77  H   UNL A   1      40.429  28.579  30.831  1.00  0.00     0.167 HD
ATOM     78  C   UNL A   1      43.467  35.243  32.171  1.00  0.00     0.034 A 
ATOM     79  C   UNL A   1      42.932  28.254  29.431  1.00  0.00     0.034 A 
ATOM     80  C   UNL A   1      44.519  34.410  31.531  1.00  0.00     0.049 A 
ATOM     81  C   UNL A   1      44.054  29.199  28.873  1.00  0.00     0.074 A 
ATOM     82  C   UNL A   1      45.772  33.993  31.957  1.00  0.00     0.029 A 
ATOM     83  N   UNL A   1      44.318  33.750  30.300  1.00  0.00    -0.354 N 
ATOM     84  N   UNL A   1      44.555  30.276  29.436  1.00  0.00    -0.248 NA
ATOM     85  C   UNL A   1      44.662  28.988  27.553  1.00  0.00     0.031 C 
ATOM     86  C   UNL A   1      46.361  33.221  30.936  1.00  0.00     0.029 A 
ATOM     87  C   UNL A   1      45.427  32.980  29.951  1.00  0.00     0.049 A 
ATOM     88  H   UNL A   1      43.500  33.825  29.758  1.00  0.00     0.167 HD
ATOM     89  C   UNL A   1      45.272  31.026  28.505  1.00  0.00     0.074 A 
ATOM     90  C   UNL A   1      45.443  30.076  27.416  1.00  0.00     0.031 C 
ATOM     91  C   UNL A   1      45.634  32.361  28.640  1.00  0.00     0.034 A 
BRANCH  78  92
ATOM     92  C   UNL A   1      43.771  36.511  33.025  1.00  0.00     0.023 A 
ATOM     93  C   UNL A   1      43.889  36.384  34.426  1.00  0.00     0.012 A 
ATOM     94  C   UNL A   1      43.845  37.848  32.558  1.00  0.00     0.148 A 
ATOM     95  C   UNL A   1      43.829  37.473  35.309  1.00  0.00     0.002 A 
ATOM     96  C   UNL A   1      43.720  38.944  33.428  1.00  0.00     0.091 A 
ATOM     97  F   UNL A   1      44.167  38.075  31.277  1.00  0.00    -0.205 F 
ATOM     98  C   UNL A   1      43.679  38.754  34.810  1.00  0.00     0.022 A 
BRANCH  96  99
ATOM     99  S   UNL A   1      43.525  40.641  32.851  1.00  0.00     0.127 S 
ATOM    100  O   UNL A   1      42.399  40.526  31.921  1.00  0.00    -0.237 OA
ATOM    101  O   UNL A   1      43.217  41.359  34.086  1.00  0.00    -0.237 OA
ATOM    102  O   UNL A   1      44.788  40.996  32.215  1.00  0.00    -0.744 OA
ENDBRANCH  96  99
ENDBRANCH  78  92
BRANCH  79 103
ATOM    103  C   UNL A   1      41.903  27.565  28.559  1.00  0.00     0.023 A 
ATOM    104  C   UNL A   1      41.324  28.401  27.576  1.00  0.00     0.012 A 
ATOM    105  C   UNL A   1      41.803  26.174  28.378  1.00  0.00     0.148 A 
ATOM    106  C   UNL A   1      40.876  27.891  26.356  1.00  0.00     0.002 A 
ATOM    107  C   UNL A   1      41.430  25.670  27.121  1.00  0.00     0.091 A 
ATOM    108  F   UNL A   1      42.228  25.368  29.361  1.00  0.00    -0.205 F 
ATOM    109  C   UNL A   1      40.992  26.531  26.104  1.00  0.00     0.022 A 
BRANCH 107 110
ATOM    110  S   UNL A   1      41.775  23.966  26.617  1.00  0.00     0.127 S 
ATOM    111  O   UNL A   1      42.702  24.166  25.506  1.00  0.00    -0.237 OA
ATOM    112  O   UNL A   1      42.381  23.392  27.819  1.00  0.00    -0.237 OA
ATOM    113  O   UNL A   1      40.479  23.401  26.262  1.00  0.00    -0.744 OA
ENDBRANCH 107 110
ENDBRANCH  79 103
BRANCH  91 114
ATOM    114  C   UNL A   1      46.436  33.231  27.619  1.00  0.00     0.023 A 
ATOM    115  C   UNL A   1      45.864  34.281  26.881  1.00  0.00     0.012 A 
ATOM    116  C   UNL A   1      47.835  33.016  27.366  1.00  0.00     0.148 A 
ATOM    117  C   UNL A   1      46.563  34.965  25.869  1.00  0.00     0.002 A 
ATOM    118  C   UNL A   1      48.534  33.699  26.368  1.00  0.00     0.091 A 
ATOM    119  F   UNL A   1      48.532  32.158  28.115  1.00  0.00    -0.205 F 
ATOM    120  C   UNL A   1      47.888  34.660  25.595  1.00  0.00     0.022 A 
BRANCH 118 121
ATOM    121  S   UNL A   1      50.280  33.414  26.012  1.00  0.00     0.127 S 
ATOM    122  O   UNL A   1      50.920  33.958  27.207  1.00  0.00    -0.237 OA
ATOM    123  O   UNL A   1      50.334  31.960  25.897  1.00  0.00    -0.237 OA
ATOM    124  O   UNL A   1      50.578  34.138  24.775  1.00  0.00    -0.744 OA
ENDBRANCH 118 121
ENDBRANCH  91 114
ENDBRANCH  65  66
ENDBRANCH  58  60
ENDBRANCH  57  58
ENDBRANCH  56  57
ENDBRANCH  55  56
ENDBRANCH  54  55
ENDBRANCH  53  54
ENDBRANCH  52  53
ENDBRANCH  51  52
ENDBRANCH  50  51
ENDBRANCH   1  50
TORSDOF 32
ENDMDL
MODEL 3
REMARK VINA RESULT:      -9.5      1.783      2.107
REMARK SMILES Cc1ccc(S(=O)(=O)n2cc(C(=O)C(=O)N[C@@H](Cc3c[nH]c4ccccc34)C(=O)NCC(=O)OCCOCCOCCOCCOC(=O)c3ccc(-c4c5nc(c(-c6cccc(S(=O)(=O)[O-])c6F)c6ccc([nH]6)c(-c6cccc(S(=O)(=O)[O-])c6F)c6nc(c(-c7cccc(S(=O)(=O)[O-])c7F)c7ccc4[nH]7)C=C6)C=C5)cc3)c3ccccc32)cc1
REMARK SMILES IDX 38 1 37 2 36 3 35 4 34 5 32 6 33 7 31 8 30 9 28 10 29 11
REMARK SMILES IDX 17 13 16 14 14 15 15 16 12 18 13 19 11 20 9 21 10 22 117 23
REMARK SMILES IDX 112 24 116 25 113 26 115 27 114 28 6 29 7 30 8 31 5 32 1 33
REMARK SMILES IDX 2 34 3 35 119 36 4 37 118 38 18 39 19 40 20 41 27 42 21 43
REMARK SMILES IDX 22 44 26 45 23 47 25 48 24 49 39 50 40 51 41 52 42 53 43 54
REMARK SMILES IDX 44 55 45 56 46 57 47 58 48 59 49 60 50 61 111 62 51 63
REMARK SMILES IDX 110 64 52 65 53 66 54 67 104 68 55 69 109 70 103 71 105 72
REMARK SMILES IDX 56 73 108 74 102 75 101 76 57 78 89 79 69 80 88 81 70 82
REMARK SMILES IDX 73 83 87 84 106 85 71 86 72 87 86 89 107 90 74 91 58 92
REMARK SMILES IDX 59 93 67 94 60 95 62 96 68 97 61 98 63 99 64 100 65 101
REMARK SMILES IDX 66 102 90 103 91 104 99 105 92 106 94 107 100 108 93 109
REMARK SMILES IDX 95 110 96 111 97 112 98 113 75 114 76 115 84 116 77 117
REMARK SMILES IDX 79 118 85 119 78 120 80 121 81 122 82 123 83 124
REMARK H PARENT 30 12 16 17 21 46 105 77 73 88
REMARK Flexibility Score: inf
ROOT
ATOM      1  C   UNL A   1      34.634  31.177  27.495  1.00  0.00     0.188 C 
ENDROOT
BRANCH   1   2
ATOM      2  O   UNL A   1      33.725  30.058  26.986  1.00  0.00    -0.376 OA
BRANCH   2   3
ATOM      3  C   UNL A   1      32.201  29.530  27.356  1.00  0.00     0.202 C 
BRANCH   3   4
ATOM      4  C   UNL A   1      31.280  27.942  27.559  1.00  0.00     0.261 C 
BRANCH   4   5
ATOM      5  O   UNL A   1      30.408  26.909  26.467  1.00  0.00    -0.462 OA
BRANCH   5   6
ATOM      6  C   UNL A   1      29.829  25.636  26.168  1.00  0.00     0.325 C 
ATOM      7  O   UNL A   1      29.266  24.853  26.952  1.00  0.00    -0.250 OA
BRANCH   6   8
ATOM      8  C   UNL A   1      29.460  25.277  24.595  1.00  0.00     0.238 C 
BRANCH   8   9
ATOM      9  N   UNL A   1      30.543  25.319  23.426  1.00  0.00    -0.343 N 
ATOM     10  C   UNL A   1      31.145  26.258  22.595  1.00  0.00     0.243 C 
ATOM     11  O   UNL A   1      31.498  25.856  21.469  1.00  0.00    -0.273 OA
ATOM     12  H   UNL A   1      30.887  24.415  23.237  1.00  0.00     0.164 HD
BRANCH  10  13
ATOM     13  C   UNL A   1      31.636  27.702  23.023  1.00  0.00     0.176 C 
BRANCH  13  14
ATOM     14  N   UNL A   1      33.093  28.029  22.979  1.00  0.00    -0.337 N 
ATOM     15  C   UNL A   1      34.194  27.801  23.816  1.00  0.00     0.293 C 
ATOM     16  O   UNL A   1      35.272  28.332  23.546  1.00  0.00    -0.265 OA
ATOM     17  H   UNL A   1      33.340  28.523  22.164  1.00  0.00     0.164 HD
BRANCH  15  18
ATOM     18  C   UNL A   1      34.155  26.907  25.079  1.00  0.00     0.252 C 
ATOM     19  O   UNL A   1      34.454  27.443  26.146  1.00  0.00    -0.283 OA
BRANCH  18  20
ATOM     20  C   UNL A   1      33.915  25.428  25.013  1.00  0.00     0.054 A 
ATOM     21  N   UNL A   1      33.138  23.297  24.743  1.00  0.00    -0.240 N 
ATOM     22  C   UNL A   1      32.754  24.618  25.020  1.00  0.00     0.117 A 
ATOM     23  C   UNL A   1      34.522  23.318  24.489  1.00  0.00     0.065 A 
ATOM     24  C   UNL A   1      34.995  24.495  25.056  1.00  0.00     0.012 A 
ATOM     25  C   UNL A   1      35.404  22.299  24.071  1.00  0.00     0.028 A 
ATOM     26  C   UNL A   1      36.349  24.552  25.446  1.00  0.00     0.011 A 
ATOM     27  C   UNL A   1      36.722  22.355  24.511  1.00  0.00     0.002 A 
ATOM     28  C   UNL A   1      37.176  23.442  25.241  1.00  0.00     0.001 A 
BRANCH  21  29
ATOM     29  S   UNL A   1      32.665  21.783  25.490  1.00  0.00     0.268 S 
ATOM     30  O   UNL A   1      31.293  22.041  25.900  1.00  0.00    -0.201 OA
ATOM     31  O   UNL A   1      33.720  21.639  26.491  1.00  0.00    -0.201 OA
BRANCH  29  32
ATOM     32  C   UNL A   1      32.629  20.128  24.890  1.00  0.00     0.088 A 
ATOM     33  C   UNL A   1      33.099  15.846  24.359  1.00  0.00     0.044 C 
ATOM     34  C   UNL A   1      32.878  17.324  24.517  1.00  0.00    -0.051 A 
ATOM     35  C   UNL A   1      33.011  17.855  25.790  1.00  0.00     0.005 A 
ATOM     36  C   UNL A   1      32.591  18.201  23.445  1.00  0.00     0.005 A 
ATOM     37  C   UNL A   1      32.873  19.223  25.965  1.00  0.00     0.022 A 
ATOM     38  C   UNL A   1      32.467  19.610  23.619  1.00  0.00     0.022 A 
ENDBRANCH  29  32
ENDBRANCH  21  29
ENDBRANCH  18  20
ENDBRANCH  15  18
ENDBRANCH  13  14
BRANCH  13  39
ATOM     39  C   UNL A   1      30.732  28.664  22.148  1.00  0.00     0.072 C 
BRANCH  39  40
ATOM     40  C   UNL A   1      29.438  29.023  22.854  1.00  0.00    -0.020 A 
ATOM     41  C   UNL A   1      28.244  28.315  22.826  1.00  0.00     0.087 A 
ATOM     42  C   UNL A   1      29.134  30.341  23.299  1.00  0.00     0.003 A 
ATOM     43  N   UNL A   1      27.223  29.212  23.057  1.00  0.00    -0.361 N 
ATOM     44  C   UNL A   1      27.748  30.472  23.234  1.00  0.00     0.046 A 
ATOM     45  C   UNL A   1      29.941  31.485  23.438  1.00  0.00     0.010 A 
ATOM     46  H   UNL A   1      26.266  28.985  23.090  1.00  0.00     0.166 HD
ATOM     47  C   UNL A   1      27.125  31.719  23.182  1.00  0.00     0.026 A 
ATOM     48  C   UNL A   1      29.354  32.729  23.247  1.00  0.00     0.001 A 
ATOM     49  C   UNL A   1      27.974  32.829  23.117  1.00  0.00     0.002 A 
ENDBRANCH  39  40
ENDBRANCH  13  39
ENDBRANCH  10  13
ENDBRANCH   8   9
ENDBRANCH   6   8
ENDBRANCH   5   6
ENDBRANCH   4   5
ENDBRANCH   3   4
ENDBRANCH   2   3
ENDBRANCH   1   2
BRANCH   1  50
ATOM     50  C   UNL A   1      34.127  32.581  28.034  1.00  0.00     0.188 C 
BRANCH  50  51
ATOM     51  O   UNL A   1      35.025  33.642  27.805  1.00  0.00    -0.377 OA
BRANCH  51  52
ATOM     52  C   UNL A   1      34.715  34.801  28.574  1.00  0.00     0.188 C 
BRANCH  52  53
ATOM     53  C   UNL A   1      33.268  34.875  29.084  1.00  0.00     0.188 C 
BRANCH  53  54
ATOM     54  O   UNL A   1      33.144  35.859  30.107  1.00  0.00    -0.376 OA
BRANCH  54  55
ATOM     55  C   UNL A   1      32.293  35.732  31.210  1.00  0.00     0.202 C 
BRANCH  55  56
ATOM     56  C   UNL A   1      33.095  35.713  32.510  1.00  0.00     0.261 C 
BRANCH  56  57
ATOM     57  O   UNL A   1      33.934  34.538  32.547  1.00  0.00    -0.460 OA
BRANCH  57  58
ATOM     58  C   UNL A   1      35.282  34.746  32.610  1.00  0.00     0.338 C 
ATOM     59  O   UNL A   1      35.821  35.836  32.628  1.00  0.00    -0.246 OA
BRANCH  58  60
ATOM     60  C   UNL A   1      35.962  33.422  32.433  1.00  0.00     0.060 A 
ATOM     61  C   UNL A   1      35.932  32.457  33.438  1.00  0.00     0.016 A 
ATOM     62  C   UNL A   1      36.890  33.269  31.397  1.00  0.00     0.016 A 
ATOM     63  C   UNL A   1      36.966  31.506  33.497  1.00  0.00     0.010 A 
ATOM     64  C   UNL A   1      38.014  32.479  31.604  1.00  0.00     0.010 A 
ATOM     65  C   UNL A   1      38.153  31.724  32.777  1.00  0.00    -0.014 A 
BRANCH  65  66
ATOM     66  C   UNL A   1      39.631  31.248  33.093  1.00  0.00     0.031 A 
ATOM     67  C   UNL A   1      40.286  32.660  33.528  1.00  0.00     0.074 A 
ATOM     68  C   UNL A   1      40.279  29.940  32.752  1.00  0.00     0.049 A 
ATOM     69  N   UNL A   1      41.412  33.196  33.144  1.00  0.00    -0.248 NA
ATOM     70  C   UNL A   1      39.461  33.693  34.199  1.00  0.00     0.031 C 
ATOM     71  C   UNL A   1      41.096  28.977  33.480  1.00  0.00     0.029 A 
ATOM     72  N   UNL A   1      40.490  29.110  31.524  1.00  0.00    -0.354 N 
ATOM     73  C   UNL A   1      41.582  34.408  33.779  1.00  0.00     0.074 A 
ATOM     74  C   UNL A   1      40.266  34.754  34.225  1.00  0.00     0.031 C 
ATOM     75  C   UNL A   1      41.968  28.318  32.628  1.00  0.00     0.029 A 
ATOM     76  C   UNL A   1      41.739  28.630  31.278  1.00  0.00     0.049 A 
ATOM     77  H   UNL A   1      39.744  28.916  30.912  1.00  0.00     0.167 HD
ATOM     78  C   UNL A   1      42.817  34.929  34.050  1.00  0.00     0.034 A 
ATOM     79  C   UNL A   1      42.496  28.504  30.143  1.00  0.00     0.034 A 
ATOM     80  C   UNL A   1      43.934  34.077  33.562  1.00  0.00     0.049 A 
ATOM     81  C   UNL A   1      43.794  29.381  30.047  1.00  0.00     0.074 A 
ATOM     82  C   UNL A   1      44.996  33.463  34.212  1.00  0.00     0.029 A 
ATOM     83  N   UNL A   1      44.016  33.625  32.229  1.00  0.00    -0.354 N 
ATOM     84  N   UNL A   1      44.209  30.304  30.887  1.00  0.00    -0.248 NA
ATOM     85  C   UNL A   1      44.711  29.289  28.903  1.00  0.00     0.031 C 
ATOM     86  C   UNL A   1      45.772  32.779  33.256  1.00  0.00     0.029 A 
ATOM     87  C   UNL A   1      45.115  32.789  32.043  1.00  0.00     0.049 A 
ATOM     88  H   UNL A   1      43.377  33.870  31.521  1.00  0.00     0.167 HD
ATOM     89  C   UNL A   1      45.201  31.089  30.301  1.00  0.00     0.074 A 
ATOM     90  C   UNL A   1      45.580  30.288  29.147  1.00  0.00     0.031 C 
ATOM     91  C   UNL A   1      45.614  32.340  30.741  1.00  0.00     0.034 A 
BRANCH  78  92
ATOM     92  C   UNL A   1      42.980  36.020  35.151  1.00  0.00     0.023 A 
ATOM     93  C   UNL A   1      43.367  37.324  34.774  1.00  0.00     0.012 A 
ATOM     94  C   UNL A   1      42.880  35.830  36.553  1.00  0.00     0.148 A 
ATOM     95  C   UNL A   1      43.859  38.277  35.679  1.00  0.00     0.002 A 
ATOM     96  C   UNL A   1      43.428  36.748  37.464  1.00  0.00     0.091 A 
ATOM     97  F   UNL A   1      42.140  34.818  37.024  1.00  0.00    -0.205 F 
ATOM     98  C   UNL A   1      43.950  37.964  37.022  1.00  0.00     0.022 A 
BRANCH  96  99
ATOM     99  S   UNL A   1      43.575  36.413  39.230  1.00  0.00     0.127 S 
ATOM    100  O   UNL A   1      44.389  37.539  39.694  1.00  0.00    -0.237 OA
ATOM    101  O   UNL A   1      42.184  36.449  39.674  1.00  0.00    -0.237 OA
ATOM    102  O   UNL A   1      44.236  35.118  39.337  1.00  0.00    -0.744 OA
ENDBRANCH  96  99
ENDBRANCH  78  92
BRANCH  79 103
ATOM    103  C   UNL A   1      41.685  28.068  28.942  1.00  0.00     0.023 A 
ATOM    104  C   UNL A   1      41.238  29.135  28.127  1.00  0.00     0.012 A 
ATOM    105  C   UNL A   1      41.706  26.779  28.379  1.00  0.00     0.148 A 
ATOM    106  C   UNL A   1      41.047  28.973  26.754  1.00  0.00     0.002 A 
ATOM    107  C   UNL A   1      41.595  26.635  26.987  1.00  0.00     0.091 A 
ATOM    108  F   UNL A   1      42.000  25.739  29.174  1.00  0.00    -0.205 F 
ATOM    109  C   UNL A   1      41.291  27.737  26.174  1.00  0.00     0.022 A 
BRANCH 107 110
ATOM    110  S   UNL A   1      42.132  25.139  26.121  1.00  0.00     0.127 S 
ATOM    111  O   UNL A   1      43.461  24.925  26.688  1.00  0.00    -0.237 OA
ATOM    112  O   UNL A   1      41.131  24.153  26.530  1.00  0.00    -0.237 OA
ATOM    113  O   UNL A   1      42.100  25.484  24.705  1.00  0.00    -0.744 OA
ENDBRANCH 107 110
ENDBRANCH  79 103
BRANCH  91 114
ATOM    114  C   UNL A   1      46.720  33.247  30.110  1.00  0.00     0.023 A 
ATOM    115  C   UNL A   1      46.441  34.430  29.406  1.00  0.00     0.012 A 
ATOM    116  C   UNL A   1      48.118  32.929  30.215  1.00  0.00     0.148 A 
ATOM    117  C   UNL A   1      47.435  35.161  28.728  1.00  0.00     0.002 A 
ATOM    118  C   UNL A   1      49.108  33.658  29.551  1.00  0.00     0.091 A 
ATOM    119  F   UNL A   1      48.526  31.921  30.991  1.00  0.00    -0.205 F 
ATOM    120  C   UNL A   1      48.763  34.764  28.780  1.00  0.00     0.022 A 
BRANCH 118 121
ATOM    121  S   UNL A   1      50.864  33.250  29.640  1.00  0.00     0.127 S 
ATOM    122  O   UNL A   1      50.890  31.918  29.041  1.00  0.00    -0.237 OA
ATOM    123  O   UNL A   1      51.462  34.301  28.822  1.00  0.00    -0.237 OA
ATOM    124  O   UNL A   1      51.231  33.291  31.056  1.00  0.00    -0.744 OA
ENDBRANCH 118 121
ENDBRANCH  91 114
ENDBRANCH  65  66
ENDBRANCH  58  60
ENDBRANCH  57  58
ENDBRANCH  56  57
ENDBRANCH  55  56
ENDBRANCH  54  55
ENDBRANCH  53  54
ENDBRANCH  52  53
ENDBRANCH  51  52
ENDBRANCH  50  51
ENDBRANCH   1  50
TORSDOF 32
ENDMDL
