MODEL 1
REMARK VINA RESULT:      -8.3      0.000      0.000
REMARK SMILES C[C@](NC(=O)[C@](C)([NH3+])C(F)(F)F)(C(=O)OCCOCCOCCOCCOC(=O)c1ccc(-c2c3nc(c(-c4cccc(S(=O)(=O)[O-])c4F)c4ccc([nH]4)c(-c4cccc(S(=O)(=O)[O-])c4F)c4nc(c(-c5cccc(S(=O)(=O)[O-])c5F)c5ccc2[nH]5)C=C4)C=C3)cc1)c1ccccc1
REMARK SMILES IDX 21 1 20 2 19 3 18 4 17 5 16 6 15 7 13 8 14 9 2 10 1 11 93 12
REMARK SMILES IDX 94 13 98 14 95 15 97 16 96 17 3 18 4 19 5 21 6 22 7 23 8 24
REMARK SMILES IDX 9 28 10 29 11 30 12 31 22 32 23 33 24 34 25 35 26 36 27 37
REMARK SMILES IDX 28 38 29 39 30 40 31 41 92 42 32 43 91 44 33 45 34 46 35 47
REMARK SMILES IDX 85 48 36 49 90 50 84 51 86 52 37 53 89 54 83 55 82 56 38 58
REMARK SMILES IDX 70 59 50 60 69 61 51 62 54 63 68 64 87 65 52 66 53 67 67 69
REMARK SMILES IDX 88 70 55 71 39 72 40 73 48 74 41 75 43 76 49 77 42 78 44 79
REMARK SMILES IDX 45 80 46 81 47 82 71 83 72 84 80 85 73 86 75 87 81 88 74 89
REMARK SMILES IDX 76 90 77 91 78 92 79 93 56 94 57 95 65 96 58 97 60 98 66 99
REMARK SMILES IDX 59 100 61 101 62 102 63 103 64 104
REMARK H PARENT 3 20 8 25 8 26 8 27 86 57 54 68
REMARK Flexibility Score: inf
ROOT
ATOM      1  O   UNL A   1      42.181  25.319  27.030  1.00  0.00    -0.377 OA
ENDROOT
BRANCH   1   2
ATOM      2  C   UNL A   1      40.892  24.761  26.887  1.00  0.00     0.188 C 
BRANCH   2   3
ATOM      3  C   UNL A   1      40.822  23.247  27.196  1.00  0.00     0.188 C 
BRANCH   3   4
ATOM      4  O   UNL A   1      39.634  22.504  26.976  1.00  0.00    -0.376 OA
BRANCH   4   5
ATOM      5  C   UNL A   1      38.590  23.050  26.191  1.00  0.00     0.202 C 
BRANCH   5   6
ATOM      6  C   UNL A   1      37.582  22.150  25.441  1.00  0.00     0.261 C 
BRANCH   6   7
ATOM      7  O   UNL A   1      36.251  22.007  25.977  1.00  0.00    -0.461 OA
BRANCH   7   8
ATOM      8  C   UNL A   1      35.580  20.873  25.635  1.00  0.00     0.336 C 
ATOM      9  O   UNL A   1      36.079  19.963  24.977  1.00  0.00    -0.249 OA
BRANCH   8  10
ATOM     10  C   UNL A   1      34.058  20.895  26.071  1.00  0.00     0.161 C 
ATOM     11  C   UNL A   1      34.126  21.632  27.415  1.00  0.00     0.053 C 
BRANCH  10  12
ATOM     12  C   UNL A   1      33.254  21.736  25.004  1.00  0.00    -0.012 A 
ATOM     13  C   UNL A   1      33.802  22.108  23.763  1.00  0.00     0.007 A 
ATOM     14  C   UNL A   1      31.915  22.132  25.230  1.00  0.00     0.007 A 
ATOM     15  C   UNL A   1      33.045  22.773  22.791  1.00  0.00     0.000 A 
ATOM     16  C   UNL A   1      31.150  22.781  24.254  1.00  0.00     0.000 A 
ATOM     17  C   UNL A   1      31.714  23.094  23.028  1.00  0.00     0.000 A 
ENDBRANCH  10  12
BRANCH  10  18
ATOM     18  N   UNL A   1      33.369  19.555  26.145  1.00  0.00    -0.331 N 
ATOM     19  C   UNL A   1      32.972  18.450  25.478  1.00  0.00     0.291 C 
ATOM     20  H   UNL A   1      33.090  19.434  27.081  1.00  0.00     0.165 HD
ATOM     21  O   UNL A   1      32.138  17.812  26.145  1.00  0.00    -0.267 OA
BRANCH  19  22
ATOM     22  C   UNL A   1      33.537  17.813  24.200  1.00  0.00     0.267 C 
ATOM     23  C   UNL A   1      33.406  16.288  24.376  1.00  0.00     0.100 C 
BRANCH  22  24
ATOM     24  N   UNL A   1      34.972  18.091  23.968  1.00  0.00    -0.337 N 
ATOM     25  H   UNL A   1      35.326  17.471  23.239  1.00  0.00     0.345 HD
ATOM     26  H   UNL A   1      35.493  17.934  24.831  1.00  0.00     0.345 HD
ATOM     27  H   UNL A   1      35.087  19.062  23.674  1.00  0.00     0.345 HD
ENDBRANCH  22  24
BRANCH  22  28
ATOM     28  C   UNL A   1      32.642  18.273  23.014  1.00  0.00     0.453 C 
ATOM     29  F   UNL A   1      33.362  18.282  21.862  1.00  0.00    -0.164 F 
ATOM     30  F   UNL A   1      31.579  17.472  22.794  1.00  0.00    -0.164 F 
ATOM     31  F   UNL A   1      32.192  19.535  23.211  1.00  0.00    -0.164 F 
ENDBRANCH  22  28
ENDBRANCH  19  22
ENDBRANCH  10  18
ENDBRANCH   8  10
ENDBRANCH   7   8
ENDBRANCH   6   7
ENDBRANCH   5   6
ENDBRANCH   4   5
ENDBRANCH   3   4
ENDBRANCH   2   3
ENDBRANCH   1   2
BRANCH   1  32
ATOM     32  C   UNL A   1      42.795  25.735  25.819  1.00  0.00     0.188 C 
BRANCH  32  33
ATOM     33  C   UNL A   1      43.932  24.836  25.295  1.00  0.00     0.188 C 
BRANCH  33  34
ATOM     34  O   UNL A   1      43.904  23.514  25.829  1.00  0.00    -0.376 OA
BRANCH  34  35
ATOM     35  C   UNL A   1      45.120  22.863  26.156  1.00  0.00     0.202 C 
BRANCH  35  36
ATOM     36  C   UNL A   1      46.061  23.559  27.153  1.00  0.00     0.261 C 
BRANCH  36  37
ATOM     37  O   UNL A   1      47.377  23.861  26.679  1.00  0.00    -0.460 OA
BRANCH  37  38
ATOM     38  C   UNL A   1      48.126  24.697  27.427  1.00  0.00     0.338 C 
ATOM     39  O   UNL A   1      49.314  24.577  27.688  1.00  0.00    -0.246 OA
BRANCH  38  40
ATOM     40  C   UNL A   1      47.330  25.910  27.697  1.00  0.00     0.060 A 
ATOM     41  C   UNL A   1      46.636  26.500  26.633  1.00  0.00     0.016 A 
ATOM     42  C   UNL A   1      47.261  26.461  28.980  1.00  0.00     0.016 A 
ATOM     43  C   UNL A   1      45.928  27.681  26.830  1.00  0.00     0.010 A 
ATOM     44  C   UNL A   1      46.573  27.663  29.172  1.00  0.00     0.010 A 
ATOM     45  C   UNL A   1      45.956  28.303  28.084  1.00  0.00    -0.014 A 
BRANCH  45  46
ATOM     46  C   UNL A   1      45.579  29.734  28.164  1.00  0.00     0.031 A 
ATOM     47  C   UNL A   1      44.210  30.070  28.692  1.00  0.00     0.074 A 
ATOM     48  C   UNL A   1      46.444  30.709  27.839  1.00  0.00     0.049 A 
ATOM     49  N   UNL A   1      43.665  31.238  28.905  1.00  0.00    -0.248 NA
ATOM     50  C   UNL A   1      43.338  28.931  29.031  1.00  0.00     0.031 C 
ATOM     51  C   UNL A   1      47.804  30.508  27.344  1.00  0.00     0.029 A 
ATOM     52  N   UNL A   1      46.295  32.073  27.876  1.00  0.00    -0.354 N 
ATOM     53  C   UNL A   1      42.379  30.976  29.363  1.00  0.00     0.074 A 
ATOM     54  C   UNL A   1      42.220  29.540  29.390  1.00  0.00     0.031 C 
ATOM     55  C   UNL A   1      48.363  31.709  27.107  1.00  0.00     0.029 A 
ATOM     56  C   UNL A   1      47.392  32.758  27.414  1.00  0.00     0.049 A 
ATOM     57  H   UNL A   1      45.480  32.518  28.202  1.00  0.00     0.167 HD
ATOM     58  C   UNL A   1      41.418  31.851  29.739  1.00  0.00     0.034 A 
ATOM     59  C   UNL A   1      47.580  34.082  27.246  1.00  0.00     0.034 A 
ATOM     60  C   UNL A   1      41.586  33.278  29.726  1.00  0.00     0.049 A 
ATOM     61  C   UNL A   1      46.480  35.036  27.642  1.00  0.00     0.074 A 
ATOM     62  C   UNL A   1      40.693  34.252  30.134  1.00  0.00     0.029 A 
ATOM     63  N   UNL A   1      42.714  33.935  29.260  1.00  0.00    -0.354 N 
ATOM     64  N   UNL A   1      45.312  34.778  28.179  1.00  0.00    -0.248 NA
ATOM     65  C   UNL A   1      46.743  36.469  27.441  1.00  0.00     0.031 C 
ATOM     66  C   UNL A   1      41.263  35.502  29.868  1.00  0.00     0.029 A 
ATOM     67  C   UNL A   1      42.534  35.305  29.349  1.00  0.00     0.049 A 
ATOM     68  H   UNL A   1      43.524  33.494  28.915  1.00  0.00     0.167 HD
ATOM     69  C   UNL A   1      44.722  36.014  28.426  1.00  0.00     0.074 A 
ATOM     70  C   UNL A   1      45.670  37.019  27.992  1.00  0.00     0.031 C 
ATOM     71  C   UNL A   1      43.505  36.293  28.958  1.00  0.00     0.034 A 
BRANCH  58  72
ATOM     72  C   UNL A   1      40.095  31.286  30.185  1.00  0.00     0.023 A 
ATOM     73  C   UNL A   1      39.015  31.206  29.281  1.00  0.00     0.012 A 
ATOM     74  C   UNL A   1      39.933  30.804  31.498  1.00  0.00     0.148 A 
ATOM     75  C   UNL A   1      37.785  30.692  29.691  1.00  0.00     0.002 A 
ATOM     76  C   UNL A   1      38.722  30.244  31.883  1.00  0.00     0.091 A 
ATOM     77  F   UNL A   1      40.963  30.914  32.350  1.00  0.00    -0.205 F 
ATOM     78  C   UNL A   1      37.642  30.201  30.986  1.00  0.00     0.022 A 
BRANCH  76  79
ATOM     79  S   UNL A   1      38.467  29.510  33.501  1.00  0.00     0.127 S 
ATOM     80  O   UNL A   1      37.264  28.710  33.275  1.00  0.00    -0.237 OA
ATOM     81  O   UNL A   1      39.692  28.731  33.680  1.00  0.00    -0.237 OA
ATOM     82  O   UNL A   1      38.312  30.621  34.428  1.00  0.00    -0.744 OA
ENDBRANCH  76  79
ENDBRANCH  58  72
BRANCH  59  83
ATOM     83  C   UNL A   1      48.874  34.596  26.713  1.00  0.00     0.023 A 
ATOM     84  C   UNL A   1      49.009  34.842  25.332  1.00  0.00     0.012 A 
ATOM     85  C   UNL A   1      49.970  34.835  27.563  1.00  0.00     0.148 A 
ATOM     86  C   UNL A   1      50.223  35.281  24.803  1.00  0.00     0.002 A 
ATOM     87  C   UNL A   1      51.160  35.325  27.037  1.00  0.00     0.091 A 
ATOM     88  F   UNL A   1      49.825  34.580  28.871  1.00  0.00    -0.205 F 
ATOM     89  C   UNL A   1      51.295  35.531  25.656  1.00  0.00     0.022 A 
BRANCH  87  90
ATOM     90  S   UNL A   1      52.557  35.783  28.068  1.00  0.00     0.127 S 
ATOM     91  O   UNL A   1      53.055  34.478  28.495  1.00  0.00    -0.237 OA
ATOM     92  O   UNL A   1      53.413  36.487  27.112  1.00  0.00    -0.237 OA
ATOM     93  O   UNL A   1      52.011  36.623  29.125  1.00  0.00    -0.744 OA
ENDBRANCH  87  90
ENDBRANCH  59  83
BRANCH  71  94
ATOM     94  C   UNL A   1      43.147  37.743  29.165  1.00  0.00     0.023 A 
ATOM     95  C   UNL A   1      42.390  38.436  28.199  1.00  0.00     0.012 A 
ATOM     96  C   UNL A   1      43.515  38.403  30.356  1.00  0.00     0.148 A 
ATOM     97  C   UNL A   1      42.045  39.773  28.394  1.00  0.00     0.002 A 
ATOM     98  C   UNL A   1      43.118  39.717  30.569  1.00  0.00     0.091 A 
ATOM     99  F   UNL A   1      44.248  37.734  31.258  1.00  0.00    -0.205 F 
ATOM    100  C   UNL A   1      42.399  40.409  29.581  1.00  0.00     0.022 A 
BRANCH  98 101
ATOM    101  S   UNL A   1      43.437  40.579  32.111  1.00  0.00     0.127 S 
ATOM    102  O   UNL A   1      42.429  41.637  32.076  1.00  0.00    -0.237 OA
ATOM    103  O   UNL A   1      43.191  39.535  33.107  1.00  0.00    -0.237 OA
ATOM    104  O   UNL A   1      44.819  41.032  32.040  1.00  0.00    -0.744 OA
ENDBRANCH  98 101
ENDBRANCH  71  94
ENDBRANCH  45  46
ENDBRANCH  38  40
ENDBRANCH  37  38
ENDBRANCH  36  37
ENDBRANCH  35  36
ENDBRANCH  34  35
ENDBRANCH  33  34
ENDBRANCH  32  33
ENDBRANCH   1  32
TORSDOF 28
ENDMDL
MODEL 2
REMARK VINA RESULT:      -7.8      6.485     12.803
REMARK SMILES C[C@](NC(=O)[C@](C)([NH3+])C(F)(F)F)(C(=O)OCCOCCOCCOCCOC(=O)c1ccc(-c2c3nc(c(-c4cccc(S(=O)(=O)[O-])c4F)c4ccc([nH]4)c(-c4cccc(S(=O)(=O)[O-])c4F)c4nc(c(-c5cccc(S(=O)(=O)[O-])c5F)c5ccc2[nH]5)C=C4)C=C3)cc1)c1ccccc1
REMARK SMILES IDX 21 1 20 2 19 3 18 4 17 5 16 6 15 7 13 8 14 9 2 10 1 11 93 12
REMARK SMILES IDX 94 13 98 14 95 15 97 16 96 17 3 18 4 19 5 21 6 22 7 23 8 24
REMARK SMILES IDX 9 28 10 29 11 30 12 31 22 32 23 33 24 34 25 35 26 36 27 37
REMARK SMILES IDX 28 38 29 39 30 40 31 41 92 42 32 43 91 44 33 45 34 46 35 47
REMARK SMILES IDX 85 48 36 49 90 50 84 51 86 52 37 53 89 54 83 55 82 56 38 58
REMARK SMILES IDX 70 59 50 60 69 61 51 62 54 63 68 64 87 65 52 66 53 67 67 69
REMARK SMILES IDX 88 70 55 71 39 72 40 73 48 74 41 75 43 76 49 77 42 78 44 79
REMARK SMILES IDX 45 80 46 81 47 82 71 83 72 84 80 85 73 86 75 87 81 88 74 89
REMARK SMILES IDX 76 90 77 91 78 92 79 93 56 94 57 95 65 96 58 97 60 98 66 99
REMARK SMILES IDX 59 100 61 101 62 102 63 103 64 104
REMARK H PARENT 3 20 8 25 8 26 8 27 86 57 54 68
REMARK Flexibility Score: inf
ROOT
ATOM      1  O   UNL A   1      48.929  25.150  33.228  1.00  0.00    -0.377 OA
ENDROOT
BRANCH   1   2
ATOM      2  C   UNL A   1      49.078  26.251  32.356  1.00  0.00     0.188 C 
BRANCH   2   3
ATOM      3  C   UNL A   1      48.416  26.053  30.972  1.00  0.00     0.188 C 
BRANCH   3   4
ATOM      4  O   UNL A   1      47.163  26.642  30.663  1.00  0.00    -0.376 OA
BRANCH   4   5
ATOM      5  C   UNL A   1      46.868  27.955  31.103  1.00  0.00     0.202 C 
BRANCH   5   6
ATOM      6  C   UNL A   1      46.293  29.022  30.144  1.00  0.00     0.261 C 
BRANCH   6   7
ATOM      7  O   UNL A   1      46.244  30.394  30.585  1.00  0.00    -0.461 OA
BRANCH   7   8
ATOM      8  C   UNL A   1      45.013  30.971  30.629  1.00  0.00     0.336 C 
ATOM      9  O   UNL A   1      43.963  30.332  30.606  1.00  0.00    -0.249 OA
BRANCH   8  10
ATOM     10  C   UNL A   1      45.066  32.553  30.597  1.00  0.00     0.161 C 
ATOM     11  C   UNL A   1      45.648  32.822  29.204  1.00  0.00     0.053 C 
BRANCH  10  12
ATOM     12  C   UNL A   1      43.588  33.097  30.709  1.00  0.00    -0.012 A 
ATOM     13  C   UNL A   1      42.883  33.131  31.925  1.00  0.00     0.007 A 
ATOM     14  C   UNL A   1      42.903  33.615  29.585  1.00  0.00     0.007 A 
ATOM     15  C   UNL A   1      41.608  33.701  32.024  1.00  0.00     0.000 A 
ATOM     16  C   UNL A   1      41.636  34.201  29.683  1.00  0.00     0.000 A 
ATOM     17  C   UNL A   1      40.991  34.252  30.908  1.00  0.00     0.000 A 
ENDBRANCH  10  12
BRANCH  10  18
ATOM     18  N   UNL A   1      45.834  33.214  31.716  1.00  0.00    -0.331 N 
ATOM     19  C   UNL A   1      46.262  33.134  32.994  1.00  0.00     0.291 C 
ATOM     20  H   UNL A   1      46.165  34.071  31.362  1.00  0.00     0.165 HD
ATOM     21  O   UNL A   1      46.638  34.249  33.400  1.00  0.00    -0.267 OA
BRANCH  19  22
ATOM     22  C   UNL A   1      46.532  31.901  33.868  1.00  0.00     0.267 C 
ATOM     23  C   UNL A   1      47.372  32.387  35.065  1.00  0.00     0.100 C 
BRANCH  22  24
ATOM     24  N   UNL A   1      47.321  30.844  33.198  1.00  0.00    -0.337 N 
ATOM     25  H   UNL A   1      47.437  30.053  33.831  1.00  0.00     0.345 HD
ATOM     26  H   UNL A   1      48.236  31.213  32.942  1.00  0.00     0.345 HD
ATOM     27  H   UNL A   1      46.832  30.537  32.356  1.00  0.00     0.345 HD
ENDBRANCH  22  24
BRANCH  22  28
ATOM     28  C   UNL A   1      45.158  31.383  34.381  1.00  0.00     0.453 C 
ATOM     29  F   UNL A   1      44.332  32.430  34.644  1.00  0.00    -0.164 F 
ATOM     30  F   UNL A   1      44.508  30.599  33.496  1.00  0.00    -0.164 F 
ATOM     31  F   UNL A   1      45.303  30.692  35.537  1.00  0.00    -0.164 F 
ENDBRANCH  22  28
ENDBRANCH  19  22
ENDBRANCH  10  18
ENDBRANCH   8  10
ENDBRANCH   7   8
ENDBRANCH   6   7
ENDBRANCH   5   6
ENDBRANCH   4   5
ENDBRANCH   3   4
ENDBRANCH   2   3
ENDBRANCH   1   2
BRANCH   1  32
ATOM     32  C   UNL A   1      50.085  24.819  33.984  1.00  0.00     0.188 C 
BRANCH  32  33
ATOM     33  C   UNL A   1      50.230  25.533  35.343  1.00  0.00     0.188 C 
BRANCH  33  34
ATOM     34  O   UNL A   1      49.784  24.749  36.448  1.00  0.00    -0.376 OA
BRANCH  34  35
ATOM     35  C   UNL A   1      49.492  25.379  37.683  1.00  0.00     0.202 C 
BRANCH  35  36
ATOM     36  C   UNL A   1      48.014  25.643  38.021  1.00  0.00     0.261 C 
BRANCH  36  37
ATOM     37  O   UNL A   1      47.083  24.628  37.630  1.00  0.00    -0.460 OA
BRANCH  37  38
ATOM     38  C   UNL A   1      46.874  24.458  36.309  1.00  0.00     0.338 C 
ATOM     39  O   UNL A   1      47.241  23.514  35.627  1.00  0.00    -0.246 OA
BRANCH  38  40
ATOM     40  C   UNL A   1      45.926  25.497  35.857  1.00  0.00     0.060 A 
ATOM     41  C   UNL A   1      44.572  25.349  36.185  1.00  0.00     0.016 A 
ATOM     42  C   UNL A   1      46.361  26.605  35.123  1.00  0.00     0.016 A 
ATOM     43  C   UNL A   1      43.638  26.268  35.722  1.00  0.00     0.010 A 
ATOM     44  C   UNL A   1      45.418  27.513  34.635  1.00  0.00     0.010 A 
ATOM     45  C   UNL A   1      44.050  27.313  34.885  1.00  0.00    -0.014 A 
BRANCH  45  46
ATOM     46  C   UNL A   1      43.024  28.003  34.070  1.00  0.00     0.031 A 
ATOM     47  C   UNL A   1      42.868  27.581  32.633  1.00  0.00     0.074 A 
ATOM     48  C   UNL A   1      42.211  28.933  34.600  1.00  0.00     0.049 A 
ATOM     49  N   UNL A   1      42.016  27.994  31.733  1.00  0.00    -0.248 NA
ATOM     50  C   UNL A   1      43.800  26.547  32.147  1.00  0.00     0.031 C 
ATOM     51  C   UNL A   1      42.249  29.404  35.982  1.00  0.00     0.029 A 
ATOM     52  N   UNL A   1      41.194  29.652  34.023  1.00  0.00    -0.354 N 
ATOM     53  C   UNL A   1      42.332  27.302  30.570  1.00  0.00     0.074 A 
ATOM     54  C   UNL A   1      43.458  26.449  30.872  1.00  0.00     0.031 C 
ATOM     55  C   UNL A   1      41.304  30.348  36.146  1.00  0.00     0.029 A 
ATOM     56  C   UNL A   1      40.614  30.561  34.875  1.00  0.00     0.049 A 
ATOM     57  H   UNL A   1      40.908  29.529  33.090  1.00  0.00     0.167 HD
ATOM     58  C   UNL A   1      41.732  27.361  29.358  1.00  0.00     0.034 A 
ATOM     59  C   UNL A   1      39.645  31.469  34.643  1.00  0.00     0.034 A 
ATOM     60  C   UNL A   1      40.601  28.199  29.065  1.00  0.00     0.049 A 
ATOM     61  C   UNL A   1      39.015  31.538  33.274  1.00  0.00     0.074 A 
ATOM     62  C   UNL A   1      39.888  28.297  27.885  1.00  0.00     0.029 A 
ATOM     63  N   UNL A   1      40.035  29.099  29.955  1.00  0.00    -0.354 N 
ATOM     64  N   UNL A   1      39.248  30.799  32.216  1.00  0.00    -0.248 NA
ATOM     65  C   UNL A   1      37.960  32.544  33.082  1.00  0.00     0.031 C 
ATOM     66  C   UNL A   1      38.919  29.293  28.045  1.00  0.00     0.029 A 
ATOM     67  C   UNL A   1      38.993  29.774  29.344  1.00  0.00     0.049 A 
ATOM     68  H   UNL A   1      40.331  29.238  30.883  1.00  0.00     0.167 HD
ATOM     69  C   UNL A   1      38.337  31.217  31.250  1.00  0.00     0.074 A 
ATOM     70  C   UNL A   1      37.540  32.264  31.856  1.00  0.00     0.031 C 
ATOM     71  C   UNL A   1      38.177  30.779  29.975  1.00  0.00     0.034 A 
BRANCH  58  72
ATOM     72  C   UNL A   1      42.297  26.504  28.256  1.00  0.00     0.023 A 
ATOM     73  C   UNL A   1      41.649  25.308  27.883  1.00  0.00     0.012 A 
ATOM     74  C   UNL A   1      43.458  26.903  27.568  1.00  0.00     0.148 A 
ATOM     75  C   UNL A   1      42.171  24.505  26.869  1.00  0.00     0.002 A 
ATOM     76  C   UNL A   1      43.943  26.126  26.524  1.00  0.00     0.091 A 
ATOM     77  F   UNL A   1      44.075  28.028  27.956  1.00  0.00    -0.205 F 
ATOM     78  C   UNL A   1      43.310  24.919  26.183  1.00  0.00     0.022 A 
BRANCH  76  79
ATOM     79  S   UNL A   1      45.352  26.617  25.526  1.00  0.00     0.127 S 
ATOM     80  O   UNL A   1      44.832  27.800  24.843  1.00  0.00    -0.237 OA
ATOM     81  O   UNL A   1      46.365  26.896  26.544  1.00  0.00    -0.237 OA
ATOM     82  O   UNL A   1      45.652  25.481  24.666  1.00  0.00    -0.744 OA
ENDBRANCH  76  79
ENDBRANCH  58  72
BRANCH  59  83
ATOM     83  C   UNL A   1      39.178  32.365  35.739  1.00  0.00     0.023 A 
ATOM     84  C   UNL A   1      38.199  31.907  36.643  1.00  0.00     0.012 A 
ATOM     85  C   UNL A   1      39.692  33.667  35.887  1.00  0.00     0.148 A 
ATOM     86  C   UNL A   1      37.714  32.742  37.651  1.00  0.00     0.002 A 
ATOM     87  C   UNL A   1      39.246  34.475  36.926  1.00  0.00     0.091 A 
ATOM     88  F   UNL A   1      40.613  34.088  35.008  1.00  0.00    -0.205 F 
ATOM     89  C   UNL A   1      38.244  34.021  37.797  1.00  0.00     0.022 A 
BRANCH  87  90
ATOM     90  S   UNL A   1      39.947  36.092  37.265  1.00  0.00     0.127 S 
ATOM     91  O   UNL A   1      41.288  35.745  37.730  1.00  0.00    -0.237 OA
ATOM     92  O   UNL A   1      39.896  36.722  35.945  1.00  0.00    -0.237 OA
ATOM     93  O   UNL A   1      39.076  36.701  38.260  1.00  0.00    -0.744 OA
ENDBRANCH  87  90
ENDBRANCH  59  83
BRANCH  71  94
ATOM     94  C   UNL A   1      37.059  31.381  29.163  1.00  0.00     0.023 A 
ATOM     95  C   UNL A   1      37.094  32.741  28.797  1.00  0.00     0.012 A 
ATOM     96  C   UNL A   1      35.996  30.572  28.709  1.00  0.00     0.148 A 
ATOM     97  C   UNL A   1      36.067  33.297  28.034  1.00  0.00     0.002 A 
ATOM     98  C   UNL A   1      35.008  31.119  27.900  1.00  0.00     0.091 A 
ATOM     99  F   UNL A   1      35.970  29.282  29.077  1.00  0.00    -0.205 F 
ATOM    100  C   UNL A   1      35.032  32.485  27.577  1.00  0.00     0.022 A 
BRANCH  98 101
ATOM    101  S   UNL A   1      33.697  30.125  27.180  1.00  0.00     0.127 S 
ATOM    102  O   UNL A   1      34.332  29.632  25.959  1.00  0.00    -0.237 OA
ATOM    103  O   UNL A   1      33.479  29.106  28.208  1.00  0.00    -0.237 OA
ATOM    104  O   UNL A   1      32.572  31.028  26.978  1.00  0.00    -0.744 OA
ENDBRANCH  98 101
ENDBRANCH  71  94
ENDBRANCH  45  46
ENDBRANCH  38  40
ENDBRANCH  37  38
ENDBRANCH  36  37
ENDBRANCH  35  36
ENDBRANCH  34  35
ENDBRANCH  33  34
ENDBRANCH  32  33
ENDBRANCH   1  32
TORSDOF 28
ENDMDL
MODEL 3
REMARK VINA RESULT:      -7.7      7.535     11.867
REMARK SMILES C[C@](NC(=O)[C@](C)([NH3+])C(F)(F)F)(C(=O)OCCOCCOCCOCCOC(=O)c1ccc(-c2c3nc(c(-c4cccc(S(=O)(=O)[O-])c4F)c4ccc([nH]4)c(-c4cccc(S(=O)(=O)[O-])c4F)c4nc(c(-c5cccc(S(=O)(=O)[O-])c5F)c5ccc2[nH]5)C=C4)C=C3)cc1)c1ccccc1
REMARK SMILES IDX 21 1 20 2 19 3 18 4 17 5 16 6 15 7 13 8 14 9 2 10 1 11 93 12
REMARK SMILES IDX 94 13 98 14 95 15 97 16 96 17 3 18 4 19 5 21 6 22 7 23 8 24
REMARK SMILES IDX 9 28 10 29 11 30 12 31 22 32 23 33 24 34 25 35 26 36 27 37
REMARK SMILES IDX 28 38 29 39 30 40 31 41 92 42 32 43 91 44 33 45 34 46 35 47
REMARK SMILES IDX 85 48 36 49 90 50 84 51 86 52 37 53 89 54 83 55 82 56 38 58
REMARK SMILES IDX 70 59 50 60 69 61 51 62 54 63 68 64 87 65 52 66 53 67 67 69
REMARK SMILES IDX 88 70 55 71 39 72 40 73 48 74 41 75 43 76 49 77 42 78 44 79
REMARK SMILES IDX 45 80 46 81 47 82 71 83 72 84 80 85 73 86 75 87 81 88 74 89
REMARK SMILES IDX 76 90 77 91 78 92 79 93 56 94 57 95 65 96 58 97 60 98 66 99
REMARK SMILES IDX 59 100 61 101 62 102 63 103 64 104
REMARK H PARENT 3 20 8 25 8 26 8 27 86 57 54 68
REMARK Flexibility Score: inf
ROOT
ATOM      1  O   UNL A   1      38.905  27.307  28.557  1.00  0.00    -0.377 OA
ENDROOT
BRANCH   1   2
ATOM      2  C   UNL A   1      39.969  26.399  28.359  1.00  0.00     0.188 C 
BRANCH   2   3
ATOM      3  C   UNL A   1      39.969  25.721  26.970  1.00  0.00     0.188 C 
BRANCH   3   4
ATOM      4  O   UNL A   1      39.536  24.380  26.804  1.00  0.00    -0.376 OA
BRANCH   4   5
ATOM      5  C   UNL A   1      38.156  24.089  26.680  1.00  0.00     0.202 C 
BRANCH   5   6
ATOM      6  C   UNL A   1      37.534  23.666  25.330  1.00  0.00     0.261 C 
BRANCH   6   7
ATOM      7  O   UNL A   1      36.187  24.083  25.028  1.00  0.00    -0.461 OA
BRANCH   7   8
ATOM      8  C   UNL A   1      35.635  23.568  23.896  1.00  0.00     0.336 C 
ATOM      9  O   UNL A   1      36.293  23.211  22.922  1.00  0.00    -0.249 OA
BRANCH   8  10
ATOM     10  C   UNL A   1      34.051  23.581  23.915  1.00  0.00     0.161 C 
ATOM     11  C   UNL A   1      33.722  24.013  22.481  1.00  0.00     0.053 C 
BRANCH  10  12
ATOM     12  C   UNL A   1      33.552  22.109  24.193  1.00  0.00    -0.012 A 
ATOM     13  C   UNL A   1      33.806  21.438  25.402  1.00  0.00     0.007 A 
ATOM     14  C   UNL A   1      32.785  21.396  23.242  1.00  0.00     0.007 A 
ATOM     15  C   UNL A   1      33.277  20.169  25.669  1.00  0.00     0.000 A 
ATOM     16  C   UNL A   1      32.240  20.135  23.510  1.00  0.00     0.000 A 
ATOM     17  C   UNL A   1      32.480  19.525  24.731  1.00  0.00     0.000 A 
ENDBRANCH  10  12
BRANCH  10  18
ATOM     18  N   UNL A   1      33.407  24.442  24.974  1.00  0.00    -0.331 N 
ATOM     19  C   UNL A   1      32.278  25.040  25.411  1.00  0.00     0.291 C 
ATOM     20  H   UNL A   1      34.112  24.662  25.624  1.00  0.00     0.165 HD
ATOM     21  O   UNL A   1      32.543  25.900  26.270  1.00  0.00    -0.267 OA
BRANCH  19  22
ATOM     22  C   UNL A   1      30.808  24.669  25.167  1.00  0.00     0.267 C 
ATOM     23  C   UNL A   1      29.975  25.503  26.160  1.00  0.00     0.100 C 
BRANCH  22  24
ATOM     24  N   UNL A   1      30.489  23.249  25.435  1.00  0.00    -0.337 N 
ATOM     25  H   UNL A   1      29.514  23.068  25.196  1.00  0.00     0.345 HD
ATOM     26  H   UNL A   1      30.641  23.046  26.423  1.00  0.00     0.345 HD
ATOM     27  H   UNL A   1      31.094  22.652  24.869  1.00  0.00     0.345 HD
ENDBRANCH  22  24
BRANCH  22  28
ATOM     28  C   UNL A   1      30.455  25.095  23.714  1.00  0.00     0.453 C 
ATOM     29  F   UNL A   1      30.457  24.011  22.895  1.00  0.00    -0.164 F 
ATOM     30  F   UNL A   1      29.235  25.660  23.596  1.00  0.00    -0.164 F 
ATOM     31  F   UNL A   1      31.375  25.961  23.228  1.00  0.00    -0.164 F 
ENDBRANCH  22  28
ENDBRANCH  19  22
ENDBRANCH  10  18
ENDBRANCH   8  10
ENDBRANCH   7   8
ENDBRANCH   6   7
ENDBRANCH   5   6
ENDBRANCH   4   5
ENDBRANCH   3   4
ENDBRANCH   2   3
ENDBRANCH   1   2
BRANCH   1  32
ATOM     32  C   UNL A   1      38.924  27.998  29.797  1.00  0.00     0.188 C 
BRANCH  32  33
ATOM     33  C   UNL A   1      39.490  29.431  29.763  1.00  0.00     0.188 C 
BRANCH  33  34
ATOM     34  O   UNL A   1      39.236  30.172  30.955  1.00  0.00    -0.376 OA
BRANCH  34  35
ATOM     35  C   UNL A   1      38.449  29.598  31.984  1.00  0.00     0.202 C 
BRANCH  35  36
ATOM     36  C   UNL A   1      38.884  29.840  33.439  1.00  0.00     0.261 C 
BRANCH  36  37
ATOM     37  O   UNL A   1      38.170  30.854  34.155  1.00  0.00    -0.460 OA
BRANCH  37  38
ATOM     38  C   UNL A   1      38.458  31.004  35.464  1.00  0.00     0.338 C 
ATOM     39  O   UNL A   1      38.266  30.188  36.352  1.00  0.00    -0.246 OA
BRANCH  38  40
ATOM     40  C   UNL A   1      39.259  32.236  35.619  1.00  0.00     0.060 A 
ATOM     41  C   UNL A   1      40.649  32.114  35.738  1.00  0.00     0.016 A 
ATOM     42  C   UNL A   1      38.652  33.496  35.643  1.00  0.00     0.016 A 
ATOM     43  C   UNL A   1      41.432  33.243  35.952  1.00  0.00     0.010 A 
ATOM     44  C   UNL A   1      39.436  34.627  35.887  1.00  0.00     0.010 A 
ATOM     45  C   UNL A   1      40.819  34.493  36.100  1.00  0.00    -0.014 A 
BRANCH  45  46
ATOM     46  C   UNL A   1      41.592  35.582  36.742  1.00  0.00     0.031 A 
ATOM     47  C   UNL A   1      42.338  36.536  35.848  1.00  0.00     0.074 A 
ATOM     48  C   UNL A   1      41.585  35.759  38.074  1.00  0.00     0.049 A 
ATOM     49  N   UNL A   1      43.041  37.590  36.161  1.00  0.00    -0.248 NA
ATOM     50  C   UNL A   1      42.278  36.263  34.400  1.00  0.00     0.031 C 
ATOM     51  C   UNL A   1      40.879  34.918  39.039  1.00  0.00     0.029 A 
ATOM     52  N   UNL A   1      42.203  36.713  38.843  1.00  0.00    -0.354 N 
ATOM     53  C   UNL A   1      43.537  38.083  34.959  1.00  0.00     0.074 A 
ATOM     54  C   UNL A   1      43.062  37.209  33.911  1.00  0.00     0.031 C 
ATOM     55  C   UNL A   1      41.116  35.386  40.278  1.00  0.00     0.029 A 
ATOM     56  C   UNL A   1      42.006  36.542  40.192  1.00  0.00     0.049 A 
ATOM     57  H   UNL A   1      42.736  37.448  38.465  1.00  0.00     0.167 HD
ATOM     58  C   UNL A   1      44.309  39.173  34.743  1.00  0.00     0.034 A 
ATOM     59  C   UNL A   1      42.503  37.236  41.236  1.00  0.00     0.034 A 
ATOM     60  C   UNL A   1      44.765  40.050  35.787  1.00  0.00     0.049 A 
ATOM     61  C   UNL A   1      43.389  38.428  40.969  1.00  0.00     0.074 A 
ATOM     62  C   UNL A   1      45.510  41.208  35.670  1.00  0.00     0.029 A 
ATOM     63  N   UNL A   1      44.539  39.850  37.140  1.00  0.00    -0.354 N 
ATOM     64  N   UNL A   1      43.757  38.948  39.823  1.00  0.00    -0.248 NA
ATOM     65  C   UNL A   1      43.898  39.150  42.145  1.00  0.00     0.031 C 
ATOM     66  C   UNL A   1      45.777  41.684  36.959  1.00  0.00     0.029 A 
ATOM     67  C   UNL A   1      45.148  40.853  37.874  1.00  0.00     0.049 A 
ATOM     68  H   UNL A   1      44.022  39.105  37.523  1.00  0.00     0.167 HD
ATOM     69  C   UNL A   1      44.497  40.084  40.139  1.00  0.00     0.074 A 
ATOM     70  C   UNL A   1      44.512  40.181  41.583  1.00  0.00     0.031 C 
ATOM     71  C   UNL A   1      45.113  40.964  39.309  1.00  0.00     0.034 A 
BRANCH  58  72
ATOM     72  C   UNL A   1      44.718  39.470  33.324  1.00  0.00     0.023 A 
ATOM     73  C   UNL A   1      45.891  38.900  32.789  1.00  0.00     0.012 A 
ATOM     74  C   UNL A   1      43.916  40.292  32.510  1.00  0.00     0.148 A 
ATOM     75  C   UNL A   1      46.280  39.177  31.478  1.00  0.00     0.002 A 
ATOM     76  C   UNL A   1      44.281  40.521  31.189  1.00  0.00     0.091 A 
ATOM     77  F   UNL A   1      42.819  40.846  33.045  1.00  0.00    -0.205 F 
ATOM     78  C   UNL A   1      45.470  39.977  30.676  1.00  0.00     0.022 A 
BRANCH  76  79
ATOM     79  S   UNL A   1      43.261  41.467  30.055  1.00  0.00     0.127 S 
ATOM     80  O   UNL A   1      44.142  41.582  28.894  1.00  0.00    -0.237 OA
ATOM     81  O   UNL A   1      42.113  40.580  29.864  1.00  0.00    -0.237 OA
ATOM     82  O   UNL A   1      42.957  42.718  30.734  1.00  0.00    -0.744 OA
ENDBRANCH  76  79
ENDBRANCH  58  72
BRANCH  59  83
ATOM     83  C   UNL A   1      42.148  36.852  42.631  1.00  0.00     0.023 A 
ATOM     84  C   UNL A   1      43.004  36.001  43.359  1.00  0.00     0.012 A 
ATOM     85  C   UNL A   1      40.966  37.318  43.238  1.00  0.00     0.148 A 
ATOM     86  C   UNL A   1      42.671  35.592  44.650  1.00  0.00     0.002 A 
ATOM     87  C   UNL A   1      40.667  36.951  44.545  1.00  0.00     0.091 A 
ATOM     88  F   UNL A   1      40.158  38.114  42.524  1.00  0.00    -0.205 F 
ATOM     89  C   UNL A   1      41.509  36.074  45.246  1.00  0.00     0.022 A 
BRANCH  87  90
ATOM     90  S   UNL A   1      39.255  37.609  45.436  1.00  0.00     0.127 S 
ATOM     91  O   UNL A   1      38.196  36.680  45.047  1.00  0.00    -0.237 OA
ATOM     92  O   UNL A   1      39.698  37.490  46.826  1.00  0.00    -0.237 OA
ATOM     93  O   UNL A   1      39.092  38.978  44.968  1.00  0.00    -0.744 OA
ENDBRANCH  87  90
ENDBRANCH  59  83
BRANCH  71  94
ATOM     94  C   UNL A   1      45.804  42.149  39.933  1.00  0.00     0.023 A 
ATOM     95  C   UNL A   1      47.148  42.056  40.348  1.00  0.00     0.012 A 
ATOM     96  C   UNL A   1      45.130  43.382  40.053  1.00  0.00     0.148 A 
ATOM     97  C   UNL A   1      47.794  43.156  40.914  1.00  0.00     0.002 A 
ATOM     98  C   UNL A   1      45.798  44.489  40.564  1.00  0.00     0.091 A 
ATOM     99  F   UNL A   1      43.847  43.451  39.667  1.00  0.00    -0.205 F 
ATOM    100  C   UNL A   1      47.123  44.372  41.011  1.00  0.00     0.022 A 
BRANCH  98 101
ATOM    101  S   UNL A   1      45.048  46.119  40.627  1.00  0.00     0.127 S 
ATOM    102  O   UNL A   1      43.698  45.808  41.094  1.00  0.00    -0.237 OA
ATOM    103  O   UNL A   1      45.888  46.810  41.607  1.00  0.00    -0.237 OA
ATOM    104  O   UNL A   1      45.133  46.654  39.275  1.00  0.00    -0.744 OA
ENDBRANCH  98 101
ENDBRANCH  71  94
ENDBRANCH  45  46
ENDBRANCH  38  40
ENDBRANCH  37  38
ENDBRANCH  36  37
ENDBRANCH  35  36
ENDBRANCH  34  35
ENDBRANCH  33  34
ENDBRANCH  32  33
ENDBRANCH   1  32
TORSDOF 28
ENDMDL
