MODEL 1
REMARK VINA RESULT:      -9.1      0.000      0.000
REMARK SMILES Nc1nc2ccccc2nc1N1CCC(C(=O)OCCOCCOCCOCCOC(=O)c2ccc(-c3c4nc(c(-c5cccc(S(=O)(=O)[O-])c5F)c5ccc([nH]5)c(-c5cccc(S(=O)(=O)[O-])c5F)c5nc(c(-c6cccc(S(=O)(=O)[O-])c6F)c6ccc3[nH]6)C=C5)C=C4)cc2)CC1
REMARK SMILES IDX 25 1 24 2 23 3 22 4 21 5 20 6 19 7 18 8 16 9 17 10 15 11
REMARK SMILES IDX 12 12 13 13 97 14 14 15 96 16 11 17 2 18 3 19 4 20 10 21
REMARK SMILES IDX 5 22 9 23 6 24 8 25 7 26 1 27 26 30 27 31 28 32 29 33 30 34
REMARK SMILES IDX 31 35 32 36 33 37 34 38 95 39 35 40 94 41 36 42 37 43 38 44
REMARK SMILES IDX 88 45 39 46 93 47 87 48 89 49 40 50 92 51 86 52 85 53 41 55
REMARK SMILES IDX 73 56 53 57 72 58 54 59 57 60 71 61 90 62 55 63 56 64 70 66
REMARK SMILES IDX 91 67 58 68 42 69 43 70 51 71 44 72 46 73 52 74 45 75 47 76
REMARK SMILES IDX 48 77 49 78 50 79 74 80 75 81 83 82 76 83 78 84 84 85 77 86
REMARK SMILES IDX 79 87 80 88 81 89 82 90 59 91 60 92 68 93 61 94 63 95 69 96
REMARK SMILES IDX 62 97 64 98 65 99 66 100 67 101
REMARK H PARENT 1 28 1 29 89 54 57 65
REMARK Flexibility Score: inf
ROOT
ATOM      1  C   UNL A   1      33.437  34.870  32.610  1.00  0.00     0.188 C 
ENDROOT
BRANCH   1   2
ATOM      2  O   UNL A   1      33.708  36.133  32.008  1.00  0.00    -0.377 OA
BRANCH   2   3
ATOM      3  C   UNL A   1      33.386  36.279  30.641  1.00  0.00     0.188 C 
BRANCH   3   4
ATOM      4  C   UNL A   1      33.182  34.965  29.876  1.00  0.00     0.188 C 
BRANCH   4   5
ATOM      5  O   UNL A   1      33.906  34.690  28.688  1.00  0.00    -0.376 OA
BRANCH   5   6
ATOM      6  C   UNL A   1      33.625  33.527  27.917  1.00  0.00     0.202 C 
BRANCH   6   7
ATOM      7  C   UNL A   1      34.596  32.335  27.901  1.00  0.00     0.261 C 
BRANCH   7   8
ATOM      8  O   UNL A   1      34.059  31.078  28.356  1.00  0.00    -0.463 OA
BRANCH   8   9
ATOM      9  C   UNL A   1      34.670  29.971  27.882  1.00  0.00     0.309 C 
ATOM     10  O   UNL A   1      35.845  29.679  28.092  1.00  0.00    -0.252 OA
BRANCH   9  11
ATOM     11  C   UNL A   1      33.796  29.082  27.023  1.00  0.00     0.103 C 
ATOM     12  N   UNL A   1      32.061  28.104  24.977  1.00  0.00    -0.353 N 
ATOM     13  C   UNL A   1      31.670  27.962  26.371  1.00  0.00     0.119 C 
ATOM     14  C   UNL A   1      33.467  28.338  24.652  1.00  0.00     0.119 C 
ATOM     15  C   UNL A   1      32.280  29.065  27.235  1.00  0.00     0.037 C 
ATOM     16  C   UNL A   1      34.064  29.415  25.554  1.00  0.00     0.037 C 
BRANCH  12  17
ATOM     17  C   UNL A   1      31.112  28.629  24.099  1.00  0.00     0.172 A 
ATOM     18  C   UNL A   1      30.697  27.890  22.961  1.00  0.00     0.167 A 
ATOM     19  N   UNL A   1      29.768  28.344  22.101  1.00  0.00    -0.226 NA
ATOM     20  C   UNL A   1      29.229  29.542  22.386  1.00  0.00     0.091 A 
ATOM     21  N   UNL A   1      30.540  29.818  24.391  1.00  0.00    -0.225 NA
ATOM     22  C   UNL A   1      28.263  30.065  21.537  1.00  0.00     0.031 A 
ATOM     23  C   UNL A   1      29.615  30.283  23.531  1.00  0.00     0.091 A 
ATOM     24  C   UNL A   1      27.673  31.305  21.784  1.00  0.00     0.002 A 
ATOM     25  C   UNL A   1      29.020  31.517  23.765  1.00  0.00     0.031 A 
ATOM     26  C   UNL A   1      28.055  32.035  22.901  1.00  0.00     0.002 A 
BRANCH  18  27
ATOM     27  N   UNL A   1      31.227  26.632  22.678  1.00  0.00    -0.381 N 
ATOM     28  H   UNL A   1      32.129  26.396  22.994  1.00  0.00     0.158 HD
ATOM     29  H   UNL A   1      30.700  25.981  22.162  1.00  0.00     0.158 HD
ENDBRANCH  18  27
ENDBRANCH  12  17
ENDBRANCH   9  11
ENDBRANCH   8   9
ENDBRANCH   7   8
ENDBRANCH   6   7
ENDBRANCH   5   6
ENDBRANCH   4   5
ENDBRANCH   3   4
ENDBRANCH   2   3
ENDBRANCH   1   2
BRANCH   1  30
ATOM     30  C   UNL A   1      34.630  34.054  33.142  1.00  0.00     0.188 C 
BRANCH  30  31
ATOM     31  O   UNL A   1      34.583  32.676  32.778  1.00  0.00    -0.376 OA
BRANCH  31  32
ATOM     32  C   UNL A   1      35.044  32.320  31.478  1.00  0.00     0.202 C 
BRANCH  32  33
ATOM     33  C   UNL A   1      36.378  31.559  31.405  1.00  0.00     0.261 C 
BRANCH  33  34
ATOM     34  O   UNL A   1      36.685  30.685  32.505  1.00  0.00    -0.460 OA
BRANCH  34  35
ATOM     35  C   UNL A   1      37.520  31.117  33.475  1.00  0.00     0.338 C 
ATOM     36  O   UNL A   1      37.229  31.791  34.446  1.00  0.00    -0.246 OA
BRANCH  35  37
ATOM     37  C   UNL A   1      38.820  30.439  33.269  1.00  0.00     0.060 A 
ATOM     38  C   UNL A   1      39.996  31.179  33.125  1.00  0.00     0.016 A 
ATOM     39  C   UNL A   1      38.851  29.041  33.191  1.00  0.00     0.016 A 
ATOM     40  C   UNL A   1      41.212  30.515  32.943  1.00  0.00     0.010 A 
ATOM     41  C   UNL A   1      40.066  28.378  32.999  1.00  0.00     0.010 A 
ATOM     42  C   UNL A   1      41.259  29.110  32.903  1.00  0.00    -0.014 A 
BRANCH  42  43
ATOM     43  C   UNL A   1      42.568  28.417  32.989  1.00  0.00     0.031 A 
ATOM     44  C   UNL A   1      43.324  27.961  31.779  1.00  0.00     0.074 A 
ATOM     45  C   UNL A   1      43.057  28.176  34.221  1.00  0.00     0.049 A 
ATOM     46  N   UNL A   1      44.517  27.426  31.721  1.00  0.00    -0.248 NA
ATOM     47  C   UNL A   1      42.669  28.116  30.473  1.00  0.00     0.031 C 
ATOM     48  C   UNL A   1      42.375  28.512  35.472  1.00  0.00     0.029 A 
ATOM     49  N   UNL A   1      44.228  27.590  34.626  1.00  0.00    -0.354 N 
ATOM     50  C   UNL A   1      44.760  27.172  30.378  1.00  0.00     0.074 A 
ATOM     51  C   UNL A   1      43.581  27.601  29.653  1.00  0.00     0.031 C 
ATOM     52  C   UNL A   1      43.143  28.138  36.505  1.00  0.00     0.029 A 
ATOM     53  C   UNL A   1      44.366  27.527  35.992  1.00  0.00     0.049 A 
ATOM     54  H   UNL A   1      44.906  27.245  33.999  1.00  0.00     0.167 HD
ATOM     55  C   UNL A   1      45.872  26.650  29.808  1.00  0.00     0.034 A 
ATOM     56  C   UNL A   1      45.365  27.045  36.753  1.00  0.00     0.034 A 
ATOM     57  C   UNL A   1      47.046  26.238  30.536  1.00  0.00     0.049 A 
ATOM     58  C   UNL A   1      46.593  26.494  36.094  1.00  0.00     0.074 A 
ATOM     59  C   UNL A   1      48.247  25.773  30.030  1.00  0.00     0.029 A 
ATOM     60  N   UNL A   1      47.162  26.221  31.916  1.00  0.00    -0.354 N 
ATOM     61  N   UNL A   1      46.869  26.410  34.816  1.00  0.00    -0.248 NA
ATOM     62  C   UNL A   1      47.661  26.000  36.976  1.00  0.00     0.031 C 
ATOM     63  C   UNL A   1      49.085  25.459  31.104  1.00  0.00     0.029 A 
ATOM     64  C   UNL A   1      48.411  25.743  32.280  1.00  0.00     0.049 A 
ATOM     65  H   UNL A   1      46.463  26.507  32.547  1.00  0.00     0.167 HD
ATOM     66  C   UNL A   1      48.147  25.873  34.738  1.00  0.00     0.074 A 
ATOM     67  C   UNL A   1      48.600  25.663  36.099  1.00  0.00     0.031 C 
ATOM     68  C   UNL A   1      48.870  25.572  33.634  1.00  0.00     0.034 A 
BRANCH  55  69
ATOM     69  C   UNL A   1      45.927  26.549  28.308  1.00  0.00     0.023 A 
ATOM     70  C   UNL A   1      46.487  27.612  27.575  1.00  0.00     0.012 A 
ATOM     71  C   UNL A   1      45.568  25.359  27.643  1.00  0.00     0.148 A 
ATOM     72  C   UNL A   1      46.686  27.499  26.200  1.00  0.00     0.002 A 
ATOM     73  C   UNL A   1      45.793  25.244  26.276  1.00  0.00     0.091 A 
ATOM     74  F   UNL A   1      45.034  24.363  28.362  1.00  0.00    -0.205 F 
ATOM     75  C   UNL A   1      46.350  26.313  25.554  1.00  0.00     0.022 A 
BRANCH  73  76
ATOM     76  S   UNL A   1      45.449  23.741  25.353  1.00  0.00     0.127 S 
ATOM     77  O   UNL A   1      46.019  24.063  24.045  1.00  0.00    -0.237 OA
ATOM     78  O   UNL A   1      46.195  22.737  26.112  1.00  0.00    -0.237 OA
ATOM     79  O   UNL A   1      44.002  23.576  25.373  1.00  0.00    -0.744 OA
ENDBRANCH  73  76
ENDBRANCH  55  69
BRANCH  56  80
ATOM     80  C   UNL A   1      45.258  27.152  38.232  1.00  0.00     0.023 A 
ATOM     81  C   UNL A   1      44.745  26.064  38.962  1.00  0.00     0.012 A 
ATOM     82  C   UNL A   1      45.754  28.277  38.916  1.00  0.00     0.148 A 
ATOM     83  C   UNL A   1      44.719  26.099  40.356  1.00  0.00     0.002 A 
ATOM     84  C   UNL A   1      45.760  28.289  40.305  1.00  0.00     0.091 A 
ATOM     85  F   UNL A   1      46.241  29.295  38.192  1.00  0.00    -0.205 F 
ATOM     86  C   UNL A   1      45.236  27.205  41.026  1.00  0.00     0.022 A 
BRANCH  84  87
ATOM     87  S   UNL A   1      46.499  29.619  41.260  1.00  0.00     0.127 S 
ATOM     88  O   UNL A   1      45.685  30.763  40.855  1.00  0.00    -0.237 OA
ATOM     89  O   UNL A   1      46.278  29.159  42.630  1.00  0.00    -0.237 OA
ATOM     90  O   UNL A   1      47.896  29.672  40.854  1.00  0.00    -0.744 OA
ENDBRANCH  84  87
ENDBRANCH  56  80
BRANCH  68  91
ATOM     91  C   UNL A   1      50.240  24.982  33.825  1.00  0.00     0.023 A 
ATOM     92  C   UNL A   1      51.340  25.840  34.019  1.00  0.00     0.012 A 
ATOM     93  C   UNL A   1      50.416  23.588  33.936  1.00  0.00     0.148 A 
ATOM     94  C   UNL A   1      52.599  25.317  34.314  1.00  0.00     0.002 A 
ATOM     95  C   UNL A   1      51.665  23.077  34.265  1.00  0.00     0.091 A 
ATOM     96  F   UNL A   1      49.354  22.795  33.739  1.00  0.00    -0.205 F 
ATOM     97  C   UNL A   1      52.758  23.940  34.450  1.00  0.00     0.022 A 
BRANCH  95  98
ATOM     98  S   UNL A   1      51.958  21.325  34.532  1.00  0.00     0.127 S 
ATOM     99  O   UNL A   1      50.962  21.009  35.556  1.00  0.00    -0.237 OA
ATOM    100  O   UNL A   1      51.675  20.762  33.212  1.00  0.00    -0.237 OA
ATOM    101  O   UNL A   1      53.345  21.206  34.962  1.00  0.00    -0.744 OA
ENDBRANCH  95  98
ENDBRANCH  68  91
ENDBRANCH  42  43
ENDBRANCH  35  37
ENDBRANCH  34  35
ENDBRANCH  33  34
ENDBRANCH  32  33
ENDBRANCH  31  32
ENDBRANCH  30  31
ENDBRANCH   1  30
TORSDOF 25
ENDMDL
MODEL 2
REMARK VINA RESULT:      -9.0      6.283     10.000
REMARK SMILES Nc1nc2ccccc2nc1N1CCC(C(=O)OCCOCCOCCOCCOC(=O)c2ccc(-c3c4nc(c(-c5cccc(S(=O)(=O)[O-])c5F)c5ccc([nH]5)c(-c5cccc(S(=O)(=O)[O-])c5F)c5nc(c(-c6cccc(S(=O)(=O)[O-])c6F)c6ccc3[nH]6)C=C5)C=C4)cc2)CC1
REMARK SMILES IDX 25 1 24 2 23 3 22 4 21 5 20 6 19 7 18 8 16 9 17 10 15 11
REMARK SMILES IDX 12 12 13 13 97 14 14 15 96 16 11 17 2 18 3 19 4 20 10 21
REMARK SMILES IDX 5 22 9 23 6 24 8 25 7 26 1 27 26 30 27 31 28 32 29 33 30 34
REMARK SMILES IDX 31 35 32 36 33 37 34 38 95 39 35 40 94 41 36 42 37 43 38 44
REMARK SMILES IDX 88 45 39 46 93 47 87 48 89 49 40 50 92 51 86 52 85 53 41 55
REMARK SMILES IDX 73 56 53 57 72 58 54 59 57 60 71 61 90 62 55 63 56 64 70 66
REMARK SMILES IDX 91 67 58 68 42 69 43 70 51 71 44 72 46 73 52 74 45 75 47 76
REMARK SMILES IDX 48 77 49 78 50 79 74 80 75 81 83 82 76 83 78 84 84 85 77 86
REMARK SMILES IDX 79 87 80 88 81 89 82 90 59 91 60 92 68 93 61 94 63 95 69 96
REMARK SMILES IDX 62 97 64 98 65 99 66 100 67 101
REMARK H PARENT 1 28 1 29 89 54 57 65
REMARK Flexibility Score: inf
ROOT
ATOM      1  C   UNL A   1      33.589  35.644  32.788  1.00  0.00     0.188 C 
ENDROOT
BRANCH   1   2
ATOM      2  O   UNL A   1      33.662  36.841  32.019  1.00  0.00    -0.377 OA
BRANCH   2   3
ATOM      3  C   UNL A   1      33.251  36.768  30.671  1.00  0.00     0.188 C 
BRANCH   3   4
ATOM      4  C   UNL A   1      33.221  35.354  30.074  1.00  0.00     0.188 C 
BRANCH   4   5
ATOM      5  O   UNL A   1      33.546  35.128  28.712  1.00  0.00    -0.376 OA
BRANCH   5   6
ATOM      6  C   UNL A   1      33.234  33.889  28.086  1.00  0.00     0.202 C 
BRANCH   6   7
ATOM      7  C   UNL A   1      34.279  32.765  27.994  1.00  0.00     0.261 C 
BRANCH   7   8
ATOM      8  O   UNL A   1      33.818  31.444  28.336  1.00  0.00    -0.463 OA
BRANCH   8   9
ATOM      9  C   UNL A   1      34.196  30.453  27.501  1.00  0.00     0.309 C 
ATOM     10  O   UNL A   1      35.363  30.157  27.252  1.00  0.00    -0.252 OA
BRANCH   9  11
ATOM     11  C   UNL A   1      33.054  29.709  26.841  1.00  0.00     0.103 C 
ATOM     12  N   UNL A   1      31.385  27.661  25.759  1.00  0.00    -0.353 N 
ATOM     13  C   UNL A   1      31.788  28.773  24.912  1.00  0.00     0.119 C 
ATOM     14  C   UNL A   1      31.465  27.806  27.211  1.00  0.00     0.119 C 
ATOM     15  C   UNL A   1      33.131  29.351  25.355  1.00  0.00     0.037 C 
ATOM     16  C   UNL A   1      32.800  28.420  27.625  1.00  0.00     0.037 C 
BRANCH  12  17
ATOM     17  C   UNL A   1      31.544  26.376  25.240  1.00  0.00     0.172 A 
ATOM     18  C   UNL A   1      30.609  25.354  25.550  1.00  0.00     0.167 A 
ATOM     19  N   UNL A   1      30.707  24.107  25.055  1.00  0.00    -0.226 NA
ATOM     20  C   UNL A   1      31.738  23.877  24.223  1.00  0.00     0.091 A 
ATOM     21  N   UNL A   1      32.557  26.140  24.379  1.00  0.00    -0.225 NA
ATOM     22  C   UNL A   1      31.893  22.610  23.676  1.00  0.00     0.031 A 
ATOM     23  C   UNL A   1      32.667  24.893  23.884  1.00  0.00     0.091 A 
ATOM     24  C   UNL A   1      32.946  22.317  22.810  1.00  0.00     0.002 A 
ATOM     25  C   UNL A   1      33.711  24.587  23.021  1.00  0.00     0.031 A 
ATOM     26  C   UNL A   1      33.861  23.308  22.482  1.00  0.00     0.002 A 
BRANCH  18  27
ATOM     27  N   UNL A   1      29.519  25.594  26.386  1.00  0.00    -0.381 N 
ATOM     28  H   UNL A   1      29.564  25.346  27.337  1.00  0.00     0.158 HD
ATOM     29  H   UNL A   1      28.705  26.011  26.023  1.00  0.00     0.158 HD
ENDBRANCH  18  27
ENDBRANCH  12  17
ENDBRANCH   9  11
ENDBRANCH   8   9
ENDBRANCH   7   8
ENDBRANCH   6   7
ENDBRANCH   5   6
ENDBRANCH   4   5
ENDBRANCH   3   4
ENDBRANCH   2   3
ENDBRANCH   1   2
BRANCH   1  30
ATOM     30  C   UNL A   1      34.851  35.201  33.553  1.00  0.00     0.188 C 
BRANCH  30  31
ATOM     31  O   UNL A   1      34.909  33.795  33.784  1.00  0.00    -0.376 OA
BRANCH  31  32
ATOM     32  C   UNL A   1      34.615  32.932  32.689  1.00  0.00     0.202 C 
BRANCH  32  33
ATOM     33  C   UNL A   1      35.729  32.739  31.647  1.00  0.00     0.261 C 
BRANCH  33  34
ATOM     34  O   UNL A   1      36.025  31.385  31.260  1.00  0.00    -0.460 OA
BRANCH  34  35
ATOM     35  C   UNL A   1      36.916  30.674  31.985  1.00  0.00     0.338 C 
ATOM     36  O   UNL A   1      36.667  29.846  32.843  1.00  0.00    -0.246 OA
BRANCH  35  37
ATOM     37  C   UNL A   1      38.253  30.917  31.399  1.00  0.00     0.060 A 
ATOM     38  C   UNL A   1      38.499  30.656  30.048  1.00  0.00     0.016 A 
ATOM     39  C   UNL A   1      39.282  31.384  32.228  1.00  0.00     0.016 A 
ATOM     40  C   UNL A   1      39.767  30.905  29.517  1.00  0.00     0.010 A 
ATOM     41  C   UNL A   1      40.552  31.622  31.697  1.00  0.00     0.010 A 
ATOM     42  C   UNL A   1      40.796  31.411  30.331  1.00  0.00    -0.014 A 
BRANCH  42  43
ATOM     43  C   UNL A   1      42.038  31.927  29.707  1.00  0.00     0.031 A 
ATOM     44  C   UNL A   1      42.245  33.378  29.394  1.00  0.00     0.074 A 
ATOM     45  C   UNL A   1      42.990  31.028  29.393  1.00  0.00     0.049 A 
ATOM     46  N   UNL A   1      43.319  33.963  28.931  1.00  0.00    -0.248 NA
ATOM     47  C   UNL A   1      41.112  34.288  29.618  1.00  0.00     0.031 C 
ATOM     48  C   UNL A   1      42.870  29.581  29.588  1.00  0.00     0.029 A 
ATOM     49  N   UNL A   1      44.234  31.189  28.841  1.00  0.00    -0.354 N 
ATOM     50  C   UNL A   1      42.999  35.308  28.801  1.00  0.00     0.074 A 
ATOM     51  C   UNL A   1      41.620  35.450  29.222  1.00  0.00     0.031 C 
ATOM     52  C   UNL A   1      43.998  28.988  29.174  1.00  0.00     0.029 A 
ATOM     53  C   UNL A   1      44.917  30.007  28.676  1.00  0.00     0.049 A 
ATOM     54  H   UNL A   1      44.604  32.065  28.587  1.00  0.00     0.167 HD
ATOM     55  C   UNL A   1      43.792  36.326  28.389  1.00  0.00     0.034 A 
ATOM     56  C   UNL A   1      46.147  29.764  28.189  1.00  0.00     0.034 A 
ATOM     57  C   UNL A   1      45.167  36.177  27.984  1.00  0.00     0.049 A 
ATOM     58  C   UNL A   1      47.011  30.912  27.761  1.00  0.00     0.074 A 
ATOM     59  C   UNL A   1      46.067  37.168  27.629  1.00  0.00     0.029 A 
ATOM     60  N   UNL A   1      45.836  34.970  27.862  1.00  0.00    -0.354 N 
ATOM     61  N   UNL A   1      46.744  32.195  27.797  1.00  0.00    -0.248 NA
ATOM     62  C   UNL A   1      48.353  30.589  27.256  1.00  0.00     0.031 C 
ATOM     63  C   UNL A   1      47.274  36.559  27.275  1.00  0.00     0.029 A 
ATOM     64  C   UNL A   1      47.132  35.189  27.425  1.00  0.00     0.049 A 
ATOM     65  H   UNL A   1      45.448  34.086  28.056  1.00  0.00     0.167 HD
ATOM     66  C   UNL A   1      47.889  32.833  27.339  1.00  0.00     0.074 A 
ATOM     67  C   UNL A   1      48.859  31.798  27.045  1.00  0.00     0.031 C 
ATOM     68  C   UNL A   1      48.106  34.159  27.170  1.00  0.00     0.034 A 
BRANCH  55  69
ATOM     69  C   UNL A   1      43.234  37.723  28.414  1.00  0.00     0.023 A 
ATOM     70  C   UNL A   1      42.353  38.121  27.390  1.00  0.00     0.012 A 
ATOM     71  C   UNL A   1      43.457  38.579  29.510  1.00  0.00     0.148 A 
ATOM     72  C   UNL A   1      41.704  39.353  27.452  1.00  0.00     0.002 A 
ATOM     73  C   UNL A   1      42.787  39.795  29.578  1.00  0.00     0.091 A 
ATOM     74  F   UNL A   1      44.302  38.179  30.470  1.00  0.00    -0.205 F 
ATOM     75  C   UNL A   1      41.912  40.184  28.550  1.00  0.00     0.022 A 
BRANCH  73  76
ATOM     76  S   UNL A   1      42.938  40.917  30.973  1.00  0.00     0.127 S 
ATOM     77  O   UNL A   1      41.887  41.892  30.682  1.00  0.00    -0.237 OA
ATOM     78  O   UNL A   1      42.655  40.037  32.108  1.00  0.00    -0.237 OA
ATOM     79  O   UNL A   1      44.296  41.440  30.926  1.00  0.00    -0.744 OA
ENDBRANCH  73  76
ENDBRANCH  55  69
BRANCH  56  80
ATOM     80  C   UNL A   1      46.650  28.365  28.169  1.00  0.00     0.023 A 
ATOM     81  C   UNL A   1      47.156  27.802  29.355  1.00  0.00     0.012 A 
ATOM     82  C   UNL A   1      46.535  27.569  27.014  1.00  0.00     0.148 A 
ATOM     83  C   UNL A   1      47.548  26.464  29.389  1.00  0.00     0.002 A 
ATOM     84  C   UNL A   1      46.892  26.228  27.066  1.00  0.00     0.091 A 
ATOM     85  F   UNL A   1      46.045  28.134  25.902  1.00  0.00    -0.205 F 
ATOM     86  C   UNL A   1      47.406  25.676  28.250  1.00  0.00     0.022 A 
BRANCH  84  87
ATOM     87  S   UNL A   1      46.648  25.105  25.685  1.00  0.00     0.127 S 
ATOM     88  O   UNL A   1      45.307  25.473  25.236  1.00  0.00    -0.237 OA
ATOM     89  O   UNL A   1      47.731  25.503  24.785  1.00  0.00    -0.237 OA
ATOM     90  O   UNL A   1      46.776  23.764  26.235  1.00  0.00    -0.744 OA
ENDBRANCH  84  87
ENDBRANCH  56  80
BRANCH  68  91
ATOM     91  C   UNL A   1      49.444  34.595  26.642  1.00  0.00     0.023 A 
ATOM     92  C   UNL A   1      49.634  34.709  25.251  1.00  0.00     0.012 A 
ATOM     93  C   UNL A   1      50.466  35.007  27.520  1.00  0.00     0.148 A 
ATOM     94  C   UNL A   1      50.826  35.222  24.741  1.00  0.00     0.002 A 
ATOM     95  C   UNL A   1      51.637  35.550  27.005  1.00  0.00     0.091 A 
ATOM     96  F   UNL A   1      50.262  34.880  28.839  1.00  0.00    -0.205 F 
ATOM     97  C   UNL A   1      51.820  35.654  25.616  1.00  0.00     0.022 A 
BRANCH  95  98
ATOM     98  S   UNL A   1      52.947  36.199  28.049  1.00  0.00     0.127 S 
ATOM     99  O   UNL A   1      53.582  34.971  28.528  1.00  0.00    -0.237 OA
ATOM    100  O   UNL A   1      53.747  36.967  27.096  1.00  0.00    -0.237 OA
ATOM    101  O   UNL A   1      52.290  36.996  29.076  1.00  0.00    -0.744 OA
ENDBRANCH  95  98
ENDBRANCH  68  91
ENDBRANCH  42  43
ENDBRANCH  35  37
ENDBRANCH  34  35
ENDBRANCH  33  34
ENDBRANCH  32  33
ENDBRANCH  31  32
ENDBRANCH  30  31
ENDBRANCH   1  30
TORSDOF 25
ENDMDL
MODEL 3
REMARK VINA RESULT:      -8.8      4.782     11.964
REMARK SMILES Nc1nc2ccccc2nc1N1CCC(C(=O)OCCOCCOCCOCCOC(=O)c2ccc(-c3c4nc(c(-c5cccc(S(=O)(=O)[O-])c5F)c5ccc([nH]5)c(-c5cccc(S(=O)(=O)[O-])c5F)c5nc(c(-c6cccc(S(=O)(=O)[O-])c6F)c6ccc3[nH]6)C=C5)C=C4)cc2)CC1
REMARK SMILES IDX 25 1 24 2 23 3 22 4 21 5 20 6 19 7 18 8 16 9 17 10 15 11
REMARK SMILES IDX 12 12 13 13 97 14 14 15 96 16 11 17 2 18 3 19 4 20 10 21
REMARK SMILES IDX 5 22 9 23 6 24 8 25 7 26 1 27 26 30 27 31 28 32 29 33 30 34
REMARK SMILES IDX 31 35 32 36 33 37 34 38 95 39 35 40 94 41 36 42 37 43 38 44
REMARK SMILES IDX 88 45 39 46 93 47 87 48 89 49 40 50 92 51 86 52 85 53 41 55
REMARK SMILES IDX 73 56 53 57 72 58 54 59 57 60 71 61 90 62 55 63 56 64 70 66
REMARK SMILES IDX 91 67 58 68 42 69 43 70 51 71 44 72 46 73 52 74 45 75 47 76
REMARK SMILES IDX 48 77 49 78 50 79 74 80 75 81 83 82 76 83 78 84 84 85 77 86
REMARK SMILES IDX 79 87 80 88 81 89 82 90 59 91 60 92 68 93 61 94 63 95 69 96
REMARK SMILES IDX 62 97 64 98 65 99 66 100 67 101
REMARK H PARENT 1 28 1 29 89 54 57 65
REMARK Flexibility Score: inf
ROOT
ATOM      1  C   UNL A   1      35.402  35.147  32.992  1.00  0.00     0.188 C 
ENDROOT
BRANCH   1   2
ATOM      2  O   UNL A   1      35.777  34.239  34.024  1.00  0.00    -0.377 OA
BRANCH   2   3
ATOM      3  C   UNL A   1      35.787  32.864  33.703  1.00  0.00     0.188 C 
BRANCH   3   4
ATOM      4  C   UNL A   1      37.071  32.115  34.083  1.00  0.00     0.188 C 
BRANCH   4   5
ATOM      5  O   UNL A   1      37.674  31.196  33.187  1.00  0.00    -0.376 OA
BRANCH   5   6
ATOM      6  C   UNL A   1      38.475  30.125  33.674  1.00  0.00     0.202 C 
BRANCH   6   7
ATOM      7  C   UNL A   1      38.488  28.762  32.963  1.00  0.00     0.261 C 
BRANCH   7   8
ATOM      8  O   UNL A   1      39.688  27.980  33.118  1.00  0.00    -0.463 OA
BRANCH   8   9
ATOM      9  C   UNL A   1      40.731  28.612  33.697  1.00  0.00     0.309 C 
ATOM     10  O   UNL A   1      41.254  29.636  33.264  1.00  0.00    -0.252 OA
BRANCH   9  11
ATOM     11  C   UNL A   1      41.259  27.947  34.951  1.00  0.00     0.103 C 
ATOM     12  N   UNL A   1      42.849  26.462  36.800  1.00  0.00    -0.353 N 
ATOM     13  C   UNL A   1      41.449  26.110  36.621  1.00  0.00     0.119 C 
ATOM     14  C   UNL A   1      43.309  27.786  36.384  1.00  0.00     0.119 C 
ATOM     15  C   UNL A   1      40.960  26.470  35.219  1.00  0.00     0.037 C 
ATOM     16  C   UNL A   1      42.777  28.139  34.998  1.00  0.00     0.037 C 
BRANCH  12  17
ATOM     17  C   UNL A   1      43.779  25.423  36.749  1.00  0.00     0.172 A 
ATOM     18  C   UNL A   1      44.508  25.052  37.909  1.00  0.00     0.167 A 
ATOM     19  N   UNL A   1      45.396  24.042  37.915  1.00  0.00    -0.226 NA
ATOM     20  C   UNL A   1      45.549  23.378  36.755  1.00  0.00     0.091 A 
ATOM     21  N   UNL A   1      43.919  24.728  35.599  1.00  0.00    -0.225 NA
ATOM     22  C   UNL A   1      46.450  22.323  36.697  1.00  0.00     0.031 A 
ATOM     23  C   UNL A   1      44.811  23.720  35.594  1.00  0.00     0.091 A 
ATOM     24  C   UNL A   1      46.648  21.602  35.520  1.00  0.00     0.002 A 
ATOM     25  C   UNL A   1      45.020  22.994  34.428  1.00  0.00     0.031 A 
ATOM     26  C   UNL A   1      45.932  21.940  34.379  1.00  0.00     0.002 A 
BRANCH  18  27
ATOM     27  N   UNL A   1      44.331  25.714  39.123  1.00  0.00    -0.381 N 
ATOM     28  H   UNL A   1      44.929  26.455  39.371  1.00  0.00     0.158 HD
ATOM     29  H   UNL A   1      43.606  25.441  39.730  1.00  0.00     0.158 HD
ENDBRANCH  18  27
ENDBRANCH  12  17
ENDBRANCH   9  11
ENDBRANCH   8   9
ENDBRANCH   7   8
ENDBRANCH   6   7
ENDBRANCH   5   6
ENDBRANCH   4   5
ENDBRANCH   3   4
ENDBRANCH   2   3
ENDBRANCH   1   2
BRANCH   1  30
ATOM     30  C   UNL A   1      34.206  36.081  33.254  1.00  0.00     0.188 C 
BRANCH  30  31
ATOM     31  O   UNL A   1      33.146  35.923  32.312  1.00  0.00    -0.376 OA
BRANCH  31  32
ATOM     32  C   UNL A   1      33.268  36.594  31.062  1.00  0.00     0.202 C 
BRANCH  32  33
ATOM     33  C   UNL A   1      32.980  35.760  29.802  1.00  0.00     0.261 C 
BRANCH  33  34
ATOM     34  O   UNL A   1      33.226  34.346  29.892  1.00  0.00    -0.460 OA
BRANCH  34  35
ATOM     35  C   UNL A   1      33.555  33.663  28.774  1.00  0.00     0.338 C 
ATOM     36  O   UNL A   1      32.942  33.642  27.722  1.00  0.00    -0.246 OA
BRANCH  35  37
ATOM     37  C   UNL A   1      34.915  33.115  28.978  1.00  0.00     0.060 A 
ATOM     38  C   UNL A   1      36.002  33.615  28.256  1.00  0.00     0.016 A 
ATOM     39  C   UNL A   1      35.092  32.063  29.885  1.00  0.00     0.016 A 
ATOM     40  C   UNL A   1      37.277  33.089  28.475  1.00  0.00     0.010 A 
ATOM     41  C   UNL A   1      36.367  31.530  30.096  1.00  0.00     0.010 A 
ATOM     42  C   UNL A   1      37.473  32.059  29.413  1.00  0.00    -0.014 A 
BRANCH  42  43
ATOM     43  C   UNL A   1      38.849  31.704  29.836  1.00  0.00     0.031 A 
ATOM     44  C   UNL A   1      39.589  32.455  30.900  1.00  0.00     0.074 A 
ATOM     45  C   UNL A   1      39.445  30.677  29.199  1.00  0.00     0.049 A 
ATOM     46  N   UNL A   1      40.760  32.188  31.419  1.00  0.00    -0.248 NA
ATOM     47  C   UNL A   1      38.947  33.658  31.451  1.00  0.00     0.031 C 
ATOM     48  C   UNL A   1      38.847  29.918  28.098  1.00  0.00     0.029 A 
ATOM     49  N   UNL A   1      40.677  30.102  29.372  1.00  0.00    -0.354 N 
ATOM     50  C   UNL A   1      41.005  33.185  32.353  1.00  0.00     0.074 A 
ATOM     51  C   UNL A   1      39.862  34.075  32.321  1.00  0.00     0.031 C 
ATOM     52  C   UNL A   1      39.708  28.969  27.703  1.00  0.00     0.029 A 
ATOM     53  C   UNL A   1      40.919  29.058  28.512  1.00  0.00     0.049 A 
ATOM     54  H   UNL A   1      41.326  30.407  30.047  1.00  0.00     0.167 HD
ATOM     55  C   UNL A   1      42.074  33.326  33.173  1.00  0.00     0.034 A 
ATOM     56  C   UNL A   1      41.989  28.252  28.389  1.00  0.00     0.034 A 
ATOM     57  C   UNL A   1      43.200  32.428  33.208  1.00  0.00     0.049 A 
ATOM     58  C   UNL A   1      43.149  28.417  29.325  1.00  0.00     0.074 A 
ATOM     59  C   UNL A   1      44.288  32.453  34.063  1.00  0.00     0.029 A 
ATOM     60  N   UNL A   1      43.396  31.361  32.346  1.00  0.00    -0.354 N 
ATOM     61  N   UNL A   1      43.290  29.270  30.309  1.00  0.00    -0.248 NA
ATOM     62  C   UNL A   1      44.281  27.496  29.157  1.00  0.00     0.031 C 
ATOM     63  C   UNL A   1      45.151  31.411  33.708  1.00  0.00     0.029 A 
ATOM     64  C   UNL A   1      44.592  30.728  32.641  1.00  0.00     0.049 A 
ATOM     65  H   UNL A   1      42.777  31.092  31.629  1.00  0.00     0.167 HD
ATOM     66  C   UNL A   1      44.516  28.977  30.892  1.00  0.00     0.074 A 
ATOM     67  C   UNL A   1      45.073  27.857  30.160  1.00  0.00     0.031 C 
ATOM     68  C   UNL A   1      45.124  29.592  31.934  1.00  0.00     0.034 A 
BRANCH  55  69
ATOM     69  C   UNL A   1      42.069  34.456  34.167  1.00  0.00     0.023 A 
ATOM     70  C   UNL A   1      42.620  35.695  33.790  1.00  0.00     0.012 A 
ATOM     71  C   UNL A   1      41.396  34.341  35.400  1.00  0.00     0.148 A 
ATOM     72  C   UNL A   1      42.508  36.805  34.626  1.00  0.00     0.002 A 
ATOM     73  C   UNL A   1      41.266  35.457  36.217  1.00  0.00     0.091 A 
ATOM     74  F   UNL A   1      40.883  33.149  35.737  1.00  0.00    -0.205 F 
ATOM     75  C   UNL A   1      41.822  36.689  35.832  1.00  0.00     0.022 A 
BRANCH  73  76
ATOM     76  S   UNL A   1      40.355  35.434  37.765  1.00  0.00     0.127 S 
ATOM     77  O   UNL A   1      39.888  36.818  37.852  1.00  0.00    -0.237 OA
ATOM     78  O   UNL A   1      39.305  34.453  37.489  1.00  0.00    -0.237 OA
ATOM     79  O   UNL A   1      41.310  35.040  38.791  1.00  0.00    -0.744 OA
ENDBRANCH  73  76
ENDBRANCH  55  69
BRANCH  56  80
ATOM     80  C   UNL A   1      41.955  27.160  27.381  1.00  0.00     0.023 A 
ATOM     81  C   UNL A   1      42.449  27.406  26.087  1.00  0.00     0.012 A 
ATOM     82  C   UNL A   1      41.533  25.863  27.729  1.00  0.00     0.148 A 
ATOM     83  C   UNL A   1      42.516  26.377  25.148  1.00  0.00     0.002 A 
ATOM     84  C   UNL A   1      41.638  24.835  26.802  1.00  0.00     0.091 A 
ATOM     85  F   UNL A   1      41.072  25.660  28.971  1.00  0.00    -0.205 F 
ATOM     86  C   UNL A   1      42.120  25.091  25.509  1.00  0.00     0.022 A 
BRANCH  84  87
ATOM     87  S   UNL A   1      41.255  23.126  27.202  1.00  0.00     0.127 S 
ATOM     88  O   UNL A   1      40.415  23.279  28.388  1.00  0.00    -0.237 OA
ATOM     89  O   UNL A   1      40.548  22.690  25.998  1.00  0.00    -0.237 OA
ATOM     90  O   UNL A   1      42.536  22.472  27.425  1.00  0.00    -0.744 OA
ENDBRANCH  84  87
ENDBRANCH  56  80
BRANCH  68  91
ATOM     91  C   UNL A   1      46.470  29.082  32.368  1.00  0.00     0.023 A 
ATOM     92  C   UNL A   1      47.632  29.762  31.954  1.00  0.00     0.012 A 
ATOM     93  C   UNL A   1      46.577  28.012  33.278  1.00  0.00     0.148 A 
ATOM     94  C   UNL A   1      48.883  29.380  32.437  1.00  0.00     0.002 A 
ATOM     95  C   UNL A   1      47.824  27.660  33.781  1.00  0.00     0.091 A 
ATOM     96  F   UNL A   1      45.456  27.376  33.648  1.00  0.00    -0.205 F 
ATOM     97  C   UNL A   1      48.978  28.340  33.358  1.00  0.00     0.022 A 
BRANCH  95  98
ATOM     98  S   UNL A   1      48.042  26.381  35.024  1.00  0.00     0.127 S 
ATOM     99  O   UNL A   1      47.101  26.808  36.060  1.00  0.00    -0.237 OA
ATOM    100  O   UNL A   1      47.644  25.176  34.299  1.00  0.00    -0.237 OA
ATOM    101  O   UNL A   1      49.447  26.426  35.410  1.00  0.00    -0.744 OA
ENDBRANCH  95  98
ENDBRANCH  68  91
ENDBRANCH  42  43
ENDBRANCH  35  37
ENDBRANCH  34  35
ENDBRANCH  33  34
ENDBRANCH  32  33
ENDBRANCH  31  32
ENDBRANCH  30  31
ENDBRANCH   1  30
TORSDOF 25
ENDMDL
