MODEL 1
REMARK VINA RESULT:      -8.2      0.000      0.000
REMARK SMILES O=C(OCCOCCOCCOCCOC(=O)c1cc(-c2ccccc2)nc(Nc2nc3ccccc3s2)n1)c1ccc(-c2c3nc(c(-c4cccc(S(=O)(=O)[O-])c4F)c4ccc([nH]4)c(-c4cccc(S(=O)(=O)[O-])c4F)c4nc(c(-c5cccc(S(=O)(=O)[O-])c5F)c5ccc2[nH]5)C=C4)C=C3)cc1
REMARK SMILES IDX 8 1 7 2 6 3 5 4 4 5 3 6 2 7 1 8 40 9 41 10 102 11 42 12
REMARK SMILES IDX 101 13 43 14 44 15 45 16 95 17 46 18 100 19 94 20 96 21
REMARK SMILES IDX 47 22 99 23 93 24 92 25 48 27 80 28 60 29 79 30 61 31 64 32
REMARK SMILES IDX 78 33 97 34 62 35 63 36 77 38 98 39 65 40 49 41 50 42 58 43
REMARK SMILES IDX 51 44 53 45 59 46 52 47 54 48 55 49 56 50 57 51 81 52 82 53
REMARK SMILES IDX 90 54 83 55 85 56 91 57 84 58 86 59 87 60 88 61 89 62 66 63
REMARK SMILES IDX 67 64 75 65 68 66 70 67 76 68 69 69 71 70 72 71 73 72 74 73
REMARK SMILES IDX 9 74 10 75 11 76 12 77 13 78 14 79 15 80 16 81 17 82 18 83
REMARK SMILES IDX 19 84 39 85 20 86 28 87 27 88 21 89 22 90 26 91 23 92 25 93
REMARK SMILES IDX 24 94 29 95 30 97 31 98 38 99 32 100 37 101 33 102 36 103
REMARK SMILES IDX 34 104 35 105
REMARK H PARENT 96 26 64 37 29 96
REMARK Flexibility Score: inf
ROOT
ATOM      1  C   UNL A   1      39.973  31.587  44.013  1.00  0.00     0.188 C 
ENDROOT
BRANCH   1   2
ATOM      2  C   UNL A   1      38.651  31.487  43.247  1.00  0.00     0.188 C 
BRANCH   2   3
ATOM      3  O   UNL A   1      37.893  32.661  43.497  1.00  0.00    -0.376 OA
BRANCH   3   4
ATOM      4  C   UNL A   1      37.670  33.546  42.412  1.00  0.00     0.202 C 
BRANCH   4   5
ATOM      5  C   UNL A   1      37.274  32.864  41.109  1.00  0.00     0.261 C 
BRANCH   5   6
ATOM      6  O   UNL A   1      38.381  32.737  40.209  1.00  0.00    -0.460 OA
BRANCH   6   7
ATOM      7  C   UNL A   1      38.452  33.233  38.947  1.00  0.00     0.338 C 
ATOM      8  O   UNL A   1      38.222  34.427  38.769  1.00  0.00    -0.246 OA
BRANCH   7   9
ATOM      9  C   UNL A   1      38.889  32.414  37.778  1.00  0.00     0.060 A 
ATOM     10  C   UNL A   1      40.168  32.430  37.220  1.00  0.00     0.016 A 
ATOM     11  C   UNL A   1      37.960  31.501  37.262  1.00  0.00     0.016 A 
ATOM     12  C   UNL A   1      40.495  31.668  36.115  1.00  0.00     0.010 A 
ATOM     13  C   UNL A   1      38.302  30.667  36.196  1.00  0.00     0.010 A 
ATOM     14  C   UNL A   1      39.566  30.778  35.599  1.00  0.00    -0.014 A 
BRANCH  14  15
ATOM     15  C   UNL A   1      39.907  30.069  34.357  1.00  0.00     0.031 A 
ATOM     16  C   UNL A   1      41.090  29.156  34.380  1.00  0.00     0.074 A 
ATOM     17  C   UNL A   1      39.112  30.181  33.277  1.00  0.00     0.049 A 
ATOM     18  N   UNL A   1      41.675  28.537  33.397  1.00  0.00    -0.248 NA
ATOM     19  C   UNL A   1      41.701  28.911  35.700  1.00  0.00     0.031 C 
ATOM     20  C   UNL A   1      37.872  30.962  33.220  1.00  0.00     0.029 A 
ATOM     21  N   UNL A   1      39.225  29.643  32.025  1.00  0.00    -0.354 N 
ATOM     22  C   UNL A   1      42.774  27.903  33.961  1.00  0.00     0.074 A 
ATOM     23  C   UNL A   1      42.758  28.185  35.377  1.00  0.00     0.031 C 
ATOM     24  C   UNL A   1      37.346  30.860  31.990  1.00  0.00     0.029 A 
ATOM     25  C   UNL A   1      38.254  30.085  31.156  1.00  0.00     0.049 A 
ATOM     26  H   UNL A   1      39.929  29.003  31.772  1.00  0.00     0.167 HD
ATOM     27  C   UNL A   1      43.716  27.166  33.335  1.00  0.00     0.034 A 
ATOM     28  C   UNL A   1      38.160  29.932  29.823  1.00  0.00     0.034 A 
ATOM     29  C   UNL A   1      43.676  26.893  31.927  1.00  0.00     0.049 A 
ATOM     30  C   UNL A   1      39.238  29.137  29.139  1.00  0.00     0.074 A 
ATOM     31  C   UNL A   1      44.571  26.181  31.156  1.00  0.00     0.029 A 
ATOM     32  N   UNL A   1      42.670  27.340  31.076  1.00  0.00    -0.354 N 
ATOM     33  N   UNL A   1      40.278  28.536  29.671  1.00  0.00    -0.248 NA
ATOM     34  C   UNL A   1      39.134  28.986  27.685  1.00  0.00     0.031 C 
ATOM     35  C   UNL A   1      44.121  26.224  29.831  1.00  0.00     0.029 A 
ATOM     36  C   UNL A   1      42.926  26.929  29.783  1.00  0.00     0.049 A 
ATOM     37  H   UNL A   1      41.890  27.873  31.355  1.00  0.00     0.167 HD
ATOM     38  C   UNL A   1      40.945  27.921  28.623  1.00  0.00     0.074 A 
ATOM     39  C   UNL A   1      40.173  28.203  27.426  1.00  0.00     0.031 C 
ATOM     40  C   UNL A   1      42.096  27.203  28.635  1.00  0.00     0.034 A 
BRANCH  27  41
ATOM     41  C   UNL A   1      44.871  26.682  34.168  1.00  0.00     0.023 A 
ATOM     42  C   UNL A   1      45.960  27.533  34.448  1.00  0.00     0.012 A 
ATOM     43  C   UNL A   1      44.900  25.351  34.627  1.00  0.00     0.148 A 
ATOM     44  C   UNL A   1      47.081  27.051  35.125  1.00  0.00     0.002 A 
ATOM     45  C   UNL A   1      46.000  24.891  35.341  1.00  0.00     0.091 A 
ATOM     46  F   UNL A   1      43.871  24.546  34.322  1.00  0.00    -0.205 F 
ATOM     47  C   UNL A   1      47.098  25.734  35.576  1.00  0.00     0.022 A 
BRANCH  45  48
ATOM     48  S   UNL A   1      46.090  23.228  36.014  1.00  0.00     0.127 S 
ATOM     49  O   UNL A   1      47.311  23.299  36.815  1.00  0.00    -0.237 OA
ATOM     50  O   UNL A   1      44.853  23.148  36.793  1.00  0.00    -0.237 OA
ATOM     51  O   UNL A   1      46.145  22.333  34.867  1.00  0.00    -0.744 OA
ENDBRANCH  45  48
ENDBRANCH  27  41
BRANCH  28  52
ATOM     52  C   UNL A   1      37.040  30.571  29.074  1.00  0.00     0.023 A 
ATOM     53  C   UNL A   1      37.037  31.962  28.860  1.00  0.00     0.012 A 
ATOM     54  C   UNL A   1      36.000  29.794  28.521  1.00  0.00     0.148 A 
ATOM     55  C   UNL A   1      36.013  32.568  28.128  1.00  0.00     0.002 A 
ATOM     56  C   UNL A   1      35.016  30.394  27.743  1.00  0.00     0.091 A 
ATOM     57  F   UNL A   1      36.006  28.472  28.748  1.00  0.00    -0.205 F 
ATOM     58  C   UNL A   1      35.012  31.785  27.560  1.00  0.00     0.022 A 
BRANCH  56  59
ATOM     59  S   UNL A   1      33.769  29.447  26.862  1.00  0.00     0.127 S 
ATOM     60  O   UNL A   1      32.902  30.501  26.344  1.00  0.00    -0.237 OA
ATOM     61  O   UNL A   1      34.572  28.758  25.851  1.00  0.00    -0.237 OA
ATOM     62  O   UNL A   1      33.170  28.564  27.854  1.00  0.00    -0.744 OA
ENDBRANCH  56  59
ENDBRANCH  28  52
BRANCH  40  63
ATOM     63  C   UNL A   1      42.565  26.644  27.323  1.00  0.00     0.023 A 
ATOM     64  C   UNL A   1      43.251  27.471  26.413  1.00  0.00     0.012 A 
ATOM     65  C   UNL A   1      42.419  25.271  27.050  1.00  0.00     0.148 A 
ATOM     66  C   UNL A   1      43.768  26.939  25.234  1.00  0.00     0.002 A 
ATOM     67  C   UNL A   1      42.987  24.739  25.901  1.00  0.00     0.091 A 
ATOM     68  F   UNL A   1      41.744  24.513  27.926  1.00  0.00    -0.205 F 
ATOM     69  C   UNL A   1      43.650  25.572  24.986  1.00  0.00     0.022 A 
BRANCH  67  70
ATOM     70  S   UNL A   1      42.982  22.976  25.563  1.00  0.00     0.127 S 
ATOM     71  O   UNL A   1      41.554  22.667  25.607  1.00  0.00    -0.237 OA
ATOM     72  O   UNL A   1      43.579  22.917  24.228  1.00  0.00    -0.237 OA
ATOM     73  O   UNL A   1      43.786  22.362  26.611  1.00  0.00    -0.744 OA
ENDBRANCH  67  70
ENDBRANCH  40  63
ENDBRANCH  14  15
ENDBRANCH   7   9
ENDBRANCH   6   7
ENDBRANCH   5   6
ENDBRANCH   4   5
ENDBRANCH   3   4
ENDBRANCH   2   3
ENDBRANCH   1   2
BRANCH   1  74
ATOM     74  O   UNL A   1      41.122  31.892  43.211  1.00  0.00    -0.377 OA
BRANCH  74  75
ATOM     75  C   UNL A   1      41.243  33.243  42.760  1.00  0.00     0.188 C 
BRANCH  75  76
ATOM     76  C   UNL A   1      41.630  33.503  41.284  1.00  0.00     0.188 C 
BRANCH  76  77
ATOM     77  O   UNL A   1      41.443  34.851  40.895  1.00  0.00    -0.376 OA
BRANCH  77  78
ATOM     78  C   UNL A   1      42.041  35.290  39.682  1.00  0.00     0.202 C 
BRANCH  78  79
ATOM     79  C   UNL A   1      41.230  36.073  38.629  1.00  0.00     0.261 C 
BRANCH  79  80
ATOM     80  O   UNL A   1      41.040  35.429  37.363  1.00  0.00    -0.459 OA
BRANCH  80  81
ATOM     81  C   UNL A   1      40.814  36.197  36.274  1.00  0.00     0.357 C 
ATOM     82  O   UNL A   1      41.178  37.346  36.083  1.00  0.00    -0.244 OA
BRANCH  81  83
ATOM     83  C   UNL A   1      40.114  35.337  35.286  1.00  0.00     0.154 A 
ATOM     84  C   UNL A   1      40.823  34.846  34.227  1.00  0.00     0.065 A 
ATOM     85  N   UNL A   1      38.782  35.165  35.450  1.00  0.00    -0.206 NA
ATOM     86  C   UNL A   1      40.116  34.023  33.383  1.00  0.00     0.077 A 
ATOM     87  C   UNL A   1      38.139  34.477  34.501  1.00  0.00     0.230 A 
ATOM     88  N   UNL A   1      38.778  33.844  33.497  1.00  0.00    -0.213 NA
BRANCH  86  89
ATOM     89  C   UNL A   1      40.838  33.186  32.410  1.00  0.00     0.000 A 
ATOM     90  C   UNL A   1      42.004  32.472  32.718  1.00  0.00     0.010 A 
ATOM     91  C   UNL A   1      40.339  33.093  31.092  1.00  0.00     0.010 A 
ATOM     92  C   UNL A   1      42.632  31.683  31.745  1.00  0.00     0.001 A 
ATOM     93  C   UNL A   1      40.960  32.308  30.125  1.00  0.00     0.001 A 
ATOM     94  C   UNL A   1      42.110  31.601  30.452  1.00  0.00     0.000 A 
ENDBRANCH  86  89
BRANCH  87  95
ATOM     95  N   UNL A   1      36.758  34.326  34.550  1.00  0.00    -0.300 N 
ATOM     96  H   UNL A   1      36.382  33.927  35.367  1.00  0.00     0.172 HD
BRANCH  95  97
ATOM     97  C   UNL A   1      35.884  34.673  33.582  1.00  0.00     0.190 A 
ATOM     98  N   UNL A   1      35.147  35.765  33.579  1.00  0.00    -0.220 NA
ATOM     99  S   UNL A   1      35.784  33.740  32.134  1.00  0.00    -0.097 S 
ATOM    100  C   UNL A   1      34.415  35.858  32.397  1.00  0.00     0.084 A 
ATOM    101  C   UNL A   1      34.579  34.796  31.509  1.00  0.00     0.056 A 
ATOM    102  C   UNL A   1      33.544  36.904  32.024  1.00  0.00     0.030 A 
ATOM    103  C   UNL A   1      33.846  34.712  30.310  1.00  0.00     0.021 A 
ATOM    104  C   UNL A   1      32.793  36.826  30.849  1.00  0.00     0.002 A 
ATOM    105  C   UNL A   1      32.934  35.730  30.008  1.00  0.00     0.002 A 
ENDBRANCH  95  97
ENDBRANCH  87  95
ENDBRANCH  81  83
ENDBRANCH  80  81
ENDBRANCH  79  80
ENDBRANCH  78  79
ENDBRANCH  77  78
ENDBRANCH  76  77
ENDBRANCH  75  76
ENDBRANCH  74  75
ENDBRANCH   1  74
TORSDOF 26
ENDMDL
MODEL 2
REMARK VINA RESULT:      -8.2      3.461      9.095
REMARK SMILES O=C(OCCOCCOCCOCCOC(=O)c1cc(-c2ccccc2)nc(Nc2nc3ccccc3s2)n1)c1ccc(-c2c3nc(c(-c4cccc(S(=O)(=O)[O-])c4F)c4ccc([nH]4)c(-c4cccc(S(=O)(=O)[O-])c4F)c4nc(c(-c5cccc(S(=O)(=O)[O-])c5F)c5ccc2[nH]5)C=C4)C=C3)cc1
REMARK SMILES IDX 8 1 7 2 6 3 5 4 4 5 3 6 2 7 1 8 40 9 41 10 102 11 42 12
REMARK SMILES IDX 101 13 43 14 44 15 45 16 95 17 46 18 100 19 94 20 96 21
REMARK SMILES IDX 47 22 99 23 93 24 92 25 48 27 80 28 60 29 79 30 61 31 64 32
REMARK SMILES IDX 78 33 97 34 62 35 63 36 77 38 98 39 65 40 49 41 50 42 58 43
REMARK SMILES IDX 51 44 53 45 59 46 52 47 54 48 55 49 56 50 57 51 81 52 82 53
REMARK SMILES IDX 90 54 83 55 85 56 91 57 84 58 86 59 87 60 88 61 89 62 66 63
REMARK SMILES IDX 67 64 75 65 68 66 70 67 76 68 69 69 71 70 72 71 73 72 74 73
REMARK SMILES IDX 9 74 10 75 11 76 12 77 13 78 14 79 15 80 16 81 17 82 18 83
REMARK SMILES IDX 19 84 39 85 20 86 28 87 27 88 21 89 22 90 26 91 23 92 25 93
REMARK SMILES IDX 24 94 29 95 30 97 31 98 38 99 32 100 37 101 33 102 36 103
REMARK SMILES IDX 34 104 35 105
REMARK H PARENT 96 26 64 37 29 96
REMARK Flexibility Score: inf
ROOT
ATOM      1  C   UNL A   1      32.575  35.529  30.179  1.00  0.00     0.188 C 
ENDROOT
BRANCH   1   2
ATOM      2  C   UNL A   1      33.885  35.562  29.386  1.00  0.00     0.188 C 
BRANCH   2   3
ATOM      3  O   UNL A   1      33.693  34.859  28.167  1.00  0.00    -0.376 OA
BRANCH   3   4
ATOM      4  C   UNL A   1      34.554  33.767  27.893  1.00  0.00     0.202 C 
BRANCH   4   5
ATOM      5  C   UNL A   1      34.508  32.648  28.925  1.00  0.00     0.261 C 
BRANCH   5   6
ATOM      6  O   UNL A   1      33.962  31.440  28.385  1.00  0.00    -0.460 OA
BRANCH   6   7
ATOM      7  C   UNL A   1      34.661  30.428  27.810  1.00  0.00     0.338 C 
ATOM      8  O   UNL A   1      34.158  29.826  26.864  1.00  0.00    -0.246 OA
BRANCH   7   9
ATOM      9  C   UNL A   1      36.055  30.075  28.212  1.00  0.00     0.060 A 
ATOM     10  C   UNL A   1      36.425  29.553  29.453  1.00  0.00     0.016 A 
ATOM     11  C   UNL A   1      37.048  30.200  27.232  1.00  0.00     0.016 A 
ATOM     12  C   UNL A   1      37.741  29.278  29.770  1.00  0.00     0.010 A 
ATOM     13  C   UNL A   1      38.371  29.851  27.514  1.00  0.00     0.010 A 
ATOM     14  C   UNL A   1      38.722  29.420  28.801  1.00  0.00    -0.014 A 
BRANCH  14  15
ATOM     15  C   UNL A   1      40.123  29.230  29.205  1.00  0.00     0.031 A 
ATOM     16  C   UNL A   1      40.783  27.942  28.833  1.00  0.00     0.074 A 
ATOM     17  C   UNL A   1      40.793  30.230  29.804  1.00  0.00     0.049 A 
ATOM     18  N   UNL A   1      41.945  27.478  29.188  1.00  0.00    -0.248 NA
ATOM     19  C   UNL A   1      40.024  27.053  27.934  1.00  0.00     0.031 C 
ATOM     20  C   UNL A   1      40.245  31.560  30.091  1.00  0.00     0.029 A 
ATOM     21  N   UNL A   1      42.074  30.288  30.280  1.00  0.00    -0.354 N 
ATOM     22  C   UNL A   1      42.020  26.206  28.634  1.00  0.00     0.074 A 
ATOM     23  C   UNL A   1      40.801  25.984  27.892  1.00  0.00     0.031 C 
ATOM     24  C   UNL A   1      41.182  32.298  30.705  1.00  0.00     0.029 A 
ATOM     25  C   UNL A   1      42.357  31.467  30.930  1.00  0.00     0.049 A 
ATOM     26  H   UNL A   1      42.727  29.560  30.167  1.00  0.00     0.167 HD
ATOM     27  C   UNL A   1      43.019  25.307  28.758  1.00  0.00     0.034 A 
ATOM     28  C   UNL A   1      43.422  31.799  31.682  1.00  0.00     0.034 A 
ATOM     29  C   UNL A   1      44.224  25.584  29.487  1.00  0.00     0.049 A 
ATOM     30  C   UNL A   1      44.509  30.771  31.835  1.00  0.00     0.074 A 
ATOM     31  C   UNL A   1      45.309  24.763  29.712  1.00  0.00     0.029 A 
ATOM     32  N   UNL A   1      44.489  26.793  30.120  1.00  0.00    -0.354 N 
ATOM     33  N   UNL A   1      44.582  29.568  31.312  1.00  0.00    -0.248 NA
ATOM     34  C   UNL A   1      45.660  31.137  32.666  1.00  0.00     0.031 C 
ATOM     35  C   UNL A   1      46.219  25.467  30.509  1.00  0.00     0.029 A 
ATOM     36  C   UNL A   1      45.718  26.740  30.748  1.00  0.00     0.049 A 
ATOM     37  H   UNL A   1      43.889  27.574  30.122  1.00  0.00     0.167 HD
ATOM     38  C   UNL A   1      45.791  29.037  31.734  1.00  0.00     0.074 A 
ATOM     39  C   UNL A   1      46.430  30.064  32.537  1.00  0.00     0.031 C 
ATOM     40  C   UNL A   1      46.325  27.812  31.499  1.00  0.00     0.034 A 
BRANCH  27  41
ATOM     41  C   UNL A   1      42.798  23.951  28.146  1.00  0.00     0.023 A 
ATOM     42  C   UNL A   1      41.962  23.007  28.776  1.00  0.00     0.012 A 
ATOM     43  C   UNL A   1      43.476  23.592  26.964  1.00  0.00     0.148 A 
ATOM     44  C   UNL A   1      41.844  21.713  28.269  1.00  0.00     0.002 A 
ATOM     45  C   UNL A   1      43.318  22.315  26.440  1.00  0.00     0.091 A 
ATOM     46  F   UNL A   1      44.295  24.490  26.398  1.00  0.00    -0.205 F 
ATOM     47  C   UNL A   1      42.516  21.369  27.100  1.00  0.00     0.022 A 
BRANCH  45  48
ATOM     48  S   UNL A   1      44.096  21.796  24.907  1.00  0.00     0.127 S 
ATOM     49  O   UNL A   1      45.513  21.978  25.218  1.00  0.00    -0.237 OA
ATOM     50  O   UNL A   1      43.668  20.401  24.806  1.00  0.00    -0.237 OA
ATOM     51  O   UNL A   1      43.566  22.671  23.871  1.00  0.00    -0.744 OA
ENDBRANCH  45  48
ENDBRANCH  27  41
BRANCH  28  52
ATOM     52  C   UNL A   1      43.477  33.128  32.356  1.00  0.00     0.023 A 
ATOM     53  C   UNL A   1      44.041  34.233  31.692  1.00  0.00     0.012 A 
ATOM     54  C   UNL A   1      42.919  33.315  33.639  1.00  0.00     0.148 A 
ATOM     55  C   UNL A   1      44.065  35.492  32.298  1.00  0.00     0.002 A 
ATOM     56  C   UNL A   1      42.892  34.581  34.212  1.00  0.00     0.091 A 
ATOM     57  F   UNL A   1      42.402  32.249  34.267  1.00  0.00    -0.205 F 
ATOM     58  C   UNL A   1      43.481  35.668  33.550  1.00  0.00     0.022 A 
BRANCH  56  59
ATOM     59  S   UNL A   1      42.041  34.925  35.756  1.00  0.00     0.127 S 
ATOM     60  O   UNL A   1      40.684  34.477  35.457  1.00  0.00    -0.237 OA
ATOM     61  O   UNL A   1      42.774  34.081  36.700  1.00  0.00    -0.237 OA
ATOM     62  O   UNL A   1      42.199  36.355  35.985  1.00  0.00    -0.744 OA
ENDBRANCH  56  59
ENDBRANCH  28  52
BRANCH  40  63
ATOM     63  C   UNL A   1      47.678  27.534  32.087  1.00  0.00     0.023 A 
ATOM     64  C   UNL A   1      47.783  27.009  33.389  1.00  0.00     0.012 A 
ATOM     65  C   UNL A   1      48.834  27.691  31.299  1.00  0.00     0.148 A 
ATOM     66  C   UNL A   1      49.029  26.664  33.908  1.00  0.00     0.002 A 
ATOM     67  C   UNL A   1      50.063  27.291  31.802  1.00  0.00     0.091 A 
ATOM     68  F   UNL A   1      48.704  28.211  30.070  1.00  0.00    -0.205 F 
ATOM     69  C   UNL A   1      50.166  26.790  33.110  1.00  0.00     0.022 A 
BRANCH  67  70
ATOM     70  S   UNL A   1      51.555  27.311  30.804  1.00  0.00     0.127 S 
ATOM     71  O   UNL A   1      51.127  26.582  29.612  1.00  0.00    -0.237 OA
ATOM     72  O   UNL A   1      51.771  28.744  30.600  1.00  0.00    -0.237 OA
ATOM     73  O   UNL A   1      52.582  26.654  31.602  1.00  0.00    -0.744 OA
ENDBRANCH  67  70
ENDBRANCH  40  63
ENDBRANCH  14  15
ENDBRANCH   7   9
ENDBRANCH   6   7
ENDBRANCH   5   6
ENDBRANCH   4   5
ENDBRANCH   3   4
ENDBRANCH   2   3
ENDBRANCH   1   2
BRANCH   1  74
ATOM     74  O   UNL A   1      32.483  36.484  31.245  1.00  0.00    -0.377 OA
BRANCH  74  75
ATOM     75  C   UNL A   1      33.704  36.814  31.911  1.00  0.00     0.188 C 
BRANCH  75  76
ATOM     76  C   UNL A   1      34.006  36.159  33.281  1.00  0.00     0.188 C 
BRANCH  76  77
ATOM     77  O   UNL A   1      33.500  34.840  33.384  1.00  0.00    -0.376 OA
BRANCH  77  78
ATOM     78  C   UNL A   1      34.424  33.781  33.598  1.00  0.00     0.202 C 
BRANCH  78  79
ATOM     79  C   UNL A   1      35.855  33.841  33.027  1.00  0.00     0.261 C 
BRANCH  79  80
ATOM     80  O   UNL A   1      36.585  32.608  33.002  1.00  0.00    -0.459 OA
BRANCH  80  81
ATOM     81  C   UNL A   1      37.934  32.656  32.936  1.00  0.00     0.357 C 
ATOM     82  O   UNL A   1      38.622  33.342  32.199  1.00  0.00    -0.244 OA
BRANCH  81  83
ATOM     83  C   UNL A   1      38.442  31.776  34.020  1.00  0.00     0.154 A 
ATOM     84  C   UNL A   1      39.416  30.866  33.723  1.00  0.00     0.065 A 
ATOM     85  N   UNL A   1      37.837  31.870  35.227  1.00  0.00    -0.206 NA
ATOM     86  C   UNL A   1      39.863  30.122  34.788  1.00  0.00     0.077 A 
ATOM     87  C   UNL A   1      38.225  31.004  36.168  1.00  0.00     0.230 A 
ATOM     88  N   UNL A   1      39.270  30.167  36.005  1.00  0.00    -0.213 NA
BRANCH  86  89
ATOM     89  C   UNL A   1      41.115  29.354  34.665  1.00  0.00     0.000 A 
ATOM     90  C   UNL A   1      42.076  29.274  35.681  1.00  0.00     0.010 A 
ATOM     91  C   UNL A   1      41.370  28.662  33.461  1.00  0.00     0.010 A 
ATOM     92  C   UNL A   1      43.238  28.512  35.500  1.00  0.00     0.001 A 
ATOM     93  C   UNL A   1      42.523  27.903  33.280  1.00  0.00     0.001 A 
ATOM     94  C   UNL A   1      43.460  27.827  34.303  1.00  0.00     0.000 A 
ENDBRANCH  86  89
BRANCH  87  95
ATOM     95  N   UNL A   1      37.598  30.977  37.408  1.00  0.00    -0.300 N 
ATOM     96  H   UNL A   1      36.963  30.243  37.572  1.00  0.00     0.172 HD
BRANCH  95  97
ATOM     97  C   UNL A   1      37.776  31.864  38.409  1.00  0.00     0.190 A 
ATOM     98  N   UNL A   1      37.490  31.648  39.677  1.00  0.00    -0.220 NA
ATOM     99  S   UNL A   1      38.578  33.361  38.104  1.00  0.00    -0.097 S 
ATOM    100  C   UNL A   1      37.870  32.738  40.457  1.00  0.00     0.084 A 
ATOM    101  C   UNL A   1      38.420  33.809  39.757  1.00  0.00     0.056 A 
ATOM    102  C   UNL A   1      37.753  32.854  41.859  1.00  0.00     0.030 A 
ATOM    103  C   UNL A   1      38.778  35.010  40.399  1.00  0.00     0.021 A 
ATOM    104  C   UNL A   1      38.083  34.045  42.509  1.00  0.00     0.002 A 
ATOM    105  C   UNL A   1      38.578  35.118  41.780  1.00  0.00     0.002 A 
ENDBRANCH  95  97
ENDBRANCH  87  95
ENDBRANCH  81  83
ENDBRANCH  80  81
ENDBRANCH  79  80
ENDBRANCH  78  79
ENDBRANCH  77  78
ENDBRANCH  76  77
ENDBRANCH  75  76
ENDBRANCH  74  75
ENDBRANCH   1  74
TORSDOF 26
ENDMDL
MODEL 3
REMARK VINA RESULT:      -8.2      3.117      9.178
REMARK SMILES O=C(OCCOCCOCCOCCOC(=O)c1cc(-c2ccccc2)nc(Nc2nc3ccccc3s2)n1)c1ccc(-c2c3nc(c(-c4cccc(S(=O)(=O)[O-])c4F)c4ccc([nH]4)c(-c4cccc(S(=O)(=O)[O-])c4F)c4nc(c(-c5cccc(S(=O)(=O)[O-])c5F)c5ccc2[nH]5)C=C4)C=C3)cc1
REMARK SMILES IDX 8 1 7 2 6 3 5 4 4 5 3 6 2 7 1 8 40 9 41 10 102 11 42 12
REMARK SMILES IDX 101 13 43 14 44 15 45 16 95 17 46 18 100 19 94 20 96 21
REMARK SMILES IDX 47 22 99 23 93 24 92 25 48 27 80 28 60 29 79 30 61 31 64 32
REMARK SMILES IDX 78 33 97 34 62 35 63 36 77 38 98 39 65 40 49 41 50 42 58 43
REMARK SMILES IDX 51 44 53 45 59 46 52 47 54 48 55 49 56 50 57 51 81 52 82 53
REMARK SMILES IDX 90 54 83 55 85 56 91 57 84 58 86 59 87 60 88 61 89 62 66 63
REMARK SMILES IDX 67 64 75 65 68 66 70 67 76 68 69 69 71 70 72 71 73 72 74 73
REMARK SMILES IDX 9 74 10 75 11 76 12 77 13 78 14 79 15 80 16 81 17 82 18 83
REMARK SMILES IDX 19 84 39 85 20 86 28 87 27 88 21 89 22 90 26 91 23 92 25 93
REMARK SMILES IDX 24 94 29 95 30 97 31 98 38 99 32 100 37 101 33 102 36 103
REMARK SMILES IDX 34 104 35 105
REMARK H PARENT 96 26 64 37 29 96
REMARK Flexibility Score: inf
ROOT
ATOM      1  C   UNL A   1      32.592  35.601  30.141  1.00  0.00     0.188 C 
ENDROOT
BRANCH   1   2
ATOM      2  C   UNL A   1      33.937  35.625  29.407  1.00  0.00     0.188 C 
BRANCH   2   3
ATOM      3  O   UNL A   1      33.820  34.849  28.224  1.00  0.00    -0.376 OA
BRANCH   3   4
ATOM      4  C   UNL A   1      34.761  33.807  28.024  1.00  0.00     0.202 C 
BRANCH   4   5
ATOM      5  C   UNL A   1      34.675  32.672  29.035  1.00  0.00     0.261 C 
BRANCH   5   6
ATOM      6  O   UNL A   1      34.089  31.492  28.473  1.00  0.00    -0.460 OA
BRANCH   6   7
ATOM      7  C   UNL A   1      34.758  30.457  27.903  1.00  0.00     0.338 C 
ATOM      8  O   UNL A   1      34.232  29.859  26.966  1.00  0.00    -0.246 OA
BRANCH   7   9
ATOM      9  C   UNL A   1      36.144  30.070  28.300  1.00  0.00     0.060 A 
ATOM     10  C   UNL A   1      36.505  29.532  29.536  1.00  0.00     0.016 A 
ATOM     11  C   UNL A   1      37.138  30.181  27.319  1.00  0.00     0.016 A 
ATOM     12  C   UNL A   1      37.816  29.226  29.849  1.00  0.00     0.010 A 
ATOM     13  C   UNL A   1      38.453  29.801  27.595  1.00  0.00     0.010 A 
ATOM     14  C   UNL A   1      38.797  29.353  28.879  1.00  0.00    -0.014 A 
BRANCH  14  15
ATOM     15  C   UNL A   1      40.194  29.130  29.278  1.00  0.00     0.031 A 
ATOM     16  C   UNL A   1      40.827  27.831  28.893  1.00  0.00     0.074 A 
ATOM     17  C   UNL A   1      40.887  30.110  29.885  1.00  0.00     0.049 A 
ATOM     18  N   UNL A   1      41.979  27.339  29.242  1.00  0.00    -0.248 NA
ATOM     19  C   UNL A   1      40.047  26.966  27.989  1.00  0.00     0.031 C 
ATOM     20  C   UNL A   1      40.368  31.449  30.185  1.00  0.00     0.029 A 
ATOM     21  N   UNL A   1      42.170  30.136  30.359  1.00  0.00    -0.354 N 
ATOM     22  C   UNL A   1      42.026  26.071  28.677  1.00  0.00     0.074 A 
ATOM     23  C   UNL A   1      40.801  25.882  27.936  1.00  0.00     0.031 C 
ATOM     24  C   UNL A   1      41.322  32.161  30.803  1.00  0.00     0.029 A 
ATOM     25  C   UNL A   1      42.479  31.303  31.019  1.00  0.00     0.049 A 
ATOM     26  H   UNL A   1      42.807  29.396  30.238  1.00  0.00     0.167 HD
ATOM     27  C   UNL A   1      43.006  25.150  28.791  1.00  0.00     0.034 A 
ATOM     28  C   UNL A   1      43.552  31.605  31.772  1.00  0.00     0.034 A 
ATOM     29  C   UNL A   1      44.217  25.394  29.521  1.00  0.00     0.049 A 
ATOM     30  C   UNL A   1      44.617  30.553  31.914  1.00  0.00     0.074 A 
ATOM     31  C   UNL A   1      45.285  24.548  29.736  1.00  0.00     0.029 A 
ATOM     32  N   UNL A   1      44.510  26.592  30.164  1.00  0.00    -0.354 N 
ATOM     33  N   UNL A   1      44.663  29.354  31.380  1.00  0.00    -0.248 NA
ATOM     34  C   UNL A   1      45.777  30.887  32.746  1.00  0.00     0.031 C 
ATOM     35  C   UNL A   1      46.211  25.226  30.538  1.00  0.00     0.029 A 
ATOM     36  C   UNL A   1      45.737  26.507  30.789  1.00  0.00     0.049 A 
ATOM     37  H   UNL A   1      43.926  27.385  30.174  1.00  0.00     0.167 HD
ATOM     38  C   UNL A   1      45.862  28.793  31.795  1.00  0.00     0.074 A 
ATOM     39  C   UNL A   1      46.524  29.799  32.606  1.00  0.00     0.031 C 
ATOM     40  C   UNL A   1      46.369  27.559  31.549  1.00  0.00     0.034 A 
BRANCH  27  41
ATOM     41  C   UNL A   1      42.755  23.804  28.168  1.00  0.00     0.023 A 
ATOM     42  C   UNL A   1      41.839  22.903  28.750  1.00  0.00     0.012 A 
ATOM     43  C   UNL A   1      43.480  23.410  27.026  1.00  0.00     0.148 A 
ATOM     44  C   UNL A   1      41.689  21.614  28.237  1.00  0.00     0.002 A 
ATOM     45  C   UNL A   1      43.291  22.141  26.494  1.00  0.00     0.091 A 
ATOM     46  F   UNL A   1      44.372  24.266  26.507  1.00  0.00    -0.205 F 
ATOM     47  C   UNL A   1      42.409  21.236  27.107  1.00  0.00     0.022 A 
BRANCH  45  48
ATOM     48  S   UNL A   1      44.129  21.581  25.007  1.00  0.00     0.127 S 
ATOM     49  O   UNL A   1      43.657  22.550  24.019  1.00  0.00    -0.237 OA
ATOM     50  O   UNL A   1      45.536  21.726  25.379  1.00  0.00    -0.237 OA
ATOM     51  O   UNL A   1      43.694  20.208  24.793  1.00  0.00    -0.744 OA
ENDBRANCH  45  48
ENDBRANCH  27  41
BRANCH  28  52
ATOM     52  C   UNL A   1      43.637  32.927  32.458  1.00  0.00     0.023 A 
ATOM     53  C   UNL A   1      44.067  34.063  31.748  1.00  0.00     0.012 A 
ATOM     54  C   UNL A   1      43.236  33.073  33.803  1.00  0.00     0.148 A 
ATOM     55  C   UNL A   1      44.115  35.314  32.369  1.00  0.00     0.002 A 
ATOM     56  C   UNL A   1      43.230  34.330  34.398  1.00  0.00     0.091 A 
ATOM     57  F   UNL A   1      42.846  31.978  34.472  1.00  0.00    -0.205 F 
ATOM     58  C   UNL A   1      43.685  35.450  33.687  1.00  0.00     0.022 A 
BRANCH  56  59
ATOM     59  S   UNL A   1      42.564  34.617  36.042  1.00  0.00     0.127 S 
ATOM     60  O   UNL A   1      43.148  35.912  36.380  1.00  0.00    -0.237 OA
ATOM     61  O   UNL A   1      41.124  34.639  35.785  1.00  0.00    -0.237 OA
ATOM     62  O   UNL A   1      43.011  33.491  36.851  1.00  0.00    -0.744 OA
ENDBRANCH  56  59
ENDBRANCH  28  52
BRANCH  40  63
ATOM     63  C   UNL A   1      47.717  27.247  32.131  1.00  0.00     0.023 A 
ATOM     64  C   UNL A   1      48.884  27.610  31.434  1.00  0.00     0.012 A 
ATOM     65  C   UNL A   1      47.815  26.692  33.422  1.00  0.00     0.148 A 
ATOM     66  C   UNL A   1      50.137  27.405  32.007  1.00  0.00     0.002 A 
ATOM     67  C   UNL A   1      49.063  26.544  34.008  1.00  0.00     0.091 A 
ATOM     68  F   UNL A   1      46.686  26.338  34.053  1.00  0.00    -0.205 F 
ATOM     69  C   UNL A   1      50.225  26.887  33.299  1.00  0.00     0.022 A 
BRANCH  67  70
ATOM     70  S   UNL A   1      49.260  25.996  35.706  1.00  0.00     0.127 S 
ATOM     71  O   UNL A   1      48.992  24.564  35.590  1.00  0.00    -0.237 OA
ATOM     72  O   UNL A   1      50.657  26.335  35.978  1.00  0.00    -0.237 OA
ATOM     73  O   UNL A   1      48.292  26.752  36.489  1.00  0.00    -0.744 OA
ENDBRANCH  67  70
ENDBRANCH  40  63
ENDBRANCH  14  15
ENDBRANCH   7   9
ENDBRANCH   6   7
ENDBRANCH   5   6
ENDBRANCH   4   5
ENDBRANCH   3   4
ENDBRANCH   2   3
ENDBRANCH   1   2
BRANCH   1  74
ATOM     74  O   UNL A   1      32.385  36.673  31.070  1.00  0.00    -0.377 OA
BRANCH  74  75
ATOM     75  C   UNL A   1      33.558  37.276  31.618  1.00  0.00     0.188 C 
BRANCH  75  76
ATOM     76  C   UNL A   1      34.018  36.858  33.037  1.00  0.00     0.188 C 
BRANCH  76  77
ATOM     77  O   UNL A   1      33.771  35.492  33.314  1.00  0.00    -0.376 OA
BRANCH  77  78
ATOM     78  C   UNL A   1      34.784  34.747  33.977  1.00  0.00     0.202 C 
BRANCH  78  79
ATOM     79  C   UNL A   1      36.188  34.582  33.359  1.00  0.00     0.261 C 
BRANCH  79  80
ATOM     80  O   UNL A   1      36.742  33.260  33.374  1.00  0.00    -0.459 OA
BRANCH  80  81
ATOM     81  C   UNL A   1      38.043  33.100  33.046  1.00  0.00     0.357 C 
ATOM     82  O   UNL A   1      38.633  33.564  32.084  1.00  0.00    -0.244 OA
BRANCH  81  83
ATOM     83  C   UNL A   1      38.665  32.323  34.148  1.00  0.00     0.154 A 
ATOM     84  C   UNL A   1      39.331  31.171  33.842  1.00  0.00     0.065 A 
ATOM     85  N   UNL A   1      38.453  32.761  35.410  1.00  0.00    -0.206 NA
ATOM     86  C   UNL A   1      39.916  30.533  34.910  1.00  0.00     0.077 A 
ATOM     87  C   UNL A   1      38.925  32.000  36.403  1.00  0.00     0.230 A 
ATOM     88  N   UNL A   1      39.709  30.925  36.190  1.00  0.00    -0.213 NA
BRANCH  86  89
ATOM     89  C   UNL A   1      40.918  29.481  34.669  1.00  0.00     0.000 A 
ATOM     90  C   UNL A   1      41.114  28.870  33.424  1.00  0.00     0.010 A 
ATOM     91  C   UNL A   1      41.728  29.056  35.745  1.00  0.00     0.010 A 
ATOM     92  C   UNL A   1      42.097  27.884  33.263  1.00  0.00     0.001 A 
ATOM     93  C   UNL A   1      42.706  28.079  35.587  1.00  0.00     0.001 A 
ATOM     94  C   UNL A   1      42.892  27.492  34.342  1.00  0.00     0.000 A 
ENDBRANCH  86  89
BRANCH  87  95
ATOM     95  N   UNL A   1      38.678  32.335  37.730  1.00  0.00    -0.300 N 
ATOM     96  H   UNL A   1      38.103  31.724  38.245  1.00  0.00     0.172 HD
BRANCH  95  97
ATOM     97  C   UNL A   1      39.153  33.419  38.379  1.00  0.00     0.190 A 
ATOM     98  N   UNL A   1      38.792  34.664  38.146  1.00  0.00    -0.220 NA
ATOM     99  S   UNL A   1      40.202  33.221  39.735  1.00  0.00    -0.097 S 
ATOM    100  C   UNL A   1      39.412  35.529  39.044  1.00  0.00     0.084 A 
ATOM    101  C   UNL A   1      40.283  34.926  39.949  1.00  0.00     0.056 A 
ATOM    102  C   UNL A   1      39.242  36.928  39.123  1.00  0.00     0.030 A 
ATOM    103  C   UNL A   1      41.040  35.680  40.866  1.00  0.00     0.021 A 
ATOM    104  C   UNL A   1      40.001  37.693  40.011  1.00  0.00     0.002 A 
ATOM    105  C   UNL A   1      40.903  37.073  40.865  1.00  0.00     0.002 A 
ENDBRANCH  95  97
ENDBRANCH  87  95
ENDBRANCH  81  83
ENDBRANCH  80  81
ENDBRANCH  79  80
ENDBRANCH  78  79
ENDBRANCH  77  78
ENDBRANCH  76  77
ENDBRANCH  75  76
ENDBRANCH  74  75
ENDBRANCH   1  74
TORSDOF 26
ENDMDL
