MODEL 1
REMARK VINA RESULT:     -10.7      0.000      0.000
REMARK SMILES O=C(OCCOCCOCCOCCOC(=O)c1oc2cccc3c2c1CCC3)c1ccc(-c2c3nc(c(-c4cccc(S(=O)(=O)[O-])c4F)c4ccc([nH]4)c(-c4cccc(S(=O)(=O)[O-])c4F)c4nc(c(-c5cccc(S(=O)(=O)[O-])c5F)c5ccc2[nH]5)C=C4)C=C3)cc1
REMARK SMILES IDX 7 1 6 2 5 3 4 4 3 5 2 6 1 7 30 8 31 9 92 10 32 11 91 12
REMARK SMILES IDX 33 13 34 14 35 15 85 16 36 17 90 18 84 19 86 20 37 21 89 22
REMARK SMILES IDX 83 23 82 24 38 26 70 27 50 28 69 29 51 30 54 31 68 32 87 33
REMARK SMILES IDX 52 34 53 35 67 37 88 38 55 39 39 40 40 41 48 42 41 43 43 44
REMARK SMILES IDX 49 45 42 46 44 47 45 48 46 49 47 50 71 51 72 52 80 53 73 54
REMARK SMILES IDX 75 55 81 56 74 57 76 58 77 59 78 60 79 61 56 62 57 63 65 64
REMARK SMILES IDX 58 65 60 66 66 67 59 68 61 69 62 70 63 71 64 72 8 73 9 74
REMARK SMILES IDX 10 75 11 76 12 77 13 78 14 79 15 80 16 81 17 82 18 83 19 84
REMARK SMILES IDX 26 85 20 86 25 87 27 88 21 89 24 90 28 91 22 92 23 93 29 94
REMARK H PARENT 86 25 54 36
REMARK Flexibility Score: inf
ROOT
ATOM      1  C   UNL A   1      34.043  31.230  27.652  1.00  0.00     0.188 C 
ENDROOT
BRANCH   1   2
ATOM      2  O   UNL A   1      33.378  32.492  27.641  1.00  0.00    -0.376 OA
BRANCH   2   3
ATOM      3  C   UNL A   1      34.007  33.702  28.024  1.00  0.00     0.202 C 
BRANCH   3   4
ATOM      4  C   UNL A   1      33.560  34.298  29.365  1.00  0.00     0.261 C 
BRANCH   4   5
ATOM      5  O   UNL A   1      34.469  34.096  30.454  1.00  0.00    -0.460 OA
BRANCH   5   6
ATOM      6  C   UNL A   1      34.810  32.932  31.052  1.00  0.00     0.338 C 
ATOM      7  O   UNL A   1      34.143  32.560  32.019  1.00  0.00    -0.246 OA
BRANCH   6   8
ATOM      8  C   UNL A   1      35.932  32.057  30.599  1.00  0.00     0.060 A 
ATOM      9  C   UNL A   1      36.003  30.672  30.783  1.00  0.00     0.016 A 
ATOM     10  C   UNL A   1      37.010  32.711  29.968  1.00  0.00     0.016 A 
ATOM     11  C   UNL A   1      37.130  29.967  30.452  1.00  0.00     0.010 A 
ATOM     12  C   UNL A   1      38.175  32.021  29.678  1.00  0.00     0.010 A 
ATOM     13  C   UNL A   1      38.233  30.673  30.010  1.00  0.00    -0.014 A 
BRANCH  13  14
ATOM     14  C   UNL A   1      39.474  29.969  30.220  1.00  0.00     0.031 A 
ATOM     15  C   UNL A   1      40.124  30.146  31.531  1.00  0.00     0.074 A 
ATOM     16  C   UNL A   1      40.003  29.339  29.156  1.00  0.00     0.049 A 
ATOM     17  N   UNL A   1      41.260  30.714  31.789  1.00  0.00    -0.248 NA
ATOM     18  C   UNL A   1      39.357  29.738  32.713  1.00  0.00     0.031 C 
ATOM     19  C   UNL A   1      39.325  28.987  27.900  1.00  0.00     0.029 A 
ATOM     20  N   UNL A   1      41.217  28.747  29.034  1.00  0.00    -0.354 N 
ATOM     21  C   UNL A   1      41.448  30.532  33.154  1.00  0.00     0.074 A 
ATOM     22  C   UNL A   1      40.193  30.067  33.695  1.00  0.00     0.031 C 
ATOM     23  C   UNL A   1      40.020  28.001  27.298  1.00  0.00     0.029 A 
ATOM     24  C   UNL A   1      41.223  27.751  28.069  1.00  0.00     0.049 A 
ATOM     25  H   UNL A   1      42.004  28.997  29.571  1.00  0.00     0.167 HD
ATOM     26  C   UNL A   1      42.679  30.522  33.731  1.00  0.00     0.034 A 
ATOM     27  C   UNL A   1      42.069  26.697  28.047  1.00  0.00     0.034 A 
ATOM     28  C   UNL A   1      43.703  31.108  32.925  1.00  0.00     0.049 A 
ATOM     29  C   UNL A   1      43.258  27.079  28.853  1.00  0.00     0.074 A 
ATOM     30  C   UNL A   1      43.937  32.365  32.404  1.00  0.00     0.029 A 
ATOM     31  N   UNL A   1      44.544  30.254  32.255  1.00  0.00    -0.354 N 
ATOM     32  N   UNL A   1      44.091  28.029  28.522  1.00  0.00    -0.248 NA
ATOM     33  C   UNL A   1      43.300  26.674  30.250  1.00  0.00     0.031 C 
ATOM     34  C   UNL A   1      44.576  32.135  31.152  1.00  0.00     0.029 A 
ATOM     35  C   UNL A   1      44.699  30.752  30.988  1.00  0.00     0.049 A 
ATOM     36  H   UNL A   1      44.957  29.437  32.617  1.00  0.00     0.167 HD
ATOM     37  C   UNL A   1      44.460  28.615  29.727  1.00  0.00     0.074 A 
ATOM     38  C   UNL A   1      44.035  27.669  30.754  1.00  0.00     0.031 C 
ATOM     39  C   UNL A   1      44.812  29.933  29.800  1.00  0.00     0.034 A 
BRANCH  26  40
ATOM     40  C   UNL A   1      42.977  29.642  34.903  1.00  0.00     0.023 A 
ATOM     41  C   UNL A   1      43.683  30.157  36.003  1.00  0.00     0.012 A 
ATOM     42  C   UNL A   1      42.753  28.248  34.857  1.00  0.00     0.148 A 
ATOM     43  C   UNL A   1      44.109  29.315  37.037  1.00  0.00     0.002 A 
ATOM     44  C   UNL A   1      43.091  27.435  35.925  1.00  0.00     0.091 A 
ATOM     45  F   UNL A   1      42.309  27.688  33.723  1.00  0.00    -0.205 F 
ATOM     46  C   UNL A   1      43.787  27.959  37.015  1.00  0.00     0.022 A 
BRANCH  44  47
ATOM     47  S   UNL A   1      42.576  25.719  35.944  1.00  0.00     0.127 S 
ATOM     48  O   UNL A   1      43.132  25.255  37.211  1.00  0.00    -0.237 OA
ATOM     49  O   UNL A   1      41.118  25.829  35.907  1.00  0.00    -0.237 OA
ATOM     50  O   UNL A   1      43.156  25.155  34.728  1.00  0.00    -0.744 OA
ENDBRANCH  44  47
ENDBRANCH  26  40
BRANCH  27  51
ATOM     51  C   UNL A   1      41.735  25.293  27.702  1.00  0.00     0.023 A 
ATOM     52  C   UNL A   1      40.420  24.841  27.918  1.00  0.00     0.012 A 
ATOM     53  C   UNL A   1      42.604  24.463  26.951  1.00  0.00     0.148 A 
ATOM     54  C   UNL A   1      39.978  23.626  27.380  1.00  0.00     0.002 A 
ATOM     55  C   UNL A   1      42.169  23.241  26.449  1.00  0.00     0.091 A 
ATOM     56  F   UNL A   1      43.827  24.902  26.631  1.00  0.00    -0.205 F 
ATOM     57  C   UNL A   1      40.850  22.827  26.646  1.00  0.00     0.022 A 
BRANCH  55  58
ATOM     58  S   UNL A   1      43.269  22.160  25.521  1.00  0.00     0.127 S 
ATOM     59  O   UNL A   1      43.351  22.837  24.225  1.00  0.00    -0.237 OA
ATOM     60  O   UNL A   1      44.492  22.212  26.314  1.00  0.00    -0.237 OA
ATOM     61  O   UNL A   1      42.593  20.869  25.469  1.00  0.00    -0.744 OA
ENDBRANCH  55  58
ENDBRANCH  27  51
BRANCH  39  62
ATOM     62  C   UNL A   1      45.022  30.685  28.510  1.00  0.00     0.023 A 
ATOM     63  C   UNL A   1      43.925  31.091  27.720  1.00  0.00     0.012 A 
ATOM     64  C   UNL A   1      46.301  31.179  28.209  1.00  0.00     0.148 A 
ATOM     65  C   UNL A   1      44.104  31.963  26.644  1.00  0.00     0.002 A 
ATOM     66  C   UNL A   1      46.470  32.075  27.160  1.00  0.00     0.091 A 
ATOM     67  F   UNL A   1      47.326  30.799  28.988  1.00  0.00    -0.205 F 
ATOM     68  C   UNL A   1      45.374  32.465  26.371  1.00  0.00     0.022 A 
BRANCH  66  69
ATOM     69  S   UNL A   1      48.049  32.862  26.823  1.00  0.00     0.127 S 
ATOM     70  O   UNL A   1      47.712  33.768  25.727  1.00  0.00    -0.237 OA
ATOM     71  O   UNL A   1      48.345  33.524  28.095  1.00  0.00    -0.237 OA
ATOM     72  O   UNL A   1      48.972  31.786  26.481  1.00  0.00    -0.744 OA
ENDBRANCH  66  69
ENDBRANCH  39  62
ENDBRANCH  13  14
ENDBRANCH   6   8
ENDBRANCH   5   6
ENDBRANCH   4   5
ENDBRANCH   3   4
ENDBRANCH   2   3
ENDBRANCH   1   2
BRANCH   1  73
ATOM     73  C   UNL A   1      33.569  30.072  26.770  1.00  0.00     0.188 C 
BRANCH  73  74
ATOM     74  O   UNL A   1      33.175  28.926  27.492  1.00  0.00    -0.377 OA
BRANCH  74  75
ATOM     75  C   UNL A   1      31.915  28.365  27.165  1.00  0.00     0.188 C 
BRANCH  75  76
ATOM     76  C   UNL A   1      31.669  27.892  25.711  1.00  0.00     0.188 C 
BRANCH  76  77
ATOM     77  O   UNL A   1      31.635  26.505  25.403  1.00  0.00    -0.376 OA
BRANCH  77  78
ATOM     78  C   UNL A   1      30.726  25.993  24.447  1.00  0.00     0.202 C 
BRANCH  78  79
ATOM     79  C   UNL A   1      31.145  25.958  22.974  1.00  0.00     0.261 C 
BRANCH  79  80
ATOM     80  O   UNL A   1      31.794  24.739  22.582  1.00  0.00    -0.457 OA
BRANCH  80  81
ATOM     81  C   UNL A   1      33.116  24.855  22.230  1.00  0.00     0.374 C 
ATOM     82  O   UNL A   1      33.584  25.746  21.565  1.00  0.00    -0.242 OA
BRANCH  81  83
ATOM     83  C   UNL A   1      33.861  23.819  22.917  1.00  0.00     0.216 A 
ATOM     84  O   UNL A   1      35.250  23.875  22.876  1.00  0.00    -0.449 OA
ATOM     85  C   UNL A   1      33.477  22.757  23.703  1.00  0.00     0.014 A 
ATOM     86  C   UNL A   1      35.728  22.842  23.637  1.00  0.00     0.135 A 
ATOM     87  C   UNL A   1      34.663  22.108  24.091  1.00  0.00     0.028 A 
ATOM     88  C   UNL A   1      32.179  22.190  24.145  1.00  0.00     0.041 C 
ATOM     89  C   UNL A   1      37.041  22.515  23.947  1.00  0.00     0.048 A 
ATOM     90  C   UNL A   1      34.808  20.924  24.808  1.00  0.00    -0.037 A 
ATOM     91  C   UNL A   1      32.328  20.650  24.310  1.00  0.00     0.010 C 
ATOM     92  C   UNL A   1      37.208  21.348  24.721  1.00  0.00     0.004 A 
ATOM     93  C   UNL A   1      36.117  20.555  25.133  1.00  0.00     0.004 A 
ATOM     94  C   UNL A   1      33.545  20.196  25.187  1.00  0.00     0.036 C 
ENDBRANCH  81  83
ENDBRANCH  80  81
ENDBRANCH  79  80
ENDBRANCH  78  79
ENDBRANCH  77  78
ENDBRANCH  76  77
ENDBRANCH  75  76
ENDBRANCH  74  75
ENDBRANCH  73  74
ENDBRANCH   1  73
TORSDOF 23
ENDMDL
MODEL 2
REMARK VINA RESULT:     -10.5      2.913      7.224
REMARK SMILES O=C(OCCOCCOCCOCCOC(=O)c1oc2cccc3c2c1CCC3)c1ccc(-c2c3nc(c(-c4cccc(S(=O)(=O)[O-])c4F)c4ccc([nH]4)c(-c4cccc(S(=O)(=O)[O-])c4F)c4nc(c(-c5cccc(S(=O)(=O)[O-])c5F)c5ccc2[nH]5)C=C4)C=C3)cc1
REMARK SMILES IDX 7 1 6 2 5 3 4 4 3 5 2 6 1 7 30 8 31 9 92 10 32 11 91 12
REMARK SMILES IDX 33 13 34 14 35 15 85 16 36 17 90 18 84 19 86 20 37 21 89 22
REMARK SMILES IDX 83 23 82 24 38 26 70 27 50 28 69 29 51 30 54 31 68 32 87 33
REMARK SMILES IDX 52 34 53 35 67 37 88 38 55 39 39 40 40 41 48 42 41 43 43 44
REMARK SMILES IDX 49 45 42 46 44 47 45 48 46 49 47 50 71 51 72 52 80 53 73 54
REMARK SMILES IDX 75 55 81 56 74 57 76 58 77 59 78 60 79 61 56 62 57 63 65 64
REMARK SMILES IDX 58 65 60 66 66 67 59 68 61 69 62 70 63 71 64 72 8 73 9 74
REMARK SMILES IDX 10 75 11 76 12 77 13 78 14 79 15 80 16 81 17 82 18 83 19 84
REMARK SMILES IDX 26 85 20 86 25 87 27 88 21 89 24 90 28 91 22 92 23 93 29 94
REMARK H PARENT 86 25 54 36
REMARK Flexibility Score: inf
ROOT
ATOM      1  C   UNL A   1      34.208  28.552  26.672  1.00  0.00     0.188 C 
ENDROOT
BRANCH   1   2
ATOM      2  O   UNL A   1      34.315  29.941  26.977  1.00  0.00    -0.376 OA
BRANCH   2   3
ATOM      3  C   UNL A   1      33.291  30.674  27.624  1.00  0.00     0.202 C 
BRANCH   3   4
ATOM      4  C   UNL A   1      32.731  31.875  26.852  1.00  0.00     0.261 C 
BRANCH   4   5
ATOM      5  O   UNL A   1      32.246  32.950  27.667  1.00  0.00    -0.460 OA
BRANCH   5   6
ATOM      6  C   UNL A   1      32.956  33.944  28.246  1.00  0.00     0.338 C 
ATOM      7  O   UNL A   1      32.397  35.027  28.425  1.00  0.00    -0.246 OA
BRANCH   6   8
ATOM      8  C   UNL A   1      34.371  33.805  28.701  1.00  0.00     0.060 A 
ATOM      9  C   UNL A   1      35.500  34.161  27.955  1.00  0.00     0.016 A 
ATOM     10  C   UNL A   1      34.558  33.235  29.977  1.00  0.00     0.016 A 
ATOM     11  C   UNL A   1      36.765  33.878  28.397  1.00  0.00     0.010 A 
ATOM     12  C   UNL A   1      35.827  32.894  30.414  1.00  0.00     0.010 A 
ATOM     13  C   UNL A   1      36.897  33.150  29.566  1.00  0.00    -0.014 A 
BRANCH  13  14
ATOM     14  C   UNL A   1      38.152  32.445  29.651  1.00  0.00     0.031 A 
ATOM     15  C   UNL A   1      38.140  31.018  29.281  1.00  0.00     0.074 A 
ATOM     16  C   UNL A   1      39.186  33.108  30.202  1.00  0.00     0.049 A 
ATOM     17  N   UNL A   1      38.359  29.993  30.043  1.00  0.00    -0.248 NA
ATOM     18  C   UNL A   1      37.717  30.691  27.914  1.00  0.00     0.031 C 
ATOM     19  C   UNL A   1      39.302  34.556  30.420  1.00  0.00     0.029 A 
ATOM     20  N   UNL A   1      40.411  32.639  30.545  1.00  0.00    -0.354 N 
ATOM     21  C   UNL A   1      38.319  28.898  29.188  1.00  0.00     0.074 A 
ATOM     22  C   UNL A   1      37.775  29.361  27.933  1.00  0.00     0.031 C 
ATOM     23  C   UNL A   1      40.606  34.867  30.559  1.00  0.00     0.029 A 
ATOM     24  C   UNL A   1      41.375  33.637  30.549  1.00  0.00     0.049 A 
ATOM     25  H   UNL A   1      40.594  31.697  30.766  1.00  0.00     0.167 HD
ATOM     26  C   UNL A   1      38.966  27.733  29.456  1.00  0.00     0.034 A 
ATOM     27  C   UNL A   1      42.698  33.438  30.367  1.00  0.00     0.034 A 
ATOM     28  C   UNL A   1      39.332  27.574  30.827  1.00  0.00     0.049 A 
ATOM     29  C   UNL A   1      42.974  32.017  30.706  1.00  0.00     0.074 A 
ATOM     30  C   UNL A   1      38.642  27.487  32.019  1.00  0.00     0.029 A 
ATOM     31  N   UNL A   1      40.642  27.814  31.161  1.00  0.00    -0.354 N 
ATOM     32  N   UNL A   1      42.845  31.514  31.904  1.00  0.00    -0.248 NA
ATOM     33  C   UNL A   1      43.004  31.045  29.623  1.00  0.00     0.031 C 
ATOM     34  C   UNL A   1      39.481  28.118  32.982  1.00  0.00     0.029 A 
ATOM     35  C   UNL A   1      40.636  28.545  32.320  1.00  0.00     0.049 A 
ATOM     36  H   UNL A   1      41.436  27.517  30.661  1.00  0.00     0.167 HD
ATOM     37  C   UNL A   1      42.372  30.223  31.699  1.00  0.00     0.074 A 
ATOM     38  C   UNL A   1      42.600  29.956  30.283  1.00  0.00     0.031 C 
ATOM     39  C   UNL A   1      41.580  29.600  32.622  1.00  0.00     0.034 A 
BRANCH  26  40
ATOM     40  C   UNL A   1      39.561  26.909  28.359  1.00  0.00     0.023 A 
ATOM     41  C   UNL A   1      39.139  25.581  28.174  1.00  0.00     0.012 A 
ATOM     42  C   UNL A   1      40.686  27.351  27.629  1.00  0.00     0.148 A 
ATOM     43  C   UNL A   1      39.792  24.745  27.260  1.00  0.00     0.002 A 
ATOM     44  C   UNL A   1      41.267  26.552  26.659  1.00  0.00     0.091 A 
ATOM     45  F   UNL A   1      41.268  28.515  27.954  1.00  0.00    -0.205 F 
ATOM     46  C   UNL A   1      40.837  25.238  26.480  1.00  0.00     0.022 A 
BRANCH  44  47
ATOM     47  S   UNL A   1      42.531  27.226  25.582  1.00  0.00     0.127 S 
ATOM     48  O   UNL A   1      43.615  27.489  26.523  1.00  0.00    -0.237 OA
ATOM     49  O   UNL A   1      42.770  26.122  24.652  1.00  0.00    -0.237 OA
ATOM     50  O   UNL A   1      41.899  28.389  24.967  1.00  0.00    -0.744 OA
ENDBRANCH  44  47
ENDBRANCH  26  40
BRANCH  27  51
ATOM     51  C   UNL A   1      43.625  34.280  29.569  1.00  0.00     0.023 A 
ATOM     52  C   UNL A   1      44.406  35.241  30.236  1.00  0.00     0.012 A 
ATOM     53  C   UNL A   1      43.933  34.002  28.214  1.00  0.00     0.148 A 
ATOM     54  C   UNL A   1      45.473  35.877  29.591  1.00  0.00     0.002 A 
ATOM     55  C   UNL A   1      44.973  34.663  27.567  1.00  0.00     0.091 A 
ATOM     56  F   UNL A   1      43.287  33.019  27.575  1.00  0.00    -0.205 F 
ATOM     57  C   UNL A   1      45.757  35.590  28.259  1.00  0.00     0.022 A 
BRANCH  55  58
ATOM     58  S   UNL A   1      45.357  34.347  25.838  1.00  0.00     0.127 S 
ATOM     59  O   UNL A   1      44.066  34.578  25.186  1.00  0.00    -0.237 OA
ATOM     60  O   UNL A   1      46.371  35.358  25.558  1.00  0.00    -0.237 OA
ATOM     61  O   UNL A   1      45.803  32.960  25.786  1.00  0.00    -0.744 OA
ENDBRANCH  55  58
ENDBRANCH  27  51
BRANCH  39  62
ATOM     62  C   UNL A   1      41.421  30.246  33.974  1.00  0.00     0.023 A 
ATOM     63  C   UNL A   1      42.359  30.015  35.004  1.00  0.00     0.012 A 
ATOM     64  C   UNL A   1      40.462  31.259  34.139  1.00  0.00     0.148 A 
ATOM     65  C   UNL A   1      42.331  30.771  36.178  1.00  0.00     0.002 A 
ATOM     66  C   UNL A   1      40.460  32.033  35.293  1.00  0.00     0.091 A 
ATOM     67  F   UNL A   1      39.595  31.478  33.138  1.00  0.00    -0.205 F 
ATOM     68  C   UNL A   1      41.389  31.788  36.318  1.00  0.00     0.022 A 
BRANCH  66  69
ATOM     69  S   UNL A   1      39.363  33.440  35.496  1.00  0.00     0.127 S 
ATOM     70  O   UNL A   1      38.054  32.798  35.591  1.00  0.00    -0.237 OA
ATOM     71  O   UNL A   1      39.845  34.034  36.745  1.00  0.00    -0.237 OA
ATOM     72  O   UNL A   1      39.562  34.280  34.321  1.00  0.00    -0.744 OA
ENDBRANCH  66  69
ENDBRANCH  39  62
ENDBRANCH  13  14
ENDBRANCH   6   8
ENDBRANCH   5   6
ENDBRANCH   4   5
ENDBRANCH   3   4
ENDBRANCH   2   3
ENDBRANCH   1   2
BRANCH   1  73
ATOM     73  C   UNL A   1      33.602  28.072  25.350  1.00  0.00     0.188 C 
BRANCH  73  74
ATOM     74  O   UNL A   1      33.481  29.084  24.374  1.00  0.00    -0.377 OA
BRANCH  74  75
ATOM     75  C   UNL A   1      32.322  29.051  23.559  1.00  0.00     0.188 C 
BRANCH  75  76
ATOM     76  C   UNL A   1      30.994  28.551  24.177  1.00  0.00     0.188 C 
BRANCH  76  77
ATOM     77  O   UNL A   1      30.230  27.547  23.523  1.00  0.00    -0.376 OA
BRANCH  77  78
ATOM     78  C   UNL A   1      29.839  26.369  24.203  1.00  0.00     0.202 C 
BRANCH  78  79
ATOM     79  C   UNL A   1      30.921  25.383  24.655  1.00  0.00     0.261 C 
BRANCH  79  80
ATOM     80  O   UNL A   1      32.172  25.537  23.968  1.00  0.00    -0.457 OA
BRANCH  80  81
ATOM     81  C   UNL A   1      32.358  24.719  22.881  1.00  0.00     0.374 C 
ATOM     82  O   UNL A   1      32.262  25.061  21.728  1.00  0.00    -0.242 OA
BRANCH  81  83
ATOM     83  C   UNL A   1      32.835  23.435  23.355  1.00  0.00     0.216 A 
ATOM     84  O   UNL A   1      32.036  22.319  23.135  1.00  0.00    -0.449 OA
ATOM     85  C   UNL A   1      34.006  23.039  23.960  1.00  0.00     0.014 A 
ATOM     86  C   UNL A   1      32.712  21.226  23.609  1.00  0.00     0.135 A 
ATOM     87  C   UNL A   1      33.884  21.655  24.179  1.00  0.00     0.028 A 
ATOM     88  C   UNL A   1      35.236  23.726  24.422  1.00  0.00     0.041 C 
ATOM     89  C   UNL A   1      32.355  19.886  23.567  1.00  0.00     0.048 A 
ATOM     90  C   UNL A   1      34.757  20.803  24.851  1.00  0.00    -0.037 A 
ATOM     91  C   UNL A   1      35.800  22.977  25.665  1.00  0.00     0.010 C 
ATOM     92  C   UNL A   1      33.254  18.999  24.194  1.00  0.00     0.004 A 
ATOM     93  C   UNL A   1      34.426  19.445  24.839  1.00  0.00     0.004 A 
ATOM     94  C   UNL A   1      35.974  21.430  25.478  1.00  0.00     0.036 C 
ENDBRANCH  81  83
ENDBRANCH  80  81
ENDBRANCH  79  80
ENDBRANCH  78  79
ENDBRANCH  77  78
ENDBRANCH  76  77
ENDBRANCH  75  76
ENDBRANCH  74  75
ENDBRANCH  73  74
ENDBRANCH   1  73
TORSDOF 23
ENDMDL
MODEL 3
REMARK VINA RESULT:     -10.4      2.573      9.351
REMARK SMILES O=C(OCCOCCOCCOCCOC(=O)c1oc2cccc3c2c1CCC3)c1ccc(-c2c3nc(c(-c4cccc(S(=O)(=O)[O-])c4F)c4ccc([nH]4)c(-c4cccc(S(=O)(=O)[O-])c4F)c4nc(c(-c5cccc(S(=O)(=O)[O-])c5F)c5ccc2[nH]5)C=C4)C=C3)cc1
REMARK SMILES IDX 7 1 6 2 5 3 4 4 3 5 2 6 1 7 30 8 31 9 92 10 32 11 91 12
REMARK SMILES IDX 33 13 34 14 35 15 85 16 36 17 90 18 84 19 86 20 37 21 89 22
REMARK SMILES IDX 83 23 82 24 38 26 70 27 50 28 69 29 51 30 54 31 68 32 87 33
REMARK SMILES IDX 52 34 53 35 67 37 88 38 55 39 39 40 40 41 48 42 41 43 43 44
REMARK SMILES IDX 49 45 42 46 44 47 45 48 46 49 47 50 71 51 72 52 80 53 73 54
REMARK SMILES IDX 75 55 81 56 74 57 76 58 77 59 78 60 79 61 56 62 57 63 65 64
REMARK SMILES IDX 58 65 60 66 66 67 59 68 61 69 62 70 63 71 64 72 8 73 9 74
REMARK SMILES IDX 10 75 11 76 12 77 13 78 14 79 15 80 16 81 17 82 18 83 19 84
REMARK SMILES IDX 26 85 20 86 25 87 27 88 21 89 24 90 28 91 22 92 23 93 29 94
REMARK H PARENT 86 25 54 36
REMARK Flexibility Score: inf
ROOT
ATOM      1  C   UNL A   1      37.707  23.632  26.084  1.00  0.00     0.188 C 
ENDROOT
BRANCH   1   2
ATOM      2  O   UNL A   1      38.908  23.433  26.827  1.00  0.00    -0.376 OA
BRANCH   2   3
ATOM      3  C   UNL A   1      39.749  22.308  26.653  1.00  0.00     0.202 C 
BRANCH   3   4
ATOM      4  C   UNL A   1      40.978  22.236  27.567  1.00  0.00     0.261 C 
BRANCH   4   5
ATOM      5  O   UNL A   1      42.148  22.897  27.069  1.00  0.00    -0.460 OA
BRANCH   5   6
ATOM      6  C   UNL A   1      42.246  24.142  26.549  1.00  0.00     0.338 C 
ATOM      7  O   UNL A   1      42.679  24.259  25.402  1.00  0.00    -0.246 OA
BRANCH   6   8
ATOM      8  C   UNL A   1      41.841  25.384  27.273  1.00  0.00     0.060 A 
ATOM      9  C   UNL A   1      40.984  26.369  26.772  1.00  0.00     0.016 A 
ATOM     10  C   UNL A   1      42.409  25.569  28.550  1.00  0.00     0.016 A 
ATOM     11  C   UNL A   1      40.769  27.539  27.451  1.00  0.00     0.010 A 
ATOM     12  C   UNL A   1      42.245  26.768  29.223  1.00  0.00     0.010 A 
ATOM     13  C   UNL A   1      41.491  27.761  28.609  1.00  0.00    -0.014 A 
BRANCH  13  14
ATOM     14  C   UNL A   1      41.628  29.160  28.928  1.00  0.00     0.031 A 
ATOM     15  C   UNL A   1      42.847  29.836  28.446  1.00  0.00     0.074 A 
ATOM     16  C   UNL A   1      40.712  29.687  29.761  1.00  0.00     0.049 A 
ATOM     17  N   UNL A   1      43.812  30.341  29.149  1.00  0.00    -0.248 NA
ATOM     18  C   UNL A   1      43.070  29.847  26.996  1.00  0.00     0.031 C 
ATOM     19  C   UNL A   1      39.405  29.120  30.121  1.00  0.00     0.029 A 
ATOM     20  N   UNL A   1      40.695  30.911  30.343  1.00  0.00    -0.354 N 
ATOM     21  C   UNL A   1      44.658  30.933  28.220  1.00  0.00     0.074 A 
ATOM     22  C   UNL A   1      44.242  30.474  26.916  1.00  0.00     0.031 C 
ATOM     23  C   UNL A   1      38.621  30.112  30.589  1.00  0.00     0.029 A 
ATOM     24  C   UNL A   1      39.409  31.327  30.658  1.00  0.00     0.049 A 
ATOM     25  H   UNL A   1      41.504  31.444  30.521  1.00  0.00     0.167 HD
ATOM     26  C   UNL A   1      45.487  31.964  28.534  1.00  0.00     0.034 A 
ATOM     27  C   UNL A   1      39.018  32.614  30.777  1.00  0.00     0.034 A 
ATOM     28  C   UNL A   1      45.724  32.113  29.935  1.00  0.00     0.049 A 
ATOM     29  C   UNL A   1      40.239  33.416  31.051  1.00  0.00     0.074 A 
ATOM     30  C   UNL A   1      46.293  31.330  30.919  1.00  0.00     0.029 A 
ATOM     31  N   UNL A   1      45.035  33.106  30.587  1.00  0.00    -0.354 N 
ATOM     32  N   UNL A   1      40.955  33.309  32.137  1.00  0.00    -0.248 NA
ATOM     33  C   UNL A   1      40.907  34.057  29.927  1.00  0.00     0.031 C 
ATOM     34  C   UNL A   1      45.557  31.627  32.102  1.00  0.00     0.029 A 
ATOM     35  C   UNL A   1      44.588  32.577  31.769  1.00  0.00     0.049 A 
ATOM     36  H   UNL A   1      44.890  34.025  30.266  1.00  0.00     0.167 HD
ATOM     37  C   UNL A   1      42.268  33.489  31.719  1.00  0.00     0.074 A 
ATOM     38  C   UNL A   1      42.164  34.058  30.379  1.00  0.00     0.031 C 
ATOM     39  C   UNL A   1      43.312  32.898  32.373  1.00  0.00     0.034 A 
BRANCH  26  40
ATOM     40  C   UNL A   1      45.790  33.042  27.543  1.00  0.00     0.023 A 
ATOM     41  C   UNL A   1      44.743  33.662  26.840  1.00  0.00     0.012 A 
ATOM     42  C   UNL A   1      47.114  33.320  27.135  1.00  0.00     0.148 A 
ATOM     43  C   UNL A   1      45.014  34.558  25.799  1.00  0.00     0.002 A 
ATOM     44  C   UNL A   1      47.378  34.277  26.171  1.00  0.00     0.091 A 
ATOM     45  F   UNL A   1      48.121  32.570  27.606  1.00  0.00    -0.205 F 
ATOM     46  C   UNL A   1      46.330  34.890  25.483  1.00  0.00     0.022 A 
BRANCH  44  47
ATOM     47  S   UNL A   1      49.066  34.783  25.847  1.00  0.00     0.127 S 
ATOM     48  O   UNL A   1      49.530  35.144  27.183  1.00  0.00    -0.237 OA
ATOM     49  O   UNL A   1      49.656  33.565  25.292  1.00  0.00    -0.237 OA
ATOM     50  O   UNL A   1      48.939  35.869  24.881  1.00  0.00    -0.744 OA
ENDBRANCH  44  47
ENDBRANCH  26  40
BRANCH  27  51
ATOM     51  C   UNL A   1      37.745  33.207  30.294  1.00  0.00     0.023 A 
ATOM     52  C   UNL A   1      37.453  33.148  28.919  1.00  0.00     0.012 A 
ATOM     53  C   UNL A   1      36.711  33.614  31.173  1.00  0.00     0.148 A 
ATOM     54  C   UNL A   1      36.173  33.449  28.440  1.00  0.00     0.002 A 
ATOM     55  C   UNL A   1      35.449  33.945  30.687  1.00  0.00     0.091 A 
ATOM     56  F   UNL A   1      36.912  33.579  32.496  1.00  0.00    -0.205 F 
ATOM     57  C   UNL A   1      35.172  33.847  29.322  1.00  0.00     0.022 A 
BRANCH  55  58
ATOM     58  S   UNL A   1      34.133  34.494  31.785  1.00  0.00     0.127 S 
ATOM     59  O   UNL A   1      34.782  35.573  32.532  1.00  0.00    -0.237 OA
ATOM     60  O   UNL A   1      33.110  34.934  30.843  1.00  0.00    -0.237 OA
ATOM     61  O   UNL A   1      33.797  33.333  32.600  1.00  0.00    -0.744 OA
ENDBRANCH  55  58
ENDBRANCH  27  51
BRANCH  39  62
ATOM     62  C   UNL A   1      43.036  32.237  33.699  1.00  0.00     0.023 A 
ATOM     63  C   UNL A   1      43.036  32.984  34.897  1.00  0.00     0.012 A 
ATOM     64  C   UNL A   1      42.556  30.917  33.718  1.00  0.00     0.148 A 
ATOM     65  C   UNL A   1      42.578  32.421  36.090  1.00  0.00     0.002 A 
ATOM     66  C   UNL A   1      42.067  30.373  34.899  1.00  0.00     0.091 A 
ATOM     67  F   UNL A   1      42.542  30.232  32.563  1.00  0.00    -0.205 F 
ATOM     68  C   UNL A   1      42.082  31.120  36.089  1.00  0.00     0.022 A 
BRANCH  66  69
ATOM     69  S   UNL A   1      41.297  28.751  34.955  1.00  0.00     0.127 S 
ATOM     70  O   UNL A   1      40.206  28.896  33.994  1.00  0.00    -0.237 OA
ATOM     71  O   UNL A   1      42.385  27.874  34.517  1.00  0.00    -0.237 OA
ATOM     72  O   UNL A   1      40.887  28.546  36.339  1.00  0.00    -0.744 OA
ENDBRANCH  66  69
ENDBRANCH  39  62
ENDBRANCH  13  14
ENDBRANCH   6   8
ENDBRANCH   5   6
ENDBRANCH   4   5
ENDBRANCH   3   4
ENDBRANCH   2   3
ENDBRANCH   1   2
BRANCH   1  73
ATOM     73  C   UNL A   1      37.384  22.785  24.851  1.00  0.00     0.188 C 
BRANCH  73  74
ATOM     74  O   UNL A   1      36.519  23.418  23.932  1.00  0.00    -0.377 OA
BRANCH  74  75
ATOM     75  C   UNL A   1      35.142  23.441  24.261  1.00  0.00     0.188 C 
BRANCH  75  76
ATOM     76  C   UNL A   1      34.474  22.133  24.753  1.00  0.00     0.188 C 
BRANCH  76  77
ATOM     77  O   UNL A   1      33.533  21.454  23.932  1.00  0.00    -0.376 OA
BRANCH  77  78
ATOM     78  C   UNL A   1      32.143  21.563  24.172  1.00  0.00     0.202 C 
BRANCH  78  79
ATOM     79  C   UNL A   1      31.522  22.958  24.294  1.00  0.00     0.261 C 
BRANCH  79  80
ATOM     80  O   UNL A   1      30.647  23.109  25.422  1.00  0.00    -0.457 OA
BRANCH  80  81
ATOM     81  C   UNL A   1      30.968  24.121  26.294  1.00  0.00     0.374 C 
ATOM     82  O   UNL A   1      31.404  23.968  27.408  1.00  0.00    -0.242 OA
BRANCH  81  83
ATOM     83  C   UNL A   1      30.838  25.382  25.591  1.00  0.00     0.216 A 
ATOM     84  O   UNL A   1      29.742  25.555  24.753  1.00  0.00    -0.449 OA
ATOM     85  C   UNL A   1      31.574  26.545  25.617  1.00  0.00     0.014 A 
ATOM     86  C   UNL A   1      29.800  26.829  24.255  1.00  0.00     0.135 A 
ATOM     87  C   UNL A   1      30.948  27.423  24.715  1.00  0.00     0.028 A 
ATOM     88  C   UNL A   1      32.805  26.997  26.310  1.00  0.00     0.041 C 
ATOM     89  C   UNL A   1      28.905  27.489  23.424  1.00  0.00     0.048 A 
ATOM     90  C   UNL A   1      31.362  28.689  24.308  1.00  0.00    -0.037 A 
ATOM     91  C   UNL A   1      33.558  28.010  25.399  1.00  0.00     0.010 C 
ATOM     92  C   UNL A   1      29.279  28.794  23.044  1.00  0.00     0.004 A 
ATOM     93  C   UNL A   1      30.491  29.382  23.462  1.00  0.00     0.004 A 
ATOM     94  C   UNL A   1      32.676  29.184  24.852  1.00  0.00     0.036 C 
ENDBRANCH  81  83
ENDBRANCH  80  81
ENDBRANCH  79  80
ENDBRANCH  78  79
ENDBRANCH  77  78
ENDBRANCH  76  77
ENDBRANCH  75  76
ENDBRANCH  74  75
ENDBRANCH  73  74
ENDBRANCH   1  73
TORSDOF 23
ENDMDL
