MODEL 1
REMARK VINA RESULT:      -6.6      0.000      0.000
REMARK SMILES C=CCN1C(=O)/C(=C/c2ccc(OCC(=O)OCCOCCOCCOCCOC(=O)c3ccc(-c4c5nc(c(-c6cccc(S(=O)(=O)[O-])c6F)c6ccc([nH]6)c(-c6cccc(S(=O)(=O)[O-])c6F)c6nc(c(-c7cccc(S(=O)(=O)[O-])c7F)c7ccc4[nH]7)C=C6)C=C5)cc3)c(OC)c2)C(=O)[NH+]=C1S
REMARK SMILES IDX 22 1 21 2 20 3 19 4 18 5 17 6 15 7 16 8 14 9 13 10 12 11
REMARK SMILES IDX 9 12 10 13 98 14 11 15 95 16 8 17 4 18 5 19 102 20 6 21 7 22
REMARK SMILES IDX 101 23 99 24 100 26 3 27 2 28 1 29 103 30 96 32 97 33 23 34
REMARK SMILES IDX 24 35 25 36 26 37 27 38 28 39 29 40 30 41 31 42 32 43 33 44
REMARK SMILES IDX 94 45 34 46 93 47 35 48 36 49 37 50 87 51 38 52 92 53 86 54
REMARK SMILES IDX 88 55 39 56 91 57 85 58 84 59 40 61 72 62 52 63 71 64 53 65
REMARK SMILES IDX 56 66 70 67 89 68 54 69 55 70 69 72 90 73 57 74 41 75 42 76
REMARK SMILES IDX 50 77 43 78 45 79 51 80 44 81 46 82 47 83 48 84 49 85 73 86
REMARK SMILES IDX 74 87 82 88 75 89 77 90 83 91 76 92 78 93 79 94 80 95 81 96
REMARK SMILES IDX 58 97 59 98 67 99 60 100 62 101 68 102 61 103 63 104 64 105
REMARK SMILES IDX 65 106 66 107
REMARK H PARENT 101 25 103 31 88 60 56 71
REMARK Flexibility Score: inf
ROOT
ATOM      1  C   UNL A   1      41.796  20.674  27.225  1.00  0.00     0.188 C 
ENDROOT
BRANCH   1   2
ATOM      2  C   UNL A   1      40.791  21.830  27.528  1.00  0.00     0.188 C 
BRANCH   2   3
ATOM      3  O   UNL A   1      40.592  22.886  26.597  1.00  0.00    -0.376 OA
BRANCH   3   4
ATOM      4  C   UNL A   1      40.930  24.186  27.026  1.00  0.00     0.202 C 
BRANCH   4   5
ATOM      5  C   UNL A   1      39.789  25.226  27.006  1.00  0.00     0.261 C 
BRANCH   5   6
ATOM      6  O   UNL A   1      39.327  25.719  28.300  1.00  0.00    -0.461 OA
BRANCH   6   7
ATOM      7  C   UNL A   1      39.947  26.783  28.883  1.00  0.00     0.344 C 
ATOM      8  O   UNL A   1      41.143  26.791  29.160  1.00  0.00    -0.248 OA
BRANCH   7   9
ATOM      9  C   UNL A   1      38.978  28.007  29.202  1.00  0.00     0.352 C 
BRANCH   9  10
ATOM     10  O   UNL A   1      39.330  29.333  29.626  1.00  0.00    -0.478 OA
BRANCH  10  11
ATOM     11  C   UNL A   1      39.155  29.893  30.879  1.00  0.00     0.162 A 
ATOM     12  C   UNL A   1      38.543  30.344  33.708  1.00  0.00    -0.021 A 
ATOM     13  C   UNL A   1      39.544  29.448  33.295  1.00  0.00     0.012 A 
ATOM     14  C   UNL A   1      37.998  31.136  32.680  1.00  0.00     0.058 A 
ATOM     15  C   UNL A   1      39.824  29.213  31.915  1.00  0.00     0.051 A 
ATOM     16  C   UNL A   1      38.293  30.923  31.282  1.00  0.00     0.161 A 
BRANCH  12  17
ATOM     17  C   UNL A   1      38.150  30.452  35.169  1.00  0.00     0.032 C 
ATOM     18  N   UNL A   1      37.594  32.339  38.339  1.00  0.00    -0.183 N 
ATOM     19  C   UNL A   1      37.580  31.201  37.501  1.00  0.00     0.349 C 
ATOM     20  C   UNL A   1      38.595  33.276  38.138  1.00  0.00     0.318 C 
ATOM     21  O   UNL A   1      37.192  30.088  37.847  1.00  0.00    -0.240 OA
ATOM     22  C   UNL A   1      38.158  31.438  36.119  1.00  0.00     0.154 C 
ATOM     23  N   UNL A   1      39.290  33.311  37.055  1.00  0.00    -0.200 N 
ATOM     24  C   UNL A   1      38.497  32.878  36.043  1.00  0.00     0.347 C 
ATOM     25  H   UNL A   1      40.228  33.600  36.975  1.00  0.00     0.316 HD
ATOM     26  O   UNL A   1      37.800  33.692  35.465  1.00  0.00    -0.241 OA
BRANCH  18  27
ATOM     27  C   UNL A   1      36.765  32.328  39.541  1.00  0.00     0.275 C 
BRANCH  27  28
ATOM     28  C   UNL A   1      37.361  31.453  40.605  1.00  0.00     0.011 C 
ATOM     29  C   UNL A   1      38.105  31.934  41.611  1.00  0.00     0.008 C 
ENDBRANCH  27  28
ENDBRANCH  18  27
BRANCH  20  30
ATOM     30  S   UNL A   1      38.958  34.508  39.314  1.00  0.00    -0.055 SA
ATOM     31  H   UNL A   1      39.593  35.545  38.702  1.00  0.00     0.116 HD
ENDBRANCH  20  30
ENDBRANCH  12  17
BRANCH  16  32
ATOM     32  O   UNL A   1      37.729  31.668  30.281  1.00  0.00    -0.493 OA
ATOM     33  C   UNL A   1      36.482  31.221  29.771  1.00  0.00     0.278 C 
ENDBRANCH  16  32
ENDBRANCH  10  11
ENDBRANCH   9  10
ENDBRANCH   7   9
ENDBRANCH   6   7
ENDBRANCH   5   6
ENDBRANCH   4   5
ENDBRANCH   3   4
ENDBRANCH   2   3
ENDBRANCH   1   2
BRANCH   1  34
ATOM     34  O   UNL A   1      42.068  20.523  25.851  1.00  0.00    -0.377 OA
BRANCH  34  35
ATOM     35  C   UNL A   1      43.096  19.603  25.560  1.00  0.00     0.188 C 
BRANCH  35  36
ATOM     36  C   UNL A   1      44.421  20.207  25.076  1.00  0.00     0.188 C 
BRANCH  36  37
ATOM     37  O   UNL A   1      44.526  21.002  23.910  1.00  0.00    -0.376 OA
BRANCH  37  38
ATOM     38  C   UNL A   1      44.907  22.360  23.875  1.00  0.00     0.202 C 
BRANCH  38  39
ATOM     39  C   UNL A   1      44.220  23.465  24.673  1.00  0.00     0.261 C 
BRANCH  39  40
ATOM     40  O   UNL A   1      45.157  24.354  25.212  1.00  0.00    -0.460 OA
BRANCH  40  41
ATOM     41  C   UNL A   1      45.875  23.992  26.286  1.00  0.00     0.338 C 
ATOM     42  O   UNL A   1      46.444  22.974  26.561  1.00  0.00    -0.246 OA
BRANCH  41  43
ATOM     43  C   UNL A   1      45.509  25.102  27.161  1.00  0.00     0.060 A 
ATOM     44  C   UNL A   1      46.441  25.616  28.068  1.00  0.00     0.016 A 
ATOM     45  C   UNL A   1      44.330  25.775  26.830  1.00  0.00     0.016 A 
ATOM     46  C   UNL A   1      46.162  26.810  28.705  1.00  0.00     0.010 A 
ATOM     47  C   UNL A   1      44.048  26.965  27.468  1.00  0.00     0.010 A 
ATOM     48  C   UNL A   1      44.945  27.446  28.436  1.00  0.00    -0.014 A 
BRANCH  48  49
ATOM     49  C   UNL A   1      44.464  28.462  29.373  1.00  0.00     0.031 A 
ATOM     50  C   UNL A   1      44.540  29.883  28.907  1.00  0.00     0.074 A 
ATOM     51  C   UNL A   1      44.014  28.103  30.583  1.00  0.00     0.049 A 
ATOM     52  N   UNL A   1      44.240  30.975  29.545  1.00  0.00    -0.248 NA
ATOM     53  C   UNL A   1      45.038  30.103  27.532  1.00  0.00     0.031 C 
ATOM     54  C   UNL A   1      43.933  26.730  31.082  1.00  0.00     0.029 A 
ATOM     55  N   UNL A   1      43.575  28.873  31.620  1.00  0.00    -0.354 N 
ATOM     56  C   UNL A   1      44.548  32.009  28.672  1.00  0.00     0.074 A 
ATOM     57  C   UNL A   1      45.065  31.423  27.460  1.00  0.00     0.031 C 
ATOM     58  C   UNL A   1      43.504  26.759  32.356  1.00  0.00     0.029 A 
ATOM     59  C   UNL A   1      43.314  28.150  32.757  1.00  0.00     0.049 A 
ATOM     60  H   UNL A   1      43.458  29.848  31.559  1.00  0.00     0.167 HD
ATOM     61  C   UNL A   1      44.405  33.335  28.877  1.00  0.00     0.034 A 
ATOM     62  C   UNL A   1      42.993  28.588  33.987  1.00  0.00     0.034 A 
ATOM     63  C   UNL A   1      43.887  33.876  30.098  1.00  0.00     0.049 A 
ATOM     64  C   UNL A   1      42.838  30.072  34.185  1.00  0.00     0.074 A 
ATOM     65  C   UNL A   1      43.638  35.195  30.418  1.00  0.00     0.029 A 
ATOM     66  N   UNL A   1      43.565  33.117  31.214  1.00  0.00    -0.354 N 
ATOM     67  N   UNL A   1      43.011  31.043  33.317  1.00  0.00    -0.248 NA
ATOM     68  C   UNL A   1      42.411  30.523  35.514  1.00  0.00     0.031 C 
ATOM     69  C   UNL A   1      43.207  35.237  31.747  1.00  0.00     0.029 A 
ATOM     70  C   UNL A   1      43.135  33.939  32.236  1.00  0.00     0.049 A 
ATOM     71  H   UNL A   1      43.632  32.135  31.269  1.00  0.00     0.167 HD
ATOM     72  C   UNL A   1      42.678  32.216  33.981  1.00  0.00     0.074 A 
ATOM     73  C   UNL A   1      42.276  31.828  35.320  1.00  0.00     0.031 C 
ATOM     74  C   UNL A   1      42.707  33.498  33.539  1.00  0.00     0.034 A 
BRANCH  61  75
ATOM     75  C   UNL A   1      44.826  34.265  27.774  1.00  0.00     0.023 A 
ATOM     76  C   UNL A   1      43.910  34.637  26.768  1.00  0.00     0.012 A 
ATOM     77  C   UNL A   1      46.129  34.795  27.754  1.00  0.00     0.148 A 
ATOM     78  C   UNL A   1      44.294  35.504  25.745  1.00  0.00     0.002 A 
ATOM     79  C   UNL A   1      46.489  35.698  26.761  1.00  0.00     0.091 A 
ATOM     80  F   UNL A   1      46.994  34.398  28.697  1.00  0.00    -0.205 F 
ATOM     81  C   UNL A   1      45.578  36.044  25.750  1.00  0.00     0.022 A 
BRANCH  79  82
ATOM     82  S   UNL A   1      48.090  36.507  26.725  1.00  0.00     0.127 S 
ATOM     83  O   UNL A   1      49.000  35.362  26.695  1.00  0.00    -0.237 OA
ATOM     84  O   UNL A   1      48.020  37.263  25.474  1.00  0.00    -0.237 OA
ATOM     85  O   UNL A   1      48.161  37.322  27.930  1.00  0.00    -0.744 OA
ENDBRANCH  79  82
ENDBRANCH  61  75
BRANCH  62  86
ATOM     86  C   UNL A   1      42.788  27.619  35.097  1.00  0.00     0.023 A 
ATOM     87  C   UNL A   1      41.575  26.910  35.194  1.00  0.00     0.012 A 
ATOM     88  C   UNL A   1      43.804  27.376  36.043  1.00  0.00     0.148 A 
ATOM     89  C   UNL A   1      41.365  26.004  36.234  1.00  0.00     0.002 A 
ATOM     90  C   UNL A   1      43.607  26.431  37.043  1.00  0.00     0.091 A 
ATOM     91  F   UNL A   1      44.947  28.066  35.938  1.00  0.00    -0.205 F 
ATOM     92  C   UNL A   1      42.383  25.757  37.152  1.00  0.00     0.022 A 
BRANCH  90  93
ATOM     93  S   UNL A   1      44.908  25.960  38.189  1.00  0.00     0.127 S 
ATOM     94  O   UNL A   1      46.100  26.086  37.356  1.00  0.00    -0.237 OA
ATOM     95  O   UNL A   1      44.773  26.977  39.232  1.00  0.00    -0.237 OA
ATOM     96  O   UNL A   1      44.581  24.609  38.623  1.00  0.00    -0.744 OA
ENDBRANCH  90  93
ENDBRANCH  62  86
BRANCH  74  97
ATOM     97  C   UNL A   1      42.246  34.563  34.495  1.00  0.00     0.023 A 
ATOM     98  C   UNL A   1      40.935  35.071  34.408  1.00  0.00     0.012 A 
ATOM     99  C   UNL A   1      43.095  34.995  35.531  1.00  0.00     0.148 A 
ATOM    100  C   UNL A   1      40.490  36.026  35.319  1.00  0.00     0.002 A 
ATOM    101  C   UNL A   1      42.624  35.901  36.470  1.00  0.00     0.091 A 
ATOM    102  F   UNL A   1      44.343  34.506  35.583  1.00  0.00    -0.205 F 
ATOM    103  C   UNL A   1      41.329  36.430  36.356  1.00  0.00     0.022 A 
BRANCH 101 104
ATOM    104  S   UNL A   1      43.592  36.390  37.900  1.00  0.00     0.127 S 
ATOM    105  O   UNL A   1      42.607  37.131  38.686  1.00  0.00    -0.237 OA
ATOM    106  O   UNL A   1      43.979  35.098  38.466  1.00  0.00    -0.237 OA
ATOM    107  O   UNL A   1      44.701  37.182  37.385  1.00  0.00    -0.744 OA
ENDBRANCH 101 104
ENDBRANCH  74  97
ENDBRANCH  48  49
ENDBRANCH  41  43
ENDBRANCH  40  41
ENDBRANCH  39  40
ENDBRANCH  38  39
ENDBRANCH  37  38
ENDBRANCH  36  37
ENDBRANCH  35  36
ENDBRANCH  34  35
ENDBRANCH   1  34
TORSDOF 30
ENDMDL
MODEL 2
REMARK VINA RESULT:      -5.9      2.938      7.835
REMARK SMILES C=CCN1C(=O)/C(=C/c2ccc(OCC(=O)OCCOCCOCCOCCOC(=O)c3ccc(-c4c5nc(c(-c6cccc(S(=O)(=O)[O-])c6F)c6ccc([nH]6)c(-c6cccc(S(=O)(=O)[O-])c6F)c6nc(c(-c7cccc(S(=O)(=O)[O-])c7F)c7ccc4[nH]7)C=C6)C=C5)cc3)c(OC)c2)C(=O)[NH+]=C1S
REMARK SMILES IDX 22 1 21 2 20 3 19 4 18 5 17 6 15 7 16 8 14 9 13 10 12 11
REMARK SMILES IDX 9 12 10 13 98 14 11 15 95 16 8 17 4 18 5 19 102 20 6 21 7 22
REMARK SMILES IDX 101 23 99 24 100 26 3 27 2 28 1 29 103 30 96 32 97 33 23 34
REMARK SMILES IDX 24 35 25 36 26 37 27 38 28 39 29 40 30 41 31 42 32 43 33 44
REMARK SMILES IDX 94 45 34 46 93 47 35 48 36 49 37 50 87 51 38 52 92 53 86 54
REMARK SMILES IDX 88 55 39 56 91 57 85 58 84 59 40 61 72 62 52 63 71 64 53 65
REMARK SMILES IDX 56 66 70 67 89 68 54 69 55 70 69 72 90 73 57 74 41 75 42 76
REMARK SMILES IDX 50 77 43 78 45 79 51 80 44 81 46 82 47 83 48 84 49 85 73 86
REMARK SMILES IDX 74 87 82 88 75 89 77 90 83 91 76 92 78 93 79 94 80 95 81 96
REMARK SMILES IDX 58 97 59 98 67 99 60 100 62 101 68 102 61 103 63 104 64 105
REMARK SMILES IDX 65 106 66 107
REMARK H PARENT 101 25 103 31 88 60 56 71
REMARK Flexibility Score: inf
ROOT
ATOM      1  C   UNL A   1      41.955  20.799  27.048  1.00  0.00     0.188 C 
ENDROOT
BRANCH   1   2
ATOM      2  C   UNL A   1      41.354  22.239  27.127  1.00  0.00     0.188 C 
BRANCH   2   3
ATOM      3  O   UNL A   1      41.813  23.269  26.260  1.00  0.00    -0.376 OA
BRANCH   3   4
ATOM      4  C   UNL A   1      42.248  24.465  26.867  1.00  0.00     0.202 C 
BRANCH   4   5
ATOM      5  C   UNL A   1      41.453  25.738  26.505  1.00  0.00     0.261 C 
BRANCH   5   6
ATOM      6  O   UNL A   1      40.083  25.820  27.001  1.00  0.00    -0.461 OA
BRANCH   6   7
ATOM      7  C   UNL A   1      39.846  26.230  28.278  1.00  0.00     0.344 C 
ATOM      8  O   UNL A   1      39.162  25.588  29.071  1.00  0.00    -0.248 OA
BRANCH   7   9
ATOM      9  C   UNL A   1      40.509  27.631  28.647  1.00  0.00     0.352 C 
BRANCH   9  10
ATOM     10  O   UNL A   1      40.426  28.356  29.884  1.00  0.00    -0.478 OA
BRANCH  10  11
ATOM     11  C   UNL A   1      39.450  29.257  30.271  1.00  0.00     0.162 A 
ATOM     12  C   UNL A   1      37.158  31.079  30.335  1.00  0.00    -0.021 A 
ATOM     13  C   UNL A   1      37.011  29.706  30.077  1.00  0.00     0.012 A 
ATOM     14  C   UNL A   1      38.448  31.471  30.742  1.00  0.00     0.058 A 
ATOM     15  C   UNL A   1      38.133  28.824  30.023  1.00  0.00     0.051 A 
ATOM     16  C   UNL A   1      39.585  30.580  30.715  1.00  0.00     0.161 A 
BRANCH  12  17
ATOM     17  C   UNL A   1      35.976  32.024  30.221  1.00  0.00     0.032 C 
ATOM     18  N   UNL A   1      34.089  35.121  31.095  1.00  0.00    -0.183 N 
ATOM     19  C   UNL A   1      34.333  33.919  30.392  1.00  0.00     0.349 C 
ATOM     20  C   UNL A   1      34.521  35.199  32.410  1.00  0.00     0.318 C 
ATOM     21  O   UNL A   1      33.600  33.464  29.518  1.00  0.00    -0.240 OA
ATOM     22  C   UNL A   1      35.567  33.168  30.852  1.00  0.00     0.154 C 
ATOM     23  N   UNL A   1      35.384  34.376  32.894  1.00  0.00    -0.200 N 
ATOM     24  C   UNL A   1      36.214  34.009  31.887  1.00  0.00     0.347 C 
ATOM     25  H   UNL A   1      35.433  34.068  33.828  1.00  0.00     0.316 HD
ATOM     26  O   UNL A   1      37.193  34.697  31.663  1.00  0.00    -0.241 OA
BRANCH  18  27
ATOM     27  C   UNL A   1      33.153  36.084  30.523  1.00  0.00     0.275 C 
BRANCH  27  28
ATOM     28  C   UNL A   1      33.359  36.230  29.044  1.00  0.00     0.011 C 
ATOM     29  C   UNL A   1      33.670  37.398  28.463  1.00  0.00     0.008 C 
ENDBRANCH  27  28
ENDBRANCH  18  27
BRANCH  20  30
ATOM     30  S   UNL A   1      33.965  36.442  33.494  1.00  0.00    -0.055 SA
ATOM     31  H   UNL A   1      32.796  36.051  34.071  1.00  0.00     0.116 HD
ENDBRANCH  20  30
ENDBRANCH  12  17
BRANCH  16  32
ATOM     32  O   UNL A   1      40.848  30.975  31.071  1.00  0.00    -0.493 OA
ATOM     33  C   UNL A   1      41.428  32.030  30.319  1.00  0.00     0.278 C 
ENDBRANCH  16  32
ENDBRANCH  10  11
ENDBRANCH   9  10
ENDBRANCH   7   9
ENDBRANCH   6   7
ENDBRANCH   5   6
ENDBRANCH   4   5
ENDBRANCH   3   4
ENDBRANCH   2   3
ENDBRANCH   1   2
BRANCH   1  34
ATOM     34  O   UNL A   1      42.184  20.367  25.727  1.00  0.00    -0.377 OA
BRANCH  34  35
ATOM     35  C   UNL A   1      43.414  19.704  25.537  1.00  0.00     0.188 C 
BRANCH  35  36
ATOM     36  C   UNL A   1      44.570  20.570  25.018  1.00  0.00     0.188 C 
BRANCH  36  37
ATOM     37  O   UNL A   1      44.458  21.404  23.880  1.00  0.00    -0.376 OA
BRANCH  37  38
ATOM     38  C   UNL A   1      45.021  22.692  23.749  1.00  0.00     0.202 C 
BRANCH  38  39
ATOM     39  C   UNL A   1      44.529  23.925  24.502  1.00  0.00     0.261 C 
BRANCH  39  40
ATOM     40  O   UNL A   1      45.593  24.766  24.841  1.00  0.00    -0.460 OA
BRANCH  40  41
ATOM     41  C   UNL A   1      46.447  24.401  25.811  1.00  0.00     0.338 C 
ATOM     42  O   UNL A   1      46.930  23.342  26.093  1.00  0.00    -0.246 OA
BRANCH  41  43
ATOM     43  C   UNL A   1      46.380  25.621  26.611  1.00  0.00     0.060 A 
ATOM     44  C   UNL A   1      47.374  25.892  27.557  1.00  0.00     0.016 A 
ATOM     45  C   UNL A   1      45.473  26.588  26.172  1.00  0.00     0.016 A 
ATOM     46  C   UNL A   1      47.427  27.152  28.123  1.00  0.00     0.010 A 
ATOM     47  C   UNL A   1      45.523  27.845  26.739  1.00  0.00     0.010 A 
ATOM     48  C   UNL A   1      46.469  28.100  27.745  1.00  0.00    -0.014 A 
BRANCH  48  49
ATOM     49  C   UNL A   1      46.263  29.267  28.604  1.00  0.00     0.031 A 
ATOM     50  C   UNL A   1      45.451  29.042  29.842  1.00  0.00     0.074 A 
ATOM     51  C   UNL A   1      46.766  30.458  28.254  1.00  0.00     0.049 A 
ATOM     52  N   UNL A   1      45.070  29.900  30.741  1.00  0.00    -0.248 NA
ATOM     53  C   UNL A   1      44.993  27.659  30.092  1.00  0.00     0.031 C 
ATOM     54  C   UNL A   1      47.555  30.722  27.050  1.00  0.00     0.029 A 
ATOM     55  N   UNL A   1      46.654  31.671  28.866  1.00  0.00    -0.354 N 
ATOM     56  C   UNL A   1      44.298  29.175  31.638  1.00  0.00     0.074 A 
ATOM     57  C   UNL A   1      44.255  27.809  31.178  1.00  0.00     0.031 C 
ATOM     58  C   UNL A   1      47.825  32.038  26.993  1.00  0.00     0.029 A 
ATOM     59  C   UNL A   1      47.202  32.697  28.137  1.00  0.00     0.049 A 
ATOM     60  H   UNL A   1      46.224  31.799  29.742  1.00  0.00     0.167 HD
ATOM     61  C   UNL A   1      43.682  29.624  32.752  1.00  0.00     0.034 A 
ATOM     62  C   UNL A   1      47.161  34.021  28.369  1.00  0.00     0.034 A 
ATOM     63  C   UNL A   1      43.750  30.992  33.173  1.00  0.00     0.049 A 
ATOM     64  C   UNL A   1      46.469  34.493  29.620  1.00  0.00     0.074 A 
ATOM     65  C   UNL A   1      43.220  31.571  34.308  1.00  0.00     0.029 A 
ATOM     66  N   UNL A   1      44.370  32.002  32.450  1.00  0.00    -0.354 N 
ATOM     67  N   UNL A   1      45.845  33.786  30.535  1.00  0.00    -0.248 NA
ATOM     68  C   UNL A   1      46.505  35.933  29.895  1.00  0.00     0.031 C 
ATOM     69  C   UNL A   1      43.482  32.943  34.249  1.00  0.00     0.029 A 
ATOM     70  C   UNL A   1      44.222  33.208  33.105  1.00  0.00     0.049 A 
ATOM     71  H   UNL A   1      44.846  31.876  31.597  1.00  0.00     0.167 HD
ATOM     72  C   UNL A   1      45.445  34.688  31.511  1.00  0.00     0.074 A 
ATOM     73  C   UNL A   1      45.917  35.991  31.082  1.00  0.00     0.031 C 
ATOM     74  C   UNL A   1      44.746  34.473  32.654  1.00  0.00     0.034 A 
BRANCH  61  75
ATOM     75  C   UNL A   1      42.885  28.639  33.560  1.00  0.00     0.023 A 
ATOM     76  C   UNL A   1      41.567  28.310  33.183  1.00  0.00     0.012 A 
ATOM     77  C   UNL A   1      43.461  28.015  34.682  1.00  0.00     0.148 A 
ATOM     78  C   UNL A   1      40.825  27.393  33.926  1.00  0.00     0.002 A 
ATOM     79  C   UNL A   1      42.734  27.064  35.388  1.00  0.00     0.091 A 
ATOM     80  F   UNL A   1      44.700  28.371  35.045  1.00  0.00    -0.205 F 
ATOM     81  C   UNL A   1      41.413  26.760  35.019  1.00  0.00     0.022 A 
BRANCH  79  82
ATOM     82  S   UNL A   1      43.429  26.139  36.760  1.00  0.00     0.127 S 
ATOM     83  O   UNL A   1      44.676  25.642  36.180  1.00  0.00    -0.237 OA
ATOM     84  O   UNL A   1      43.598  27.181  37.772  1.00  0.00    -0.237 OA
ATOM     85  O   UNL A   1      42.450  25.113  37.094  1.00  0.00    -0.744 OA
ENDBRANCH  79  82
ENDBRANCH  61  75
BRANCH  62  86
ATOM     86  C   UNL A   1      47.798  34.969  27.415  1.00  0.00     0.023 A 
ATOM     87  C   UNL A   1      47.012  35.630  26.453  1.00  0.00     0.012 A 
ATOM     88  C   UNL A   1      49.180  35.240  27.479  1.00  0.00     0.148 A 
ATOM     89  C   UNL A   1      47.597  36.516  25.546  1.00  0.00     0.002 A 
ATOM     90  C   UNL A   1      49.744  36.166  26.610  1.00  0.00     0.091 A 
ATOM     91  F   UNL A   1      49.912  34.596  28.397  1.00  0.00    -0.205 F 
ATOM     92  C   UNL A   1      48.959  36.791  25.631  1.00  0.00     0.022 A 
BRANCH  90  93
ATOM     93  S   UNL A   1      51.463  36.674  26.730  1.00  0.00     0.127 S 
ATOM     94  O   UNL A   1      51.515  37.232  28.078  1.00  0.00    -0.237 OA
ATOM     95  O   UNL A   1      52.166  35.402  26.561  1.00  0.00    -0.237 OA
ATOM     96  O   UNL A   1      51.671  37.623  25.645  1.00  0.00    -0.744 OA
ENDBRANCH  90  93
ENDBRANCH  62  86
BRANCH  74  97
ATOM     97  C   UNL A   1      44.497  35.661  33.539  1.00  0.00     0.023 A 
ATOM     98  C   UNL A   1      43.338  36.442  33.365  1.00  0.00     0.012 A 
ATOM     99  C   UNL A   1      45.378  35.946  34.599  1.00  0.00     0.148 A 
ATOM    100  C   UNL A   1      43.082  37.518  34.211  1.00  0.00     0.002 A 
ATOM    101  C   UNL A   1      45.084  36.982  35.475  1.00  0.00     0.091 A 
ATOM    102  F   UNL A   1      46.481  35.195  34.735  1.00  0.00    -0.205 F 
ATOM    103  C   UNL A   1      43.947  37.779  35.273  1.00  0.00     0.022 A 
BRANCH 101 104
ATOM    104  S   UNL A   1      46.078  37.316  36.931  1.00  0.00     0.127 S 
ATOM    105  O   UNL A   1      45.587  36.303  37.864  1.00  0.00    -0.237 OA
ATOM    106  O   UNL A   1      47.435  37.085  36.437  1.00  0.00    -0.237 OA
ATOM    107  O   UNL A   1      45.797  38.695  37.305  1.00  0.00    -0.744 OA
ENDBRANCH 101 104
ENDBRANCH  74  97
ENDBRANCH  48  49
ENDBRANCH  41  43
ENDBRANCH  40  41
ENDBRANCH  39  40
ENDBRANCH  38  39
ENDBRANCH  37  38
ENDBRANCH  36  37
ENDBRANCH  35  36
ENDBRANCH  34  35
ENDBRANCH   1  34
TORSDOF 30
ENDMDL
MODEL 3
REMARK VINA RESULT:      -5.8      5.203     14.192
REMARK SMILES C=CCN1C(=O)/C(=C/c2ccc(OCC(=O)OCCOCCOCCOCCOC(=O)c3ccc(-c4c5nc(c(-c6cccc(S(=O)(=O)[O-])c6F)c6ccc([nH]6)c(-c6cccc(S(=O)(=O)[O-])c6F)c6nc(c(-c7cccc(S(=O)(=O)[O-])c7F)c7ccc4[nH]7)C=C6)C=C5)cc3)c(OC)c2)C(=O)[NH+]=C1S
REMARK SMILES IDX 22 1 21 2 20 3 19 4 18 5 17 6 15 7 16 8 14 9 13 10 12 11
REMARK SMILES IDX 9 12 10 13 98 14 11 15 95 16 8 17 4 18 5 19 102 20 6 21 7 22
REMARK SMILES IDX 101 23 99 24 100 26 3 27 2 28 1 29 103 30 96 32 97 33 23 34
REMARK SMILES IDX 24 35 25 36 26 37 27 38 28 39 29 40 30 41 31 42 32 43 33 44
REMARK SMILES IDX 94 45 34 46 93 47 35 48 36 49 37 50 87 51 38 52 92 53 86 54
REMARK SMILES IDX 88 55 39 56 91 57 85 58 84 59 40 61 72 62 52 63 71 64 53 65
REMARK SMILES IDX 56 66 70 67 89 68 54 69 55 70 69 72 90 73 57 74 41 75 42 76
REMARK SMILES IDX 50 77 43 78 45 79 51 80 44 81 46 82 47 83 48 84 49 85 73 86
REMARK SMILES IDX 74 87 82 88 75 89 77 90 83 91 76 92 78 93 79 94 80 95 81 96
REMARK SMILES IDX 58 97 59 98 67 99 60 100 62 101 68 102 61 103 63 104 64 105
REMARK SMILES IDX 65 106 66 107
REMARK H PARENT 101 25 103 31 88 60 56 71
REMARK Flexibility Score: inf
ROOT
ATOM      1  C   UNL A   1      44.030  39.943  35.017  1.00  0.00     0.188 C 
ENDROOT
BRANCH   1   2
ATOM      2  C   UNL A   1      44.198  41.496  35.020  1.00  0.00     0.188 C 
BRANCH   2   3
ATOM      3  O   UNL A   1      43.078  42.351  34.829  1.00  0.00    -0.376 OA
BRANCH   3   4
ATOM      4  C   UNL A   1      42.272  42.104  33.698  1.00  0.00     0.202 C 
BRANCH   4   5
ATOM      5  C   UNL A   1      42.725  42.773  32.382  1.00  0.00     0.261 C 
BRANCH   5   6
ATOM      6  O   UNL A   1      43.565  43.960  32.505  1.00  0.00    -0.461 OA
BRANCH   6   7
ATOM      7  C   UNL A   1      44.921  43.845  32.426  1.00  0.00     0.344 C 
ATOM      8  O   UNL A   1      45.685  44.380  33.225  1.00  0.00    -0.248 OA
BRANCH   7   9
ATOM      9  C   UNL A   1      45.431  42.979  31.189  1.00  0.00     0.352 C 
BRANCH   9  10
ATOM     10  O   UNL A   1      46.686  43.069  30.498  1.00  0.00    -0.478 OA
BRANCH  10  11
ATOM     11  C   UNL A   1      47.381  42.049  29.874  1.00  0.00     0.162 A 
ATOM     12  C   UNL A   1      49.452  40.405  28.613  1.00  0.00    -0.021 A 
ATOM     13  C   UNL A   1      49.539  40.814  29.955  1.00  0.00     0.012 A 
ATOM     14  C   UNL A   1      48.221  40.681  27.989  1.00  0.00     0.058 A 
ATOM     15  C   UNL A   1      48.539  41.635  30.560  1.00  0.00     0.051 A 
ATOM     16  C   UNL A   1      47.192  41.491  28.602  1.00  0.00     0.161 A 
BRANCH  12  17
ATOM     17  C   UNL A   1      50.603  39.677  27.945  1.00  0.00     0.032 C 
ATOM     18  N   UNL A   1      52.989  36.830  27.590  1.00  0.00    -0.183 N 
ATOM     19  C   UNL A   1      52.383  38.054  27.224  1.00  0.00     0.349 C 
ATOM     20  C   UNL A   1      53.075  36.533  28.942  1.00  0.00     0.318 C 
ATOM     21  O   UNL A   1      52.696  38.716  26.238  1.00  0.00    -0.240 OA
ATOM     22  C   UNL A   1      51.329  38.544  28.198  1.00  0.00     0.154 C 
ATOM     23  N   UNL A   1      52.367  37.149  29.823  1.00  0.00    -0.200 N 
ATOM     24  C   UNL A   1      51.194  37.498  29.238  1.00  0.00     0.347 C 
ATOM     25  H   UNL A   1      52.629  37.333  30.754  1.00  0.00     0.316 HD
ATOM     26  O   UNL A   1      50.278  36.696  29.255  1.00  0.00    -0.241 OA
BRANCH  18  27
ATOM     27  C   UNL A   1      53.747  36.099  26.580  1.00  0.00     0.275 C 
BRANCH  27  28
ATOM     28  C   UNL A   1      52.865  35.157  25.814  1.00  0.00     0.011 C 
ATOM     29  C   UNL A   1      52.768  33.852  26.103  1.00  0.00     0.008 C 
ENDBRANCH  27  28
ENDBRANCH  18  27
BRANCH  20  30
ATOM     30  S   UNL A   1      54.113  35.273  29.546  1.00  0.00    -0.055 SA
ATOM     31  H   UNL A   1      54.968  34.879  28.564  1.00  0.00     0.116 HD
ENDBRANCH  20  30
ENDBRANCH  12  17
BRANCH  16  32
ATOM     32  O   UNL A   1      46.013  41.793  27.975  1.00  0.00    -0.493 OA
ATOM     33  C   UNL A   1      45.274  40.708  27.436  1.00  0.00     0.278 C 
ENDBRANCH  16  32
ENDBRANCH  10  11
ENDBRANCH   9  10
ENDBRANCH   7   9
ENDBRANCH   6   7
ENDBRANCH   5   6
ENDBRANCH   4   5
ENDBRANCH   3   4
ENDBRANCH   2   3
ENDBRANCH   1   2
BRANCH   1  34
ATOM     34  O   UNL A   1      44.314  39.359  33.766  1.00  0.00    -0.377 OA
BRANCH  34  35
ATOM     35  C   UNL A   1      45.409  39.936  33.091  1.00  0.00     0.188 C 
BRANCH  35  36
ATOM     36  C   UNL A   1      46.799  39.472  33.547  1.00  0.00     0.188 C 
BRANCH  36  37
ATOM     37  O   UNL A   1      47.156  38.107  33.668  1.00  0.00    -0.376 OA
BRANCH  37  38
ATOM     38  C   UNL A   1      47.752  37.323  32.658  1.00  0.00     0.202 C 
BRANCH  38  39
ATOM     39  C   UNL A   1      47.622  37.605  31.164  1.00  0.00     0.261 C 
BRANCH  39  40
ATOM     40  O   UNL A   1      47.117  36.492  30.484  1.00  0.00    -0.460 OA
BRANCH  40  41
ATOM     41  C   UNL A   1      46.886  36.569  29.163  1.00  0.00     0.338 C 
ATOM     42  O   UNL A   1      46.936  37.486  28.395  1.00  0.00    -0.246 OA
BRANCH  41  43
ATOM     43  C   UNL A   1      46.259  35.261  28.989  1.00  0.00     0.060 A 
ATOM     44  C   UNL A   1      46.479  34.249  29.930  1.00  0.00     0.016 A 
ATOM     45  C   UNL A   1      45.240  35.196  28.037  1.00  0.00     0.016 A 
ATOM     46  C   UNL A   1      45.692  33.114  29.882  1.00  0.00     0.010 A 
ATOM     47  C   UNL A   1      44.457  34.062  27.985  1.00  0.00     0.010 A 
ATOM     48  C   UNL A   1      44.722  33.011  28.877  1.00  0.00    -0.014 A 
BRANCH  48  49
ATOM     49  C   UNL A   1      44.177  31.689  28.566  1.00  0.00     0.031 A 
ATOM     50  C   UNL A   1      42.824  31.381  29.128  1.00  0.00     0.074 A 
ATOM     51  C   UNL A   1      44.891  30.822  27.836  1.00  0.00     0.049 A 
ATOM     52  N   UNL A   1      42.136  30.280  29.058  1.00  0.00    -0.248 NA
ATOM     53  C   UNL A   1      42.162  32.461  29.890  1.00  0.00     0.031 C 
ATOM     54  C   UNL A   1      46.218  31.078  27.276  1.00  0.00     0.029 A 
ATOM     55  N   UNL A   1      44.607  29.537  27.475  1.00  0.00    -0.354 N 
ATOM     56  C   UNL A   1      40.984  30.518  29.795  1.00  0.00     0.074 A 
ATOM     57  C   UNL A   1      41.062  31.862  30.312  1.00  0.00     0.031 C 
ATOM     58  C   UNL A   1      46.653  29.960  26.669  1.00  0.00     0.029 A 
ATOM     59  C   UNL A   1      45.646  28.915  26.829  1.00  0.00     0.049 A 
ATOM     60  H   UNL A   1      43.744  29.101  27.658  1.00  0.00     0.167 HD
ATOM     61  C   UNL A   1      39.953  29.676  30.013  1.00  0.00     0.034 A 
ATOM     62  C   UNL A   1      45.763  27.630  26.450  1.00  0.00     0.034 A 
ATOM     63  C   UNL A   1      39.916  28.347  29.480  1.00  0.00     0.049 A 
ATOM     64  C   UNL A   1      44.596  26.714  26.704  1.00  0.00     0.074 A 
ATOM     65  C   UNL A   1      38.909  27.408  29.577  1.00  0.00     0.029 A 
ATOM     66  N   UNL A   1      40.954  27.761  28.770  1.00  0.00    -0.354 N 
ATOM     67  N   UNL A   1      43.452  26.979  27.294  1.00  0.00    -0.248 NA
ATOM     68  C   UNL A   1      44.713  25.337  26.213  1.00  0.00     0.031 C 
ATOM     69  C   UNL A   1      39.359  26.236  28.962  1.00  0.00     0.029 A 
ATOM     70  C   UNL A   1      40.623  26.463  28.435  1.00  0.00     0.049 A 
ATOM     71  H   UNL A   1      41.802  28.206  28.538  1.00  0.00     0.167 HD
ATOM     72  C   UNL A   1      42.699  25.816  27.213  1.00  0.00     0.074 A 
ATOM     73  C   UNL A   1      43.513  24.851  26.498  1.00  0.00     0.031 C 
ATOM     74  C   UNL A   1      41.455  25.555  27.687  1.00  0.00     0.034 A 
BRANCH  61  75
ATOM     75  C   UNL A   1      38.814  30.166  30.864  1.00  0.00     0.023 A 
ATOM     76  C   UNL A   1      38.823  29.950  32.258  1.00  0.00     0.012 A 
ATOM     77  C   UNL A   1      37.745  30.869  30.279  1.00  0.00     0.148 A 
ATOM     78  C   UNL A   1      37.772  30.406  33.052  1.00  0.00     0.002 A 
ATOM     79  C   UNL A   1      36.727  31.365  31.083  1.00  0.00     0.091 A 
ATOM     80  F   UNL A   1      37.737  31.028  28.949  1.00  0.00    -0.205 F 
ATOM     81  C   UNL A   1      36.732  31.124  32.468  1.00  0.00     0.022 A 
BRANCH  79  82
ATOM     82  S   UNL A   1      35.386  32.367  30.438  1.00  0.00     0.127 S 
ATOM     83  O   UNL A   1      34.950  31.573  29.289  1.00  0.00    -0.237 OA
ATOM     84  O   UNL A   1      34.449  32.381  31.561  1.00  0.00    -0.237 OA
ATOM     85  O   UNL A   1      35.968  33.661  30.110  1.00  0.00    -0.744 OA
ENDBRANCH  79  82
ENDBRANCH  61  75
BRANCH  62  86
ATOM     86  C   UNL A   1      47.009  27.154  25.790  1.00  0.00     0.023 A 
ATOM     87  C   UNL A   1      47.165  27.300  24.398  1.00  0.00     0.012 A 
ATOM     88  C   UNL A   1      48.054  26.583  26.543  1.00  0.00     0.148 A 
ATOM     89  C   UNL A   1      48.324  26.852  23.764  1.00  0.00     0.002 A 
ATOM     90  C   UNL A   1      49.228  26.190  25.911  1.00  0.00     0.091 A 
ATOM     91  F   UNL A   1      47.884  26.446  27.864  1.00  0.00    -0.205 F 
ATOM     92  C   UNL A   1      49.358  26.307  24.520  1.00  0.00     0.022 A 
BRANCH  90  93
ATOM     93  S   UNL A   1      50.658  25.596  26.822  1.00  0.00     0.127 S 
ATOM     94  O   UNL A   1      50.116  24.416  27.490  1.00  0.00    -0.237 OA
ATOM     95  O   UNL A   1      51.606  25.314  25.744  1.00  0.00    -0.237 OA
ATOM     96  O   UNL A   1      51.052  26.691  27.697  1.00  0.00    -0.744 OA
ENDBRANCH  90  93
ENDBRANCH  62  86
BRANCH  74  97
ATOM     97  C   UNL A   1      40.884  24.194  27.404  1.00  0.00     0.023 A 
ATOM     98  C   UNL A   1      41.452  23.051  27.999  1.00  0.00     0.012 A 
ATOM     99  C   UNL A   1      39.728  24.067  26.611  1.00  0.00     0.148 A 
ATOM    100  C   UNL A   1      40.899  21.793  27.774  1.00  0.00     0.002 A 
ATOM    101  C   UNL A   1      39.148  22.818  26.441  1.00  0.00     0.091 A 
ATOM    102  F   UNL A   1      39.215  25.169  26.045  1.00  0.00    -0.205 F 
ATOM    103  C   UNL A   1      39.741  21.679  27.007  1.00  0.00     0.022 A 
BRANCH 101 104
ATOM    104  S   UNL A   1      37.597  22.593  25.566  1.00  0.00     0.127 S 
ATOM    105  O   UNL A   1      37.533  21.137  25.446  1.00  0.00    -0.237 OA
ATOM    106  O   UNL A   1      36.631  23.172  26.499  1.00  0.00    -0.237 OA
ATOM    107  O   UNL A   1      37.733  23.316  24.309  1.00  0.00    -0.744 OA
ENDBRANCH 101 104
ENDBRANCH  74  97
ENDBRANCH  48  49
ENDBRANCH  41  43
ENDBRANCH  40  41
ENDBRANCH  39  40
ENDBRANCH  38  39
ENDBRANCH  37  38
ENDBRANCH  36  37
ENDBRANCH  35  36
ENDBRANCH  34  35
ENDBRANCH   1  34
TORSDOF 30
ENDMDL
