MODEL 1
REMARK VINA RESULT:      -6.9      0.000      0.000
REMARK SMILES C#CC[N@H+](CC(=O)OCCOCCOCCOCCOC(=O)c1ccc(-c2c3nc(c(-c4cccc(S(=O)(=O)[O-])c4F)c4ccc([nH]4)c(-c4cccc(S(=O)(=O)[O-])c4F)c4nc(c(-c5cccc(S(=O)(=O)[O-])c5F)c5ccc2[nH]5)C=C4)C=C3)cc1)[C@H](C)C(=O)NCCC
REMARK SMILES IDX 13 1 12 2 11 3 10 4 9 5 8 6 6 7 7 8 5 9 4 10 3 12 2 13 1 14
REMARK SMILES IDX 86 15 87 16 88 17 89 18 90 19 91 21 92 22 93 23 14 24 15 25
REMARK SMILES IDX 16 26 17 27 18 28 19 29 20 30 21 31 22 32 23 33 24 34 85 35
REMARK SMILES IDX 25 36 84 37 26 38 27 39 28 40 78 41 29 42 83 43 77 44 79 45
REMARK SMILES IDX 30 46 82 47 76 48 75 49 31 51 63 52 43 53 62 54 44 55 47 56
REMARK SMILES IDX 61 57 80 58 45 59 46 60 60 62 81 63 48 64 32 65 33 66 41 67
REMARK SMILES IDX 34 68 36 69 42 70 35 71 37 72 38 73 39 74 40 75 64 76 65 77
REMARK SMILES IDX 73 78 66 79 68 80 74 81 67 82 69 83 70 84 71 85 72 86 49 87
REMARK SMILES IDX 50 88 58 89 51 90 53 91 59 92 52 93 54 94 55 95 56 96 57 97
REMARK H PARENT 4 11 90 20 79 50 47 61
REMARK Flexibility Score: inf
ROOT
ATOM      1  C   UNL A   1      47.186  25.476  26.187  1.00  0.00     0.188 C 
ENDROOT
BRANCH   1   2
ATOM      2  C   UNL A   1      46.869  26.344  24.965  1.00  0.00     0.188 C 
BRANCH   2   3
ATOM      3  O   UNL A   1      47.930  27.064  24.378  1.00  0.00    -0.376 OA
BRANCH   3   4
ATOM      4  C   UNL A   1      49.247  26.543  24.299  1.00  0.00     0.202 C 
BRANCH   4   5
ATOM      5  C   UNL A   1      50.394  27.090  23.431  1.00  0.00     0.261 C 
BRANCH   5   6
ATOM      6  O   UNL A   1      50.205  27.084  22.020  1.00  0.00    -0.459 OA
BRANCH   6   7
ATOM      7  C   UNL A   1      50.484  28.219  21.350  1.00  0.00     0.361 C 
ATOM      8  O   UNL A   1      50.435  29.338  21.860  1.00  0.00    -0.245 OA
BRANCH   7   9
ATOM      9  C   UNL A   1      50.827  28.049  19.872  1.00  0.00     0.387 C 
BRANCH   9  10
ATOM     10  N   UNL A   1      52.231  28.134  19.373  1.00  0.00    -0.306 N 
ATOM     11  H   UNL A   1      52.272  28.811  18.611  1.00  0.00     0.350 HD
BRANCH  10  12
ATOM     12  C   UNL A   1      53.174  28.760  20.306  1.00  0.00     0.355 C 
BRANCH  12  13
ATOM     13  C   UNL A   1      53.614  30.104  19.877  1.00  0.00    -0.047 C 
ATOM     14  C   UNL A   1      53.961  31.200  19.505  1.00  0.00     0.010 C 
ENDBRANCH  12  13
ENDBRANCH  10  12
BRANCH  10  15
ATOM     15  C   UNL A   1      52.634  26.813  18.767  1.00  0.00     0.272 C 
ATOM     16  C   UNL A   1      54.122  26.583  18.451  1.00  0.00     0.086 C 
BRANCH  15  17
ATOM     17  C   UNL A   1      51.757  26.216  17.638  1.00  0.00     0.278 C 
ATOM     18  O   UNL A   1      50.953  25.308  17.881  1.00  0.00    -0.268 OA
ATOM     19  N   UNL A   1      51.916  26.578  16.323  1.00  0.00    -0.351 N 
ATOM     20  H   UNL A   1      51.555  25.946  15.661  1.00  0.00     0.163 HD
BRANCH  19  21
ATOM     21  C   UNL A   1      52.542  27.770  15.780  1.00  0.00     0.116 C 
BRANCH  21  22
ATOM     22  C   UNL A   1      51.639  28.981  15.661  1.00  0.00     0.018 C 
ATOM     23  C   UNL A   1      52.299  30.104  14.878  1.00  0.00     0.006 C 
ENDBRANCH  21  22
ENDBRANCH  19  21
ENDBRANCH  15  17
ENDBRANCH  10  15
ENDBRANCH   9  10
ENDBRANCH   7   9
ENDBRANCH   6   7
ENDBRANCH   5   6
ENDBRANCH   4   5
ENDBRANCH   3   4
ENDBRANCH   2   3
ENDBRANCH   1   2
BRANCH   1  24
ATOM     24  O   UNL A   1      47.155  24.075  26.038  1.00  0.00    -0.377 OA
BRANCH  24  25
ATOM     25  C   UNL A   1      45.970  23.374  25.722  1.00  0.00     0.188 C 
BRANCH  25  26
ATOM     26  C   UNL A   1      45.907  22.389  24.543  1.00  0.00     0.188 C 
BRANCH  26  27
ATOM     27  O   UNL A   1      45.059  21.272  24.725  1.00  0.00    -0.376 OA
BRANCH  27  28
ATOM     28  C   UNL A   1      44.107  21.319  25.778  1.00  0.00     0.202 C 
BRANCH  28  29
ATOM     29  C   UNL A   1      42.687  21.854  25.502  1.00  0.00     0.261 C 
BRANCH  29  30
ATOM     30  O   UNL A   1      41.742  21.781  26.580  1.00  0.00    -0.460 OA
BRANCH  30  31
ATOM     31  C   UNL A   1      40.532  22.340  26.376  1.00  0.00     0.338 C 
ATOM     32  O   UNL A   1      39.555  21.810  25.878  1.00  0.00    -0.246 OA
BRANCH  31  33
ATOM     33  C   UNL A   1      40.522  23.668  27.023  1.00  0.00     0.060 A 
ATOM     34  C   UNL A   1      39.968  24.750  26.324  1.00  0.00     0.016 A 
ATOM     35  C   UNL A   1      41.085  23.856  28.287  1.00  0.00     0.016 A 
ATOM     36  C   UNL A   1      40.031  26.033  26.862  1.00  0.00     0.010 A 
ATOM     37  C   UNL A   1      41.166  25.150  28.815  1.00  0.00     0.010 A 
ATOM     38  C   UNL A   1      40.685  26.249  28.081  1.00  0.00    -0.014 A 
BRANCH  38  39
ATOM     39  C   UNL A   1      41.047  27.637  28.461  1.00  0.00     0.031 A 
ATOM     40  C   UNL A   1      42.499  28.036  28.419  1.00  0.00     0.074 A 
ATOM     41  C   UNL A   1      40.109  28.544  28.785  1.00  0.00     0.049 A 
ATOM     42  N   UNL A   1      43.050  29.189  28.694  1.00  0.00    -0.248 NA
ATOM     43  C   UNL A   1      43.458  26.996  28.011  1.00  0.00     0.031 C 
ATOM     44  C   UNL A   1      38.671  28.289  28.842  1.00  0.00     0.029 A 
ATOM     45  N   UNL A   1      40.232  29.862  29.146  1.00  0.00    -0.354 N 
ATOM     46  C   UNL A   1      44.418  29.003  28.532  1.00  0.00     0.074 A 
ATOM     47  C   UNL A   1      44.616  27.626  28.140  1.00  0.00     0.031 C 
ATOM     48  C   UNL A   1      38.046  29.410  29.244  1.00  0.00     0.029 A 
ATOM     49  C   UNL A   1      39.041  30.450  29.502  1.00  0.00     0.049 A 
ATOM     50  H   UNL A   1      41.093  30.342  29.151  1.00  0.00     0.167 HD
ATOM     51  C   UNL A   1      45.421  29.899  28.688  1.00  0.00     0.034 A 
ATOM     52  C   UNL A   1      38.788  31.674  30.007  1.00  0.00     0.034 A 
ATOM     53  C   UNL A   1      45.223  31.272  29.068  1.00  0.00     0.049 A 
ATOM     54  C   UNL A   1      39.927  32.643  30.197  1.00  0.00     0.074 A 
ATOM     55  C   UNL A   1      46.173  32.269  29.205  1.00  0.00     0.029 A 
ATOM     56  N   UNL A   1      44.002  31.835  29.397  1.00  0.00    -0.354 N 
ATOM     57  N   UNL A   1      41.203  32.483  29.944  1.00  0.00    -0.248 NA
ATOM     58  C   UNL A   1      39.582  33.979  30.706  1.00  0.00     0.031 C 
ATOM     59  C   UNL A   1      45.532  33.419  29.674  1.00  0.00     0.029 A 
ATOM     60  C   UNL A   1      44.174  33.161  29.756  1.00  0.00     0.049 A 
ATOM     61  H   UNL A   1      43.138  31.363  29.376  1.00  0.00     0.167 HD
ATOM     62  C   UNL A   1      41.804  33.707  30.217  1.00  0.00     0.074 A 
ATOM     63  C   UNL A   1      40.749  34.605  30.637  1.00  0.00     0.031 C 
ATOM     64  C   UNL A   1      43.113  34.057  30.133  1.00  0.00     0.034 A 
BRANCH  51  65
ATOM     65  C   UNL A   1      46.833  29.423  28.465  1.00  0.00     0.023 A 
ATOM     66  C   UNL A   1      47.462  29.613  27.219  1.00  0.00     0.012 A 
ATOM     67  C   UNL A   1      47.559  28.845  29.525  1.00  0.00     0.148 A 
ATOM     68  C   UNL A   1      48.782  29.208  27.022  1.00  0.00     0.002 A 
ATOM     69  C   UNL A   1      48.889  28.493  29.338  1.00  0.00     0.091 A 
ATOM     70  F   UNL A   1      46.935  28.651  30.696  1.00  0.00    -0.205 F 
ATOM     71  C   UNL A   1      49.498  28.662  28.084  1.00  0.00     0.022 A 
BRANCH  69  72
ATOM     72  S   UNL A   1      49.920  27.862  30.666  1.00  0.00     0.127 S 
ATOM     73  O   UNL A   1      51.200  27.677  29.983  1.00  0.00    -0.237 OA
ATOM     74  O   UNL A   1      49.893  28.968  31.624  1.00  0.00    -0.237 OA
ATOM     75  O   UNL A   1      49.281  26.638  31.128  1.00  0.00    -0.744 OA
ENDBRANCH  69  72
ENDBRANCH  51  65
BRANCH  52  76
ATOM     76  C   UNL A   1      37.397  32.060  30.376  1.00  0.00     0.023 A 
ATOM     77  C   UNL A   1      36.883  31.732  31.646  1.00  0.00     0.012 A 
ATOM     78  C   UNL A   1      36.573  32.738  29.457  1.00  0.00     0.148 A 
ATOM     79  C   UNL A   1      35.559  32.028  31.975  1.00  0.00     0.002 A 
ATOM     80  C   UNL A   1      35.276  33.088  29.814  1.00  0.00     0.091 A 
ATOM     81  F   UNL A   1      37.075  33.030  28.249  1.00  0.00    -0.205 F 
ATOM     82  C   UNL A   1      34.760  32.714  31.063  1.00  0.00     0.022 A 
BRANCH  80  83
ATOM     83  S   UNL A   1      34.223  34.082  28.754  1.00  0.00     0.127 S 
ATOM     84  O   UNL A   1      33.005  34.184  29.553  1.00  0.00    -0.237 OA
ATOM     85  O   UNL A   1      34.995  35.320  28.643  1.00  0.00    -0.237 OA
ATOM     86  O   UNL A   1      34.098  33.340  27.507  1.00  0.00    -0.744 OA
ENDBRANCH  80  83
ENDBRANCH  52  76
BRANCH  64  87
ATOM     87  C   UNL A   1      43.474  35.494  30.424  1.00  0.00     0.023 A 
ATOM     88  C   UNL A   1      43.619  36.426  29.376  1.00  0.00     0.012 A 
ATOM     89  C   UNL A   1      43.630  35.926  31.757  1.00  0.00     0.148 A 
ATOM     90  C   UNL A   1      43.971  37.748  29.649  1.00  0.00     0.002 A 
ATOM     91  C   UNL A   1      43.921  37.258  32.023  1.00  0.00     0.091 A 
ATOM     92  F   UNL A   1      43.501  35.024  32.742  1.00  0.00    -0.205 F 
ATOM     93  C   UNL A   1      44.113  38.165  30.970  1.00  0.00     0.022 A 
BRANCH  91  94
ATOM     94  S   UNL A   1      44.018  37.905  33.695  1.00  0.00     0.127 S 
ATOM     95  O   UNL A   1      44.474  39.274  33.458  1.00  0.00    -0.237 OA
ATOM     96  O   UNL A   1      42.632  37.794  34.150  1.00  0.00    -0.237 OA
ATOM     97  O   UNL A   1      44.958  37.048  34.405  1.00  0.00    -0.744 OA
ENDBRANCH  91  94
ENDBRANCH  64  87
ENDBRANCH  38  39
ENDBRANCH  31  33
ENDBRANCH  30  31
ENDBRANCH  29  30
ENDBRANCH  28  29
ENDBRANCH  27  28
ENDBRANCH  26  27
ENDBRANCH  25  26
ENDBRANCH  24  25
ENDBRANCH   1  24
TORSDOF 30
ENDMDL
MODEL 2
REMARK VINA RESULT:      -6.6      2.783      3.589
REMARK SMILES C#CC[N@H+](CC(=O)OCCOCCOCCOCCOC(=O)c1ccc(-c2c3nc(c(-c4cccc(S(=O)(=O)[O-])c4F)c4ccc([nH]4)c(-c4cccc(S(=O)(=O)[O-])c4F)c4nc(c(-c5cccc(S(=O)(=O)[O-])c5F)c5ccc2[nH]5)C=C4)C=C3)cc1)[C@H](C)C(=O)NCCC
REMARK SMILES IDX 13 1 12 2 11 3 10 4 9 5 8 6 6 7 7 8 5 9 4 10 3 12 2 13 1 14
REMARK SMILES IDX 86 15 87 16 88 17 89 18 90 19 91 21 92 22 93 23 14 24 15 25
REMARK SMILES IDX 16 26 17 27 18 28 19 29 20 30 21 31 22 32 23 33 24 34 85 35
REMARK SMILES IDX 25 36 84 37 26 38 27 39 28 40 78 41 29 42 83 43 77 44 79 45
REMARK SMILES IDX 30 46 82 47 76 48 75 49 31 51 63 52 43 53 62 54 44 55 47 56
REMARK SMILES IDX 61 57 80 58 45 59 46 60 60 62 81 63 48 64 32 65 33 66 41 67
REMARK SMILES IDX 34 68 36 69 42 70 35 71 37 72 38 73 39 74 40 75 64 76 65 77
REMARK SMILES IDX 73 78 66 79 68 80 74 81 67 82 69 83 70 84 71 85 72 86 49 87
REMARK SMILES IDX 50 88 58 89 51 90 53 91 59 92 52 93 54 94 55 95 56 96 57 97
REMARK H PARENT 4 11 90 20 79 50 47 61
REMARK Flexibility Score: inf
ROOT
ATOM      1  C   UNL A   1      47.251  24.506  26.653  1.00  0.00     0.188 C 
ENDROOT
BRANCH   1   2
ATOM      2  C   UNL A   1      47.780  25.497  25.611  1.00  0.00     0.188 C 
BRANCH   2   3
ATOM      3  O   UNL A   1      49.071  26.028  25.805  1.00  0.00    -0.376 OA
BRANCH   3   4
ATOM      4  C   UNL A   1      49.917  25.599  26.860  1.00  0.00     0.202 C 
BRANCH   4   5
ATOM      5  C   UNL A   1      51.369  25.108  26.724  1.00  0.00     0.261 C 
BRANCH   5   6
ATOM      6  O   UNL A   1      52.084  25.503  25.557  1.00  0.00    -0.459 OA
BRANCH   6   7
ATOM      7  C   UNL A   1      53.315  24.985  25.377  1.00  0.00     0.361 C 
ATOM      8  O   UNL A   1      53.537  23.985  24.694  1.00  0.00    -0.245 OA
BRANCH   7   9
ATOM      9  C   UNL A   1      54.447  25.690  26.119  1.00  0.00     0.387 C 
BRANCH   9  10
ATOM     10  N   UNL A   1      54.688  27.157  25.981  1.00  0.00    -0.306 N 
ATOM     11  H   UNL A   1      53.825  27.609  25.681  1.00  0.00     0.350 HD
BRANCH  10  12
ATOM     12  C   UNL A   1      54.903  27.862  27.249  1.00  0.00     0.355 C 
BRANCH  12  13
ATOM     13  C   UNL A   1      54.435  27.101  28.427  1.00  0.00    -0.047 C 
ATOM     14  C   UNL A   1      54.030  26.478  29.379  1.00  0.00     0.010 C 
ENDBRANCH  12  13
ENDBRANCH  10  12
BRANCH  10  15
ATOM     15  C   UNL A   1      55.684  27.405  24.876  1.00  0.00     0.272 C 
ATOM     16  C   UNL A   1      56.792  28.445  25.118  1.00  0.00     0.086 C 
BRANCH  15  17
ATOM     17  C   UNL A   1      55.166  27.515  23.420  1.00  0.00     0.278 C 
ATOM     18  O   UNL A   1      55.356  26.595  22.615  1.00  0.00    -0.268 OA
ATOM     19  N   UNL A   1      54.589  28.663  22.937  1.00  0.00    -0.351 N 
ATOM     20  H   UNL A   1      54.580  28.755  21.957  1.00  0.00     0.163 HD
BRANCH  19  21
ATOM     21  C   UNL A   1      53.991  29.759  23.678  1.00  0.00     0.116 C 
BRANCH  21  22
ATOM     22  C   UNL A   1      52.957  30.567  22.919  1.00  0.00     0.018 C 
ATOM     23  C   UNL A   1      52.259  31.577  23.816  1.00  0.00     0.006 C 
ENDBRANCH  21  22
ENDBRANCH  19  21
ENDBRANCH  15  17
ENDBRANCH  10  15
ENDBRANCH   9  10
ENDBRANCH   7   9
ENDBRANCH   6   7
ENDBRANCH   5   6
ENDBRANCH   4   5
ENDBRANCH   3   4
ENDBRANCH   2   3
ENDBRANCH   1   2
BRANCH   1  24
ATOM     24  O   UNL A   1      46.815  23.241  26.211  1.00  0.00    -0.377 OA
BRANCH  24  25
ATOM     25  C   UNL A   1      45.523  23.029  25.682  1.00  0.00     0.188 C 
BRANCH  25  26
ATOM     26  C   UNL A   1      45.296  22.161  24.433  1.00  0.00     0.188 C 
BRANCH  26  27
ATOM     27  O   UNL A   1      44.365  21.106  24.584  1.00  0.00    -0.376 OA
BRANCH  27  28
ATOM     28  C   UNL A   1      43.475  21.152  25.691  1.00  0.00     0.202 C 
BRANCH  28  29
ATOM     29  C   UNL A   1      42.220  22.046  25.628  1.00  0.00     0.261 C 
BRANCH  29  30
ATOM     30  O   UNL A   1      41.268  21.908  26.692  1.00  0.00    -0.460 OA
BRANCH  30  31
ATOM     31  C   UNL A   1      40.082  22.532  26.540  1.00  0.00     0.338 C 
ATOM     32  O   UNL A   1      39.063  22.064  26.065  1.00  0.00    -0.246 OA
BRANCH  31  33
ATOM     33  C   UNL A   1      40.162  23.845  27.213  1.00  0.00     0.060 A 
ATOM     34  C   UNL A   1      39.384  24.900  26.719  1.00  0.00     0.016 A 
ATOM     35  C   UNL A   1      41.021  24.045  28.296  1.00  0.00     0.016 A 
ATOM     36  C   UNL A   1      39.508  26.174  27.267  1.00  0.00     0.010 A 
ATOM     37  C   UNL A   1      41.160  25.332  28.830  1.00  0.00     0.010 A 
ATOM     38  C   UNL A   1      40.442  26.410  28.283  1.00  0.00    -0.014 A 
BRANCH  38  39
ATOM     39  C   UNL A   1      40.807  27.813  28.605  1.00  0.00     0.031 A 
ATOM     40  C   UNL A   1      42.256  28.215  28.509  1.00  0.00     0.074 A 
ATOM     41  C   UNL A   1      39.874  28.726  28.924  1.00  0.00     0.049 A 
ATOM     42  N   UNL A   1      42.809  29.379  28.729  1.00  0.00    -0.248 NA
ATOM     43  C   UNL A   1      43.208  27.165  28.110  1.00  0.00     0.031 C 
ATOM     44  C   UNL A   1      38.440  28.468  29.030  1.00  0.00     0.029 A 
ATOM     45  N   UNL A   1      40.002  30.057  29.237  1.00  0.00    -0.354 N 
ATOM     46  C   UNL A   1      44.173  29.193  28.535  1.00  0.00     0.074 A 
ATOM     47  C   UNL A   1      44.366  27.804  28.184  1.00  0.00     0.031 C 
ATOM     48  C   UNL A   1      37.821  29.599  29.412  1.00  0.00     0.029 A 
ATOM     49  C   UNL A   1      38.818  30.651  29.606  1.00  0.00     0.049 A 
ATOM     50  H   UNL A   1      40.859  30.540  29.201  1.00  0.00     0.167 HD
ATOM     51  C   UNL A   1      45.175  30.098  28.632  1.00  0.00     0.034 A 
ATOM     52  C   UNL A   1      38.573  31.891  30.075  1.00  0.00     0.034 A 
ATOM     53  C   UNL A   1      44.982  31.482  28.970  1.00  0.00     0.049 A 
ATOM     54  C   UNL A   1      39.712  32.871  30.200  1.00  0.00     0.074 A 
ATOM     55  C   UNL A   1      45.930  32.487  29.047  1.00  0.00     0.029 A 
ATOM     56  N   UNL A   1      43.767  32.051  29.314  1.00  0.00    -0.354 N 
ATOM     57  N   UNL A   1      40.981  32.707  29.917  1.00  0.00    -0.248 NA
ATOM     58  C   UNL A   1      39.376  34.222  30.673  1.00  0.00     0.031 C 
ATOM     59  C   UNL A   1      45.297  33.650  29.494  1.00  0.00     0.029 A 
ATOM     60  C   UNL A   1      43.942  33.389  29.623  1.00  0.00     0.049 A 
ATOM     61  H   UNL A   1      42.905  31.575  29.334  1.00  0.00     0.167 HD
ATOM     62  C   UNL A   1      41.584  33.942  30.132  1.00  0.00     0.074 A 
ATOM     63  C   UNL A   1      40.537  34.849  30.550  1.00  0.00     0.031 C 
ATOM     64  C   UNL A   1      42.888  34.294  29.999  1.00  0.00     0.034 A 
BRANCH  51  65
ATOM     65  C   UNL A   1      46.583  29.620  28.386  1.00  0.00     0.023 A 
ATOM     66  C   UNL A   1      47.176  29.770  27.117  1.00  0.00     0.012 A 
ATOM     67  C   UNL A   1      47.340  29.080  29.444  1.00  0.00     0.148 A 
ATOM     68  C   UNL A   1      48.492  29.364  26.897  1.00  0.00     0.002 A 
ATOM     69  C   UNL A   1      48.666  28.727  29.232  1.00  0.00     0.091 A 
ATOM     70  F   UNL A   1      46.750  28.923  30.638  1.00  0.00    -0.205 F 
ATOM     71  C   UNL A   1      49.240  28.856  27.957  1.00  0.00     0.022 A 
BRANCH  69  72
ATOM     72  S   UNL A   1      49.736  28.144  30.551  1.00  0.00     0.127 S 
ATOM     73  O   UNL A   1      49.436  29.100  31.618  1.00  0.00    -0.237 OA
ATOM     74  O   UNL A   1      49.227  26.792  30.782  1.00  0.00    -0.237 OA
ATOM     75  O   UNL A   1      51.094  28.206  30.028  1.00  0.00    -0.744 OA
ENDBRANCH  69  72
ENDBRANCH  51  65
BRANCH  52  76
ATOM     76  C   UNL A   1      37.191  32.284  30.470  1.00  0.00     0.023 A 
ATOM     77  C   UNL A   1      36.731  32.040  31.779  1.00  0.00     0.012 A 
ATOM     78  C   UNL A   1      36.322  32.884  29.538  1.00  0.00     0.148 A 
ATOM     79  C   UNL A   1      35.416  32.342  32.137  1.00  0.00     0.002 A 
ATOM     80  C   UNL A   1      35.035  33.241  29.919  1.00  0.00     0.091 A 
ATOM     81  F   UNL A   1      36.774  33.096  28.294  1.00  0.00    -0.205 F 
ATOM     82  C   UNL A   1      34.572  32.951  31.211  1.00  0.00     0.022 A 
BRANCH  80  83
ATOM     83  S   UNL A   1      33.926  34.144  28.834  1.00  0.00     0.127 S 
ATOM     84  O   UNL A   1      32.805  34.432  29.724  1.00  0.00    -0.237 OA
ATOM     85  O   UNL A   1      34.742  35.303  28.472  1.00  0.00    -0.237 OA
ATOM     86  O   UNL A   1      33.636  33.245  27.725  1.00  0.00    -0.744 OA
ENDBRANCH  80  83
ENDBRANCH  52  76
BRANCH  64  87
ATOM     87  C   UNL A   1      43.250  35.741  30.230  1.00  0.00     0.023 A 
ATOM     88  C   UNL A   1      43.684  36.180  31.498  1.00  0.00     0.012 A 
ATOM     89  C   UNL A   1      43.195  36.661  29.164  1.00  0.00     0.148 A 
ATOM     90  C   UNL A   1      43.999  37.522  31.713  1.00  0.00     0.002 A 
ATOM     91  C   UNL A   1      43.570  37.984  29.371  1.00  0.00     0.091 A 
ATOM     92  F   UNL A   1      42.768  36.231  27.968  1.00  0.00    -0.205 F 
ATOM     93  C   UNL A   1      43.951  38.420  30.649  1.00  0.00     0.022 A 
BRANCH  91  94
ATOM     94  S   UNL A   1      43.637  39.183  28.037  1.00  0.00     0.127 S 
ATOM     95  O   UNL A   1      42.328  39.826  28.149  1.00  0.00    -0.237 OA
ATOM     96  O   UNL A   1      44.766  40.025  28.435  1.00  0.00    -0.237 OA
ATOM     97  O   UNL A   1      43.854  38.418  26.817  1.00  0.00    -0.744 OA
ENDBRANCH  91  94
ENDBRANCH  64  87
ENDBRANCH  38  39
ENDBRANCH  31  33
ENDBRANCH  30  31
ENDBRANCH  29  30
ENDBRANCH  28  29
ENDBRANCH  27  28
ENDBRANCH  26  27
ENDBRANCH  25  26
ENDBRANCH  24  25
ENDBRANCH   1  24
TORSDOF 30
ENDMDL
MODEL 3
REMARK VINA RESULT:      -6.5      1.482      2.094
REMARK SMILES C#CC[N@H+](CC(=O)OCCOCCOCCOCCOC(=O)c1ccc(-c2c3nc(c(-c4cccc(S(=O)(=O)[O-])c4F)c4ccc([nH]4)c(-c4cccc(S(=O)(=O)[O-])c4F)c4nc(c(-c5cccc(S(=O)(=O)[O-])c5F)c5ccc2[nH]5)C=C4)C=C3)cc1)[C@H](C)C(=O)NCCC
REMARK SMILES IDX 13 1 12 2 11 3 10 4 9 5 8 6 6 7 7 8 5 9 4 10 3 12 2 13 1 14
REMARK SMILES IDX 86 15 87 16 88 17 89 18 90 19 91 21 92 22 93 23 14 24 15 25
REMARK SMILES IDX 16 26 17 27 18 28 19 29 20 30 21 31 22 32 23 33 24 34 85 35
REMARK SMILES IDX 25 36 84 37 26 38 27 39 28 40 78 41 29 42 83 43 77 44 79 45
REMARK SMILES IDX 30 46 82 47 76 48 75 49 31 51 63 52 43 53 62 54 44 55 47 56
REMARK SMILES IDX 61 57 80 58 45 59 46 60 60 62 81 63 48 64 32 65 33 66 41 67
REMARK SMILES IDX 34 68 36 69 42 70 35 71 37 72 38 73 39 74 40 75 64 76 65 77
REMARK SMILES IDX 73 78 66 79 68 80 74 81 67 82 69 83 70 84 71 85 72 86 49 87
REMARK SMILES IDX 50 88 58 89 51 90 53 91 59 92 52 93 54 94 55 95 56 96 57 97
REMARK H PARENT 4 11 90 20 79 50 47 61
REMARK Flexibility Score: inf
ROOT
ATOM      1  C   UNL A   1      46.621  25.042  26.496  1.00  0.00     0.188 C 
ENDROOT
BRANCH   1   2
ATOM      2  C   UNL A   1      46.598  26.006  25.306  1.00  0.00     0.188 C 
BRANCH   2   3
ATOM      3  O   UNL A   1      47.813  26.613  24.929  1.00  0.00    -0.376 OA
BRANCH   3   4
ATOM      4  C   UNL A   1      48.485  26.282  23.724  1.00  0.00     0.202 C 
BRANCH   4   5
ATOM      5  C   UNL A   1      49.479  27.172  22.958  1.00  0.00     0.261 C 
BRANCH   5   6
ATOM      6  O   UNL A   1      50.556  27.735  23.699  1.00  0.00    -0.459 OA
BRANCH   6   7
ATOM      7  C   UNL A   1      51.784  27.684  23.148  1.00  0.00     0.361 C 
ATOM      8  O   UNL A   1      52.198  26.724  22.499  1.00  0.00    -0.245 OA
BRANCH   7   9
ATOM      9  C   UNL A   1      52.680  28.891  23.413  1.00  0.00     0.387 C 
BRANCH   9  10
ATOM     10  N   UNL A   1      53.316  29.662  22.304  1.00  0.00    -0.306 N 
ATOM     11  H   UNL A   1      53.262  30.658  22.518  1.00  0.00     0.350 HD
BRANCH  10  12
ATOM     12  C   UNL A   1      54.772  29.511  22.212  1.00  0.00     0.355 C 
BRANCH  12  13
ATOM     13  C   UNL A   1      55.197  28.130  21.904  1.00  0.00    -0.047 C 
ATOM     14  C   UNL A   1      55.556  27.000  21.674  1.00  0.00     0.010 C 
ENDBRANCH  12  13
ENDBRANCH  10  12
BRANCH  10  15
ATOM     15  C   UNL A   1      52.521  29.473  21.036  1.00  0.00     0.272 C 
ATOM     16  C   UNL A   1      53.284  29.117  19.748  1.00  0.00     0.086 C 
BRANCH  15  17
ATOM     17  C   UNL A   1      51.385  30.477  20.715  1.00  0.00     0.278 C 
ATOM     18  O   UNL A   1      50.204  30.176  20.924  1.00  0.00    -0.268 OA
ATOM     19  N   UNL A   1      51.626  31.675  20.088  1.00  0.00    -0.351 N 
ATOM     20  H   UNL A   1      50.849  32.092  19.653  1.00  0.00     0.163 HD
BRANCH  19  21
ATOM     21  C   UNL A   1      52.874  32.409  19.983  1.00  0.00     0.116 C 
BRANCH  21  22
ATOM     22  C   UNL A   1      53.172  33.350  21.133  1.00  0.00     0.018 C 
ATOM     23  C   UNL A   1      54.606  33.210  21.621  1.00  0.00     0.006 C 
ENDBRANCH  21  22
ENDBRANCH  19  21
ENDBRANCH  15  17
ENDBRANCH  10  15
ENDBRANCH   9  10
ENDBRANCH   7   9
ENDBRANCH   6   7
ENDBRANCH   5   6
ENDBRANCH   4   5
ENDBRANCH   3   4
ENDBRANCH   2   3
ENDBRANCH   1   2
BRANCH   1  24
ATOM     24  O   UNL A   1      46.538  23.658  26.237  1.00  0.00    -0.377 OA
BRANCH  24  25
ATOM     25  C   UNL A   1      45.347  23.042  25.795  1.00  0.00     0.188 C 
BRANCH  25  26
ATOM     26  C   UNL A   1      45.355  21.972  24.691  1.00  0.00     0.188 C 
BRANCH  26  27
ATOM     27  O   UNL A   1      44.538  20.842  24.930  1.00  0.00    -0.376 OA
BRANCH  27  28
ATOM     28  C   UNL A   1      43.558  20.929  25.955  1.00  0.00     0.202 C 
BRANCH  28  29
ATOM     29  C   UNL A   1      42.215  21.633  25.674  1.00  0.00     0.261 C 
BRANCH  29  30
ATOM     30  O   UNL A   1      41.263  21.673  26.746  1.00  0.00    -0.460 OA
BRANCH  30  31
ATOM     31  C   UNL A   1      40.105  22.324  26.516  1.00  0.00     0.338 C 
ATOM     32  O   UNL A   1      39.105  21.875  25.984  1.00  0.00    -0.246 OA
BRANCH  31  33
ATOM     33  C   UNL A   1      40.176  23.642  27.181  1.00  0.00     0.060 A 
ATOM     34  C   UNL A   1      39.455  24.710  26.631  1.00  0.00     0.016 A 
ATOM     35  C   UNL A   1      40.975  23.834  28.311  1.00  0.00     0.016 A 
ATOM     36  C   UNL A   1      39.578  25.987  27.173  1.00  0.00     0.010 A 
ATOM     37  C   UNL A   1      41.113  25.123  28.840  1.00  0.00     0.010 A 
ATOM     38  C   UNL A   1      40.455  26.212  28.241  1.00  0.00    -0.014 A 
BRANCH  38  39
ATOM     39  C   UNL A   1      40.835  27.608  28.570  1.00  0.00     0.031 A 
ATOM     40  C   UNL A   1      42.285  28.001  28.461  1.00  0.00     0.074 A 
ATOM     41  C   UNL A   1      39.912  28.526  28.908  1.00  0.00     0.049 A 
ATOM     42  N   UNL A   1      42.849  29.158  28.685  1.00  0.00    -0.248 NA
ATOM     43  C   UNL A   1      43.225  26.947  28.042  1.00  0.00     0.031 C 
ATOM     44  C   UNL A   1      38.477  28.278  29.028  1.00  0.00     0.029 A 
ATOM     45  N   UNL A   1      40.053  29.853  29.230  1.00  0.00    -0.354 N 
ATOM     46  C   UNL A   1      44.210  28.964  28.473  1.00  0.00     0.074 A 
ATOM     47  C   UNL A   1      44.388  27.577  28.109  1.00  0.00     0.031 C 
ATOM     48  C   UNL A   1      37.871  29.410  29.426  1.00  0.00     0.029 A 
ATOM     49  C   UNL A   1      38.878  30.453  29.617  1.00  0.00     0.049 A 
ATOM     50  H   UNL A   1      40.914  30.330  29.189  1.00  0.00     0.167 HD
ATOM     51  C   UNL A   1      45.220  29.860  28.567  1.00  0.00     0.034 A 
ATOM     52  C   UNL A   1      38.649  31.690  30.100  1.00  0.00     0.034 A 
ATOM     53  C   UNL A   1      45.041  31.243  28.919  1.00  0.00     0.049 A 
ATOM     54  C   UNL A   1      39.796  32.661  30.221  1.00  0.00     0.074 A 
ATOM     55  C   UNL A   1      45.997  32.240  28.993  1.00  0.00     0.029 A 
ATOM     56  N   UNL A   1      43.834  31.818  29.282  1.00  0.00    -0.354 N 
ATOM     57  N   UNL A   1      41.061  32.490  29.922  1.00  0.00    -0.248 NA
ATOM     58  C   UNL A   1      39.475  34.010  30.709  1.00  0.00     0.031 C 
ATOM     59  C   UNL A   1      45.378  33.404  29.458  1.00  0.00     0.029 A 
ATOM     60  C   UNL A   1      44.023  33.152  29.600  1.00  0.00     0.049 A 
ATOM     61  H   UNL A   1      42.969  31.349  29.307  1.00  0.00     0.167 HD
ATOM     62  C   UNL A   1      41.676  33.718  30.140  1.00  0.00     0.074 A 
ATOM     63  C   UNL A   1      40.640  34.630  30.577  1.00  0.00     0.031 C 
ATOM     64  C   UNL A   1      42.980  34.062  29.995  1.00  0.00     0.034 A 
BRANCH  51  65
ATOM     65  C   UNL A   1      46.621  29.373  28.301  1.00  0.00     0.023 A 
ATOM     66  C   UNL A   1      47.221  29.580  27.044  1.00  0.00     0.012 A 
ATOM     67  C   UNL A   1      47.366  28.769  29.332  1.00  0.00     0.148 A 
ATOM     68  C   UNL A   1      48.531  29.165  26.807  1.00  0.00     0.002 A 
ATOM     69  C   UNL A   1      48.687  28.407  29.106  1.00  0.00     0.091 A 
ATOM     70  F   UNL A   1      46.769  28.561  30.515  1.00  0.00    -0.205 F 
ATOM     71  C   UNL A   1      49.267  28.592  27.841  1.00  0.00     0.022 A 
BRANCH  69  72
ATOM     72  S   UNL A   1      49.743  27.742  30.397  1.00  0.00     0.127 S 
ATOM     73  O   UNL A   1      49.102  26.455  30.669  1.00  0.00    -0.237 OA
ATOM     74  O   UNL A   1      51.035  27.648  29.716  1.00  0.00    -0.237 OA
ATOM     75  O   UNL A   1      49.697  28.700  31.492  1.00  0.00    -0.744 OA
ENDBRANCH  69  72
ENDBRANCH  51  65
BRANCH  52  76
ATOM     76  C   UNL A   1      37.274  32.091  30.514  1.00  0.00     0.023 A 
ATOM     77  C   UNL A   1      36.804  31.784  31.806  1.00  0.00     0.012 A 
ATOM     78  C   UNL A   1      36.421  32.761  29.616  1.00  0.00     0.148 A 
ATOM     79  C   UNL A   1      35.495  32.094  32.178  1.00  0.00     0.002 A 
ATOM     80  C   UNL A   1      35.140  33.124  30.014  1.00  0.00     0.091 A 
ATOM     81  F   UNL A   1      36.881  33.032  28.386  1.00  0.00    -0.205 F 
ATOM     82  C   UNL A   1      34.667  32.772  31.287  1.00  0.00     0.022 A 
BRANCH  80  83
ATOM     83  S   UNL A   1      34.055  34.109  28.979  1.00  0.00     0.127 S 
ATOM     84  O   UNL A   1      33.620  33.132  27.984  1.00  0.00    -0.237 OA
ATOM     85  O   UNL A   1      33.024  34.520  29.933  1.00  0.00    -0.237 OA
ATOM     86  O   UNL A   1      34.873  35.204  28.473  1.00  0.00    -0.744 OA
ENDBRANCH  80  83
ENDBRANCH  52  76
BRANCH  64  87
ATOM     87  C   UNL A   1      43.356  35.504  30.235  1.00  0.00     0.023 A 
ATOM     88  C   UNL A   1      43.393  36.425  29.169  1.00  0.00     0.012 A 
ATOM     89  C   UNL A   1      43.636  35.952  31.542  1.00  0.00     0.148 A 
ATOM     90  C   UNL A   1      43.759  37.752  29.392  1.00  0.00     0.002 A 
ATOM     91  C   UNL A   1      43.940  37.289  31.765  1.00  0.00     0.091 A 
ATOM     92  F   UNL A   1      43.609  35.061  32.544  1.00  0.00    -0.205 F 
ATOM     93  C   UNL A   1      44.023  38.186  30.689  1.00  0.00     0.022 A 
BRANCH  91  94
ATOM     94  S   UNL A   1      44.192  37.955  33.414  1.00  0.00     0.127 S 
ATOM     95  O   UNL A   1      44.951  39.172  33.129  1.00  0.00    -0.237 OA
ATOM     96  O   UNL A   1      42.820  38.185  33.867  1.00  0.00    -0.237 OA
ATOM     97  O   UNL A   1      44.911  36.931  34.158  1.00  0.00    -0.744 OA
ENDBRANCH  91  94
ENDBRANCH  64  87
ENDBRANCH  38  39
ENDBRANCH  31  33
ENDBRANCH  30  31
ENDBRANCH  29  30
ENDBRANCH  28  29
ENDBRANCH  27  28
ENDBRANCH  26  27
ENDBRANCH  25  26
ENDBRANCH  24  25
ENDBRANCH   1  24
TORSDOF 30
ENDMDL
