MODEL 1
REMARK VINA RESULT:      -9.5      0.000      0.000
REMARK SMILES Cc1nn(C)c(=O)c(C(=O)N2CCCC[C@H]2C(=O)OCCOCCOCCOCCOC(=O)c2ccc(-c3c4nc(c(-c5cccc(S(=O)(=O)[O-])c5F)c5ccc([nH]5)c(-c5cccc(S(=O)(=O)[O-])c5F)c5nc(c(-c6cccc(S(=O)(=O)[O-])c6F)c6ccc3[nH]6)C=C5)C=C4)cc2)c1C
REMARK SMILES IDX 26 1 25 2 24 3 23 4 22 5 21 6 20 7 19 8 17 9 18 10 16 11
REMARK SMILES IDX 11 12 12 13 13 14 15 15 14 16 9 17 10 18 8 19 1 20 2 21 3 22
REMARK SMILES IDX 97 23 4 24 98 25 5 26 6 27 7 28 27 29 28 30 29 31 30 32
REMARK SMILES IDX 31 33 32 34 33 35 34 36 35 37 96 38 36 39 95 40 37 41 38 42
REMARK SMILES IDX 39 43 89 44 40 45 94 46 88 47 90 48 41 49 93 50 87 51 86 52
REMARK SMILES IDX 42 54 74 55 54 56 73 57 55 58 58 59 72 60 91 61 56 62 57 63
REMARK SMILES IDX 71 65 92 66 59 67 43 68 44 69 52 70 45 71 47 72 53 73 46 74
REMARK SMILES IDX 48 75 49 76 50 77 51 78 75 79 76 80 84 81 77 82 79 83 85 84
REMARK SMILES IDX 78 85 80 86 81 87 82 88 83 89 60 90 61 91 69 92 62 93 64 94
REMARK SMILES IDX 70 95 63 96 65 97 66 98 67 99 68 100
REMARK H PARENT 90 53 58 64
REMARK Flexibility Score: inf
ROOT
ATOM      1  C   UNL A   1      34.264  31.207  27.717  1.00  0.00     0.188 C 
ENDROOT
BRANCH   1   2
ATOM      2  O   UNL A   1      34.686  29.880  27.951  1.00  0.00    -0.377 OA
BRANCH   2   3
ATOM      3  C   UNL A   1      34.739  29.058  26.810  1.00  0.00     0.188 C 
BRANCH   3   4
ATOM      4  C   UNL A   1      33.379  28.462  26.423  1.00  0.00     0.188 C 
BRANCH   4   5
ATOM      5  O   UNL A   1      32.289  29.278  25.995  1.00  0.00    -0.376 OA
BRANCH   5   6
ATOM      6  C   UNL A   1      32.024  29.419  24.608  1.00  0.00     0.202 C 
BRANCH   6   7
ATOM      7  C   UNL A   1      32.891  28.574  23.658  1.00  0.00     0.261 C 
BRANCH   7   8
ATOM      8  O   UNL A   1      32.160  27.633  22.839  1.00  0.00    -0.462 OA
BRANCH   8   9
ATOM      9  C   UNL A   1      32.779  26.482  22.479  1.00  0.00     0.328 C 
ATOM     10  O   UNL A   1      33.672  26.426  21.638  1.00  0.00    -0.250 OA
BRANCH   9  11
ATOM     11  C   UNL A   1      32.323  25.229  23.291  1.00  0.00     0.195 C 
ATOM     12  N   UNL A   1      33.325  24.487  24.121  1.00  0.00    -0.325 N 
ATOM     13  C   UNL A   1      33.259  24.628  25.576  1.00  0.00     0.121 C 
ATOM     14  C   UNL A   1      31.863  24.493  26.146  1.00  0.00     0.022 C 
ATOM     15  C   UNL A   1      30.940  25.399  23.975  1.00  0.00     0.037 C 
ATOM     16  C   UNL A   1      30.905  25.474  25.500  1.00  0.00     0.005 C 
BRANCH  12  17
ATOM     17  C   UNL A   1      34.252  23.548  23.649  1.00  0.00     0.260 C 
ATOM     18  O   UNL A   1      34.875  23.721  22.597  1.00  0.00    -0.269 OA
BRANCH  17  19
ATOM     19  C   UNL A   1      34.405  22.227  24.313  1.00  0.00     0.111 A 
ATOM     20  C   UNL A   1      32.645  18.991  24.928  1.00  0.00     0.069 C 
ATOM     21  C   UNL A   1      33.799  19.927  24.655  1.00  0.00     0.062 A 
ATOM     22  N   UNL A   1      34.992  19.519  24.943  1.00  0.00    -0.175 NA
ATOM     23  C   UNL A   1      33.514  21.251  24.052  1.00  0.00    -0.010 A 
ATOM     24  N   UNL A   1      35.995  20.447  24.840  1.00  0.00    -0.232 N 
ATOM     25  C   UNL A   1      32.357  21.311  23.112  1.00  0.00     0.047 C 
ATOM     26  C   UNL A   1      37.344  19.925  24.913  1.00  0.00     0.178 C 
ATOM     27  C   UNL A   1      35.757  21.823  24.805  1.00  0.00     0.279 A 
ATOM     28  O   UNL A   1      36.615  22.665  25.062  1.00  0.00    -0.267 OA
ENDBRANCH  17  19
ENDBRANCH  12  17
ENDBRANCH   9  11
ENDBRANCH   8   9
ENDBRANCH   7   8
ENDBRANCH   6   7
ENDBRANCH   5   6
ENDBRANCH   4   5
ENDBRANCH   3   4
ENDBRANCH   2   3
ENDBRANCH   1   2
BRANCH   1  29
ATOM     29  C   UNL A   1      35.258  32.302  28.127  1.00  0.00     0.188 C 
BRANCH  29  30
ATOM     30  O   UNL A   1      34.762  33.622  27.878  1.00  0.00    -0.376 OA
BRANCH  30  31
ATOM     31  C   UNL A   1      33.354  33.811  27.960  1.00  0.00     0.202 C 
BRANCH  31  32
ATOM     32  C   UNL A   1      32.901  34.993  28.831  1.00  0.00     0.261 C 
BRANCH  32  33
ATOM     33  O   UNL A   1      33.797  35.400  29.876  1.00  0.00    -0.460 OA
BRANCH  33  34
ATOM     34  C   UNL A   1      33.459  35.115  31.158  1.00  0.00     0.338 C 
ATOM     35  O   UNL A   1      32.366  35.216  31.664  1.00  0.00    -0.246 OA
BRANCH  34  36
ATOM     36  C   UNL A   1      34.619  34.428  31.774  1.00  0.00     0.060 A 
ATOM     37  C   UNL A   1      35.907  34.905  31.490  1.00  0.00     0.016 A 
ATOM     38  C   UNL A   1      34.437  33.368  32.665  1.00  0.00     0.016 A 
ATOM     39  C   UNL A   1      37.020  34.308  32.083  1.00  0.00     0.010 A 
ATOM     40  C   UNL A   1      35.552  32.745  33.227  1.00  0.00     0.010 A 
ATOM     41  C   UNL A   1      36.847  33.192  32.911  1.00  0.00    -0.014 A 
BRANCH  41  42
ATOM     42  C   UNL A   1      38.006  32.332  33.238  1.00  0.00     0.031 A 
ATOM     43  C   UNL A   1      38.746  32.626  34.514  1.00  0.00     0.074 A 
ATOM     44  C   UNL A   1      38.407  31.338  32.428  1.00  0.00     0.049 A 
ATOM     45  N   UNL A   1      39.829  32.075  34.991  1.00  0.00    -0.248 NA
ATOM     46  C   UNL A   1      38.183  33.689  35.364  1.00  0.00     0.031 C 
ATOM     47  C   UNL A   1      37.746  30.937  31.189  1.00  0.00     0.029 A 
ATOM     48  N   UNL A   1      39.486  30.497  32.526  1.00  0.00    -0.354 N 
ATOM     49  C   UNL A   1      40.082  32.728  36.191  1.00  0.00     0.074 A 
ATOM     50  C   UNL A   1      39.054  33.731  36.359  1.00  0.00     0.031 C 
ATOM     51  C   UNL A   1      38.447  29.936  30.628  1.00  0.00     0.029 A 
ATOM     52  C   UNL A   1      39.621  29.649  31.453  1.00  0.00     0.049 A 
ATOM     53  H   UNL A   1      40.104  30.499  33.292  1.00  0.00     0.167 HD
ATOM     54  C   UNL A   1      41.071  32.503  37.086  1.00  0.00     0.034 A 
ATOM     55  C   UNL A   1      40.592  28.757  31.166  1.00  0.00     0.034 A 
ATOM     56  C   UNL A   1      42.104  31.521  36.904  1.00  0.00     0.049 A 
ATOM     57  C   UNL A   1      41.734  28.578  32.137  1.00  0.00     0.074 A 
ATOM     58  C   UNL A   1      43.166  31.226  37.738  1.00  0.00     0.029 A 
ATOM     59  N   UNL A   1      42.209  30.682  35.805  1.00  0.00    -0.354 N 
ATOM     60  N   UNL A   1      41.931  29.158  33.297  1.00  0.00    -0.248 NA
ATOM     61  C   UNL A   1      42.775  27.607  31.768  1.00  0.00     0.031 C 
ATOM     62  C   UNL A   1      43.927  30.221  37.132  1.00  0.00     0.029 A 
ATOM     63  C   UNL A   1      43.321  29.869  35.936  1.00  0.00     0.049 A 
ATOM     64  H   UNL A   1      41.584  30.667  35.044  1.00  0.00     0.167 HD
ATOM     65  C   UNL A   1      43.095  28.596  33.815  1.00  0.00     0.074 A 
ATOM     66  C   UNL A   1      43.551  27.620  32.846  1.00  0.00     0.031 C 
ATOM     67  C   UNL A   1      43.735  28.871  34.980  1.00  0.00     0.034 A 
BRANCH  54  68
ATOM     68  C   UNL A   1      41.058  33.324  38.348  1.00  0.00     0.023 A 
ATOM     69  C   UNL A   1      40.331  32.863  39.465  1.00  0.00     0.012 A 
ATOM     70  C   UNL A   1      41.775  34.532  38.441  1.00  0.00     0.148 A 
ATOM     71  C   UNL A   1      40.289  33.607  40.643  1.00  0.00     0.002 A 
ATOM     72  C   UNL A   1      41.768  35.244  39.635  1.00  0.00     0.091 A 
ATOM     73  F   UNL A   1      42.433  34.971  37.359  1.00  0.00    -0.205 F 
ATOM     74  C   UNL A   1      41.016  34.790  40.732  1.00  0.00     0.022 A 
BRANCH  72  75
ATOM     75  S   UNL A   1      42.732  36.740  39.874  1.00  0.00     0.127 S 
ATOM     76  O   UNL A   1      42.112  37.648  38.910  1.00  0.00    -0.237 OA
ATOM     77  O   UNL A   1      42.459  37.061  41.276  1.00  0.00    -0.237 OA
ATOM     78  O   UNL A   1      44.113  36.375  39.593  1.00  0.00    -0.744 OA
ENDBRANCH  72  75
ENDBRANCH  54  68
BRANCH  55  79
ATOM     79  C   UNL A   1      40.488  27.923  29.934  1.00  0.00     0.023 A 
ATOM     80  C   UNL A   1      39.529  26.893  29.883  1.00  0.00     0.012 A 
ATOM     81  C   UNL A   1      41.281  28.179  28.797  1.00  0.00     0.148 A 
ATOM     82  C   UNL A   1      39.366  26.128  28.727  1.00  0.00     0.002 A 
ATOM     83  C   UNL A   1      41.073  27.452  27.631  1.00  0.00     0.091 A 
ATOM     84  F   UNL A   1      42.198  29.153  28.873  1.00  0.00    -0.205 F 
ATOM     85  C   UNL A   1      40.127  26.416  27.597  1.00  0.00     0.022 A 
BRANCH  83  86
ATOM     86  S   UNL A   1      41.906  27.838  26.085  1.00  0.00     0.127 S 
ATOM     87  O   UNL A   1      41.509  26.713  25.241  1.00  0.00    -0.237 OA
ATOM     88  O   UNL A   1      41.297  29.120  25.734  1.00  0.00    -0.237 OA
ATOM     89  O   UNL A   1      43.325  27.908  26.405  1.00  0.00    -0.744 OA
ENDBRANCH  83  86
ENDBRANCH  55  79
BRANCH  67  90
ATOM     90  C   UNL A   1      44.989  28.094  35.298  1.00  0.00     0.023 A 
ATOM     91  C   UNL A   1      46.244  28.602  34.913  1.00  0.00     0.012 A 
ATOM     92  C   UNL A   1      44.928  26.914  36.068  1.00  0.00     0.148 A 
ATOM     93  C   UNL A   1      47.418  27.934  35.263  1.00  0.00     0.002 A 
ATOM     94  C   UNL A   1      46.104  26.282  36.458  1.00  0.00     0.091 A 
ATOM     95  F   UNL A   1      43.723  26.436  36.413  1.00  0.00    -0.205 F 
ATOM     96  C   UNL A   1      47.349  26.784  36.046  1.00  0.00     0.022 A 
BRANCH  94  97
ATOM     97  S   UNL A   1      46.114  24.860  37.555  1.00  0.00     0.127 S 
ATOM     98  O   UNL A   1      47.353  25.068  38.302  1.00  0.00    -0.237 OA
ATOM     99  O   UNL A   1      44.890  25.057  38.333  1.00  0.00    -0.237 OA
ATOM    100  O   UNL A   1      46.094  23.687  36.690  1.00  0.00    -0.744 OA
ENDBRANCH  94  97
ENDBRANCH  67  90
ENDBRANCH  41  42
ENDBRANCH  34  36
ENDBRANCH  33  34
ENDBRANCH  32  33
ENDBRANCH  31  32
ENDBRANCH  30  31
ENDBRANCH  29  30
ENDBRANCH   1  29
TORSDOF 25
ENDMDL
MODEL 2
REMARK VINA RESULT:      -9.0      1.653      2.081
REMARK SMILES Cc1nn(C)c(=O)c(C(=O)N2CCCC[C@H]2C(=O)OCCOCCOCCOCCOC(=O)c2ccc(-c3c4nc(c(-c5cccc(S(=O)(=O)[O-])c5F)c5ccc([nH]5)c(-c5cccc(S(=O)(=O)[O-])c5F)c5nc(c(-c6cccc(S(=O)(=O)[O-])c6F)c6ccc3[nH]6)C=C5)C=C4)cc2)c1C
REMARK SMILES IDX 26 1 25 2 24 3 23 4 22 5 21 6 20 7 19 8 17 9 18 10 16 11
REMARK SMILES IDX 11 12 12 13 13 14 15 15 14 16 9 17 10 18 8 19 1 20 2 21 3 22
REMARK SMILES IDX 97 23 4 24 98 25 5 26 6 27 7 28 27 29 28 30 29 31 30 32
REMARK SMILES IDX 31 33 32 34 33 35 34 36 35 37 96 38 36 39 95 40 37 41 38 42
REMARK SMILES IDX 39 43 89 44 40 45 94 46 88 47 90 48 41 49 93 50 87 51 86 52
REMARK SMILES IDX 42 54 74 55 54 56 73 57 55 58 58 59 72 60 91 61 56 62 57 63
REMARK SMILES IDX 71 65 92 66 59 67 43 68 44 69 52 70 45 71 47 72 53 73 46 74
REMARK SMILES IDX 48 75 49 76 50 77 51 78 75 79 76 80 84 81 77 82 79 83 85 84
REMARK SMILES IDX 78 85 80 86 81 87 82 88 83 89 60 90 61 91 69 92 62 93 64 94
REMARK SMILES IDX 70 95 63 96 65 97 66 98 67 99 68 100
REMARK H PARENT 90 53 58 64
REMARK Flexibility Score: inf
ROOT
ATOM      1  C   UNL A   1      33.862  31.179  27.627  1.00  0.00     0.188 C 
ENDROOT
BRANCH   1   2
ATOM      2  O   UNL A   1      34.140  29.795  27.652  1.00  0.00    -0.377 OA
BRANCH   2   3
ATOM      3  C   UNL A   1      34.387  29.211  26.395  1.00  0.00     0.188 C 
BRANCH   3   4
ATOM      4  C   UNL A   1      33.700  27.852  26.208  1.00  0.00     0.188 C 
BRANCH   4   5
ATOM      5  O   UNL A   1      32.454  27.720  25.524  1.00  0.00    -0.376 OA
BRANCH   5   6
ATOM      6  C   UNL A   1      32.061  28.715  24.591  1.00  0.00     0.202 C 
BRANCH   6   7
ATOM      7  C   UNL A   1      32.565  28.536  23.148  1.00  0.00     0.261 C 
BRANCH   7   8
ATOM      8  O   UNL A   1      31.887  27.509  22.388  1.00  0.00    -0.462 OA
BRANCH   8   9
ATOM      9  C   UNL A   1      32.576  26.382  22.081  1.00  0.00     0.328 C 
ATOM     10  O   UNL A   1      33.588  26.373  21.387  1.00  0.00    -0.250 OA
BRANCH   9  11
ATOM     11  C   UNL A   1      32.022  25.089  22.760  1.00  0.00     0.195 C 
ATOM     12  N   UNL A   1      32.905  24.309  23.684  1.00  0.00    -0.325 N 
ATOM     13  C   UNL A   1      32.635  24.377  25.121  1.00  0.00     0.121 C 
ATOM     14  C   UNL A   1      31.175  24.212  25.483  1.00  0.00     0.022 C 
ATOM     15  C   UNL A   1      30.555  25.223  23.251  1.00  0.00     0.037 C 
ATOM     16  C   UNL A   1      30.307  25.222  24.758  1.00  0.00     0.005 C 
BRANCH  12  17
ATOM     17  C   UNL A   1      33.896  23.396  23.301  1.00  0.00     0.260 C 
ATOM     18  O   UNL A   1      34.516  23.517  22.240  1.00  0.00    -0.269 OA
BRANCH  17  19
ATOM     19  C   UNL A   1      34.129  22.152  24.080  1.00  0.00     0.111 A 
ATOM     20  C   UNL A   1      32.615  18.843  24.916  1.00  0.00     0.069 C 
ATOM     21  C   UNL A   1      33.699  19.846  24.600  1.00  0.00     0.062 A 
ATOM     22  N   UNL A   1      34.909  19.564  24.958  1.00  0.00    -0.175 NA
ATOM     23  C   UNL A   1      33.331  21.087  23.877  1.00  0.00    -0.010 A 
ATOM     24  N   UNL A   1      35.837  20.561  24.807  1.00  0.00    -0.232 N 
ATOM     25  C   UNL A   1      32.208  20.972  22.900  1.00  0.00     0.047 C 
ATOM     26  C   UNL A   1      37.220  20.161  24.965  1.00  0.00     0.178 C 
ATOM     27  C   UNL A   1      35.491  21.905  24.647  1.00  0.00     0.279 A 
ATOM     28  O   UNL A   1      36.268  22.834  24.856  1.00  0.00    -0.267 OA
ENDBRANCH  17  19
ENDBRANCH  12  17
ENDBRANCH   9  11
ENDBRANCH   8   9
ENDBRANCH   7   8
ENDBRANCH   6   7
ENDBRANCH   5   6
ENDBRANCH   4   5
ENDBRANCH   3   4
ENDBRANCH   2   3
ENDBRANCH   1   2
BRANCH   1  29
ATOM     29  C   UNL A   1      34.986  32.090  28.140  1.00  0.00     0.188 C 
BRANCH  29  30
ATOM     30  O   UNL A   1      34.851  33.443  27.689  1.00  0.00    -0.376 OA
BRANCH  30  31
ATOM     31  C   UNL A   1      33.543  34.003  27.701  1.00  0.00     0.202 C 
BRANCH  31  32
ATOM     32  C   UNL A   1      33.247  34.952  28.872  1.00  0.00     0.261 C 
BRANCH  32  33
ATOM     33  O   UNL A   1      34.203  34.968  29.942  1.00  0.00    -0.460 OA
BRANCH  33  34
ATOM     34  C   UNL A   1      33.747  34.836  31.212  1.00  0.00     0.338 C 
ATOM     35  O   UNL A   1      32.605  34.939  31.592  1.00  0.00    -0.246 OA
BRANCH  34  36
ATOM     36  C   UNL A   1      34.867  34.303  32.027  1.00  0.00     0.060 A 
ATOM     37  C   UNL A   1      35.975  35.130  32.259  1.00  0.00     0.016 A 
ATOM     38  C   UNL A   1      34.798  33.032  32.600  1.00  0.00     0.016 A 
ATOM     39  C   UNL A   1      37.030  34.677  33.053  1.00  0.00     0.010 A 
ATOM     40  C   UNL A   1      35.869  32.564  33.361  1.00  0.00     0.010 A 
ATOM     41  C   UNL A   1      37.002  33.372  33.561  1.00  0.00    -0.014 A 
BRANCH  41  42
ATOM     42  C   UNL A   1      38.246  32.755  34.074  1.00  0.00     0.031 A 
ATOM     43  C   UNL A   1      38.619  33.038  35.502  1.00  0.00     0.074 A 
ATOM     44  C   UNL A   1      39.032  31.988  33.300  1.00  0.00     0.049 A 
ATOM     45  N   UNL A   1      39.685  32.684  36.167  1.00  0.00    -0.248 NA
ATOM     46  C   UNL A   1      37.653  33.830  36.284  1.00  0.00     0.031 C 
ATOM     47  C   UNL A   1      38.753  31.615  31.916  1.00  0.00     0.029 A 
ATOM     48  N   UNL A   1      40.242  31.402  33.573  1.00  0.00    -0.354 N 
ATOM     49  C   UNL A   1      39.523  33.215  37.441  1.00  0.00     0.074 A 
ATOM     50  C   UNL A   1      38.270  33.934  37.450  1.00  0.00     0.031 C 
ATOM     51  C   UNL A   1      39.776  30.877  31.451  1.00  0.00     0.029 A 
ATOM     52  C   UNL A   1      40.794  30.752  32.495  1.00  0.00     0.049 A 
ATOM     53  H   UNL A   1      40.673  31.442  34.457  1.00  0.00     0.167 HD
ATOM     54  C   UNL A   1      40.337  33.101  38.516  1.00  0.00     0.034 A 
ATOM     55  C   UNL A   1      41.991  30.143  32.366  1.00  0.00     0.034 A 
ATOM     56  C   UNL A   1      41.593  32.405  38.496  1.00  0.00     0.049 A 
ATOM     57  C   UNL A   1      42.922  30.098  33.553  1.00  0.00     0.074 A 
ATOM     58  C   UNL A   1      42.505  32.247  39.523  1.00  0.00     0.029 A 
ATOM     59  N   UNL A   1      42.119  31.759  37.387  1.00  0.00    -0.354 N 
ATOM     60  N   UNL A   1      42.733  30.550  34.770  1.00  0.00    -0.248 NA
ATOM     61  C   UNL A   1      44.222  29.438  33.354  1.00  0.00     0.031 C 
ATOM     62  C   UNL A   1      43.595  31.522  39.028  1.00  0.00     0.029 A 
ATOM     63  C   UNL A   1      43.347  31.203  37.701  1.00  0.00     0.049 A 
ATOM     64  H   UNL A   1      41.684  31.705  36.505  1.00  0.00     0.167 HD
ATOM     65  C   UNL A   1      43.871  30.198  35.492  1.00  0.00     0.074 A 
ATOM     66  C   UNL A   1      44.737  29.482  34.577  1.00  0.00     0.031 C 
ATOM     67  C   UNL A   1      44.176  30.454  36.789  1.00  0.00     0.034 A 
BRANCH  54  68
ATOM     68  C   UNL A   1      39.870  33.727  39.803  1.00  0.00     0.023 A 
ATOM     69  C   UNL A   1      39.211  32.929  40.761  1.00  0.00     0.012 A 
ATOM     70  C   UNL A   1      40.097  35.089  40.077  1.00  0.00     0.148 A 
ATOM     71  C   UNL A   1      38.754  33.483  41.956  1.00  0.00     0.002 A 
ATOM     72  C   UNL A   1      39.682  35.624  41.291  1.00  0.00     0.091 A 
ATOM     73  F   UNL A   1      40.695  35.840  39.141  1.00  0.00    -0.205 F 
ATOM     74  C   UNL A   1      39.000  34.826  42.226  1.00  0.00     0.022 A 
BRANCH  72  75
ATOM     75  S   UNL A   1      40.018  37.323  41.765  1.00  0.00     0.127 S 
ATOM     76  O   UNL A   1      39.106  38.059  40.891  1.00  0.00    -0.237 OA
ATOM     77  O   UNL A   1      39.642  37.328  43.180  1.00  0.00    -0.237 OA
ATOM     78  O   UNL A   1      41.435  37.536  41.513  1.00  0.00    -0.744 OA
ENDBRANCH  72  75
ENDBRANCH  54  68
BRANCH  55  79
ATOM     79  C   UNL A   1      42.344  29.474  31.081  1.00  0.00     0.023 A 
ATOM     80  C   UNL A   1      41.835  28.187  30.815  1.00  0.00     0.012 A 
ATOM     81  C   UNL A   1      43.121  30.121  30.099  1.00  0.00     0.148 A 
ATOM     82  C   UNL A   1      42.100  27.554  29.601  1.00  0.00     0.002 A 
ATOM     83  C   UNL A   1      43.332  29.507  28.869  1.00  0.00     0.091 A 
ATOM     84  F   UNL A   1      43.608  31.337  30.378  1.00  0.00    -0.205 F 
ATOM     85  C   UNL A   1      42.836  28.218  28.623  1.00  0.00     0.022 A 
BRANCH  83  86
ATOM     86  S   UNL A   1      44.149  30.335  27.499  1.00  0.00     0.127 S 
ATOM     87  O   UNL A   1      43.555  29.664  26.345  1.00  0.00    -0.237 OA
ATOM     88  O   UNL A   1      43.723  31.721  27.695  1.00  0.00    -0.237 OA
ATOM     89  O   UNL A   1      45.575  30.106  27.689  1.00  0.00    -0.744 OA
ENDBRANCH  83  86
ENDBRANCH  55  79
BRANCH  67  90
ATOM     90  C   UNL A   1      45.491  29.940  37.320  1.00  0.00     0.023 A 
ATOM     91  C   UNL A   1      46.624  30.777  37.315  1.00  0.00     0.012 A 
ATOM     92  C   UNL A   1      45.577  28.666  37.919  1.00  0.00     0.148 A 
ATOM     93  C   UNL A   1      47.829  30.344  37.869  1.00  0.00     0.002 A 
ATOM     94  C   UNL A   1      46.766  28.262  38.515  1.00  0.00     0.091 A 
ATOM     95  F   UNL A   1      44.493  27.876  37.901  1.00  0.00    -0.205 F 
ATOM     96  C   UNL A   1      47.896  29.094  38.481  1.00  0.00     0.022 A 
BRANCH  94  97
ATOM     97  S   UNL A   1      46.911  26.716  39.420  1.00  0.00     0.127 S 
ATOM     98  O   UNL A   1      46.711  25.730  38.359  1.00  0.00    -0.237 OA
ATOM     99  O   UNL A   1      48.277  26.786  39.939  1.00  0.00    -0.237 OA
ATOM    100  O   UNL A   1      45.875  26.753  40.444  1.00  0.00    -0.744 OA
ENDBRANCH  94  97
ENDBRANCH  67  90
ENDBRANCH  41  42
ENDBRANCH  34  36
ENDBRANCH  33  34
ENDBRANCH  32  33
ENDBRANCH  31  32
ENDBRANCH  30  31
ENDBRANCH  29  30
ENDBRANCH   1  29
TORSDOF 25
ENDMDL
MODEL 3
REMARK VINA RESULT:      -8.3      6.187     10.443
REMARK SMILES Cc1nn(C)c(=O)c(C(=O)N2CCCC[C@H]2C(=O)OCCOCCOCCOCCOC(=O)c2ccc(-c3c4nc(c(-c5cccc(S(=O)(=O)[O-])c5F)c5ccc([nH]5)c(-c5cccc(S(=O)(=O)[O-])c5F)c5nc(c(-c6cccc(S(=O)(=O)[O-])c6F)c6ccc3[nH]6)C=C5)C=C4)cc2)c1C
REMARK SMILES IDX 26 1 25 2 24 3 23 4 22 5 21 6 20 7 19 8 17 9 18 10 16 11
REMARK SMILES IDX 11 12 12 13 13 14 15 15 14 16 9 17 10 18 8 19 1 20 2 21 3 22
REMARK SMILES IDX 97 23 4 24 98 25 5 26 6 27 7 28 27 29 28 30 29 31 30 32
REMARK SMILES IDX 31 33 32 34 33 35 34 36 35 37 96 38 36 39 95 40 37 41 38 42
REMARK SMILES IDX 39 43 89 44 40 45 94 46 88 47 90 48 41 49 93 50 87 51 86 52
REMARK SMILES IDX 42 54 74 55 54 56 73 57 55 58 58 59 72 60 91 61 56 62 57 63
REMARK SMILES IDX 71 65 92 66 59 67 43 68 44 69 52 70 45 71 47 72 53 73 46 74
REMARK SMILES IDX 48 75 49 76 50 77 51 78 75 79 76 80 84 81 77 82 79 83 85 84
REMARK SMILES IDX 78 85 80 86 81 87 82 88 83 89 60 90 61 91 69 92 62 93 64 94
REMARK SMILES IDX 70 95 63 96 65 97 66 98 67 99 68 100
REMARK H PARENT 90 53 58 64
REMARK Flexibility Score: inf
ROOT
ATOM      1  C   UNL A   1      34.469  29.755  27.779  1.00  0.00     0.188 C 
ENDROOT
BRANCH   1   2
ATOM      2  O   UNL A   1      33.911  28.521  27.381  1.00  0.00    -0.377 OA
BRANCH   2   3
ATOM      3  C   UNL A   1      32.559  28.571  26.994  1.00  0.00     0.188 C 
BRANCH   3   4
ATOM      4  C   UNL A   1      32.283  29.573  25.865  1.00  0.00     0.188 C 
BRANCH   4   5
ATOM      5  O   UNL A   1      33.079  29.618  24.681  1.00  0.00    -0.376 OA
BRANCH   5   6
ATOM      6  C   UNL A   1      33.517  28.405  24.088  1.00  0.00     0.202 C 
BRANCH   6   7
ATOM      7  C   UNL A   1      33.427  28.324  22.554  1.00  0.00     0.261 C 
BRANCH   7   8
ATOM      8  O   UNL A   1      32.825  27.113  22.041  1.00  0.00    -0.462 OA
BRANCH   8   9
ATOM      9  C   UNL A   1      31.527  26.867  22.342  1.00  0.00     0.328 C 
ATOM     10  O   UNL A   1      30.593  27.548  21.928  1.00  0.00    -0.250 OA
BRANCH   9  11
ATOM     11  C   UNL A   1      31.301  25.580  23.198  1.00  0.00     0.195 C 
ATOM     12  N   UNL A   1      32.447  25.001  23.968  1.00  0.00    -0.325 N 
ATOM     13  C   UNL A   1      32.455  25.161  25.423  1.00  0.00     0.121 C 
ATOM     14  C   UNL A   1      31.130  24.847  26.085  1.00  0.00     0.022 C 
ATOM     15  C   UNL A   1      29.953  25.572  23.968  1.00  0.00     0.037 C 
ATOM     16  C   UNL A   1      30.006  25.674  25.492  1.00  0.00     0.005 C 
BRANCH  12  17
ATOM     17  C   UNL A   1      33.463  24.188  23.448  1.00  0.00     0.260 C 
ATOM     18  O   UNL A   1      33.981  24.419  22.351  1.00  0.00    -0.269 OA
BRANCH  17  19
ATOM     19  C   UNL A   1      33.846  22.920  24.122  1.00  0.00     0.111 A 
ATOM     20  C   UNL A   1      32.736  19.398  24.676  1.00  0.00     0.069 C 
ATOM     21  C   UNL A   1      33.692  20.545  24.447  1.00  0.00     0.062 A 
ATOM     22  N   UNL A   1      34.930  20.378  24.784  1.00  0.00    -0.175 NA
ATOM     23  C   UNL A   1      33.176  21.789  23.828  1.00  0.00    -0.010 A 
ATOM     24  N   UNL A   1      35.733  21.486  24.718  1.00  0.00    -0.232 N 
ATOM     25  C   UNL A   1      32.068  21.624  22.843  1.00  0.00     0.047 C 
ATOM     26  C   UNL A   1      37.155  21.239  24.846  1.00  0.00     0.178 C 
ATOM     27  C   UNL A   1      35.231  22.788  24.669  1.00  0.00     0.279 A 
ATOM     28  O   UNL A   1      35.895  23.782  24.957  1.00  0.00    -0.267 OA
ENDBRANCH  17  19
ENDBRANCH  12  17
ENDBRANCH   9  11
ENDBRANCH   8   9
ENDBRANCH   7   8
ENDBRANCH   6   7
ENDBRANCH   5   6
ENDBRANCH   4   5
ENDBRANCH   3   4
ENDBRANCH   2   3
ENDBRANCH   1   2
BRANCH   1  29
ATOM     29  C   UNL A   1      35.977  29.911  27.536  1.00  0.00     0.188 C 
BRANCH  29  30
ATOM     30  O   UNL A   1      36.762  29.521  28.668  1.00  0.00    -0.376 OA
BRANCH  30  31
ATOM     31  C   UNL A   1      38.070  29.024  28.409  1.00  0.00     0.202 C 
BRANCH  31  32
ATOM     32  C   UNL A   1      38.641  28.090  29.487  1.00  0.00     0.261 C 
BRANCH  32  33
ATOM     33  O   UNL A   1      40.063  27.892  29.477  1.00  0.00    -0.460 OA
BRANCH  33  34
ATOM     34  C   UNL A   1      40.555  26.805  28.831  1.00  0.00     0.338 C 
ATOM     35  O   UNL A   1      39.984  26.121  28.016  1.00  0.00    -0.246 OA
BRANCH  34  36
ATOM     36  C   UNL A   1      42.007  26.743  29.125  1.00  0.00     0.060 A 
ATOM     37  C   UNL A   1      42.685  25.539  28.885  1.00  0.00     0.016 A 
ATOM     38  C   UNL A   1      42.700  27.869  29.572  1.00  0.00     0.016 A 
ATOM     39  C   UNL A   1      44.060  25.454  29.112  1.00  0.00     0.010 A 
ATOM     40  C   UNL A   1      44.066  27.774  29.836  1.00  0.00     0.010 A 
ATOM     41  C   UNL A   1      44.743  26.557  29.639  1.00  0.00    -0.014 A 
BRANCH  41  42
ATOM     42  C   UNL A   1      46.088  26.376  30.229  1.00  0.00     0.031 A 
ATOM     43  C   UNL A   1      47.271  26.742  29.377  1.00  0.00     0.074 A 
ATOM     44  C   UNL A   1      46.263  25.887  31.468  1.00  0.00     0.049 A 
ATOM     45  N   UNL A   1      48.545  26.611  29.625  1.00  0.00    -0.248 NA
ATOM     46  C   UNL A   1      46.969  27.338  28.063  1.00  0.00     0.031 C 
ATOM     47  C   UNL A   1      45.193  25.535  32.398  1.00  0.00     0.029 A 
ATOM     48  N   UNL A   1      47.416  25.583  32.145  1.00  0.00    -0.354 N 
ATOM     49  C   UNL A   1      49.197  27.099  28.499  1.00  0.00     0.074 A 
ATOM     50  C   UNL A   1      48.180  27.507  27.557  1.00  0.00     0.031 C 
ATOM     51  C   UNL A   1      45.741  25.043  33.523  1.00  0.00     0.029 A 
ATOM     52  C   UNL A   1      47.197  25.017  33.378  1.00  0.00     0.049 A 
ATOM     53  H   UNL A   1      48.316  25.756  31.784  1.00  0.00     0.167 HD
ATOM     54  C   UNL A   1      50.526  27.214  28.272  1.00  0.00     0.034 A 
ATOM     55  C   UNL A   1      48.074  24.520  34.275  1.00  0.00     0.034 A 
ATOM     56  C   UNL A   1      51.534  26.787  29.202  1.00  0.00     0.049 A 
ATOM     57  C   UNL A   1      49.551  24.582  33.970  1.00  0.00     0.074 A 
ATOM     58  C   UNL A   1      52.908  26.838  29.064  1.00  0.00     0.029 A 
ATOM     59  N   UNL A   1      51.275  26.217  30.440  1.00  0.00    -0.354 N 
ATOM     60  N   UNL A   1      50.158  25.100  32.929  1.00  0.00    -0.248 NA
ATOM     61  C   UNL A   1      50.463  24.011  34.973  1.00  0.00     0.031 C 
ATOM     62  C   UNL A   1      53.481  26.279  30.211  1.00  0.00     0.029 A 
ATOM     63  C   UNL A   1      52.464  25.908  31.076  1.00  0.00     0.049 A 
ATOM     64  H   UNL A   1      50.377  26.055  30.810  1.00  0.00     0.167 HD
ATOM     65  C   UNL A   1      51.522  24.952  33.167  1.00  0.00     0.074 A 
ATOM     66  C   UNL A   1      51.650  24.308  34.459  1.00  0.00     0.031 C 
ATOM     67  C   UNL A   1      52.572  25.307  32.383  1.00  0.00     0.034 A 
BRANCH  54  68
ATOM     68  C   UNL A   1      50.951  27.851  26.977  1.00  0.00     0.023 A 
ATOM     69  C   UNL A   1      51.141  27.041  25.837  1.00  0.00     0.012 A 
ATOM     70  C   UNL A   1      51.144  29.242  26.875  1.00  0.00     0.148 A 
ATOM     71  C   UNL A   1      51.548  27.600  24.627  1.00  0.00     0.002 A 
ATOM     72  C   UNL A   1      51.502  29.798  25.652  1.00  0.00     0.091 A 
ATOM     73  F   UNL A   1      50.991  29.992  27.975  1.00  0.00    -0.205 F 
ATOM     74  C   UNL A   1      51.717  28.978  24.531  1.00  0.00     0.022 A 
BRANCH  72  75
ATOM     75  S   UNL A   1      51.671  31.569  25.407  1.00  0.00     0.127 S 
ATOM     76  O   UNL A   1      50.446  32.070  26.028  1.00  0.00    -0.237 OA
ATOM     77  O   UNL A   1      52.897  31.867  26.151  1.00  0.00    -0.237 OA
ATOM     78  O   UNL A   1      51.770  31.766  23.969  1.00  0.00    -0.744 OA
ENDBRANCH  72  75
ENDBRANCH  54  68
BRANCH  55  79
ATOM     79  C   UNL A   1      47.576  23.981  35.574  1.00  0.00     0.023 A 
ATOM     80  C   UNL A   1      47.148  24.879  36.571  1.00  0.00     0.012 A 
ATOM     81  C   UNL A   1      47.463  22.595  35.805  1.00  0.00     0.148 A 
ATOM     82  C   UNL A   1      46.626  24.409  37.776  1.00  0.00     0.002 A 
ATOM     83  C   UNL A   1      46.888  22.134  36.984  1.00  0.00     0.091 A 
ATOM     84  F   UNL A   1      47.890  21.757  34.850  1.00  0.00    -0.205 F 
ATOM     85  C   UNL A   1      46.483  23.039  37.978  1.00  0.00     0.022 A 
BRANCH  83  86
ATOM     86  S   UNL A   1      46.535  20.397  37.279  1.00  0.00     0.127 S 
ATOM     87  O   UNL A   1      45.635  20.081  36.173  1.00  0.00    -0.237 OA
ATOM     88  O   UNL A   1      47.868  19.804  37.180  1.00  0.00    -0.237 OA
ATOM     89  O   UNL A   1      45.939  20.333  38.606  1.00  0.00    -0.744 OA
ENDBRANCH  83  86
ENDBRANCH  55  79
BRANCH  67  90
ATOM     90  C   UNL A   1      53.963  25.033  32.900  1.00  0.00     0.023 A 
ATOM     91  C   UNL A   1      54.610  23.828  32.567  1.00  0.00     0.012 A 
ATOM     92  C   UNL A   1      54.666  26.016  33.628  1.00  0.00     0.148 A 
ATOM     93  C   UNL A   1      55.923  23.590  32.975  1.00  0.00     0.002 A 
ATOM     94  C   UNL A   1      55.991  25.794  33.986  1.00  0.00     0.091 A 
ATOM     95  F   UNL A   1      54.030  27.152  33.949  1.00  0.00    -0.205 F 
ATOM     96  C   UNL A   1      56.617  24.577  33.670  1.00  0.00     0.022 A 
BRANCH  94  97
ATOM     97  S   UNL A   1      56.994  27.051  34.787  1.00  0.00     0.127 S 
ATOM     98  O   UNL A   1      58.260  26.345  34.978  1.00  0.00    -0.237 OA
ATOM     99  O   UNL A   1      57.032  28.110  33.778  1.00  0.00    -0.237 OA
ATOM    100  O   UNL A   1      56.287  27.409  36.009  1.00  0.00    -0.744 OA
ENDBRANCH  94  97
ENDBRANCH  67  90
ENDBRANCH  41  42
ENDBRANCH  34  36
ENDBRANCH  33  34
ENDBRANCH  32  33
ENDBRANCH  31  32
ENDBRANCH  30  31
ENDBRANCH  29  30
ENDBRANCH   1  29
TORSDOF 25
ENDMDL
