MODEL 1
REMARK VINA RESULT:     -10.9      0.000      0.000
REMARK SMILES O=C(OCCOCCOCCOCCOC(=O)c1ccc2c(c1)[C@@H]1C=CC[C@@H]1[C@H](c1ccncc1)N2)c1ccc(-c2c3nc(c(-c4cccc(S(=O)(=O)[O-])c4F)c4ccc([nH]4)c(-c4cccc(S(=O)(=O)[O-])c4F)c4nc(c(-c5cccc(S(=O)(=O)[O-])c5F)c5ccc2[nH]5)C=C4)C=C3)cc1
REMARK SMILES IDX 8 1 7 2 6 3 5 4 4 5 3 6 2 7 1 8 37 9 38 10 99 11 39 12 98 13
REMARK SMILES IDX 40 14 41 15 42 16 92 17 43 18 97 19 91 20 93 21 44 22 96 23
REMARK SMILES IDX 90 24 89 25 45 27 77 28 57 29 76 30 58 31 61 32 75 33 94 34
REMARK SMILES IDX 59 35 60 36 74 38 95 39 62 40 46 41 47 42 55 43 48 44 50 45
REMARK SMILES IDX 56 46 49 47 51 48 52 49 53 50 54 51 78 52 79 53 87 54 80 55
REMARK SMILES IDX 82 56 88 57 81 58 83 59 84 60 85 61 86 62 63 63 64 64 72 65
REMARK SMILES IDX 65 66 67 67 73 68 66 69 68 70 69 71 70 72 71 73 9 74 10 75
REMARK SMILES IDX 11 76 12 77 13 78 14 79 15 80 16 81 17 82 18 83 19 84 23 85
REMARK SMILES IDX 20 86 22 87 21 88 24 89 36 90 25 91 28 92 29 93 26 95 27 96
REMARK SMILES IDX 30 97 31 98 35 99 32 100 34 101 33 102
REMARK H PARENT 93 26 61 37 36 94
REMARK Flexibility Score: inf
ROOT
ATOM      1  C   UNL A   1      32.252  27.623  27.184  1.00  0.00     0.188 C 
ENDROOT
BRANCH   1   2
ATOM      2  C   UNL A   1      32.667  29.018  26.713  1.00  0.00     0.188 C 
BRANCH   2   3
ATOM      3  O   UNL A   1      31.744  30.006  27.159  1.00  0.00    -0.376 OA
BRANCH   3   4
ATOM      4  C   UNL A   1      31.854  31.320  26.625  1.00  0.00     0.202 C 
BRANCH   4   5
ATOM      5  C   UNL A   1      33.010  32.162  27.165  1.00  0.00     0.261 C 
BRANCH   5   6
ATOM      6  O   UNL A   1      32.611  33.439  27.684  1.00  0.00    -0.460 OA
BRANCH   6   7
ATOM      7  C   UNL A   1      33.241  34.208  28.608  1.00  0.00     0.338 C 
ATOM      8  O   UNL A   1      32.803  35.339  28.815  1.00  0.00    -0.246 OA
BRANCH   7   9
ATOM      9  C   UNL A   1      34.434  33.765  29.390  1.00  0.00     0.060 A 
ATOM     10  C   UNL A   1      35.747  34.149  29.129  1.00  0.00     0.016 A 
ATOM     11  C   UNL A   1      34.202  32.978  30.529  1.00  0.00     0.016 A 
ATOM     12  C   UNL A   1      36.811  33.710  29.891  1.00  0.00     0.010 A 
ATOM     13  C   UNL A   1      35.264  32.563  31.339  1.00  0.00     0.010 A 
ATOM     14  C   UNL A   1      36.577  32.909  30.995  1.00  0.00    -0.014 A 
BRANCH  14  15
ATOM     15  C   UNL A   1      37.756  32.329  31.650  1.00  0.00     0.031 A 
ATOM     16  C   UNL A   1      38.492  31.255  30.915  1.00  0.00     0.074 A 
ATOM     17  C   UNL A   1      38.225  32.875  32.786  1.00  0.00     0.049 A 
ATOM     18  N   UNL A   1      39.519  30.552  31.298  1.00  0.00    -0.248 NA
ATOM     19  C   UNL A   1      38.019  30.940  29.553  1.00  0.00     0.031 C 
ATOM     20  C   UNL A   1      37.637  34.030  33.476  1.00  0.00     0.029 A 
ATOM     21  N   UNL A   1      39.308  32.548  33.553  1.00  0.00    -0.354 N 
ATOM     22  C   UNL A   1      39.766  29.663  30.260  1.00  0.00     0.074 A 
ATOM     23  C   UNL A   1      38.809  29.934  29.214  1.00  0.00     0.031 C 
ATOM     24  C   UNL A   1      38.363  34.305  34.571  1.00  0.00     0.029 A 
ATOM     25  C   UNL A   1      39.409  33.300  34.701  1.00  0.00     0.049 A 
ATOM     26  H   UNL A   1      39.952  31.844  33.308  1.00  0.00     0.167 HD
ATOM     27  C   UNL A   1      40.705  28.695  30.209  1.00  0.00     0.034 A 
ATOM     28  C   UNL A   1      40.224  33.140  35.760  1.00  0.00     0.034 A 
ATOM     29  C   UNL A   1      41.646  28.471  31.267  1.00  0.00     0.049 A 
ATOM     30  C   UNL A   1      41.210  32.004  35.704  1.00  0.00     0.074 A 
ATOM     31  C   UNL A   1      42.625  27.503  31.360  1.00  0.00     0.029 A 
ATOM     32  N   UNL A   1      41.710  29.231  32.427  1.00  0.00    -0.354 N 
ATOM     33  N   UNL A   1      41.441  31.160  34.724  1.00  0.00    -0.248 NA
ATOM     34  C   UNL A   1      42.052  31.798  36.887  1.00  0.00     0.031 C 
ATOM     35  C   UNL A   1      43.255  27.654  32.599  1.00  0.00     0.029 A 
ATOM     36  C   UNL A   1      42.701  28.746  33.254  1.00  0.00     0.049 A 
ATOM     37  H   UNL A   1      41.132  30.003  32.630  1.00  0.00     0.167 HD
ATOM     38  C   UNL A   1      42.473  30.343  35.159  1.00  0.00     0.074 A 
ATOM     39  C   UNL A   1      42.841  30.813  36.482  1.00  0.00     0.031 C 
ATOM     40  C   UNL A   1      43.059  29.288  34.541  1.00  0.00     0.034 A 
BRANCH  27  41
ATOM     41  C   UNL A   1      40.698  27.784  29.016  1.00  0.00     0.023 A 
ATOM     42  C   UNL A   1      39.791  26.709  28.935  1.00  0.00     0.012 A 
ATOM     43  C   UNL A   1      41.605  28.008  27.962  1.00  0.00     0.148 A 
ATOM     44  C   UNL A   1      39.805  25.854  27.832  1.00  0.00     0.002 A 
ATOM     45  C   UNL A   1      41.582  27.181  26.847  1.00  0.00     0.091 A 
ATOM     46  F   UNL A   1      42.480  29.016  28.078  1.00  0.00    -0.205 F 
ATOM     47  C   UNL A   1      40.692  26.097  26.785  1.00  0.00     0.022 A 
BRANCH  45  48
ATOM     48  S   UNL A   1      42.639  27.449  25.421  1.00  0.00     0.127 S 
ATOM     49  O   UNL A   1      42.374  26.249  24.627  1.00  0.00    -0.237 OA
ATOM     50  O   UNL A   1      42.087  28.684  24.865  1.00  0.00    -0.237 OA
ATOM     51  O   UNL A   1      43.996  27.560  25.936  1.00  0.00    -0.744 OA
ENDBRANCH  45  48
ENDBRANCH  27  41
BRANCH  28  52
ATOM     52  C   UNL A   1      40.109  34.021  36.958  1.00  0.00     0.023 A 
ATOM     53  C   UNL A   1      39.032  33.861  37.851  1.00  0.00     0.012 A 
ATOM     54  C   UNL A   1      41.055  35.038  37.208  1.00  0.00     0.148 A 
ATOM     55  C   UNL A   1      38.874  34.722  38.940  1.00  0.00     0.002 A 
ATOM     56  C   UNL A   1      40.926  35.852  38.328  1.00  0.00     0.091 A 
ATOM     57  F   UNL A   1      42.066  35.195  36.342  1.00  0.00    -0.205 F 
ATOM     58  C   UNL A   1      39.824  35.711  39.183  1.00  0.00     0.022 A 
BRANCH  56  59
ATOM     59  S   UNL A   1      42.169  37.067  38.779  1.00  0.00     0.127 S 
ATOM     60  O   UNL A   1      43.081  36.273  39.597  1.00  0.00    -0.237 OA
ATOM     61  O   UNL A   1      42.698  37.461  37.473  1.00  0.00    -0.237 OA
ATOM     62  O   UNL A   1      41.448  38.126  39.473  1.00  0.00    -0.744 OA
ENDBRANCH  56  59
ENDBRANCH  28  52
BRANCH  40  63
ATOM     63  C   UNL A   1      44.187  28.613  35.265  1.00  0.00     0.023 A 
ATOM     64  C   UNL A   1      45.510  29.056  35.077  1.00  0.00     0.012 A 
ATOM     65  C   UNL A   1      43.915  27.599  36.202  1.00  0.00     0.148 A 
ATOM     66  C   UNL A   1      46.554  28.472  35.791  1.00  0.00     0.002 A 
ATOM     67  C   UNL A   1      44.951  27.067  36.953  1.00  0.00     0.091 A 
ATOM     68  F   UNL A   1      42.647  27.186  36.348  1.00  0.00    -0.205 F 
ATOM     69  C   UNL A   1      46.273  27.491  36.739  1.00  0.00     0.022 A 
BRANCH  67  70
ATOM     70  S   UNL A   1      44.664  25.886  38.275  1.00  0.00     0.127 S 
ATOM     71  O   UNL A   1      43.877  26.681  39.217  1.00  0.00    -0.237 OA
ATOM     72  O   UNL A   1      43.916  24.832  37.590  1.00  0.00    -0.237 OA
ATOM     73  O   UNL A   1      45.981  25.483  38.749  1.00  0.00    -0.744 OA
ENDBRANCH  67  70
ENDBRANCH  40  63
ENDBRANCH  14  15
ENDBRANCH   7   9
ENDBRANCH   6   7
ENDBRANCH   5   6
ENDBRANCH   4   5
ENDBRANCH   3   4
ENDBRANCH   2   3
ENDBRANCH   1   2
BRANCH   1  74
ATOM     74  O   UNL A   1      32.015  26.672  26.148  1.00  0.00    -0.377 OA
BRANCH  74  75
ATOM     75  C   UNL A   1      30.666  26.246  25.975  1.00  0.00     0.188 C 
BRANCH  75  76
ATOM     76  C   UNL A   1      30.069  26.209  24.545  1.00  0.00     0.188 C 
BRANCH  76  77
ATOM     77  O   UNL A   1      29.444  27.416  24.153  1.00  0.00    -0.376 OA
BRANCH  77  78
ATOM     78  C   UNL A   1      30.008  28.094  23.037  1.00  0.00     0.202 C 
BRANCH  78  79
ATOM     79  C   UNL A   1      31.342  28.842  23.224  1.00  0.00     0.261 C 
BRANCH  79  80
ATOM     80  O   UNL A   1      32.434  28.464  22.364  1.00  0.00    -0.460 OA
BRANCH  80  81
ATOM     81  C   UNL A   1      33.579  28.001  22.925  1.00  0.00     0.338 C 
ATOM     82  O   UNL A   1      34.464  28.640  23.429  1.00  0.00    -0.246 OA
BRANCH  81  83
ATOM     83  C   UNL A   1      33.443  26.518  23.011  1.00  0.00     0.060 A 
ATOM     84  C   UNL A   1      32.814  25.831  21.967  1.00  0.00     0.018 A 
ATOM     85  C   UNL A   1      34.032  25.804  24.056  1.00  0.00     0.022 A 
ATOM     86  C   UNL A   1      32.804  24.431  21.958  1.00  0.00     0.027 A 
ATOM     87  C   UNL A   1      33.956  24.398  24.088  1.00  0.00    -0.017 A 
ATOM     88  C   UNL A   1      33.322  23.706  23.038  1.00  0.00     0.038 A 
ATOM     89  C   UNL A   1      34.476  23.657  25.297  1.00  0.00     0.049 C 
ATOM     90  N   UNL A   1      33.182  22.316  23.067  1.00  0.00    -0.378 N 
ATOM     91  C   UNL A   1      35.964  23.742  25.497  1.00  0.00    -0.023 C 
ATOM     92  C   UNL A   1      34.250  22.134  25.273  1.00  0.00     0.031 C 
ATOM     93  C   UNL A   1      33.063  21.731  24.394  1.00  0.00     0.114 C 
ATOM     94  H   UNL A   1      33.164  21.771  22.247  1.00  0.00     0.161 HD
ATOM     95  C   UNL A   1      36.572  22.565  25.303  1.00  0.00    -0.030 C 
ATOM     96  C   UNL A   1      35.602  21.507  24.891  1.00  0.00     0.034 C 
BRANCH  93  97
ATOM     97  C   UNL A   1      32.845  20.225  24.386  1.00  0.00    -0.022 A 
ATOM     98  C   UNL A   1      32.895  19.539  25.610  1.00  0.00     0.026 A 
ATOM     99  C   UNL A   1      32.619  19.470  23.231  1.00  0.00     0.026 A 
ATOM    100  C   UNL A   1      32.729  18.165  25.629  1.00  0.00     0.111 A 
ATOM    101  C   UNL A   1      32.448  18.096  23.354  1.00  0.00     0.111 A 
ATOM    102  N   UNL A   1      32.501  17.427  24.525  1.00  0.00    -0.265 NA
ENDBRANCH  93  97
ENDBRANCH  81  83
ENDBRANCH  80  81
ENDBRANCH  79  80
ENDBRANCH  78  79
ENDBRANCH  77  78
ENDBRANCH  76  77
ENDBRANCH  75  76
ENDBRANCH  74  75
ENDBRANCH   1  74
TORSDOF 24
ENDMDL
MODEL 2
REMARK VINA RESULT:     -10.7      1.780      2.064
REMARK SMILES O=C(OCCOCCOCCOCCOC(=O)c1ccc2c(c1)[C@@H]1C=CC[C@@H]1[C@H](c1ccncc1)N2)c1ccc(-c2c3nc(c(-c4cccc(S(=O)(=O)[O-])c4F)c4ccc([nH]4)c(-c4cccc(S(=O)(=O)[O-])c4F)c4nc(c(-c5cccc(S(=O)(=O)[O-])c5F)c5ccc2[nH]5)C=C4)C=C3)cc1
REMARK SMILES IDX 8 1 7 2 6 3 5 4 4 5 3 6 2 7 1 8 37 9 38 10 99 11 39 12 98 13
REMARK SMILES IDX 40 14 41 15 42 16 92 17 43 18 97 19 91 20 93 21 44 22 96 23
REMARK SMILES IDX 90 24 89 25 45 27 77 28 57 29 76 30 58 31 61 32 75 33 94 34
REMARK SMILES IDX 59 35 60 36 74 38 95 39 62 40 46 41 47 42 55 43 48 44 50 45
REMARK SMILES IDX 56 46 49 47 51 48 52 49 53 50 54 51 78 52 79 53 87 54 80 55
REMARK SMILES IDX 82 56 88 57 81 58 83 59 84 60 85 61 86 62 63 63 64 64 72 65
REMARK SMILES IDX 65 66 67 67 73 68 66 69 68 70 69 71 70 72 71 73 9 74 10 75
REMARK SMILES IDX 11 76 12 77 13 78 14 79 15 80 16 81 17 82 18 83 19 84 23 85
REMARK SMILES IDX 20 86 22 87 21 88 24 89 36 90 25 91 28 92 29 93 26 95 27 96
REMARK SMILES IDX 30 97 31 98 35 99 32 100 34 101 33 102
REMARK H PARENT 93 26 61 37 36 94
REMARK Flexibility Score: inf
ROOT
ATOM      1  C   UNL A   1      31.561  27.411  26.966  1.00  0.00     0.188 C 
ENDROOT
BRANCH   1   2
ATOM      2  C   UNL A   1      32.145  28.726  26.446  1.00  0.00     0.188 C 
BRANCH   2   3
ATOM      3  O   UNL A   1      31.439  29.845  26.973  1.00  0.00    -0.376 OA
BRANCH   3   4
ATOM      4  C   UNL A   1      31.769  31.140  26.485  1.00  0.00     0.202 C 
BRANCH   4   5
ATOM      5  C   UNL A   1      32.873  31.874  27.246  1.00  0.00     0.261 C 
BRANCH   5   6
ATOM      6  O   UNL A   1      32.569  33.246  27.538  1.00  0.00    -0.460 OA
BRANCH   6   7
ATOM      7  C   UNL A   1      33.175  34.073  28.427  1.00  0.00     0.338 C 
ATOM      8  O   UNL A   1      32.724  35.210  28.561  1.00  0.00    -0.246 OA
BRANCH   7   9
ATOM      9  C   UNL A   1      34.356  33.687  29.256  1.00  0.00     0.060 A 
ATOM     10  C   UNL A   1      35.643  34.195  29.096  1.00  0.00     0.016 A 
ATOM     11  C   UNL A   1      34.132  32.818  30.334  1.00  0.00     0.016 A 
ATOM     12  C   UNL A   1      36.698  33.803  29.897  1.00  0.00     0.010 A 
ATOM     13  C   UNL A   1      35.179  32.447  31.184  1.00  0.00     0.010 A 
ATOM     14  C   UNL A   1      36.473  32.922  30.940  1.00  0.00    -0.014 A 
BRANCH  14  15
ATOM     15  C   UNL A   1      37.660  32.406  31.633  1.00  0.00     0.031 A 
ATOM     16  C   UNL A   1      38.563  31.494  30.865  1.00  0.00     0.074 A 
ATOM     17  C   UNL A   1      37.982  32.881  32.850  1.00  0.00     0.049 A 
ATOM     18  N   UNL A   1      39.633  30.868  31.264  1.00  0.00    -0.248 NA
ATOM     19  C   UNL A   1      38.228  31.271  29.445  1.00  0.00     0.031 C 
ATOM     20  C   UNL A   1      37.220  33.892  33.592  1.00  0.00     0.029 A 
ATOM     21  N   UNL A   1      39.037  32.594  33.669  1.00  0.00    -0.354 N 
ATOM     22  C   UNL A   1      40.052  30.120  30.173  1.00  0.00     0.074 A 
ATOM     23  C   UNL A   1      39.148  30.393  29.081  1.00  0.00     0.031 C 
ATOM     24  C   UNL A   1      37.829  34.130  34.764  1.00  0.00     0.029 A 
ATOM     25  C   UNL A   1      38.971  33.233  34.886  1.00  0.00     0.049 A 
ATOM     26  H   UNL A   1      39.773  31.990  33.415  1.00  0.00     0.167 HD
ATOM     27  C   UNL A   1      41.095  29.266  30.110  1.00  0.00     0.034 A 
ATOM     28  C   UNL A   1      39.720  33.054  35.989  1.00  0.00     0.034 A 
ATOM     29  C   UNL A   1      41.977  29.037  31.217  1.00  0.00     0.049 A 
ATOM     30  C   UNL A   1      40.829  32.039  35.910  1.00  0.00     0.074 A 
ATOM     31  C   UNL A   1      43.050  28.173  31.300  1.00  0.00     0.029 A 
ATOM     32  N   UNL A   1      41.872  29.678  32.444  1.00  0.00    -0.354 N 
ATOM     33  N   UNL A   1      41.223  31.327  34.879  1.00  0.00    -0.248 NA
ATOM     34  C   UNL A   1      41.602  31.804  37.134  1.00  0.00     0.031 C 
ATOM     35  C   UNL A   1      43.568  28.263  32.596  1.00  0.00     0.029 A 
ATOM     36  C   UNL A   1      42.850  29.220  33.301  1.00  0.00     0.049 A 
ATOM     37  H   UNL A   1      41.198  30.361  32.669  1.00  0.00     0.167 HD
ATOM     38  C   UNL A   1      42.307  30.583  35.320  1.00  0.00     0.074 A 
ATOM     39  C   UNL A   1      42.524  30.953  36.706  1.00  0.00     0.031 C 
ATOM     40  C   UNL A   1      43.051  29.663  34.657  1.00  0.00     0.034 A 
BRANCH  27  41
ATOM     41  C   UNL A   1      41.276  28.484  28.841  1.00  0.00     0.023 A 
ATOM     42  C   UNL A   1      41.991  29.027  27.756  1.00  0.00     0.012 A 
ATOM     43  C   UNL A   1      40.729  27.190  28.735  1.00  0.00     0.148 A 
ATOM     44  C   UNL A   1      42.137  28.302  26.572  1.00  0.00     0.002 A 
ATOM     45  C   UNL A   1      40.918  26.457  27.571  1.00  0.00     0.091 A 
ATOM     46  F   UNL A   1      40.024  26.710  29.768  1.00  0.00    -0.205 F 
ATOM     47  C   UNL A   1      41.610  27.015  26.485  1.00  0.00     0.022 A 
BRANCH  45  48
ATOM     48  S   UNL A   1      40.334  24.769  27.385  1.00  0.00     0.127 S 
ATOM     49  O   UNL A   1      41.043  24.090  28.470  1.00  0.00    -0.237 OA
ATOM     50  O   UNL A   1      38.896  24.923  27.598  1.00  0.00    -0.237 OA
ATOM     51  O   UNL A   1      40.718  24.353  26.044  1.00  0.00    -0.744 OA
ENDBRANCH  45  48
ENDBRANCH  27  41
BRANCH  28  52
ATOM     52  C   UNL A   1      39.421  33.792  37.250  1.00  0.00     0.023 A 
ATOM     53  C   UNL A   1      39.856  35.122  37.409  1.00  0.00     0.012 A 
ATOM     54  C   UNL A   1      38.724  33.173  38.310  1.00  0.00     0.148 A 
ATOM     55  C   UNL A   1      39.642  35.804  38.609  1.00  0.00     0.002 A 
ATOM     56  C   UNL A   1      38.462  33.878  39.479  1.00  0.00     0.091 A 
ATOM     57  F   UNL A   1      38.332  31.901  38.156  1.00  0.00    -0.205 F 
ATOM     58  C   UNL A   1      38.940  35.186  39.640  1.00  0.00     0.022 A 
BRANCH  56  59
ATOM     59  S   UNL A   1      37.459  33.198  40.804  1.00  0.00     0.127 S 
ATOM     60  O   UNL A   1      37.053  34.403  41.522  1.00  0.00    -0.237 OA
ATOM     61  O   UNL A   1      36.387  32.531  40.064  1.00  0.00    -0.237 OA
ATOM     62  O   UNL A   1      38.335  32.289  41.531  1.00  0.00    -0.744 OA
ENDBRANCH  56  59
ENDBRANCH  28  52
BRANCH  40  63
ATOM     63  C   UNL A   1      44.193  29.041  35.406  1.00  0.00     0.023 A 
ATOM     64  C   UNL A   1      45.454  29.668  35.416  1.00  0.00     0.012 A 
ATOM     65  C   UNL A   1      43.982  27.881  36.174  1.00  0.00     0.148 A 
ATOM     66  C   UNL A   1      46.501  29.126  36.158  1.00  0.00     0.002 A 
ATOM     67  C   UNL A   1      45.011  27.384  36.958  1.00  0.00     0.091 A 
ATOM     68  F   UNL A   1      42.775  27.296  36.132  1.00  0.00    -0.205 F 
ATOM     69  C   UNL A   1      46.275  27.995  36.940  1.00  0.00     0.022 A 
BRANCH  67  70
ATOM     70  S   UNL A   1      44.774  26.005  38.084  1.00  0.00     0.127 S 
ATOM     71  O   UNL A   1      46.014  26.039  38.858  1.00  0.00    -0.237 OA
ATOM     72  O   UNL A   1      43.580  26.414  38.824  1.00  0.00    -0.237 OA
ATOM     73  O   UNL A   1      44.593  24.828  37.247  1.00  0.00    -0.744 OA
ENDBRANCH  67  70
ENDBRANCH  40  63
ENDBRANCH  14  15
ENDBRANCH   7   9
ENDBRANCH   6   7
ENDBRANCH   5   6
ENDBRANCH   4   5
ENDBRANCH   3   4
ENDBRANCH   2   3
ENDBRANCH   1   2
BRANCH   1  74
ATOM     74  O   UNL A   1      31.399  26.384  25.991  1.00  0.00    -0.377 OA
BRANCH  74  75
ATOM     75  C   UNL A   1      30.095  26.242  25.431  1.00  0.00     0.188 C 
BRANCH  75  76
ATOM     76  C   UNL A   1      29.922  26.358  23.896  1.00  0.00     0.188 C 
BRANCH  76  77
ATOM     77  O   UNL A   1      29.404  27.604  23.470  1.00  0.00    -0.376 OA
BRANCH  77  78
ATOM     78  C   UNL A   1      30.114  28.270  22.433  1.00  0.00     0.202 C 
BRANCH  78  79
ATOM     79  C   UNL A   1      31.462  28.934  22.770  1.00  0.00     0.261 C 
BRANCH  79  80
ATOM     80  O   UNL A   1      32.648  28.337  22.210  1.00  0.00    -0.460 OA
BRANCH  80  81
ATOM     81  C   UNL A   1      33.622  27.905  23.050  1.00  0.00     0.338 C 
ATOM     82  O   UNL A   1      34.337  28.569  23.753  1.00  0.00    -0.246 OA
BRANCH  81  83
ATOM     83  C   UNL A   1      33.500  26.420  23.118  1.00  0.00     0.060 A 
ATOM     84  C   UNL A   1      32.988  25.728  22.014  1.00  0.00     0.018 A 
ATOM     85  C   UNL A   1      33.993  25.710  24.214  1.00  0.00     0.022 A 
ATOM     86  C   UNL A   1      32.999  24.329  22.000  1.00  0.00     0.027 A 
ATOM     87  C   UNL A   1      33.934  24.303  24.234  1.00  0.00    -0.017 A 
ATOM     88  C   UNL A   1      33.418  23.607  23.124  1.00  0.00     0.038 A 
ATOM     89  C   UNL A   1      34.343  23.564  25.487  1.00  0.00     0.049 C 
ATOM     90  N   UNL A   1      33.296  22.214  23.135  1.00  0.00    -0.378 N 
ATOM     91  C   UNL A   1      35.802  23.669  25.833  1.00  0.00    -0.023 C 
ATOM     92  C   UNL A   1      34.142  22.038  25.436  1.00  0.00     0.031 C 
ATOM     93  C   UNL A   1      33.054  21.622  24.443  1.00  0.00     0.114 C 
ATOM     94  H   UNL A   1      33.367  21.673  22.316  1.00  0.00     0.161 HD
ATOM     95  C   UNL A   1      36.444  22.502  25.697  1.00  0.00    -0.030 C 
ATOM     96  C   UNL A   1      35.535  21.432  25.188  1.00  0.00     0.034 C 
BRANCH  93  97
ATOM     97  C   UNL A   1      32.860  20.113  24.409  1.00  0.00    -0.022 A 
ATOM     98  C   UNL A   1      32.907  19.409  25.622  1.00  0.00     0.026 A 
ATOM     99  C   UNL A   1      32.660  19.373  23.240  1.00  0.00     0.026 A 
ATOM    100  C   UNL A   1      32.763  18.032  25.618  1.00  0.00     0.111 A 
ATOM    101  C   UNL A   1      32.509  17.995  23.339  1.00  0.00     0.111 A 
ATOM    102  N   UNL A   1      32.559  17.308  24.501  1.00  0.00    -0.265 NA
ENDBRANCH  93  97
ENDBRANCH  81  83
ENDBRANCH  80  81
ENDBRANCH  79  80
ENDBRANCH  78  79
ENDBRANCH  77  78
ENDBRANCH  76  77
ENDBRANCH  75  76
ENDBRANCH  74  75
ENDBRANCH   1  74
TORSDOF 24
ENDMDL
MODEL 3
REMARK VINA RESULT:     -10.6      5.800      9.870
REMARK SMILES O=C(OCCOCCOCCOCCOC(=O)c1ccc2c(c1)[C@@H]1C=CC[C@@H]1[C@H](c1ccncc1)N2)c1ccc(-c2c3nc(c(-c4cccc(S(=O)(=O)[O-])c4F)c4ccc([nH]4)c(-c4cccc(S(=O)(=O)[O-])c4F)c4nc(c(-c5cccc(S(=O)(=O)[O-])c5F)c5ccc2[nH]5)C=C4)C=C3)cc1
REMARK SMILES IDX 8 1 7 2 6 3 5 4 4 5 3 6 2 7 1 8 37 9 38 10 99 11 39 12 98 13
REMARK SMILES IDX 40 14 41 15 42 16 92 17 43 18 97 19 91 20 93 21 44 22 96 23
REMARK SMILES IDX 90 24 89 25 45 27 77 28 57 29 76 30 58 31 61 32 75 33 94 34
REMARK SMILES IDX 59 35 60 36 74 38 95 39 62 40 46 41 47 42 55 43 48 44 50 45
REMARK SMILES IDX 56 46 49 47 51 48 52 49 53 50 54 51 78 52 79 53 87 54 80 55
REMARK SMILES IDX 82 56 88 57 81 58 83 59 84 60 85 61 86 62 63 63 64 64 72 65
REMARK SMILES IDX 65 66 67 67 73 68 66 69 68 70 69 71 70 72 71 73 9 74 10 75
REMARK SMILES IDX 11 76 12 77 13 78 14 79 15 80 16 81 17 82 18 83 19 84 23 85
REMARK SMILES IDX 20 86 22 87 21 88 24 89 36 90 25 91 28 92 29 93 26 95 27 96
REMARK SMILES IDX 30 97 31 98 35 99 32 100 34 101 33 102
REMARK H PARENT 93 26 61 37 36 94
REMARK Flexibility Score: inf
ROOT
ATOM      1  C   UNL A   1      35.910  19.057  24.918  1.00  0.00     0.188 C 
ENDROOT
BRANCH   1   2
ATOM      2  C   UNL A   1      37.194  19.719  24.415  1.00  0.00     0.188 C 
BRANCH   2   3
ATOM      3  O   UNL A   1      37.620  20.750  25.300  1.00  0.00    -0.376 OA
BRANCH   3   4
ATOM      4  C   UNL A   1      38.979  20.757  25.720  1.00  0.00     0.202 C 
BRANCH   4   5
ATOM      5  C   UNL A   1      39.574  19.394  26.070  1.00  0.00     0.261 C 
BRANCH   5   6
ATOM      6  O   UNL A   1      40.918  19.206  25.607  1.00  0.00    -0.460 OA
BRANCH   6   7
ATOM      7  C   UNL A   1      42.062  19.748  26.096  1.00  0.00     0.338 C 
ATOM      8  O   UNL A   1      43.019  19.000  26.296  1.00  0.00    -0.246 OA
BRANCH   7   9
ATOM      9  C   UNL A   1      42.232  21.199  26.406  1.00  0.00     0.060 A 
ATOM     10  C   UNL A   1      42.199  22.226  25.465  1.00  0.00     0.016 A 
ATOM     11  C   UNL A   1      42.339  21.562  27.757  1.00  0.00     0.016 A 
ATOM     12  C   UNL A   1      42.358  23.552  25.811  1.00  0.00     0.010 A 
ATOM     13  C   UNL A   1      42.454  22.905  28.130  1.00  0.00     0.010 A 
ATOM     14  C   UNL A   1      42.494  23.899  27.144  1.00  0.00    -0.014 A 
BRANCH  14  15
ATOM     15  C   UNL A   1      42.842  25.297  27.429  1.00  0.00     0.031 A 
ATOM     16  C   UNL A   1      44.130  25.813  26.871  1.00  0.00     0.074 A 
ATOM     17  C   UNL A   1      41.944  26.100  28.028  1.00  0.00     0.049 A 
ATOM     18  N   UNL A   1      44.684  26.981  27.025  1.00  0.00    -0.248 NA
ATOM     19  C   UNL A   1      44.891  24.893  26.002  1.00  0.00     0.031 C 
ATOM     20  C   UNL A   1      40.602  25.694  28.461  1.00  0.00     0.029 A 
ATOM     21  N   UNL A   1      42.013  27.424  28.361  1.00  0.00    -0.354 N 
ATOM     22  C   UNL A   1      45.890  26.910  26.341  1.00  0.00     0.074 A 
ATOM     23  C   UNL A   1      45.976  25.602  25.738  1.00  0.00     0.031 C 
ATOM     24  C   UNL A   1      39.981  26.747  29.014  1.00  0.00     0.029 A 
ATOM     25  C   UNL A   1      40.907  27.870  29.047  1.00  0.00     0.049 A 
ATOM     26  H   UNL A   1      42.778  28.000  28.133  1.00  0.00     0.167 HD
ATOM     27  C   UNL A   1      46.843  27.862  26.250  1.00  0.00     0.034 A 
ATOM     28  C   UNL A   1      40.708  29.041  29.680  1.00  0.00     0.034 A 
ATOM     29  C   UNL A   1      46.707  29.155  26.853  1.00  0.00     0.049 A 
ATOM     30  C   UNL A   1      41.821  30.052  29.623  1.00  0.00     0.074 A 
ATOM     31  C   UNL A   1      47.611  30.198  26.869  1.00  0.00     0.029 A 
ATOM     32  N   UNL A   1      45.589  29.572  27.562  1.00  0.00    -0.354 N 
ATOM     33  N   UNL A   1      42.964  29.985  28.979  1.00  0.00    -0.248 NA
ATOM     34  C   UNL A   1      41.622  31.301  30.366  1.00  0.00     0.031 C 
ATOM     35  C   UNL A   1      47.051  31.233  27.625  1.00  0.00     0.029 A 
ATOM     36  C   UNL A   1      45.781  30.852  28.036  1.00  0.00     0.049 A 
ATOM     37  H   UNL A   1      44.777  29.032  27.705  1.00  0.00     0.167 HD
ATOM     38  C   UNL A   1      43.607  31.191  29.215  1.00  0.00     0.074 A 
ATOM     39  C   UNL A   1      42.711  31.981  30.039  1.00  0.00     0.031 C 
ATOM     40  C   UNL A   1      44.830  31.611  28.809  1.00  0.00     0.034 A 
BRANCH  27  41
ATOM     41  C   UNL A   1      48.117  27.502  25.541  1.00  0.00     0.023 A 
ATOM     42  C   UNL A   1      49.218  26.991  26.254  1.00  0.00     0.012 A 
ATOM     43  C   UNL A   1      48.211  27.673  24.146  1.00  0.00     0.148 A 
ATOM     44  C   UNL A   1      50.406  26.678  25.591  1.00  0.00     0.002 A 
ATOM     45  C   UNL A   1      49.380  27.318  23.486  1.00  0.00     0.091 A 
ATOM     46  F   UNL A   1      47.162  28.195  23.496  1.00  0.00    -0.205 F 
ATOM     47  C   UNL A   1      50.482  26.832  24.208  1.00  0.00     0.022 A 
BRANCH  45  48
ATOM     48  S   UNL A   1      49.554  27.417  21.703  1.00  0.00     0.127 S 
ATOM     49  O   UNL A   1      50.902  26.881  21.507  1.00  0.00    -0.237 OA
ATOM     50  O   UNL A   1      48.476  26.542  21.246  1.00  0.00    -0.237 OA
ATOM     51  O   UNL A   1      49.395  28.823  21.357  1.00  0.00    -0.744 OA
ENDBRANCH  45  48
ENDBRANCH  27  41
BRANCH  28  52
ATOM     52  C   UNL A   1      39.456  29.294  30.452  1.00  0.00     0.023 A 
ATOM     53  C   UNL A   1      39.173  28.537  31.605  1.00  0.00     0.012 A 
ATOM     54  C   UNL A   1      38.529  30.272  30.034  1.00  0.00     0.148 A 
ATOM     55  C   UNL A   1      37.974  28.717  32.299  1.00  0.00     0.002 A 
ATOM     56  C   UNL A   1      37.365  30.487  30.764  1.00  0.00     0.091 A 
ATOM     57  F   UNL A   1      38.798  30.973  28.924  1.00  0.00    -0.205 F 
ATOM     58  C   UNL A   1      37.075  29.695  31.884  1.00  0.00     0.022 A 
BRANCH  56  59
ATOM     59  S   UNL A   1      36.215  31.809  30.369  1.00  0.00     0.127 S 
ATOM     60  O   UNL A   1      37.094  32.976  30.353  1.00  0.00    -0.237 OA
ATOM     61  O   UNL A   1      35.716  31.396  29.057  1.00  0.00    -0.237 OA
ATOM     62  O   UNL A   1      35.211  31.783  31.424  1.00  0.00    -0.744 OA
ENDBRANCH  56  59
ENDBRANCH  28  52
BRANCH  40  63
ATOM     63  C   UNL A   1      45.241  33.000  29.205  1.00  0.00     0.023 A 
ATOM     64  C   UNL A   1      45.938  33.211  30.410  1.00  0.00     0.012 A 
ATOM     65  C   UNL A   1      45.013  34.077  28.329  1.00  0.00     0.148 A 
ATOM     66  C   UNL A   1      46.374  34.489  30.753  1.00  0.00     0.002 A 
ATOM     67  C   UNL A   1      45.504  35.333  28.649  1.00  0.00     0.091 A 
ATOM     68  F   UNL A   1      44.332  33.848  27.197  1.00  0.00    -0.205 F 
ATOM     69  C   UNL A   1      46.172  35.545  29.867  1.00  0.00     0.022 A 
BRANCH  67  70
ATOM     70  S   UNL A   1      45.392  36.720  27.514  1.00  0.00     0.127 S 
ATOM     71  O   UNL A   1      43.947  36.831  27.324  1.00  0.00    -0.237 OA
ATOM     72  O   UNL A   1      45.992  37.804  28.293  1.00  0.00    -0.237 OA
ATOM     73  O   UNL A   1      46.149  36.336  26.332  1.00  0.00    -0.744 OA
ENDBRANCH  67  70
ENDBRANCH  40  63
ENDBRANCH  14  15
ENDBRANCH   7   9
ENDBRANCH   6   7
ENDBRANCH   5   6
ENDBRANCH   4   5
ENDBRANCH   3   4
ENDBRANCH   2   3
ENDBRANCH   1   2
BRANCH   1  74
ATOM     74  O   UNL A   1      35.668  17.738  24.430  1.00  0.00    -0.377 OA
BRANCH  74  75
ATOM     75  C   UNL A   1      34.466  17.111  24.870  1.00  0.00     0.188 C 
BRANCH  75  76
ATOM     76  C   UNL A   1      33.484  16.547  23.811  1.00  0.00     0.188 C 
BRANCH  76  77
ATOM     77  O   UNL A   1      33.467  17.277  22.599  1.00  0.00    -0.376 OA
BRANCH  77  78
ATOM     78  C   UNL A   1      32.255  17.947  22.275  1.00  0.00     0.202 C 
BRANCH  78  79
ATOM     79  C   UNL A   1      32.204  19.482  22.396  1.00  0.00     0.261 C 
BRANCH  79  80
ATOM     80  O   UNL A   1      32.967  20.084  23.460  1.00  0.00    -0.460 OA
BRANCH  80  81
ATOM     81  C   UNL A   1      32.382  20.245  24.674  1.00  0.00     0.338 C 
ATOM     82  O   UNL A   1      31.972  19.391  25.415  1.00  0.00    -0.246 OA
BRANCH  81  83
ATOM     83  C   UNL A   1      32.540  21.683  25.036  1.00  0.00     0.060 A 
ATOM     84  C   UNL A   1      33.113  22.016  26.269  1.00  0.00     0.018 A 
ATOM     85  C   UNL A   1      32.234  22.691  24.119  1.00  0.00     0.022 A 
ATOM     86  C   UNL A   1      33.403  23.352  26.567  1.00  0.00     0.027 A 
ATOM     87  C   UNL A   1      32.454  24.043  24.448  1.00  0.00    -0.017 A 
ATOM     88  C   UNL A   1      33.029  24.377  25.689  1.00  0.00     0.038 A 
ATOM     89  C   UNL A   1      31.984  25.120  23.499  1.00  0.00     0.049 C 
ATOM     90  N   UNL A   1      33.210  25.711  26.068  1.00  0.00    -0.378 N 
ATOM     91  C   UNL A   1      32.706  25.156  22.180  1.00  0.00    -0.023 C 
ATOM     92  C   UNL A   1      32.183  26.562  24.003  1.00  0.00     0.031 C 
ATOM     93  C   UNL A   1      32.234  26.647  25.531  1.00  0.00     0.114 C 
ATOM     94  H   UNL A   1      33.945  25.996  26.657  1.00  0.00     0.161 HD
ATOM     95  C   UNL A   1      33.463  26.251  22.043  1.00  0.00    -0.030 C 
ATOM     96  C   UNL A   1      33.419  27.106  23.266  1.00  0.00     0.034 C 
BRANCH  93  97
ATOM     97  C   UNL A   1      32.420  28.077  26.016  1.00  0.00    -0.022 A 
ATOM     98  C   UNL A   1      31.577  29.072  25.495  1.00  0.00     0.026 A 
ATOM     99  C   UNL A   1      33.398  28.474  26.933  1.00  0.00     0.026 A 
ATOM    100  C   UNL A   1      31.744  30.386  25.897  1.00  0.00     0.111 A 
ATOM    101  C   UNL A   1      33.476  29.816  27.287  1.00  0.00     0.111 A 
ATOM    102  N   UNL A   1      32.674  30.781  26.788  1.00  0.00    -0.265 NA
ENDBRANCH  93  97
ENDBRANCH  81  83
ENDBRANCH  80  81
ENDBRANCH  79  80
ENDBRANCH  78  79
ENDBRANCH  77  78
ENDBRANCH  76  77
ENDBRANCH  75  76
ENDBRANCH  74  75
ENDBRANCH   1  74
TORSDOF 24
ENDMDL
