MODEL 1
REMARK VINA RESULT:      -8.4      0.000      0.000
REMARK SMILES O=C(CCNC(=O)/C(=C/c1ccccc1)NC(=O)c1ccccc1)OCCOCCOCCOCCOC(=O)c1ccc(-c2c3nc(c(-c4cccc(S(=O)(=O)[O-])c4F)c4ccc([nH]4)c(-c4cccc(S(=O)(=O)[O-])c4F)c4nc(c(-c5cccc(S(=O)(=O)[O-])c5F)c5ccc2[nH]5)C=C4)C=C3)cc1
REMARK SMILES IDX 30 1 29 2 28 3 27 4 26 5 25 6 2 7 1 8 3 9 4 10 5 11 6 12
REMARK SMILES IDX 7 14 8 15 9 16 16 17 17 18 18 20 19 21 20 22 24 23 21 24
REMARK SMILES IDX 23 25 22 26 10 27 11 28 15 29 12 30 14 31 13 32 31 33 32 34
REMARK SMILES IDX 33 35 34 36 35 37 36 38 37 39 38 40 39 41 40 42 41 43 102 44
REMARK SMILES IDX 42 45 101 46 43 47 44 48 45 49 95 50 46 51 100 52 94 53
REMARK SMILES IDX 96 54 47 55 99 56 93 57 92 58 48 60 80 61 60 62 79 63 61 64
REMARK SMILES IDX 64 65 78 66 97 67 62 68 63 69 77 71 98 72 65 73 49 74 50 75
REMARK SMILES IDX 58 76 51 77 53 78 59 79 52 80 54 81 55 82 56 83 57 84 81 85
REMARK SMILES IDX 82 86 90 87 83 88 85 89 91 90 84 91 86 92 87 93 88 94 89 95
REMARK SMILES IDX 66 96 67 97 75 98 68 99 70 100 76 101 69 102 71 103 72 104
REMARK SMILES IDX 73 105 74 106
REMARK H PARENT 5 13 16 19 96 59 64 70
REMARK Flexibility Score: inf
ROOT
ATOM      1  C   UNL A   1      36.214  20.325  25.117  1.00  0.00     0.188 C 
ENDROOT
BRANCH   1   2
ATOM      2  C   UNL A   1      35.639  18.989  24.619  1.00  0.00     0.188 C 
BRANCH   2   3
ATOM      3  O   UNL A   1      34.453  18.494  25.189  1.00  0.00    -0.376 OA
BRANCH   3   4
ATOM      4  C   UNL A   1      33.220  19.186  25.099  1.00  0.00     0.202 C 
BRANCH   4   5
ATOM      5  C   UNL A   1      32.851  20.008  23.869  1.00  0.00     0.261 C 
BRANCH   5   6
ATOM      6  O   UNL A   1      33.462  21.306  23.642  1.00  0.00    -0.463 OA
BRANCH   6   7
ATOM      7  C   UNL A   1      33.055  22.416  23.008  1.00  0.00     0.307 C 
ATOM      8  O   UNL A   1      33.822  22.990  22.234  1.00  0.00    -0.252 OA
BRANCH   7   9
ATOM      9  C   UNL A   1      31.670  22.951  23.207  1.00  0.00     0.144 C 
BRANCH   9  10
ATOM     10  C   UNL A   1      31.706  24.345  23.802  1.00  0.00     0.128 C 
BRANCH  10  11
ATOM     11  N   UNL A   1      32.332  25.335  22.944  1.00  0.00    -0.350 N 
ATOM     12  C   UNL A   1      32.290  26.679  22.753  1.00  0.00     0.267 C 
ATOM     13  H   UNL A   1      32.968  24.912  22.322  1.00  0.00     0.163 HD
ATOM     14  O   UNL A   1      33.198  27.083  22.024  1.00  0.00    -0.268 OA
BRANCH  12  15
ATOM     15  C   UNL A   1      31.329  27.662  23.412  1.00  0.00     0.107 C 
ATOM     16  C   UNL A   1      30.916  28.768  22.762  1.00  0.00     0.040 C 
BRANCH  15  17
ATOM     17  N   UNL A   1      30.750  27.348  24.636  1.00  0.00    -0.317 N 
ATOM     18  C   UNL A   1      31.117  27.523  25.955  1.00  0.00     0.255 C 
ATOM     19  H   UNL A   1      29.879  26.898  24.541  1.00  0.00     0.170 HD
ATOM     20  O   UNL A   1      30.495  26.905  26.822  1.00  0.00    -0.269 OA
BRANCH  18  21
ATOM     21  C   UNL A   1      32.128  28.509  26.398  1.00  0.00     0.040 A 
ATOM     22  C   UNL A   1      33.435  28.061  26.626  1.00  0.00     0.014 A 
ATOM     23  C   UNL A   1      31.793  29.845  26.648  1.00  0.00     0.014 A 
ATOM     24  C   UNL A   1      34.424  28.963  27.022  1.00  0.00     0.001 A 
ATOM     25  C   UNL A   1      32.786  30.741  27.057  1.00  0.00     0.001 A 
ATOM     26  C   UNL A   1      34.102  30.304  27.225  1.00  0.00     0.000 A 
ENDBRANCH  18  21
ENDBRANCH  15  17
BRANCH  16  27
ATOM     27  C   UNL A   1      29.733  29.599  23.045  1.00  0.00    -0.023 A 
ATOM     28  C   UNL A   1      28.487  29.020  22.751  1.00  0.00     0.008 A 
ATOM     29  C   UNL A   1      29.772  30.886  23.588  1.00  0.00     0.008 A 
ATOM     30  C   UNL A   1      27.300  29.693  23.035  1.00  0.00     0.001 A 
ATOM     31  C   UNL A   1      28.578  31.555  23.881  1.00  0.00     0.001 A 
ATOM     32  C   UNL A   1      27.346  30.957  23.612  1.00  0.00     0.000 A 
ENDBRANCH  16  27
ENDBRANCH  12  15
ENDBRANCH  10  11
ENDBRANCH   9  10
ENDBRANCH   7   9
ENDBRANCH   6   7
ENDBRANCH   5   6
ENDBRANCH   4   5
ENDBRANCH   3   4
ENDBRANCH   2   3
ENDBRANCH   1   2
BRANCH   1  33
ATOM     33  O   UNL A   1      37.473  20.855  24.755  1.00  0.00    -0.377 OA
BRANCH  33  34
ATOM     34  C   UNL A   1      38.557  20.825  25.657  1.00  0.00     0.188 C 
BRANCH  34  35
ATOM     35  C   UNL A   1      39.449  22.078  25.771  1.00  0.00     0.188 C 
BRANCH  35  36
ATOM     36  O   UNL A   1      39.414  22.764  27.001  1.00  0.00    -0.376 OA
BRANCH  36  37
ATOM     37  C   UNL A   1      39.620  24.163  27.071  1.00  0.00     0.202 C 
BRANCH  37  38
ATOM     38  C   UNL A   1      40.612  24.995  26.228  1.00  0.00     0.261 C 
BRANCH  38  39
ATOM     39  O   UNL A   1      40.421  26.405  26.125  1.00  0.00    -0.460 OA
BRANCH  39  40
ATOM     40  C   UNL A   1      41.532  27.170  26.130  1.00  0.00     0.338 C 
ATOM     41  O   UNL A   1      41.911  27.915  25.238  1.00  0.00    -0.246 OA
BRANCH  40  42
ATOM     42  C   UNL A   1      42.095  27.158  27.497  1.00  0.00     0.060 A 
ATOM     43  C   UNL A   1      41.197  27.092  28.571  1.00  0.00     0.016 A 
ATOM     44  C   UNL A   1      43.473  27.185  27.730  1.00  0.00     0.016 A 
ATOM     45  C   UNL A   1      41.670  27.104  29.878  1.00  0.00     0.010 A 
ATOM     46  C   UNL A   1      43.947  27.228  29.047  1.00  0.00     0.010 A 
ATOM     47  C   UNL A   1      43.042  27.232  30.123  1.00  0.00    -0.014 A 
BRANCH  47  48
ATOM     48  C   UNL A   1      43.473  27.596  31.495  1.00  0.00     0.031 A 
ATOM     49  C   UNL A   1      44.147  26.541  32.333  1.00  0.00     0.074 A 
ATOM     50  C   UNL A   1      43.357  28.854  31.954  1.00  0.00     0.049 A 
ATOM     51  N   UNL A   1      44.683  26.642  33.521  1.00  0.00    -0.248 NA
ATOM     52  C   UNL A   1      44.237  25.193  31.746  1.00  0.00     0.031 C 
ATOM     53  C   UNL A   1      42.731  29.964  31.236  1.00  0.00     0.029 A 
ATOM     54  N   UNL A   1      43.758  29.406  33.145  1.00  0.00    -0.354 N 
ATOM     55  C   UNL A   1      45.163  25.375  33.828  1.00  0.00     0.074 A 
ATOM     56  C   UNL A   1      44.832  24.514  32.716  1.00  0.00     0.031 C 
ATOM     57  C   UNL A   1      42.767  31.059  32.014  1.00  0.00     0.029 A 
ATOM     58  C   UNL A   1      43.405  30.726  33.287  1.00  0.00     0.049 A 
ATOM     59  H   UNL A   1      44.251  28.902  33.833  1.00  0.00     0.167 HD
ATOM     60  C   UNL A   1      45.840  24.967  34.926  1.00  0.00     0.034 A 
ATOM     61  C   UNL A   1      43.560  31.560  34.334  1.00  0.00     0.034 A 
ATOM     62  C   UNL A   1      46.170  25.823  36.034  1.00  0.00     0.049 A 
ATOM     63  C   UNL A   1      44.287  31.072  35.562  1.00  0.00     0.074 A 
ATOM     64  C   UNL A   1      46.867  25.509  37.187  1.00  0.00     0.029 A 
ATOM     65  N   UNL A   1      45.814  27.159  36.134  1.00  0.00    -0.354 N 
ATOM     66  N   UNL A   1      44.825  29.899  35.795  1.00  0.00    -0.248 NA
ATOM     67  C   UNL A   1      44.466  32.039  36.655  1.00  0.00     0.031 C 
ATOM     68  C   UNL A   1      46.904  26.647  37.998  1.00  0.00     0.029 A 
ATOM     69  C   UNL A   1      46.269  27.683  37.333  1.00  0.00     0.049 A 
ATOM     70  H   UNL A   1      45.311  27.662  35.453  1.00  0.00     0.167 HD
ATOM     71  C   UNL A   1      45.431  29.996  37.044  1.00  0.00     0.074 A 
ATOM     72  C   UNL A   1      45.224  31.355  37.500  1.00  0.00     0.031 C 
ATOM     73  C   UNL A   1      46.086  29.046  37.758  1.00  0.00     0.034 A 
BRANCH  60  74
ATOM     74  C   UNL A   1      46.290  23.529  34.973  1.00  0.00     0.023 A 
ATOM     75  C   UNL A   1      45.352  22.513  35.249  1.00  0.00     0.012 A 
ATOM     76  C   UNL A   1      47.625  23.180  34.695  1.00  0.00     0.148 A 
ATOM     77  C   UNL A   1      45.743  21.175  35.276  1.00  0.00     0.002 A 
ATOM     78  C   UNL A   1      47.996  21.841  34.678  1.00  0.00     0.091 A 
ATOM     79  F   UNL A   1      48.506  24.163  34.458  1.00  0.00    -0.205 F 
ATOM     80  C   UNL A   1      47.060  20.838  34.980  1.00  0.00     0.022 A 
BRANCH  78  81
ATOM     81  S   UNL A   1      49.649  21.298  34.233  1.00  0.00     0.127 S 
ATOM     82  O   UNL A   1      50.324  21.311  35.530  1.00  0.00    -0.237 OA
ATOM     83  O   UNL A   1      49.395  19.961  33.693  1.00  0.00    -0.237 OA
ATOM     84  O   UNL A   1      50.146  22.264  33.264  1.00  0.00    -0.744 OA
ENDBRANCH  78  81
ENDBRANCH  60  74
BRANCH  61  85
ATOM     85  C   UNL A   1      43.020  32.949  34.272  1.00  0.00     0.023 A 
ATOM     86  C   UNL A   1      43.794  33.987  33.716  1.00  0.00     0.012 A 
ATOM     87  C   UNL A   1      41.739  33.243  34.776  1.00  0.00     0.148 A 
ATOM     88  C   UNL A   1      43.316  35.298  33.701  1.00  0.00     0.002 A 
ATOM     89  C   UNL A   1      41.244  34.538  34.700  1.00  0.00     0.091 A 
ATOM     90  F   UNL A   1      41.027  32.245  35.319  1.00  0.00    -0.205 F 
ATOM     91  C   UNL A   1      42.038  35.572  34.183  1.00  0.00     0.022 A 
BRANCH  89  92
ATOM     92  S   UNL A   1      39.562  34.951  35.173  1.00  0.00     0.127 S 
ATOM     93  O   UNL A   1      39.683  36.368  35.507  1.00  0.00    -0.237 OA
ATOM     94  O   UNL A   1      38.826  34.667  33.940  1.00  0.00    -0.237 OA
ATOM     95  O   UNL A   1      39.236  34.064  36.282  1.00  0.00    -0.744 OA
ENDBRANCH  89  92
ENDBRANCH  61  85
BRANCH  73  96
ATOM     96  C   UNL A   1      46.656  29.453  39.095  1.00  0.00     0.023 A 
ATOM     97  C   UNL A   1      47.866  30.175  39.156  1.00  0.00     0.012 A 
ATOM     98  C   UNL A   1      45.977  29.145  40.290  1.00  0.00     0.148 A 
ATOM     99  C   UNL A   1      48.418  30.533  40.386  1.00  0.00     0.002 A 
ATOM    100  C   UNL A   1      46.504  29.554  41.509  1.00  0.00     0.091 A 
ATOM    101  F   UNL A   1      44.835  28.446  40.217  1.00  0.00    -0.205 F 
ATOM    102  C   UNL A   1      47.734  30.231  41.561  1.00  0.00     0.022 A 
BRANCH 100 103
ATOM    103  S   UNL A   1      45.644  29.296  43.065  1.00  0.00     0.127 S 
ATOM    104  O   UNL A   1      46.526  29.978  44.010  1.00  0.00    -0.237 OA
ATOM    105  O   UNL A   1      44.366  29.971  42.829  1.00  0.00    -0.237 OA
ATOM    106  O   UNL A   1      45.542  27.853  43.232  1.00  0.00    -0.744 OA
ENDBRANCH 100 103
ENDBRANCH  73  96
ENDBRANCH  47  48
ENDBRANCH  40  42
ENDBRANCH  39  40
ENDBRANCH  38  39
ENDBRANCH  37  38
ENDBRANCH  36  37
ENDBRANCH  35  36
ENDBRANCH  34  35
ENDBRANCH  33  34
ENDBRANCH   1  33
TORSDOF 29
ENDMDL
MODEL 2
REMARK VINA RESULT:      -8.2      5.400      8.870
REMARK SMILES O=C(CCNC(=O)/C(=C/c1ccccc1)NC(=O)c1ccccc1)OCCOCCOCCOCCOC(=O)c1ccc(-c2c3nc(c(-c4cccc(S(=O)(=O)[O-])c4F)c4ccc([nH]4)c(-c4cccc(S(=O)(=O)[O-])c4F)c4nc(c(-c5cccc(S(=O)(=O)[O-])c5F)c5ccc2[nH]5)C=C4)C=C3)cc1
REMARK SMILES IDX 30 1 29 2 28 3 27 4 26 5 25 6 2 7 1 8 3 9 4 10 5 11 6 12
REMARK SMILES IDX 7 14 8 15 9 16 16 17 17 18 18 20 19 21 20 22 24 23 21 24
REMARK SMILES IDX 23 25 22 26 10 27 11 28 15 29 12 30 14 31 13 32 31 33 32 34
REMARK SMILES IDX 33 35 34 36 35 37 36 38 37 39 38 40 39 41 40 42 41 43 102 44
REMARK SMILES IDX 42 45 101 46 43 47 44 48 45 49 95 50 46 51 100 52 94 53
REMARK SMILES IDX 96 54 47 55 99 56 93 57 92 58 48 60 80 61 60 62 79 63 61 64
REMARK SMILES IDX 64 65 78 66 97 67 62 68 63 69 77 71 98 72 65 73 49 74 50 75
REMARK SMILES IDX 58 76 51 77 53 78 59 79 52 80 54 81 55 82 56 83 57 84 81 85
REMARK SMILES IDX 82 86 90 87 83 88 85 89 91 90 84 91 86 92 87 93 88 94 89 95
REMARK SMILES IDX 66 96 67 97 75 98 68 99 70 100 76 101 69 102 71 103 72 104
REMARK SMILES IDX 73 105 74 106
REMARK H PARENT 5 13 16 19 96 59 64 70
REMARK Flexibility Score: inf
ROOT
ATOM      1  C   UNL A   1      38.380  30.431  29.542  1.00  0.00     0.188 C 
ENDROOT
BRANCH   1   2
ATOM      2  C   UNL A   1      37.045  30.507  28.786  1.00  0.00     0.188 C 
BRANCH   2   3
ATOM      3  O   UNL A   1      36.542  29.352  28.159  1.00  0.00    -0.376 OA
BRANCH   3   4
ATOM      4  C   UNL A   1      35.478  29.398  27.224  1.00  0.00     0.202 C 
BRANCH   4   5
ATOM      5  C   UNL A   1      34.226  30.232  27.475  1.00  0.00     0.261 C 
BRANCH   5   6
ATOM      6  O   UNL A   1      32.908  29.644  27.315  1.00  0.00    -0.463 OA
BRANCH   6   7
ATOM      7  C   UNL A   1      32.247  29.141  26.261  1.00  0.00     0.307 C 
ATOM      8  O   UNL A   1      31.425  28.240  26.432  1.00  0.00    -0.252 OA
BRANCH   7   9
ATOM      9  C   UNL A   1      32.476  29.680  24.882  1.00  0.00     0.144 C 
BRANCH   9  10
ATOM     10  C   UNL A   1      31.880  28.761  23.834  1.00  0.00     0.128 C 
BRANCH  10  11
ATOM     11  N   UNL A   1      32.859  28.189  22.926  1.00  0.00    -0.350 N 
ATOM     12  C   UNL A   1      33.392  26.971  22.650  1.00  0.00     0.267 C 
ATOM     13  H   UNL A   1      33.249  28.883  22.346  1.00  0.00     0.163 HD
ATOM     14  O   UNL A   1      34.055  26.968  21.612  1.00  0.00    -0.268 OA
BRANCH  12  15
ATOM     15  C   UNL A   1      33.158  25.680  23.426  1.00  0.00     0.107 C 
ATOM     16  C   UNL A   1      33.210  25.663  24.773  1.00  0.00     0.040 C 
BRANCH  15  17
ATOM     17  N   UNL A   1      32.740  24.536  22.757  1.00  0.00    -0.317 N 
ATOM     18  C   UNL A   1      33.293  23.293  22.524  1.00  0.00     0.255 C 
ATOM     19  H   UNL A   1      31.846  24.635  22.357  1.00  0.00     0.170 HD
ATOM     20  O   UNL A   1      32.770  22.571  21.673  1.00  0.00    -0.269 OA
BRANCH  18  21
ATOM     21  C   UNL A   1      34.397  22.727  23.329  1.00  0.00     0.040 A 
ATOM     22  C   UNL A   1      34.128  21.611  24.131  1.00  0.00     0.014 A 
ATOM     23  C   UNL A   1      35.668  23.313  23.351  1.00  0.00     0.014 A 
ATOM     24  C   UNL A   1      35.148  21.031  24.888  1.00  0.00     0.001 A 
ATOM     25  C   UNL A   1      36.683  22.735  24.121  1.00  0.00     0.001 A 
ATOM     26  C   UNL A   1      36.427  21.586  24.872  1.00  0.00     0.000 A 
ENDBRANCH  18  21
ENDBRANCH  15  17
BRANCH  16  27
ATOM     27  C   UNL A   1      32.644  24.659  25.691  1.00  0.00    -0.023 A 
ATOM     28  C   UNL A   1      31.256  24.458  25.606  1.00  0.00     0.008 A 
ATOM     29  C   UNL A   1      33.383  23.903  26.604  1.00  0.00     0.008 A 
ATOM     30  C   UNL A   1      30.623  23.490  26.384  1.00  0.00     0.001 A 
ATOM     31  C   UNL A   1      32.747  22.925  27.377  1.00  0.00     0.001 A 
ATOM     32  C   UNL A   1      31.372  22.715  27.262  1.00  0.00     0.000 A 
ENDBRANCH  16  27
ENDBRANCH  12  15
ENDBRANCH  10  11
ENDBRANCH   9  10
ENDBRANCH   7   9
ENDBRANCH   6   7
ENDBRANCH   5   6
ENDBRANCH   4   5
ENDBRANCH   3   4
ENDBRANCH   2   3
ENDBRANCH   1   2
BRANCH   1  33
ATOM     33  O   UNL A   1      39.540  29.766  29.082  1.00  0.00    -0.377 OA
BRANCH  33  34
ATOM     34  C   UNL A   1      39.451  28.496  28.475  1.00  0.00     0.188 C 
BRANCH  34  35
ATOM     35  C   UNL A   1      39.920  27.266  29.278  1.00  0.00     0.188 C 
BRANCH  35  36
ATOM     36  O   UNL A   1      39.148  26.095  29.143  1.00  0.00    -0.376 OA
BRANCH  36  37
ATOM     37  C   UNL A   1      39.316  25.224  28.039  1.00  0.00     0.202 C 
BRANCH  37  38
ATOM     38  C   UNL A   1      40.630  24.547  27.588  1.00  0.00     0.261 C 
BRANCH  38  39
ATOM     39  O   UNL A   1      41.063  24.709  26.239  1.00  0.00    -0.460 OA
BRANCH  39  40
ATOM     40  C   UNL A   1      41.810  25.800  25.968  1.00  0.00     0.338 C 
ATOM     41  O   UNL A   1      41.495  26.744  25.259  1.00  0.00    -0.246 OA
BRANCH  40  42
ATOM     42  C   UNL A   1      42.981  25.794  26.871  1.00  0.00     0.060 A 
ATOM     43  C   UNL A   1      43.237  26.955  27.614  1.00  0.00     0.016 A 
ATOM     44  C   UNL A   1      43.799  24.670  27.013  1.00  0.00     0.016 A 
ATOM     45  C   UNL A   1      44.339  27.013  28.460  1.00  0.00     0.010 A 
ATOM     46  C   UNL A   1      44.926  24.741  27.842  1.00  0.00     0.010 A 
ATOM     47  C   UNL A   1      45.222  25.929  28.532  1.00  0.00    -0.014 A 
BRANCH  47  48
ATOM     48  C   UNL A   1      46.550  26.154  29.152  1.00  0.00     0.031 A 
ATOM     49  C   UNL A   1      46.742  25.750  30.590  1.00  0.00     0.074 A 
ATOM     50  C   UNL A   1      47.588  26.616  28.434  1.00  0.00     0.049 A 
ATOM     51  N   UNL A   1      47.826  25.770  31.320  1.00  0.00    -0.248 NA
ATOM     52  C   UNL A   1      45.551  25.247  31.297  1.00  0.00     0.031 C 
ATOM     53  C   UNL A   1      47.531  27.033  27.033  1.00  0.00     0.029 A 
ATOM     54  N   UNL A   1      48.897  26.818  28.793  1.00  0.00    -0.354 N 
ATOM     55  C   UNL A   1      47.449  25.294  32.570  1.00  0.00     0.074 A 
ATOM     56  C   UNL A   1      46.032  25.019  32.510  1.00  0.00     0.031 C 
ATOM     57  C   UNL A   1      48.747  27.467  26.659  1.00  0.00     0.029 A 
ATOM     58  C   UNL A   1      49.663  27.372  27.796  1.00  0.00     0.049 A 
ATOM     59  H   UNL A   1      49.253  26.589  29.682  1.00  0.00     0.167 HD
ATOM     60  C   UNL A   1      48.216  25.081  33.664  1.00  0.00     0.034 A 
ATOM     61  C   UNL A   1      50.949  27.775  27.808  1.00  0.00     0.034 A 
ATOM     62  C   UNL A   1      49.627  25.354  33.725  1.00  0.00     0.049 A 
ATOM     63  C   UNL A   1      51.775  27.559  29.051  1.00  0.00     0.074 A 
ATOM     64  C   UNL A   1      50.497  25.158  34.782  1.00  0.00     0.029 A 
ATOM     65  N   UNL A   1      50.373  25.894  32.689  1.00  0.00    -0.354 N 
ATOM     66  N   UNL A   1      51.429  27.013  30.192  1.00  0.00    -0.248 NA
ATOM     67  C   UNL A   1      53.183  27.977  28.992  1.00  0.00     0.031 C 
ATOM     68  C   UNL A   1      51.763  25.611  34.396  1.00  0.00     0.029 A 
ATOM     69  C   UNL A   1      51.692  26.048  33.083  1.00  0.00     0.049 A 
ATOM     70  H   UNL A   1      50.018  26.135  31.803  1.00  0.00     0.167 HD
ATOM     71  C   UNL A   1      52.581  26.994  30.973  1.00  0.00     0.074 A 
ATOM     72  C   UNL A   1      53.642  27.550  30.160  1.00  0.00     0.031 C 
ATOM     73  C   UNL A   1      52.745  26.570  32.252  1.00  0.00     0.034 A 
BRANCH  60  74
ATOM     74  C   UNL A   1      47.546  24.502  34.884  1.00  0.00     0.023 A 
ATOM     75  C   UNL A   1      46.810  25.346  35.742  1.00  0.00     0.012 A 
ATOM     76  C   UNL A   1      47.600  23.121  35.152  1.00  0.00     0.148 A 
ATOM     77  C   UNL A   1      46.164  24.827  36.864  1.00  0.00     0.002 A 
ATOM     78  C   UNL A   1      46.915  22.606  36.245  1.00  0.00     0.091 A 
ATOM     79  F   UNL A   1      48.324  22.340  34.337  1.00  0.00    -0.205 F 
ATOM     80  C   UNL A   1      46.207  23.458  37.109  1.00  0.00     0.022 A 
BRANCH  78  81
ATOM     81  S   UNL A   1      46.843  20.848  36.605  1.00  0.00     0.127 S 
ATOM     82  O   UNL A   1      48.205  20.584  37.067  1.00  0.00    -0.237 OA
ATOM     83  O   UNL A   1      45.823  20.793  37.653  1.00  0.00    -0.237 OA
ATOM     84  O   UNL A   1      46.473  20.194  35.358  1.00  0.00    -0.744 OA
ENDBRANCH  78  81
ENDBRANCH  60  74
BRANCH  61  85
ATOM     85  C   UNL A   1      51.543  28.421  26.603  1.00  0.00     0.023 A 
ATOM     86  C   UNL A   1      52.210  27.644  25.636  1.00  0.00     0.012 A 
ATOM     87  C   UNL A   1      51.455  29.814  26.420  1.00  0.00     0.148 A 
ATOM     88  C   UNL A   1      52.813  28.248  24.532  1.00  0.00     0.002 A 
ATOM     89  C   UNL A   1      52.001  30.402  25.287  1.00  0.00     0.091 A 
ATOM     90  F   UNL A   1      50.832  30.539  27.361  1.00  0.00    -0.205 F 
ATOM     91  C   UNL A   1      52.700  29.625  24.352  1.00  0.00     0.022 A 
BRANCH  89  92
ATOM     92  S   UNL A   1      51.785  32.144  24.911  1.00  0.00     0.127 S 
ATOM     93  O   UNL A   1      52.912  32.746  25.619  1.00  0.00    -0.237 OA
ATOM     94  O   UNL A   1      51.897  32.151  23.451  1.00  0.00    -0.237 OA
ATOM     95  O   UNL A   1      50.462  32.493  25.411  1.00  0.00    -0.744 OA
ENDBRANCH  89  92
ENDBRANCH  61  85
BRANCH  73  96
ATOM     96  C   UNL A   1      54.132  26.661  32.840  1.00  0.00     0.023 A 
ATOM     97  C   UNL A   1      54.540  27.833  33.511  1.00  0.00     0.012 A 
ATOM     98  C   UNL A   1      55.021  25.572  32.756  1.00  0.00     0.148 A 
ATOM     99  C   UNL A   1      55.827  27.939  34.035  1.00  0.00     0.002 A 
ATOM    100  C   UNL A   1      56.283  25.664  33.330  1.00  0.00     0.091 A 
ATOM    101  F   UNL A   1      54.625  24.469  32.104  1.00  0.00    -0.205 F 
ATOM    102  C   UNL A   1      56.695  26.854  33.953  1.00  0.00     0.022 A 
BRANCH 100 103
ATOM    103  S   UNL A   1      57.431  24.283  33.360  1.00  0.00     0.127 S 
ATOM    104  O   UNL A   1      57.768  24.145  31.944  1.00  0.00    -0.237 OA
ATOM    105  O   UNL A   1      58.516  24.799  34.197  1.00  0.00    -0.237 OA
ATOM    106  O   UNL A   1      56.701  23.166  33.941  1.00  0.00    -0.744 OA
ENDBRANCH 100 103
ENDBRANCH  73  96
ENDBRANCH  47  48
ENDBRANCH  40  42
ENDBRANCH  39  40
ENDBRANCH  38  39
ENDBRANCH  37  38
ENDBRANCH  36  37
ENDBRANCH  35  36
ENDBRANCH  34  35
ENDBRANCH  33  34
ENDBRANCH   1  33
TORSDOF 29
ENDMDL
MODEL 3
REMARK VINA RESULT:      -8.0      3.600      6.846
REMARK SMILES O=C(CCNC(=O)/C(=C/c1ccccc1)NC(=O)c1ccccc1)OCCOCCOCCOCCOC(=O)c1ccc(-c2c3nc(c(-c4cccc(S(=O)(=O)[O-])c4F)c4ccc([nH]4)c(-c4cccc(S(=O)(=O)[O-])c4F)c4nc(c(-c5cccc(S(=O)(=O)[O-])c5F)c5ccc2[nH]5)C=C4)C=C3)cc1
REMARK SMILES IDX 30 1 29 2 28 3 27 4 26 5 25 6 2 7 1 8 3 9 4 10 5 11 6 12
REMARK SMILES IDX 7 14 8 15 9 16 16 17 17 18 18 20 19 21 20 22 24 23 21 24
REMARK SMILES IDX 23 25 22 26 10 27 11 28 15 29 12 30 14 31 13 32 31 33 32 34
REMARK SMILES IDX 33 35 34 36 35 37 36 38 37 39 38 40 39 41 40 42 41 43 102 44
REMARK SMILES IDX 42 45 101 46 43 47 44 48 45 49 95 50 46 51 100 52 94 53
REMARK SMILES IDX 96 54 47 55 99 56 93 57 92 58 48 60 80 61 60 62 79 63 61 64
REMARK SMILES IDX 64 65 78 66 97 67 62 68 63 69 77 71 98 72 65 73 49 74 50 75
REMARK SMILES IDX 58 76 51 77 53 78 59 79 52 80 54 81 55 82 56 83 57 84 81 85
REMARK SMILES IDX 82 86 90 87 83 88 85 89 91 90 84 91 86 92 87 93 88 94 89 95
REMARK SMILES IDX 66 96 67 97 75 98 68 99 70 100 76 101 69 102 71 103 72 104
REMARK SMILES IDX 73 105 74 106
REMARK H PARENT 5 13 16 19 96 59 64 70
REMARK Flexibility Score: inf
ROOT
ATOM      1  C   UNL A   1      33.574  23.117  25.531  1.00  0.00     0.188 C 
ENDROOT
BRANCH   1   2
ATOM      2  C   UNL A   1      33.751  24.642  25.589  1.00  0.00     0.188 C 
BRANCH   2   3
ATOM      3  O   UNL A   1      32.618  25.463  25.737  1.00  0.00    -0.376 OA
BRANCH   3   4
ATOM      4  C   UNL A   1      32.659  26.696  26.435  1.00  0.00     0.202 C 
BRANCH   4   5
ATOM      5  C   UNL A   1      33.142  27.978  25.767  1.00  0.00     0.261 C 
BRANCH   5   6
ATOM      6  O   UNL A   1      33.888  28.966  26.527  1.00  0.00    -0.463 OA
BRANCH   6   7
ATOM      7  C   UNL A   1      33.662  30.253  26.832  1.00  0.00     0.307 C 
ATOM      8  O   UNL A   1      32.620  30.793  26.458  1.00  0.00    -0.252 OA
BRANCH   7   9
ATOM      9  C   UNL A   1      34.647  31.035  27.646  1.00  0.00     0.144 C 
BRANCH   9  10
ATOM     10  C   UNL A   1      35.528  30.113  28.465  1.00  0.00     0.128 C 
BRANCH  10  11
ATOM     11  N   UNL A   1      36.825  29.851  27.865  1.00  0.00    -0.350 N 
ATOM     12  C   UNL A   1      38.076  29.510  28.269  1.00  0.00     0.267 C 
ATOM     13  H   UNL A   1      36.786  29.948  26.886  1.00  0.00     0.163 HD
ATOM     14  O   UNL A   1      38.804  29.185  27.330  1.00  0.00    -0.268 OA
BRANCH  12  15
ATOM     15  C   UNL A   1      38.572  29.412  29.707  1.00  0.00     0.107 C 
ATOM     16  C   UNL A   1      39.854  29.094  29.977  1.00  0.00     0.040 C 
BRANCH  15  17
ATOM     17  N   UNL A   1      37.743  29.799  30.753  1.00  0.00    -0.317 N 
ATOM     18  C   UNL A   1      37.567  30.965  31.470  1.00  0.00     0.255 C 
ATOM     19  H   UNL A   1      37.143  29.077  31.050  1.00  0.00     0.170 HD
ATOM     20  O   UNL A   1      36.915  30.916  32.515  1.00  0.00    -0.269 OA
BRANCH  18  21
ATOM     21  C   UNL A   1      38.004  32.294  30.988  1.00  0.00     0.040 A 
ATOM     22  C   UNL A   1      37.828  32.599  29.632  1.00  0.00     0.014 A 
ATOM     23  C   UNL A   1      38.638  33.212  31.834  1.00  0.00     0.014 A 
ATOM     24  C   UNL A   1      38.205  33.850  29.142  1.00  0.00     0.001 A 
ATOM     25  C   UNL A   1      39.025  34.460  31.334  1.00  0.00     0.001 A 
ATOM     26  C   UNL A   1      38.792  34.784  29.996  1.00  0.00     0.000 A 
ENDBRANCH  18  21
ENDBRANCH  15  17
BRANCH  16  27
ATOM     27  C   UNL A   1      40.605  29.330  31.222  1.00  0.00    -0.023 A 
ATOM     28  C   UNL A   1      41.063  28.184  31.893  1.00  0.00     0.008 A 
ATOM     29  C   UNL A   1      40.896  30.589  31.753  1.00  0.00     0.008 A 
ATOM     30  C   UNL A   1      41.836  28.291  33.049  1.00  0.00     0.001 A 
ATOM     31  C   UNL A   1      41.680  30.694  32.908  1.00  0.00     0.001 A 
ATOM     32  C   UNL A   1      42.154  29.549  33.549  1.00  0.00     0.000 A 
ENDBRANCH  16  27
ENDBRANCH  12  15
ENDBRANCH  10  11
ENDBRANCH   9  10
ENDBRANCH   7   9
ENDBRANCH   6   7
ENDBRANCH   5   6
ENDBRANCH   4   5
ENDBRANCH   3   4
ENDBRANCH   2   3
ENDBRANCH   1   2
BRANCH   1  33
ATOM     33  O   UNL A   1      34.548  22.201  25.072  1.00  0.00    -0.377 OA
BRANCH  33  34
ATOM     34  C   UNL A   1      35.923  22.460  25.250  1.00  0.00     0.188 C 
BRANCH  34  35
ATOM     35  C   UNL A   1      36.936  21.604  24.464  1.00  0.00     0.188 C 
BRANCH  35  36
ATOM     36  O   UNL A   1      37.547  20.548  25.169  1.00  0.00    -0.376 OA
BRANCH  36  37
ATOM     37  C   UNL A   1      38.923  20.580  25.499  1.00  0.00     0.202 C 
BRANCH  37  38
ATOM     38  C   UNL A   1      39.646  21.653  26.344  1.00  0.00     0.261 C 
BRANCH  38  39
ATOM     39  O   UNL A   1      40.876  22.197  25.868  1.00  0.00    -0.460 OA
BRANCH  39  40
ATOM     40  C   UNL A   1      41.983  21.914  26.585  1.00  0.00     0.338 C 
ATOM     41  O   UNL A   1      42.685  20.919  26.484  1.00  0.00    -0.246 OA
BRANCH  40  42
ATOM     42  C   UNL A   1      42.361  23.123  27.347  1.00  0.00     0.060 A 
ATOM     43  C   UNL A   1      43.701  23.532  27.299  1.00  0.00     0.016 A 
ATOM     44  C   UNL A   1      41.423  23.861  28.075  1.00  0.00     0.016 A 
ATOM     45  C   UNL A   1      44.116  24.648  28.018  1.00  0.00     0.010 A 
ATOM     46  C   UNL A   1      41.848  24.966  28.823  1.00  0.00     0.010 A 
ATOM     47  C   UNL A   1      43.205  25.334  28.830  1.00  0.00    -0.014 A 
BRANCH  47  48
ATOM     48  C   UNL A   1      43.746  26.277  29.839  1.00  0.00     0.031 A 
ATOM     49  C   UNL A   1      44.392  25.706  31.073  1.00  0.00     0.074 A 
ATOM     50  C   UNL A   1      43.750  27.604  29.624  1.00  0.00     0.049 A 
ATOM     51  N   UNL A   1      45.006  26.322  32.049  1.00  0.00    -0.248 NA
ATOM     52  C   UNL A   1      44.347  24.241  31.222  1.00  0.00     0.031 C 
ATOM     53  C   UNL A   1      43.163  28.277  28.466  1.00  0.00     0.029 A 
ATOM     54  N   UNL A   1      44.262  28.625  30.383  1.00  0.00    -0.354 N 
ATOM     55  C   UNL A   1      45.411  25.326  32.929  1.00  0.00     0.074 A 
ATOM     56  C   UNL A   1      44.950  24.068  32.389  1.00  0.00     0.031 C 
ATOM     57  C   UNL A   1      43.326  29.603  28.605  1.00  0.00     0.029 A 
ATOM     58  C   UNL A   1      44.015  29.874  29.867  1.00  0.00     0.049 A 
ATOM     59  H   UNL A   1      44.760  28.477  31.221  1.00  0.00     0.167 HD
ATOM     60  C   UNL A   1      46.123  25.443  34.074  1.00  0.00     0.034 A 
ATOM     61  C   UNL A   1      44.295  31.094  30.367  1.00  0.00     0.034 A 
ATOM     62  C   UNL A   1      46.582  26.695  34.613  1.00  0.00     0.049 A 
ATOM     63  C   UNL A   1      45.060  31.200  31.662  1.00  0.00     0.074 A 
ATOM     64  C   UNL A   1      47.324  26.918  35.759  1.00  0.00     0.029 A 
ATOM     65  N   UNL A   1      46.331  27.937  34.052  1.00  0.00    -0.354 N 
ATOM     66  N   UNL A   1      45.525  30.244  32.431  1.00  0.00    -0.248 NA
ATOM     67  C   UNL A   1      45.375  32.555  32.137  1.00  0.00     0.031 C 
ATOM     68  C   UNL A   1      47.495  28.299  35.907  1.00  0.00     0.029 A 
ATOM     69  C   UNL A   1      46.896  28.933  34.831  1.00  0.00     0.049 A 
ATOM     70  H   UNL A   1      45.825  28.090  33.221  1.00  0.00     0.167 HD
ATOM     71  C   UNL A   1      46.212  30.880  33.460  1.00  0.00     0.074 A 
ATOM     72  C   UNL A   1      46.133  32.302  33.195  1.00  0.00     0.031 C 
ATOM     73  C   UNL A   1      46.839  30.341  34.536  1.00  0.00     0.034 A 
BRANCH  60  74
ATOM     74  C   UNL A   1      46.470  24.175  34.812  1.00  0.00     0.023 A 
ATOM     75  C   UNL A   1      45.525  23.594  35.683  1.00  0.00     0.012 A 
ATOM     76  C   UNL A   1      47.706  23.534  34.605  1.00  0.00     0.148 A 
ATOM     77  C   UNL A   1      45.817  22.410  36.359  1.00  0.00     0.002 A 
ATOM     78  C   UNL A   1      47.970  22.330  35.246  1.00  0.00     0.091 A 
ATOM     79  F   UNL A   1      48.599  24.114  33.792  1.00  0.00    -0.205 F 
ATOM     80  C   UNL A   1      47.033  21.773  36.133  1.00  0.00     0.022 A 
BRANCH  78  81
ATOM     81  S   UNL A   1      49.474  21.389  34.964  1.00  0.00     0.127 S 
ATOM     82  O   UNL A   1      50.493  22.294  35.496  1.00  0.00    -0.237 OA
ATOM     83  O   UNL A   1      49.242  20.192  35.773  1.00  0.00    -0.237 OA
ATOM     84  O   UNL A   1      49.541  21.154  33.529  1.00  0.00    -0.744 OA
ENDBRANCH  78  81
ENDBRANCH  60  74
BRANCH  61  85
ATOM     85  C   UNL A   1      43.855  32.320  29.641  1.00  0.00     0.023 A 
ATOM     86  C   UNL A   1      42.777  33.084  30.127  1.00  0.00     0.012 A 
ATOM     87  C   UNL A   1      44.502  32.722  28.457  1.00  0.00     0.148 A 
ATOM     88  C   UNL A   1      42.326  34.204  29.425  1.00  0.00     0.002 A 
ATOM     89  C   UNL A   1      44.090  33.872  27.797  1.00  0.00     0.091 A 
ATOM     90  F   UNL A   1      45.513  31.970  28.000  1.00  0.00    -0.205 F 
ATOM     91  C   UNL A   1      42.989  34.604  28.267  1.00  0.00     0.022 A 
BRANCH  89  92
ATOM     92  S   UNL A   1      44.970  34.532  26.378  1.00  0.00     0.127 S 
ATOM     93  O   UNL A   1      43.951  35.377  25.760  1.00  0.00    -0.237 OA
ATOM     94  O   UNL A   1      46.069  35.256  27.018  1.00  0.00    -0.237 OA
ATOM     95  O   UNL A   1      45.388  33.373  25.601  1.00  0.00    -0.744 OA
ENDBRANCH  89  92
ENDBRANCH  61  85
BRANCH  73  96
ATOM     96  C   UNL A   1      47.519  31.292  35.491  1.00  0.00     0.023 A 
ATOM     97  C   UNL A   1      48.925  31.412  35.487  1.00  0.00     0.012 A 
ATOM     98  C   UNL A   1      46.763  32.089  36.373  1.00  0.00     0.148 A 
ATOM     99  C   UNL A   1      49.567  32.267  36.383  1.00  0.00     0.002 A 
ATOM    100  C   UNL A   1      47.407  32.980  37.223  1.00  0.00     0.091 A 
ATOM    101  F   UNL A   1      45.429  31.954  36.375  1.00  0.00    -0.205 F 
ATOM    102  C   UNL A   1      48.810  33.056  37.243  1.00  0.00     0.022 A 
BRANCH 100 103
ATOM    103  S   UNL A   1      46.509  34.106  38.296  1.00  0.00     0.127 S 
ATOM    104  O   UNL A   1      45.521  33.217  38.903  1.00  0.00    -0.237 OA
ATOM    105  O   UNL A   1      47.557  34.567  39.209  1.00  0.00    -0.237 OA
ATOM    106  O   UNL A   1      45.969  35.143  37.428  1.00  0.00    -0.744 OA
ENDBRANCH 100 103
ENDBRANCH  73  96
ENDBRANCH  47  48
ENDBRANCH  40  42
ENDBRANCH  39  40
ENDBRANCH  38  39
ENDBRANCH  37  38
ENDBRANCH  36  37
ENDBRANCH  35  36
ENDBRANCH  34  35
ENDBRANCH  33  34
ENDBRANCH   1  33
TORSDOF 29
ENDMDL
