MODEL 1
REMARK VINA RESULT:      -9.6      0.000      0.000
REMARK SMILES O=C(CNC(=O)[C@@H](CC1=c2ccccc2=NC1)N1C(=O)N=C2C=CC=C[C@H]2C1=O)OCCOCCOCCOCCOC(=O)c1ccc(-c2c3nc(c(-c4cccc(S(=O)(=O)[O-])c4F)c4ccc([nH]4)c(-c4cccc(S(=O)(=O)[O-])c4F)c4nc(c(-c5cccc(S(=O)(=O)[O-])c5F)c5ccc2[nH]5)C=C4)C=C3)cc1
REMARK SMILES IDX 35 1 34 2 33 3 32 4 31 5 30 6 2 7 1 8 3 9 4 10 5 11 6 13
REMARK SMILES IDX 7 14 8 15 9 16 10 17 17 18 11 19 15 20 16 21 12 22 14 23
REMARK SMILES IDX 13 24 18 25 19 26 28 27 21 28 20 29 27 30 29 31 22 32 26 33
REMARK SMILES IDX 23 34 25 35 24 36 36 37 37 38 38 39 39 40 40 41 41 42 42 43
REMARK SMILES IDX 43 44 44 45 45 46 46 47 107 48 47 49 106 50 48 51 49 52
REMARK SMILES IDX 50 53 100 54 51 55 105 56 99 57 101 58 52 59 104 60 98 61
REMARK SMILES IDX 97 62 53 64 85 65 65 66 84 67 66 68 69 69 83 70 102 71 67 72
REMARK SMILES IDX 68 73 82 75 103 76 70 77 54 78 55 79 63 80 56 81 58 82 64 83
REMARK SMILES IDX 57 84 59 85 60 86 61 87 62 88 86 89 87 90 95 91 88 92 90 93
REMARK SMILES IDX 96 94 89 95 91 96 92 97 93 98 94 99 71 100 72 101 80 102
REMARK SMILES IDX 73 103 75 104 81 105 74 106 76 107 77 108 78 109 79 110
REMARK H PARENT 4 12 101 63 69 74
REMARK Flexibility Score: inf
ROOT
ATOM      1  C   UNL A   1      43.081  22.353  27.590  1.00  0.00     0.188 C 
ENDROOT
BRANCH   1   2
ATOM      2  C   UNL A   1      41.596  22.376  27.899  1.00  0.00     0.188 C 
BRANCH   2   3
ATOM      3  O   UNL A   1      40.589  21.738  27.070  1.00  0.00    -0.376 OA
BRANCH   3   4
ATOM      4  C   UNL A   1      39.361  22.350  26.631  1.00  0.00     0.202 C 
BRANCH   4   5
ATOM      5  C   UNL A   1      39.274  23.908  26.865  1.00  0.00     0.261 C 
BRANCH   5   6
ATOM      6  O   UNL A   1      37.997  24.400  26.354  1.00  0.00    -0.462 OA
BRANCH   6   7
ATOM      7  C   UNL A   1      36.922  23.909  25.715  1.00  0.00     0.325 C 
ATOM      8  O   UNL A   1      35.946  23.638  26.430  1.00  0.00    -0.250 OA
BRANCH   7   9
ATOM      9  C   UNL A   1      36.905  23.275  24.292  1.00  0.00     0.238 C 
BRANCH   9  10
ATOM     10  N   UNL A   1      35.942  23.103  23.186  1.00  0.00    -0.343 N 
ATOM     11  C   UNL A   1      34.613  23.521  23.130  1.00  0.00     0.244 C 
ATOM     12  H   UNL A   1      36.279  22.634  22.389  1.00  0.00     0.164 HD
ATOM     13  O   UNL A   1      34.239  24.287  22.246  1.00  0.00    -0.273 OA
BRANCH  11  14
ATOM     14  C   UNL A   1      33.653  22.814  24.070  1.00  0.00     0.188 C 
BRANCH  14  15
ATOM     15  C   UNL A   1      32.487  23.668  24.522  1.00  0.00     0.069 C 
BRANCH  15  16
ATOM     16  C   UNL A   1      32.316  24.897  25.365  1.00  0.00    -0.037 C 
ATOM     17  C   UNL A   1      32.810  26.119  25.265  1.00  0.00     0.001 A 
ATOM     18  C   UNL A   1      31.401  24.861  26.584  1.00  0.00     0.174 C 
ATOM     19  C   UNL A   1      33.771  26.750  24.438  1.00  0.00     0.010 A 
ATOM     20  C   UNL A   1      32.035  26.872  26.271  1.00  0.00     0.065 A 
ATOM     21  N   UNL A   1      31.146  26.248  26.973  1.00  0.00    -0.280 NA
ATOM     22  C   UNL A   1      34.028  28.048  24.660  1.00  0.00     0.001 A 
ATOM     23  C   UNL A   1      32.320  28.301  26.412  1.00  0.00     0.028 A 
ATOM     24  C   UNL A   1      33.303  28.817  25.661  1.00  0.00     0.002 A 
ENDBRANCH  15  16
ENDBRANCH  14  15
BRANCH  14  25
ATOM     25  N   UNL A   1      33.401  21.320  24.088  1.00  0.00    -0.249 N 
ATOM     26  C   UNL A   1      32.525  20.836  23.112  1.00  0.00     0.351 C 
ATOM     27  C   UNL A   1      34.258  20.439  24.738  1.00  0.00     0.244 C 
ATOM     28  N   UNL A   1      32.172  19.526  23.062  1.00  0.00    -0.197 NA
ATOM     29  O   UNL A   1      32.107  21.567  22.205  1.00  0.00    -0.246 OA
ATOM     30  C   UNL A   1      33.841  18.959  24.778  1.00  0.00     0.151 C 
ATOM     31  O   UNL A   1      35.304  20.801  25.280  1.00  0.00    -0.273 OA
ATOM     32  C   UNL A   1      32.802  18.631  23.744  1.00  0.00     0.062 C 
ATOM     33  C   UNL A   1      34.946  17.916  24.698  1.00  0.00    -0.007 C 
ATOM     34  C   UNL A   1      32.470  17.207  23.475  1.00  0.00     0.025 C 
ATOM     35  C   UNL A   1      34.724  16.679  24.215  1.00  0.00    -0.003 C 
ATOM     36  C   UNL A   1      33.425  16.299  23.709  1.00  0.00     0.002 C 
ENDBRANCH  14  25
ENDBRANCH  11  14
ENDBRANCH   9  10
ENDBRANCH   7   9
ENDBRANCH   6   7
ENDBRANCH   5   6
ENDBRANCH   4   5
ENDBRANCH   3   4
ENDBRANCH   2   3
ENDBRANCH   1   2
BRANCH   1  37
ATOM     37  O   UNL A   1      43.735  23.552  27.905  1.00  0.00    -0.377 OA
BRANCH  37  38
ATOM     38  C   UNL A   1      44.215  24.239  26.773  1.00  0.00     0.188 C 
BRANCH  38  39
ATOM     39  C   UNL A   1      44.059  23.513  25.415  1.00  0.00     0.188 C 
BRANCH  39  40
ATOM     40  O   UNL A   1      44.988  23.669  24.342  1.00  0.00    -0.376 OA
BRANCH  40  41
ATOM     41  C   UNL A   1      46.380  23.706  24.594  1.00  0.00     0.202 C 
BRANCH  41  42
ATOM     42  C   UNL A   1      46.948  25.075  25.008  1.00  0.00     0.261 C 
BRANCH  42  43
ATOM     43  O   UNL A   1      46.480  26.199  24.243  1.00  0.00    -0.460 OA
BRANCH  43  44
ATOM     44  C   UNL A   1      47.032  27.413  24.497  1.00  0.00     0.338 C 
ATOM     45  O   UNL A   1      47.681  28.099  23.707  1.00  0.00    -0.246 OA
BRANCH  44  46
ATOM     46  C   UNL A   1      46.499  27.905  25.803  1.00  0.00     0.060 A 
ATOM     47  C   UNL A   1      47.367  28.197  26.864  1.00  0.00     0.016 A 
ATOM     48  C   UNL A   1      45.114  27.820  26.049  1.00  0.00     0.016 A 
ATOM     49  C   UNL A   1      46.855  28.432  28.146  1.00  0.00     0.010 A 
ATOM     50  C   UNL A   1      44.605  28.016  27.339  1.00  0.00     0.010 A 
ATOM     51  C   UNL A   1      45.468  28.376  28.387  1.00  0.00    -0.014 A 
BRANCH  51  52
ATOM     52  C   UNL A   1      44.921  29.123  29.551  1.00  0.00     0.031 A 
ATOM     53  C   UNL A   1      44.527  30.568  29.549  1.00  0.00     0.074 A 
ATOM     54  C   UNL A   1      44.784  28.387  30.671  1.00  0.00     0.049 A 
ATOM     55  N   UNL A   1      43.927  31.240  30.499  1.00  0.00    -0.248 NA
ATOM     56  C   UNL A   1      44.842  31.363  28.356  1.00  0.00     0.031 C 
ATOM     57  C   UNL A   1      45.186  26.982  30.794  1.00  0.00     0.029 A 
ATOM     58  N   UNL A   1      44.272  28.696  31.901  1.00  0.00    -0.354 N 
ATOM     59  C   UNL A   1      43.778  32.537  30.026  1.00  0.00     0.074 A 
ATOM     60  C   UNL A   1      44.378  32.562  28.704  1.00  0.00     0.031 C 
ATOM     61  C   UNL A   1      44.884  26.543  32.019  1.00  0.00     0.029 A 
ATOM     62  C   UNL A   1      44.278  27.633  32.770  1.00  0.00     0.049 A 
ATOM     63  H   UNL A   1      43.932  29.589  32.139  1.00  0.00     0.167 HD
ATOM     64  C   UNL A   1      43.174  33.591  30.631  1.00  0.00     0.034 A 
ATOM     65  C   UNL A   1      43.829  27.524  34.031  1.00  0.00     0.034 A 
ATOM     66  C   UNL A   1      42.588  33.551  31.951  1.00  0.00     0.049 A 
ATOM     67  C   UNL A   1      43.161  28.695  34.669  1.00  0.00     0.074 A 
ATOM     68  C   UNL A   1      41.918  34.560  32.626  1.00  0.00     0.029 A 
ATOM     69  N   UNL A   1      42.607  32.455  32.803  1.00  0.00    -0.354 N 
ATOM     70  N   UNL A   1      42.920  29.876  34.157  1.00  0.00    -0.248 NA
ATOM     71  C   UNL A   1      42.678  28.514  36.043  1.00  0.00     0.031 C 
ATOM     72  C   UNL A   1      41.544  34.078  33.886  1.00  0.00     0.029 A 
ATOM     73  C   UNL A   1      41.969  32.764  33.995  1.00  0.00     0.049 A 
ATOM     74  H   UNL A   1      43.016  31.585  32.591  1.00  0.00     0.167 HD
ATOM     75  C   UNL A   1      42.248  30.583  35.142  1.00  0.00     0.074 A 
ATOM     76  C   UNL A   1      42.101  29.688  36.274  1.00  0.00     0.031 C 
ATOM     77  C   UNL A   1      41.811  31.865  35.112  1.00  0.00     0.034 A 
BRANCH  64  78
ATOM     78  C   UNL A   1      43.037  34.876  29.852  1.00  0.00     0.023 A 
ATOM     79  C   UNL A   1      41.935  35.027  28.986  1.00  0.00     0.012 A 
ATOM     80  C   UNL A   1      43.908  35.966  30.054  1.00  0.00     0.148 A 
ATOM     81  C   UNL A   1      41.710  36.232  28.320  1.00  0.00     0.002 A 
ATOM     82  C   UNL A   1      43.664  37.173  29.404  1.00  0.00     0.091 A 
ATOM     83  F   UNL A   1      44.952  35.805  30.880  1.00  0.00    -0.205 F 
ATOM     84  C   UNL A   1      42.569  37.306  28.536  1.00  0.00     0.022 A 
BRANCH  82  85
ATOM     85  S   UNL A   1      44.679  38.638  29.648  1.00  0.00     0.127 S 
ATOM     86  O   UNL A   1      45.969  38.193  29.123  1.00  0.00    -0.237 OA
ATOM     87  O   UNL A   1      43.994  39.631  28.821  1.00  0.00    -0.237 OA
ATOM     88  O   UNL A   1      44.653  38.912  31.078  1.00  0.00    -0.744 OA
ENDBRANCH  82  85
ENDBRANCH  64  78
BRANCH  65  89
ATOM     89  C   UNL A   1      43.934  26.201  34.696  1.00  0.00     0.023 A 
ATOM     90  C   UNL A   1      42.884  25.278  34.548  1.00  0.00     0.012 A 
ATOM     91  C   UNL A   1      45.134  25.803  35.316  1.00  0.00     0.148 A 
ATOM     92  C   UNL A   1      43.027  23.970  35.007  1.00  0.00     0.002 A 
ATOM     93  C   UNL A   1      45.284  24.489  35.737  1.00  0.00     0.091 A 
ATOM     94  F   UNL A   1      46.124  26.701  35.415  1.00  0.00    -0.205 F 
ATOM     95  C   UNL A   1      44.229  23.572  35.589  1.00  0.00     0.022 A 
BRANCH  93  96
ATOM     96  S   UNL A   1      46.830  23.850  36.388  1.00  0.00     0.127 S 
ATOM     97  O   UNL A   1      47.009  24.669  37.584  1.00  0.00    -0.237 OA
ATOM     98  O   UNL A   1      46.489  22.450  36.644  1.00  0.00    -0.237 OA
ATOM     99  O   UNL A   1      47.820  24.056  35.340  1.00  0.00    -0.744 OA
ENDBRANCH  93  96
ENDBRANCH  65  89
BRANCH  77 100
ATOM    100  C   UNL A   1      41.145  32.396  36.351  1.00  0.00     0.023 A 
ATOM    101  C   UNL A   1      41.887  33.198  37.241  1.00  0.00     0.012 A 
ATOM    102  C   UNL A   1      39.778  32.165  36.600  1.00  0.00     0.148 A 
ATOM    103  C   UNL A   1      41.281  33.753  38.368  1.00  0.00     0.002 A 
ATOM    104  C   UNL A   1      39.173  32.747  37.707  1.00  0.00     0.091 A 
ATOM    105  F   UNL A   1      39.098  31.384  35.748  1.00  0.00    -0.205 F 
ATOM    106  C   UNL A   1      39.924  33.536  38.595  1.00  0.00     0.022 A 
BRANCH 104 107
ATOM    107  S   UNL A   1      37.420  32.578  38.058  1.00  0.00     0.127 S 
ATOM    108  O   UNL A   1      37.268  31.126  38.129  1.00  0.00    -0.237 OA
ATOM    109  O   UNL A   1      37.295  33.268  39.342  1.00  0.00    -0.237 OA
ATOM    110  O   UNL A   1      36.723  33.220  36.951  1.00  0.00    -0.744 OA
ENDBRANCH 104 107
ENDBRANCH  77 100
ENDBRANCH  51  52
ENDBRANCH  44  46
ENDBRANCH  43  44
ENDBRANCH  42  43
ENDBRANCH  41  42
ENDBRANCH  40  41
ENDBRANCH  39  40
ENDBRANCH  38  39
ENDBRANCH  37  38
ENDBRANCH   1  37
TORSDOF 28
ENDMDL
MODEL 2
REMARK VINA RESULT:      -9.4      4.491     10.991
REMARK SMILES O=C(CNC(=O)[C@@H](CC1=c2ccccc2=NC1)N1C(=O)N=C2C=CC=C[C@H]2C1=O)OCCOCCOCCOCCOC(=O)c1ccc(-c2c3nc(c(-c4cccc(S(=O)(=O)[O-])c4F)c4ccc([nH]4)c(-c4cccc(S(=O)(=O)[O-])c4F)c4nc(c(-c5cccc(S(=O)(=O)[O-])c5F)c5ccc2[nH]5)C=C4)C=C3)cc1
REMARK SMILES IDX 35 1 34 2 33 3 32 4 31 5 30 6 2 7 1 8 3 9 4 10 5 11 6 13
REMARK SMILES IDX 7 14 8 15 9 16 10 17 17 18 11 19 15 20 16 21 12 22 14 23
REMARK SMILES IDX 13 24 18 25 19 26 28 27 21 28 20 29 27 30 29 31 22 32 26 33
REMARK SMILES IDX 23 34 25 35 24 36 36 37 37 38 38 39 39 40 40 41 41 42 42 43
REMARK SMILES IDX 43 44 44 45 45 46 46 47 107 48 47 49 106 50 48 51 49 52
REMARK SMILES IDX 50 53 100 54 51 55 105 56 99 57 101 58 52 59 104 60 98 61
REMARK SMILES IDX 97 62 53 64 85 65 65 66 84 67 66 68 69 69 83 70 102 71 67 72
REMARK SMILES IDX 68 73 82 75 103 76 70 77 54 78 55 79 63 80 56 81 58 82 64 83
REMARK SMILES IDX 57 84 59 85 60 86 61 87 62 88 86 89 87 90 95 91 88 92 90 93
REMARK SMILES IDX 96 94 89 95 91 96 92 97 93 98 94 99 71 100 72 101 80 102
REMARK SMILES IDX 73 103 75 104 81 105 74 106 76 107 77 108 78 109 79 110
REMARK H PARENT 4 12 101 63 69 74
REMARK Flexibility Score: inf
ROOT
ATOM      1  C   UNL A   1      33.017  24.398  24.246  1.00  0.00     0.188 C 
ENDROOT
BRANCH   1   2
ATOM      2  C   UNL A   1      33.709  25.749  24.251  1.00  0.00     0.188 C 
BRANCH   2   3
ATOM      3  O   UNL A   1      33.131  26.949  24.827  1.00  0.00    -0.376 OA
BRANCH   3   4
ATOM      4  C   UNL A   1      33.755  28.248  24.849  1.00  0.00     0.202 C 
BRANCH   4   5
ATOM      5  C   UNL A   1      34.389  28.657  26.236  1.00  0.00     0.261 C 
BRANCH   5   6
ATOM      6  O   UNL A   1      33.638  29.778  26.795  1.00  0.00    -0.462 OA
BRANCH   6   7
ATOM      7  C   UNL A   1      33.882  30.869  27.539  1.00  0.00     0.325 C 
ATOM      8  O   UNL A   1      33.021  31.760  27.489  1.00  0.00    -0.250 OA
BRANCH   7   9
ATOM      9  C   UNL A   1      35.264  31.306  28.111  1.00  0.00     0.238 C 
BRANCH   9  10
ATOM     10  N   UNL A   1      35.879  32.532  28.659  1.00  0.00    -0.343 N 
ATOM     11  C   UNL A   1      37.197  32.721  29.072  1.00  0.00     0.244 C 
ATOM     12  H   UNL A   1      35.286  33.312  28.744  1.00  0.00     0.164 HD
ATOM     13  O   UNL A   1      37.894  33.589  28.552  1.00  0.00    -0.273 OA
BRANCH  11  14
ATOM     14  C   UNL A   1      37.621  31.957  30.314  1.00  0.00     0.188 C 
BRANCH  14  15
ATOM     15  C   UNL A   1      38.714  30.938  30.072  1.00  0.00     0.069 C 
BRANCH  15  16
ATOM     16  C   UNL A   1      38.770  29.464  29.794  1.00  0.00    -0.037 C 
ATOM     17  C   UNL A   1      39.300  28.766  28.805  1.00  0.00     0.001 A 
ATOM     18  C   UNL A   1      38.152  28.482  30.782  1.00  0.00     0.174 C 
ATOM     19  C   UNL A   1      39.910  29.080  27.567  1.00  0.00     0.010 A 
ATOM     20  C   UNL A   1      39.206  27.376  29.296  1.00  0.00     0.065 A 
ATOM     21  N   UNL A   1      38.669  27.154  30.451  1.00  0.00    -0.280 NA
ATOM     22  C   UNL A   1      40.320  28.060  26.798  1.00  0.00     0.001 A 
ATOM     23  C   UNL A   1      39.736  26.319  28.433  1.00  0.00     0.028 A 
ATOM     24  C   UNL A   1      40.219  26.676  27.235  1.00  0.00     0.002 A 
ENDBRANCH  15  16
ENDBRANCH  14  15
BRANCH  14  25
ATOM     25  N   UNL A   1      37.545  32.495  31.729  1.00  0.00    -0.249 N 
ATOM     26  C   UNL A   1      36.723  31.784  32.609  1.00  0.00     0.351 C 
ATOM     27  C   UNL A   1      38.505  33.364  32.236  1.00  0.00     0.244 C 
ATOM     28  N   UNL A   1      36.526  32.200  33.886  1.00  0.00    -0.197 NA
ATOM     29  O   UNL A   1      36.215  30.704  32.283  1.00  0.00    -0.246 OA
ATOM     30  C   UNL A   1      38.263  33.925  33.648  1.00  0.00     0.151 C 
ATOM     31  O   UNL A   1      39.506  33.699  31.600  1.00  0.00    -0.273 OA
ATOM     32  C   UNL A   1      37.261  33.115  34.420  1.00  0.00     0.062 C 
ATOM     33  C   UNL A   1      39.481  34.151  34.531  1.00  0.00    -0.007 C 
ATOM     34  C   UNL A   1      37.096  33.363  35.877  1.00  0.00     0.025 C 
ATOM     35  C   UNL A   1      39.401  34.129  35.875  1.00  0.00    -0.003 C 
ATOM     36  C   UNL A   1      38.152  33.845  36.542  1.00  0.00     0.002 C 
ENDBRANCH  14  25
ENDBRANCH  11  14
ENDBRANCH   9  10
ENDBRANCH   7   9
ENDBRANCH   6   7
ENDBRANCH   5   6
ENDBRANCH   4   5
ENDBRANCH   3   4
ENDBRANCH   2   3
ENDBRANCH   1   2
BRANCH   1  37
ATOM     37  O   UNL A   1      33.730  23.404  24.930  1.00  0.00    -0.377 OA
BRANCH  37  38
ATOM     38  C   UNL A   1      34.647  22.714  24.113  1.00  0.00     0.188 C 
BRANCH  38  39
ATOM     39  C   UNL A   1      35.496  21.623  24.808  1.00  0.00     0.188 C 
BRANCH  39  40
ATOM     40  O   UNL A   1      36.526  21.926  25.749  1.00  0.00    -0.376 OA
BRANCH  40  41
ATOM     41  C   UNL A   1      37.845  21.452  25.554  1.00  0.00     0.202 C 
BRANCH  41  42
ATOM     42  C   UNL A   1      38.969  22.392  26.023  1.00  0.00     0.261 C 
BRANCH  42  43
ATOM     43  O   UNL A   1      39.846  21.858  27.029  1.00  0.00    -0.460 OA
BRANCH  43  44
ATOM     44  C   UNL A   1      41.098  21.494  26.652  1.00  0.00     0.338 C 
ATOM     45  O   UNL A   1      41.401  20.501  25.989  1.00  0.00    -0.246 OA
BRANCH  44  46
ATOM     46  C   UNL A   1      42.023  22.631  26.940  1.00  0.00     0.060 A 
ATOM     47  C   UNL A   1      42.146  23.698  26.039  1.00  0.00     0.016 A 
ATOM     48  C   UNL A   1      42.960  22.498  27.983  1.00  0.00     0.016 A 
ATOM     49  C   UNL A   1      43.173  24.636  26.198  1.00  0.00     0.010 A 
ATOM     50  C   UNL A   1      44.012  23.414  28.119  1.00  0.00     0.010 A 
ATOM     51  C   UNL A   1      44.094  24.521  27.258  1.00  0.00    -0.014 A 
BRANCH  51  52
ATOM     52  C   UNL A   1      44.799  25.746  27.719  1.00  0.00     0.031 A 
ATOM     53  C   UNL A   1      44.313  26.681  28.783  1.00  0.00     0.074 A 
ATOM     54  C   UNL A   1      45.972  25.982  27.098  1.00  0.00     0.049 A 
ATOM     55  N   UNL A   1      44.946  27.696  29.314  1.00  0.00    -0.248 NA
ATOM     56  C   UNL A   1      42.962  26.469  29.316  1.00  0.00     0.031 C 
ATOM     57  C   UNL A   1      46.514  25.160  26.011  1.00  0.00     0.029 A 
ATOM     58  N   UNL A   1      46.916  26.953  27.284  1.00  0.00    -0.354 N 
ATOM     59  C   UNL A   1      44.084  28.247  30.253  1.00  0.00     0.074 A 
ATOM     60  C   UNL A   1      42.864  27.462  30.199  1.00  0.00     0.031 C 
ATOM     61  C   UNL A   1      47.702  25.645  25.642  1.00  0.00     0.029 A 
ATOM     62  C   UNL A   1      48.003  26.813  26.457  1.00  0.00     0.049 A 
ATOM     63  H   UNL A   1      46.826  27.678  27.943  1.00  0.00     0.167 HD
ATOM     64  C   UNL A   1      44.306  29.291  31.093  1.00  0.00     0.034 A 
ATOM     65  C   UNL A   1      49.138  27.526  26.365  1.00  0.00     0.034 A 
ATOM     66  C   UNL A   1      45.524  30.067  31.128  1.00  0.00     0.049 A 
ATOM     67  C   UNL A   1      49.361  28.662  27.307  1.00  0.00     0.074 A 
ATOM     68  C   UNL A   1      45.853  31.114  31.975  1.00  0.00     0.029 A 
ATOM     69  N   UNL A   1      46.609  29.894  30.279  1.00  0.00    -0.354 N 
ATOM     70  N   UNL A   1      48.583  29.087  28.271  1.00  0.00    -0.248 NA
ATOM     71  C   UNL A   1      50.624  29.395  27.171  1.00  0.00     0.031 C 
ATOM     72  C   UNL A   1      47.127  31.580  31.631  1.00  0.00     0.029 A 
ATOM     73  C   UNL A   1      47.601  30.817  30.577  1.00  0.00     0.049 A 
ATOM     74  H   UNL A   1      46.665  29.215  29.568  1.00  0.00     0.167 HD
ATOM     75  C   UNL A   1      49.264  30.138  28.866  1.00  0.00     0.074 A 
ATOM     76  C   UNL A   1      50.528  30.268  28.167  1.00  0.00     0.031 C 
ATOM     77  C   UNL A   1      48.864  30.931  29.889  1.00  0.00     0.034 A 
BRANCH  64  78
ATOM     78  C   UNL A   1      43.244  29.624  32.111  1.00  0.00     0.023 A 
ATOM     79  C   UNL A   1      42.288  30.609  31.792  1.00  0.00     0.012 A 
ATOM     80  C   UNL A   1      43.112  28.900  33.313  1.00  0.00     0.148 A 
ATOM     81  C   UNL A   1      41.228  30.882  32.657  1.00  0.00     0.002 A 
ATOM     82  C   UNL A   1      42.038  29.161  34.161  1.00  0.00     0.091 A 
ATOM     83  F   UNL A   1      44.030  27.966  33.601  1.00  0.00    -0.205 F 
ATOM     84  C   UNL A   1      41.099  30.153  33.836  1.00  0.00     0.022 A 
BRANCH  82  85
ATOM     85  S   UNL A   1      41.748  28.246  35.682  1.00  0.00     0.127 S 
ATOM     86  O   UNL A   1      41.470  26.905  35.171  1.00  0.00    -0.237 OA
ATOM     87  O   UNL A   1      43.030  28.382  36.375  1.00  0.00    -0.237 OA
ATOM     88  O   UNL A   1      40.627  28.904  36.339  1.00  0.00    -0.744 OA
ENDBRANCH  82  85
ENDBRANCH  64  78
BRANCH  65  89
ATOM     89  C   UNL A   1      50.163  27.081  25.389  1.00  0.00     0.023 A 
ATOM     90  C   UNL A   1      50.160  27.635  24.097  1.00  0.00     0.012 A 
ATOM     91  C   UNL A   1      51.229  26.255  25.794  1.00  0.00     0.148 A 
ATOM     92  C   UNL A   1      51.210  27.374  23.218  1.00  0.00     0.002 A 
ATOM     93  C   UNL A   1      52.289  26.030  24.927  1.00  0.00     0.091 A 
ATOM     94  F   UNL A   1      51.212  25.767  27.043  1.00  0.00    -0.205 F 
ATOM     95  C   UNL A   1      52.278  26.583  23.635  1.00  0.00     0.022 A 
BRANCH  93  96
ATOM     96  S   UNL A   1      53.762  25.127  25.411  1.00  0.00     0.127 S 
ATOM     97  O   UNL A   1      53.263  23.755  25.473  1.00  0.00    -0.237 OA
ATOM     98  O   UNL A   1      54.663  25.406  24.293  1.00  0.00    -0.237 OA
ATOM     99  O   UNL A   1      54.177  25.694  26.687  1.00  0.00    -0.744 OA
ENDBRANCH  93  96
ENDBRANCH  65  89
BRANCH  77 100
ATOM    100  C   UNL A   1      49.794  32.036  30.309  1.00  0.00     0.023 A 
ATOM    101  C   UNL A   1      50.866  31.740  31.175  1.00  0.00     0.012 A 
ATOM    102  C   UNL A   1      49.655  33.340  29.797  1.00  0.00     0.148 A 
ATOM    103  C   UNL A   1      51.780  32.730  31.535  1.00  0.00     0.002 A 
ATOM    104  C   UNL A   1      50.588  34.314  30.134  1.00  0.00     0.091 A 
ATOM    105  F   UNL A   1      48.617  33.601  28.989  1.00  0.00    -0.205 F 
ATOM    106  C   UNL A   1      51.646  34.012  31.007  1.00  0.00     0.022 A 
BRANCH 104 107
ATOM    107  S   UNL A   1      50.541  35.979  29.463  1.00  0.00     0.127 S 
ATOM    108  O   UNL A   1      51.509  36.670  30.313  1.00  0.00    -0.237 OA
ATOM    109  O   UNL A   1      50.981  35.768  28.084  1.00  0.00    -0.237 OA
ATOM    110  O   UNL A   1      49.162  36.431  29.599  1.00  0.00    -0.744 OA
ENDBRANCH 104 107
ENDBRANCH  77 100
ENDBRANCH  51  52
ENDBRANCH  44  46
ENDBRANCH  43  44
ENDBRANCH  42  43
ENDBRANCH  41  42
ENDBRANCH  40  41
ENDBRANCH  39  40
ENDBRANCH  38  39
ENDBRANCH  37  38
ENDBRANCH   1  37
TORSDOF 28
ENDMDL
MODEL 3
REMARK VINA RESULT:      -9.1      1.811      7.243
REMARK SMILES O=C(CNC(=O)[C@@H](CC1=c2ccccc2=NC1)N1C(=O)N=C2C=CC=C[C@H]2C1=O)OCCOCCOCCOCCOC(=O)c1ccc(-c2c3nc(c(-c4cccc(S(=O)(=O)[O-])c4F)c4ccc([nH]4)c(-c4cccc(S(=O)(=O)[O-])c4F)c4nc(c(-c5cccc(S(=O)(=O)[O-])c5F)c5ccc2[nH]5)C=C4)C=C3)cc1
REMARK SMILES IDX 35 1 34 2 33 3 32 4 31 5 30 6 2 7 1 8 3 9 4 10 5 11 6 13
REMARK SMILES IDX 7 14 8 15 9 16 10 17 17 18 11 19 15 20 16 21 12 22 14 23
REMARK SMILES IDX 13 24 18 25 19 26 28 27 21 28 20 29 27 30 29 31 22 32 26 33
REMARK SMILES IDX 23 34 25 35 24 36 36 37 37 38 38 39 39 40 40 41 41 42 42 43
REMARK SMILES IDX 43 44 44 45 45 46 46 47 107 48 47 49 106 50 48 51 49 52
REMARK SMILES IDX 50 53 100 54 51 55 105 56 99 57 101 58 52 59 104 60 98 61
REMARK SMILES IDX 97 62 53 64 85 65 65 66 84 67 66 68 69 69 83 70 102 71 67 72
REMARK SMILES IDX 68 73 82 75 103 76 70 77 54 78 55 79 63 80 56 81 58 82 64 83
REMARK SMILES IDX 57 84 59 85 60 86 61 87 62 88 86 89 87 90 95 91 88 92 90 93
REMARK SMILES IDX 96 94 89 95 91 96 92 97 93 98 94 99 71 100 72 101 80 102
REMARK SMILES IDX 73 103 75 104 81 105 74 106 76 107 77 108 78 109 79 110
REMARK H PARENT 4 12 101 63 69 74
REMARK Flexibility Score: inf
ROOT
ATOM      1  C   UNL A   1      44.070  22.079  26.007  1.00  0.00     0.188 C 
ENDROOT
BRANCH   1   2
ATOM      2  C   UNL A   1      43.003  22.455  27.019  1.00  0.00     0.188 C 
BRANCH   2   3
ATOM      3  O   UNL A   1      42.664  23.823  27.364  1.00  0.00    -0.376 OA
BRANCH   3   4
ATOM      4  C   UNL A   1      41.350  24.291  27.726  1.00  0.00     0.202 C 
BRANCH   4   5
ATOM      5  C   UNL A   1      40.230  23.178  27.741  1.00  0.00     0.261 C 
BRANCH   5   6
ATOM      6  O   UNL A   1      39.508  23.207  26.472  1.00  0.00    -0.462 OA
BRANCH   6   7
ATOM      7  C   UNL A   1      38.328  22.787  25.986  1.00  0.00     0.325 C 
ATOM      8  O   UNL A   1      38.298  21.617  25.576  1.00  0.00    -0.250 OA
BRANCH   7   9
ATOM      9  C   UNL A   1      37.151  23.691  25.512  1.00  0.00     0.238 C 
BRANCH   9  10
ATOM     10  N   UNL A   1      36.233  23.772  24.358  1.00  0.00    -0.343 N 
ATOM     11  C   UNL A   1      34.913  24.218  24.340  1.00  0.00     0.244 C 
ATOM     12  H   UNL A   1      36.599  23.474  23.494  1.00  0.00     0.164 HD
ATOM     13  O   UNL A   1      34.584  25.159  23.621  1.00  0.00    -0.273 OA
BRANCH  11  14
ATOM     14  C   UNL A   1      33.907  23.350  25.073  1.00  0.00     0.188 C 
BRANCH  14  15
ATOM     15  C   UNL A   1      32.851  24.128  25.830  1.00  0.00     0.069 C 
BRANCH  15  16
ATOM     16  C   UNL A   1      32.039  25.365  25.579  1.00  0.00    -0.037 C 
ATOM     17  C   UNL A   1      32.252  26.639  25.862  1.00  0.00     0.001 A 
ATOM     18  C   UNL A   1      30.709  25.265  24.843  1.00  0.00     0.174 C 
ATOM     19  C   UNL A   1      33.224  27.357  26.600  1.00  0.00     0.010 A 
ATOM     20  C   UNL A   1      31.180  27.326  25.113  1.00  0.00     0.065 A 
ATOM     21  N   UNL A   1      30.342  26.619  24.429  1.00  0.00    -0.280 NA
ATOM     22  C   UNL A   1      33.088  28.689  26.679  1.00  0.00     0.001 A 
ATOM     23  C   UNL A   1      31.134  28.787  25.190  1.00  0.00     0.028 A 
ATOM     24  C   UNL A   1      32.029  29.399  25.977  1.00  0.00     0.002 A 
ENDBRANCH  15  16
ENDBRANCH  14  15
BRANCH  14  25
ATOM     25  N   UNL A   1      33.496  21.954  24.650  1.00  0.00    -0.249 N 
ATOM     26  C   UNL A   1      32.745  21.868  23.474  1.00  0.00     0.351 C 
ATOM     27  C   UNL A   1      34.135  20.820  25.141  1.00  0.00     0.244 C 
ATOM     28  N   UNL A   1      32.267  20.680  23.023  1.00  0.00    -0.197 NA
ATOM     29  O   UNL A   1      32.562  22.858  22.754  1.00  0.00    -0.246 OA
ATOM     30  C   UNL A   1      33.560  19.456  24.721  1.00  0.00     0.151 C 
ATOM     31  O   UNL A   1      35.110  20.876  25.892  1.00  0.00    -0.273 OA
ATOM     32  C   UNL A   1      32.676  19.558  23.511  1.00  0.00     0.062 C 
ATOM     33  C   UNL A   1      34.545  18.318  24.503  1.00  0.00    -0.007 C 
ATOM     34  C   UNL A   1      32.243  18.314  22.823  1.00  0.00     0.025 C 
ATOM     35  C   UNL A   1      34.274  17.290  23.676  1.00  0.00    -0.003 C 
ATOM     36  C   UNL A   1      33.043  17.246  22.922  1.00  0.00     0.002 C 
ENDBRANCH  14  25
ENDBRANCH  11  14
ENDBRANCH   9  10
ENDBRANCH   7   9
ENDBRANCH   6   7
ENDBRANCH   5   6
ENDBRANCH   4   5
ENDBRANCH   3   4
ENDBRANCH   2   3
ENDBRANCH   1   2
BRANCH   1  37
ATOM     37  O   UNL A   1      43.592  22.019  24.691  1.00  0.00    -0.377 OA
BRANCH  37  38
ATOM     38  C   UNL A   1      44.438  22.655  23.761  1.00  0.00     0.188 C 
BRANCH  38  39
ATOM     39  C   UNL A   1      45.954  22.612  24.074  1.00  0.00     0.188 C 
BRANCH  39  40
ATOM     40  O   UNL A   1      46.788  23.769  24.023  1.00  0.00    -0.376 OA
BRANCH  40  41
ATOM     41  C   UNL A   1      47.167  24.438  25.211  1.00  0.00     0.202 C 
BRANCH  41  42
ATOM     42  C   UNL A   1      46.034  25.154  25.965  1.00  0.00     0.261 C 
BRANCH  42  43
ATOM     43  O   UNL A   1      45.231  26.048  25.177  1.00  0.00    -0.460 OA
BRANCH  43  44
ATOM     44  C   UNL A   1      45.679  27.318  25.003  1.00  0.00     0.338 C 
ATOM     45  O   UNL A   1      46.138  27.794  23.965  1.00  0.00    -0.246 OA
BRANCH  44  46
ATOM     46  C   UNL A   1      45.279  28.123  26.196  1.00  0.00     0.060 A 
ATOM     47  C   UNL A   1      43.949  28.532  26.369  1.00  0.00     0.016 A 
ATOM     48  C   UNL A   1      46.284  28.690  27.003  1.00  0.00     0.016 A 
ATOM     49  C   UNL A   1      43.625  29.472  27.355  1.00  0.00     0.010 A 
ATOM     50  C   UNL A   1      45.967  29.660  27.964  1.00  0.00     0.010 A 
ATOM     51  C   UNL A   1      44.627  30.018  28.183  1.00  0.00    -0.014 A 
BRANCH  51  52
ATOM     52  C   UNL A   1      44.229  30.562  29.508  1.00  0.00     0.031 A 
ATOM     53  C   UNL A   1      43.881  29.745  30.714  1.00  0.00     0.074 A 
ATOM     54  C   UNL A   1      44.206  31.908  29.575  1.00  0.00     0.049 A 
ATOM     55  N   UNL A   1      43.649  30.165  31.932  1.00  0.00    -0.248 NA
ATOM     56  C   UNL A   1      43.768  28.291  30.548  1.00  0.00     0.031 C 
ATOM     57  C   UNL A   1      44.480  32.798  28.443  1.00  0.00     0.029 A 
ATOM     58  N   UNL A   1      43.954  32.759  30.615  1.00  0.00    -0.354 N 
ATOM     59  C   UNL A   1      43.371  29.035  32.689  1.00  0.00     0.074 A 
ATOM     60  C   UNL A   1      43.440  27.906  31.780  1.00  0.00     0.031 C 
ATOM     61  C   UNL A   1      44.406  34.068  28.852  1.00  0.00     0.029 A 
ATOM     62  C   UNL A   1      44.072  34.082  30.269  1.00  0.00     0.049 A 
ATOM     63  H   UNL A   1      43.714  32.454  31.520  1.00  0.00     0.167 HD
ATOM     64  C   UNL A   1      43.112  28.954  34.020  1.00  0.00     0.034 A 
ATOM     65  C   UNL A   1      43.948  35.200  31.004  1.00  0.00     0.034 A 
ATOM     66  C   UNL A   1      43.040  30.089  34.910  1.00  0.00     0.049 A 
ATOM     67  C   UNL A   1      43.672  35.081  32.466  1.00  0.00     0.074 A 
ATOM     68  C   UNL A   1      42.825  30.096  36.279  1.00  0.00     0.029 A 
ATOM     69  N   UNL A   1      43.170  31.417  34.527  1.00  0.00    -0.354 N 
ATOM     70  N   UNL A   1      43.537  33.995  33.185  1.00  0.00    -0.248 NA
ATOM     71  C   UNL A   1      43.562  36.334  33.222  1.00  0.00     0.031 C 
ATOM     72  C   UNL A   1      42.812  31.425  36.720  1.00  0.00     0.029 A 
ATOM     73  C   UNL A   1      43.033  32.249  35.628  1.00  0.00     0.049 A 
ATOM     74  H   UNL A   1      43.335  31.723  33.605  1.00  0.00     0.167 HD
ATOM     75  C   UNL A   1      43.330  34.429  34.486  1.00  0.00     0.074 A 
ATOM     76  C   UNL A   1      43.383  35.879  34.456  1.00  0.00     0.031 C 
ATOM     77  C   UNL A   1      43.102  33.689  35.597  1.00  0.00     0.034 A 
BRANCH  64  78
ATOM     78  C   UNL A   1      42.958  27.583  34.632  1.00  0.00     0.023 A 
ATOM     79  C   UNL A   1      41.672  27.008  34.687  1.00  0.00     0.012 A 
ATOM     80  C   UNL A   1      44.072  26.821  35.039  1.00  0.00     0.148 A 
ATOM     81  C   UNL A   1      41.493  25.705  35.153  1.00  0.00     0.002 A 
ATOM     82  C   UNL A   1      43.888  25.512  35.480  1.00  0.00     0.091 A 
ATOM     83  F   UNL A   1      45.287  27.383  34.981  1.00  0.00    -0.205 F 
ATOM     84  C   UNL A   1      42.600  24.956  35.540  1.00  0.00     0.022 A 
BRANCH  82  85
ATOM     85  S   UNL A   1      45.250  24.440  35.957  1.00  0.00     0.127 S 
ATOM     86  O   UNL A   1      45.290  23.498  34.839  1.00  0.00    -0.237 OA
ATOM     87  O   UNL A   1      46.376  25.373  36.009  1.00  0.00    -0.237 OA
ATOM     88  O   UNL A   1      44.877  23.862  37.241  1.00  0.00    -0.744 OA
ENDBRANCH  82  85
ENDBRANCH  64  78
BRANCH  65  89
ATOM     89  C   UNL A   1      44.192  36.503  30.338  1.00  0.00     0.023 A 
ATOM     90  C   UNL A   1      45.441  37.128  30.500  1.00  0.00     0.012 A 
ATOM     91  C   UNL A   1      43.263  37.023  29.417  1.00  0.00     0.148 A 
ATOM     92  C   UNL A   1      45.764  38.257  29.749  1.00  0.00     0.002 A 
ATOM     93  C   UNL A   1      43.607  38.125  28.646  1.00  0.00     0.091 A 
ATOM     94  F   UNL A   1      42.094  36.385  29.269  1.00  0.00    -0.205 F 
ATOM     95  C   UNL A   1      44.854  38.748  28.815  1.00  0.00     0.022 A 
BRANCH  93  96
ATOM     96  S   UNL A   1      42.554  38.757  27.337  1.00  0.00     0.127 S 
ATOM     97  O   UNL A   1      43.477  39.623  26.606  1.00  0.00    -0.237 OA
ATOM     98  O   UNL A   1      42.177  37.529  26.638  1.00  0.00    -0.237 OA
ATOM     99  O   UNL A   1      41.456  39.443  28.004  1.00  0.00    -0.744 OA
ENDBRANCH  93  96
ENDBRANCH  65  89
BRANCH  77 100
ATOM    100  C   UNL A   1      42.866  34.431  36.884  1.00  0.00     0.023 A 
ATOM    101  C   UNL A   1      43.972  34.882  37.630  1.00  0.00     0.012 A 
ATOM    102  C   UNL A   1      41.563  34.745  37.316  1.00  0.00     0.148 A 
ATOM    103  C   UNL A   1      43.786  35.625  38.795  1.00  0.00     0.002 A 
ATOM    104  C   UNL A   1      41.385  35.512  38.460  1.00  0.00     0.091 A 
ATOM    105  F   UNL A   1      40.526  34.289  36.597  1.00  0.00    -0.205 F 
ATOM    106  C   UNL A   1      42.494  35.947  39.204  1.00  0.00     0.022 A 
BRANCH 104 107
ATOM    107  S   UNL A   1      39.766  36.032  39.040  1.00  0.00     0.127 S 
ATOM    108  O   UNL A   1      39.999  36.189  40.474  1.00  0.00    -0.237 OA
ATOM    109  O   UNL A   1      39.567  37.286  38.313  1.00  0.00    -0.237 OA
ATOM    110  O   UNL A   1      38.844  34.964  38.676  1.00  0.00    -0.744 OA
ENDBRANCH 104 107
ENDBRANCH  77 100
ENDBRANCH  51  52
ENDBRANCH  44  46
ENDBRANCH  43  44
ENDBRANCH  42  43
ENDBRANCH  41  42
ENDBRANCH  40  41
ENDBRANCH  39  40
ENDBRANCH  38  39
ENDBRANCH  37  38
ENDBRANCH   1  37
TORSDOF 28
ENDMDL
