MODEL 1
REMARK VINA RESULT:     -10.2      0.000      0.000
REMARK SMILES Cc1c(CC(=O)OCCOCCOCCOCCOC(=O)c2ccc(-c3c4nc(c(-c5cccc(S(=O)(=O)[O-])c5F)c5ccc([nH]5)c(-c5cccc(S(=O)(=O)[O-])c5F)c5nc(c(-c6cccc(S(=O)(=O)[O-])c6F)c6ccc3[nH]6)C=C5)C=C4)cc2)cccc1-c1ccn(C(F)F)c(=O)c1
REMARK SMILES IDX 13 1 12 2 11 3 10 4 9 5 8 6 7 7 5 8 6 9 4 10 3 11 1 12 2 13
REMARK SMILES IDX 88 14 85 15 87 16 86 17 89 18 90 19 98 20 91 21 96 22 92 23
REMARK SMILES IDX 97 24 93 25 94 26 95 27 14 28 15 29 16 30 17 31 18 32 19 33
REMARK SMILES IDX 20 34 21 35 22 36 23 37 84 38 24 39 83 40 25 41 26 42 27 43
REMARK SMILES IDX 77 44 28 45 82 46 76 47 78 48 29 49 81 50 75 51 74 52 30 54
REMARK SMILES IDX 62 55 42 56 61 57 43 58 46 59 60 60 79 61 44 62 45 63 59 65
REMARK SMILES IDX 80 66 47 67 31 68 32 69 40 70 33 71 35 72 41 73 34 74 36 75
REMARK SMILES IDX 37 76 38 77 39 78 63 79 64 80 72 81 65 82 67 83 73 84 66 85
REMARK SMILES IDX 68 86 69 87 70 88 71 89 48 90 49 91 57 92 50 93 52 94 58 95
REMARK SMILES IDX 51 96 53 97 54 98 55 99 56 100
REMARK H PARENT 78 53 46 64
REMARK Flexibility Score: inf
ROOT
ATOM      1  O   UNL A   1      35.464  24.412  24.861  1.00  0.00    -0.377 OA
ENDROOT
BRANCH   1   2
ATOM      2  C   UNL A   1      34.406  25.276  24.508  1.00  0.00     0.188 C 
BRANCH   2   3
ATOM      3  C   UNL A   1      33.829  26.380  25.410  1.00  0.00     0.188 C 
BRANCH   3   4
ATOM      4  O   UNL A   1      34.103  27.718  24.991  1.00  0.00    -0.376 OA
BRANCH   4   5
ATOM      5  C   UNL A   1      32.997  28.339  24.352  1.00  0.00     0.202 C 
BRANCH   5   6
ATOM      6  C   UNL A   1      31.706  27.816  24.961  1.00  0.00     0.261 C 
BRANCH   6   7
ATOM      7  O   UNL A   1      30.621  27.836  24.012  1.00  0.00    -0.463 OA
BRANCH   7   8
ATOM      8  C   UNL A   1      30.001  26.643  23.835  1.00  0.00     0.310 C 
ATOM      9  O   UNL A   1      28.804  26.428  23.991  1.00  0.00    -0.252 OA
BRANCH   8  10
ATOM     10  C   UNL A   1      30.974  25.529  23.535  1.00  0.00     0.158 C 
BRANCH  10  11
ATOM     11  C   UNL A   1      30.991  24.314  24.449  1.00  0.00    -0.033 A 
ATOM     12  C   UNL A   1      31.903  22.851  22.594  1.00  0.00     0.045 C 
ATOM     13  C   UNL A   1      31.453  23.047  24.022  1.00  0.00    -0.039 A 
ATOM     14  C   UNL A   1      31.551  21.987  24.965  1.00  0.00    -0.015 A 
ATOM     15  C   UNL A   1      30.611  24.471  25.797  1.00  0.00     0.004 A 
ATOM     16  C   UNL A   1      31.046  22.139  26.261  1.00  0.00     0.009 A 
ATOM     17  C   UNL A   1      30.594  23.384  26.678  1.00  0.00     0.001 A 
BRANCH  14  18
ATOM     18  C   UNL A   1      32.491  20.866  24.735  1.00  0.00    -0.011 A 
ATOM     19  C   UNL A   1      31.977  19.691  24.055  1.00  0.00     0.027 A 
ATOM     20  C   UNL A   1      33.787  20.906  25.091  1.00  0.00     0.080 A 
ATOM     21  C   UNL A   1      32.736  18.610  23.886  1.00  0.00     0.095 A 
ATOM     22  C   UNL A   1      34.665  19.715  24.855  1.00  0.00     0.255 A 
ATOM     23  N   UNL A   1      34.048  18.599  24.305  1.00  0.00    -0.258 N 
ATOM     24  O   UNL A   1      35.853  19.784  25.158  1.00  0.00    -0.269 OA
BRANCH  23  25
ATOM     25  C   UNL A   1      34.823  17.395  24.177  1.00  0.00     0.451 C 
ATOM     26  F   UNL A   1      34.441  16.457  25.076  1.00  0.00    -0.185 F 
ATOM     27  F   UNL A   1      34.708  16.864  22.936  1.00  0.00    -0.185 F 
ENDBRANCH  23  25
ENDBRANCH  14  18
ENDBRANCH  10  11
ENDBRANCH   8  10
ENDBRANCH   7   8
ENDBRANCH   6   7
ENDBRANCH   5   6
ENDBRANCH   4   5
ENDBRANCH   3   4
ENDBRANCH   2   3
ENDBRANCH   1   2
BRANCH   1  28
ATOM     28  C   UNL A   1      36.163  23.717  23.857  1.00  0.00     0.188 C 
BRANCH  28  29
ATOM     29  C   UNL A   1      37.006  22.528  24.250  1.00  0.00     0.188 C 
BRANCH  29  30
ATOM     30  O   UNL A   1      37.583  22.824  25.512  1.00  0.00    -0.376 OA
BRANCH  30  31
ATOM     31  C   UNL A   1      38.744  22.099  25.865  1.00  0.00     0.202 C 
BRANCH  31  32
ATOM     32  C   UNL A   1      39.531  22.766  26.995  1.00  0.00     0.261 C 
BRANCH  32  33
ATOM     33  O   UNL A   1      40.218  21.723  27.720  1.00  0.00    -0.460 OA
BRANCH  33  34
ATOM     34  C   UNL A   1      41.466  21.407  27.255  1.00  0.00     0.338 C 
ATOM     35  O   UNL A   1      41.770  20.328  26.808  1.00  0.00    -0.246 OA
BRANCH  34  36
ATOM     36  C   UNL A   1      42.431  22.504  27.616  1.00  0.00     0.060 A 
ATOM     37  C   UNL A   1      42.578  22.888  28.956  1.00  0.00     0.016 A 
ATOM     38  C   UNL A   1      42.965  23.324  26.626  1.00  0.00     0.016 A 
ATOM     39  C   UNL A   1      43.049  24.176  29.291  1.00  0.00     0.010 A 
ATOM     40  C   UNL A   1      43.400  24.604  26.965  1.00  0.00     0.010 A 
ATOM     41  C   UNL A   1      43.342  25.091  28.292  1.00  0.00    -0.014 A 
BRANCH  41  42
ATOM     42  C   UNL A   1      43.497  26.567  28.443  1.00  0.00     0.031 A 
ATOM     43  C   UNL A   1      42.224  27.353  28.571  1.00  0.00     0.074 A 
ATOM     44  C   UNL A   1      44.667  27.149  28.844  1.00  0.00     0.049 A 
ATOM     45  N   UNL A   1      42.120  28.571  28.979  1.00  0.00    -0.248 NA
ATOM     46  C   UNL A   1      40.923  26.772  28.253  1.00  0.00     0.031 C 
ATOM     47  C   UNL A   1      44.748  28.284  29.773  1.00  0.00     0.029 A 
ATOM     48  N   UNL A   1      46.008  26.827  28.720  1.00  0.00    -0.354 N 
ATOM     49  C   UNL A   1      40.793  28.863  29.205  1.00  0.00     0.074 A 
ATOM     50  C   UNL A   1      40.086  27.720  28.688  1.00  0.00     0.031 C 
ATOM     51  C   UNL A   1      46.005  28.521  30.168  1.00  0.00     0.029 A 
ATOM     52  C   UNL A   1      46.843  27.838  29.225  1.00  0.00     0.049 A 
ATOM     53  H   UNL A   1      46.337  25.988  28.324  1.00  0.00     0.167 HD
ATOM     54  C   UNL A   1      40.472  30.006  29.880  1.00  0.00     0.034 A 
ATOM     55  C   UNL A   1      47.739  28.527  28.449  1.00  0.00     0.034 A 
ATOM     56  C   UNL A   1      41.656  30.908  30.009  1.00  0.00     0.049 A 
ATOM     57  C   UNL A   1      47.245  29.944  28.138  1.00  0.00     0.074 A 
ATOM     58  C   UNL A   1      42.297  31.546  31.060  1.00  0.00     0.029 A 
ATOM     59  N   UNL A   1      42.465  31.161  28.887  1.00  0.00    -0.354 N 
ATOM     60  N   UNL A   1      46.052  30.362  28.492  1.00  0.00    -0.248 NA
ATOM     61  C   UNL A   1      48.001  31.024  27.504  1.00  0.00     0.031 C 
ATOM     62  C   UNL A   1      43.576  31.989  30.605  1.00  0.00     0.029 A 
ATOM     63  C   UNL A   1      43.664  31.763  29.240  1.00  0.00     0.049 A 
ATOM     64  H   UNL A   1      42.212  30.937  27.963  1.00  0.00     0.167 HD
ATOM     65  C   UNL A   1      45.827  31.637  28.100  1.00  0.00     0.074 A 
ATOM     66  C   UNL A   1      47.099  32.029  27.512  1.00  0.00     0.031 C 
ATOM     67  C   UNL A   1      44.605  32.242  28.225  1.00  0.00     0.034 A 
BRANCH  54  68
ATOM     68  C   UNL A   1      39.118  30.294  30.572  1.00  0.00     0.023 A 
ATOM     69  C   UNL A   1      38.646  29.319  31.483  1.00  0.00     0.012 A 
ATOM     70  C   UNL A   1      38.226  31.384  30.355  1.00  0.00     0.148 A 
ATOM     71  C   UNL A   1      37.382  29.378  32.092  1.00  0.00     0.002 A 
ATOM     72  C   UNL A   1      36.988  31.481  31.020  1.00  0.00     0.091 A 
ATOM     73  F   UNL A   1      38.521  32.330  29.466  1.00  0.00    -0.205 F 
ATOM     74  C   UNL A   1      36.554  30.464  31.868  1.00  0.00     0.022 A 
BRANCH  72  75
ATOM     75  S   UNL A   1      35.874  32.899  30.858  1.00  0.00     0.127 S 
ATOM     76  O   UNL A   1      36.524  33.905  31.697  1.00  0.00    -0.237 OA
ATOM     77  O   UNL A   1      35.936  33.177  29.422  1.00  0.00    -0.237 OA
ATOM     78  O   UNL A   1      34.570  32.456  31.337  1.00  0.00    -0.744 OA
ENDBRANCH  72  75
ENDBRANCH  54  68
BRANCH  55  79
ATOM     79  C   UNL A   1      48.614  27.576  27.693  1.00  0.00     0.023 A 
ATOM     80  C   UNL A   1      49.291  26.662  28.551  1.00  0.00     0.012 A 
ATOM     81  C   UNL A   1      48.168  27.111  26.445  1.00  0.00     0.148 A 
ATOM     82  C   UNL A   1      49.215  25.286  28.323  1.00  0.00     0.002 A 
ATOM     83  C   UNL A   1      48.089  25.734  26.227  1.00  0.00     0.091 A 
ATOM     84  F   UNL A   1      47.690  28.000  25.564  1.00  0.00    -0.205 F 
ATOM     85  C   UNL A   1      48.554  24.820  27.192  1.00  0.00     0.022 A 
BRANCH  83  86
ATOM     86  S   UNL A   1      47.135  25.089  24.846  1.00  0.00     0.127 S 
ATOM     87  O   UNL A   1      48.104  25.123  23.758  1.00  0.00    -0.237 OA
ATOM     88  O   UNL A   1      46.777  23.747  25.308  1.00  0.00    -0.237 OA
ATOM     89  O   UNL A   1      46.001  25.995  24.727  1.00  0.00    -0.744 OA
ENDBRANCH  83  86
ENDBRANCH  55  79
BRANCH  67  90
ATOM     90  C   UNL A   1      44.193  33.399  27.350  1.00  0.00     0.023 A 
ATOM     91  C   UNL A   1      43.922  33.198  25.982  1.00  0.00     0.012 A 
ATOM     92  C   UNL A   1      43.855  34.659  27.901  1.00  0.00     0.148 A 
ATOM     93  C   UNL A   1      43.430  34.218  25.173  1.00  0.00     0.002 A 
ATOM     94  C   UNL A   1      43.256  35.635  27.114  1.00  0.00     0.091 A 
ATOM     95  F   UNL A   1      44.114  34.922  29.189  1.00  0.00    -0.205 F 
ATOM     96  C   UNL A   1      43.080  35.432  25.742  1.00  0.00     0.022 A 
BRANCH  94  97
ATOM     97  S   UNL A   1      42.543  37.118  27.837  1.00  0.00     0.127 S 
ATOM     98  O   UNL A   1      41.647  36.555  28.845  1.00  0.00    -0.237 OA
ATOM     99  O   UNL A   1      43.724  37.794  28.379  1.00  0.00    -0.237 OA
ATOM    100  O   UNL A   1      41.902  37.824  26.736  1.00  0.00    -0.744 OA
ENDBRANCH  94  97
ENDBRANCH  67  90
ENDBRANCH  41  42
ENDBRANCH  34  36
ENDBRANCH  33  34
ENDBRANCH  32  33
ENDBRANCH  31  32
ENDBRANCH  30  31
ENDBRANCH  29  30
ENDBRANCH  28  29
ENDBRANCH   1  28
TORSDOF 26
ENDMDL
MODEL 2
REMARK VINA RESULT:     -10.1      1.790      2.217
REMARK SMILES Cc1c(CC(=O)OCCOCCOCCOCCOC(=O)c2ccc(-c3c4nc(c(-c5cccc(S(=O)(=O)[O-])c5F)c5ccc([nH]5)c(-c5cccc(S(=O)(=O)[O-])c5F)c5nc(c(-c6cccc(S(=O)(=O)[O-])c6F)c6ccc3[nH]6)C=C5)C=C4)cc2)cccc1-c1ccn(C(F)F)c(=O)c1
REMARK SMILES IDX 13 1 12 2 11 3 10 4 9 5 8 6 7 7 5 8 6 9 4 10 3 11 1 12 2 13
REMARK SMILES IDX 88 14 85 15 87 16 86 17 89 18 90 19 98 20 91 21 96 22 92 23
REMARK SMILES IDX 97 24 93 25 94 26 95 27 14 28 15 29 16 30 17 31 18 32 19 33
REMARK SMILES IDX 20 34 21 35 22 36 23 37 84 38 24 39 83 40 25 41 26 42 27 43
REMARK SMILES IDX 77 44 28 45 82 46 76 47 78 48 29 49 81 50 75 51 74 52 30 54
REMARK SMILES IDX 62 55 42 56 61 57 43 58 46 59 60 60 79 61 44 62 45 63 59 65
REMARK SMILES IDX 80 66 47 67 31 68 32 69 40 70 33 71 35 72 41 73 34 74 36 75
REMARK SMILES IDX 37 76 38 77 39 78 63 79 64 80 72 81 65 82 67 83 73 84 66 85
REMARK SMILES IDX 68 86 69 87 70 88 71 89 48 90 49 91 57 92 50 93 52 94 58 95
REMARK SMILES IDX 51 96 53 97 54 98 55 99 56 100
REMARK H PARENT 78 53 46 64
REMARK Flexibility Score: inf
ROOT
ATOM      1  O   UNL A   1      35.508  24.310  25.189  1.00  0.00    -0.377 OA
ENDROOT
BRANCH   1   2
ATOM      2  C   UNL A   1      34.501  25.278  24.985  1.00  0.00     0.188 C 
BRANCH   2   3
ATOM      3  C   UNL A   1      33.572  25.831  26.078  1.00  0.00     0.188 C 
BRANCH   3   4
ATOM      4  O   UNL A   1      33.596  27.249  26.244  1.00  0.00    -0.376 OA
BRANCH   4   5
ATOM      5  C   UNL A   1      32.750  27.930  25.328  1.00  0.00     0.202 C 
BRANCH   5   6
ATOM      6  C   UNL A   1      31.332  27.403  25.467  1.00  0.00     0.261 C 
BRANCH   6   7
ATOM      7  O   UNL A   1      30.648  27.367  24.199  1.00  0.00    -0.463 OA
BRANCH   7   8
ATOM      8  C   UNL A   1      29.684  26.419  24.101  1.00  0.00     0.310 C 
ATOM      9  O   UNL A   1      28.542  26.598  23.690  1.00  0.00    -0.252 OA
BRANCH   8  10
ATOM     10  C   UNL A   1      30.118  25.095  24.681  1.00  0.00     0.158 C 
BRANCH  10  11
ATOM     11  C   UNL A   1      31.166  24.284  23.935  1.00  0.00    -0.033 A 
ATOM     12  C   UNL A   1      31.043  22.426  25.652  1.00  0.00     0.045 C 
ATOM     13  C   UNL A   1      31.593  23.008  24.371  1.00  0.00    -0.039 A 
ATOM     14  C   UNL A   1      32.489  22.257  23.561  1.00  0.00    -0.015 A 
ATOM     15  C   UNL A   1      31.673  24.782  22.719  1.00  0.00     0.004 A 
ATOM     16  C   UNL A   1      33.072  22.833  22.426  1.00  0.00     0.009 A 
ATOM     17  C   UNL A   1      32.650  24.085  21.999  1.00  0.00     0.001 A 
BRANCH  14  18
ATOM     18  C   UNL A   1      32.539  20.782  23.670  1.00  0.00    -0.011 A 
ATOM     19  C   UNL A   1      32.888  20.218  24.962  1.00  0.00     0.027 A 
ATOM     20  C   UNL A   1      32.244  19.957  22.651  1.00  0.00     0.080 A 
ATOM     21  C   UNL A   1      33.036  18.905  25.120  1.00  0.00     0.095 A 
ATOM     22  C   UNL A   1      32.353  18.473  22.833  1.00  0.00     0.255 A 
ATOM     23  N   UNL A   1      32.808  18.040  24.071  1.00  0.00    -0.258 N 
ATOM     24  O   UNL A   1      32.049  17.736  21.899  1.00  0.00    -0.269 OA
BRANCH  23  25
ATOM     25  C   UNL A   1      33.046  16.634  24.248  1.00  0.00     0.451 C 
ATOM     26  F   UNL A   1      34.370  16.352  24.286  1.00  0.00    -0.185 F 
ATOM     27  F   UNL A   1      32.482  16.178  25.393  1.00  0.00    -0.185 F 
ENDBRANCH  23  25
ENDBRANCH  14  18
ENDBRANCH  10  11
ENDBRANCH   8  10
ENDBRANCH   7   8
ENDBRANCH   6   7
ENDBRANCH   5   6
ENDBRANCH   4   5
ENDBRANCH   3   4
ENDBRANCH   2   3
ENDBRANCH   1   2
BRANCH   1  28
ATOM     28  C   UNL A   1      36.004  23.577  24.095  1.00  0.00     0.188 C 
BRANCH  28  29
ATOM     29  C   UNL A   1      36.653  22.240  24.353  1.00  0.00     0.188 C 
BRANCH  29  30
ATOM     30  O   UNL A   1      37.410  22.365  25.547  1.00  0.00    -0.376 OA
BRANCH  30  31
ATOM     31  C   UNL A   1      38.532  21.516  25.680  1.00  0.00     0.202 C 
BRANCH  31  32
ATOM     32  C   UNL A   1      39.630  22.127  26.553  1.00  0.00     0.261 C 
BRANCH  32  33
ATOM     33  O   UNL A   1      40.485  21.050  26.992  1.00  0.00    -0.460 OA
BRANCH  33  34
ATOM     34  C   UNL A   1      41.675  20.934  26.324  1.00  0.00     0.338 C 
ATOM     35  O   UNL A   1      41.965  20.005  25.611  1.00  0.00    -0.246 OA
BRANCH  34  36
ATOM     36  C   UNL A   1      42.630  21.991  26.810  1.00  0.00     0.060 A 
ATOM     37  C   UNL A   1      42.668  22.321  28.172  1.00  0.00     0.016 A 
ATOM     38  C   UNL A   1      43.268  22.833  25.903  1.00  0.00     0.016 A 
ATOM     39  C   UNL A   1      43.138  23.583  28.596  1.00  0.00     0.010 A 
ATOM     40  C   UNL A   1      43.702  24.087  26.328  1.00  0.00     0.010 A 
ATOM     41  C   UNL A   1      43.539  24.526  27.663  1.00  0.00    -0.014 A 
BRANCH  41  42
ATOM     42  C   UNL A   1      43.715  25.990  27.884  1.00  0.00     0.031 A 
ATOM     43  C   UNL A   1      42.453  26.786  28.056  1.00  0.00     0.074 A 
ATOM     44  C   UNL A   1      44.895  26.537  28.307  1.00  0.00     0.049 A 
ATOM     45  N   UNL A   1      42.368  27.985  28.523  1.00  0.00    -0.248 NA
ATOM     46  C   UNL A   1      41.143  26.239  27.716  1.00  0.00     0.031 C 
ATOM     47  C   UNL A   1      44.996  27.625  29.289  1.00  0.00     0.029 A 
ATOM     48  N   UNL A   1      46.231  26.203  28.161  1.00  0.00    -0.354 N 
ATOM     49  C   UNL A   1      41.046  28.284  28.769  1.00  0.00     0.074 A 
ATOM     50  C   UNL A   1      40.321  27.176  28.201  1.00  0.00     0.031 C 
ATOM     51  C   UNL A   1      46.257  27.825  29.689  1.00  0.00     0.029 A 
ATOM     52  C   UNL A   1      47.082  27.177  28.709  1.00  0.00     0.049 A 
ATOM     53  H   UNL A   1      46.547  25.379  27.723  1.00  0.00     0.167 HD
ATOM     54  C   UNL A   1      40.744  29.397  29.500  1.00  0.00     0.034 A 
ATOM     55  C   UNL A   1      47.984  27.891  27.964  1.00  0.00     0.034 A 
ATOM     56  C   UNL A   1      41.941  30.275  29.666  1.00  0.00     0.049 A 
ATOM     57  C   UNL A   1      47.507  29.328  27.723  1.00  0.00     0.074 A 
ATOM     58  C   UNL A   1      42.595  30.853  30.744  1.00  0.00     0.029 A 
ATOM     59  N   UNL A   1      42.749  30.571  28.554  1.00  0.00    -0.354 N 
ATOM     60  N   UNL A   1      46.322  29.744  28.104  1.00  0.00    -0.248 NA
ATOM     61  C   UNL A   1      48.276  30.427  27.139  1.00  0.00     0.031 C 
ATOM     62  C   UNL A   1      43.878  31.300  30.304  1.00  0.00     0.029 A 
ATOM     63  C   UNL A   1      43.957  31.140  28.930  1.00  0.00     0.049 A 
ATOM     64  H   UNL A   1      42.488  30.396  27.622  1.00  0.00     0.167 HD
ATOM     65  C   UNL A   1      46.113  31.039  27.774  1.00  0.00     0.074 A 
ATOM     66  C   UNL A   1      47.388  31.442  27.199  1.00  0.00     0.031 C 
ATOM     67  C   UNL A   1      44.901  31.654  27.935  1.00  0.00     0.034 A 
BRANCH  54  68
ATOM     68  C   UNL A   1      39.398  29.670  30.212  1.00  0.00     0.023 A 
ATOM     69  C   UNL A   1      38.825  28.594  30.932  1.00  0.00     0.012 A 
ATOM     70  C   UNL A   1      38.599  30.850  30.176  1.00  0.00     0.148 A 
ATOM     71  C   UNL A   1      37.553  28.648  31.524  1.00  0.00     0.002 A 
ATOM     72  C   UNL A   1      37.354  30.930  30.830  1.00  0.00     0.091 A 
ATOM     73  F   UNL A   1      38.991  31.908  29.470  1.00  0.00    -0.205 F 
ATOM     74  C   UNL A   1      36.818  29.820  31.481  1.00  0.00     0.022 A 
BRANCH  72  75
ATOM     75  S   UNL A   1      36.357  32.440  30.901  1.00  0.00     0.127 S 
ATOM     76  O   UNL A   1      37.282  33.396  31.509  1.00  0.00    -0.237 OA
ATOM     77  O   UNL A   1      36.073  32.689  29.488  1.00  0.00    -0.237 OA
ATOM     78  O   UNL A   1      35.187  32.124  31.712  1.00  0.00    -0.744 OA
ENDBRANCH  72  75
ENDBRANCH  54  68
BRANCH  55  79
ATOM     79  C   UNL A   1      48.842  26.965  27.158  1.00  0.00     0.023 A 
ATOM     80  C   UNL A   1      48.435  26.897  25.794  1.00  0.00     0.012 A 
ATOM     81  C   UNL A   1      50.215  26.912  27.447  1.00  0.00     0.148 A 
ATOM     82  C   UNL A   1      49.357  27.116  24.768  1.00  0.00     0.002 A 
ATOM     83  C   UNL A   1      51.131  27.139  26.415  1.00  0.00     0.091 A 
ATOM     84  F   UNL A   1      50.598  26.800  28.726  1.00  0.00    -0.205 F 
ATOM     85  C   UNL A   1      50.698  27.304  25.086  1.00  0.00     0.022 A 
BRANCH  83  86
ATOM     86  S   UNL A   1      52.848  27.513  26.795  1.00  0.00     0.127 S 
ATOM     87  O   UNL A   1      52.835  27.580  28.251  1.00  0.00    -0.237 OA
ATOM     88  O   UNL A   1      53.554  26.357  26.239  1.00  0.00    -0.237 OA
ATOM     89  O   UNL A   1      53.116  28.762  26.096  1.00  0.00    -0.744 OA
ENDBRANCH  83  86
ENDBRANCH  55  79
BRANCH  67  90
ATOM     90  C   UNL A   1      44.500  32.857  27.118  1.00  0.00     0.023 A 
ATOM     91  C   UNL A   1      44.170  32.718  25.756  1.00  0.00     0.012 A 
ATOM     92  C   UNL A   1      44.233  34.108  27.727  1.00  0.00     0.148 A 
ATOM     93  C   UNL A   1      43.687  33.785  25.004  1.00  0.00     0.002 A 
ATOM     94  C   UNL A   1      43.643  35.134  26.999  1.00  0.00     0.091 A 
ATOM     95  F   UNL A   1      44.551  34.313  29.012  1.00  0.00    -0.205 F 
ATOM     96  C   UNL A   1      43.407  34.989  25.629  1.00  0.00     0.022 A 
BRANCH  94  97
ATOM     97  S   UNL A   1      43.016  36.615  27.802  1.00  0.00     0.127 S 
ATOM     98  O   UNL A   1      44.081  36.906  28.760  1.00  0.00    -0.237 OA
ATOM     99  O   UNL A   1      42.926  37.556  26.684  1.00  0.00    -0.237 OA
ATOM    100  O   UNL A   1      41.730  36.239  28.373  1.00  0.00    -0.744 OA
ENDBRANCH  94  97
ENDBRANCH  67  90
ENDBRANCH  41  42
ENDBRANCH  34  36
ENDBRANCH  33  34
ENDBRANCH  32  33
ENDBRANCH  31  32
ENDBRANCH  30  31
ENDBRANCH  29  30
ENDBRANCH  28  29
ENDBRANCH   1  28
TORSDOF 26
ENDMDL
MODEL 3
REMARK VINA RESULT:      -8.6      5.508     10.811
REMARK SMILES Cc1c(CC(=O)OCCOCCOCCOCCOC(=O)c2ccc(-c3c4nc(c(-c5cccc(S(=O)(=O)[O-])c5F)c5ccc([nH]5)c(-c5cccc(S(=O)(=O)[O-])c5F)c5nc(c(-c6cccc(S(=O)(=O)[O-])c6F)c6ccc3[nH]6)C=C5)C=C4)cc2)cccc1-c1ccn(C(F)F)c(=O)c1
REMARK SMILES IDX 13 1 12 2 11 3 10 4 9 5 8 6 7 7 5 8 6 9 4 10 3 11 1 12 2 13
REMARK SMILES IDX 88 14 85 15 87 16 86 17 89 18 90 19 98 20 91 21 96 22 92 23
REMARK SMILES IDX 97 24 93 25 94 26 95 27 14 28 15 29 16 30 17 31 18 32 19 33
REMARK SMILES IDX 20 34 21 35 22 36 23 37 84 38 24 39 83 40 25 41 26 42 27 43
REMARK SMILES IDX 77 44 28 45 82 46 76 47 78 48 29 49 81 50 75 51 74 52 30 54
REMARK SMILES IDX 62 55 42 56 61 57 43 58 46 59 60 60 79 61 44 62 45 63 59 65
REMARK SMILES IDX 80 66 47 67 31 68 32 69 40 70 33 71 35 72 41 73 34 74 36 75
REMARK SMILES IDX 37 76 38 77 39 78 63 79 64 80 72 81 65 82 67 83 73 84 66 85
REMARK SMILES IDX 68 86 69 87 70 88 71 89 48 90 49 91 57 92 50 93 52 94 58 95
REMARK SMILES IDX 51 96 53 97 54 98 55 99 56 100
REMARK H PARENT 78 53 46 64
REMARK Flexibility Score: inf
ROOT
ATOM      1  O   UNL A   1      34.234  35.047  33.768  1.00  0.00    -0.377 OA
ENDROOT
BRANCH   1   2
ATOM      2  C   UNL A   1      34.232  35.874  32.624  1.00  0.00     0.188 C 
BRANCH   2   3
ATOM      3  C   UNL A   1      33.245  37.026  32.369  1.00  0.00     0.188 C 
BRANCH   3   4
ATOM      4  O   UNL A   1      32.810  37.171  31.016  1.00  0.00    -0.376 OA
BRANCH   4   5
ATOM      5  C   UNL A   1      33.666  36.525  30.085  1.00  0.00     0.202 C 
BRANCH   5   6
ATOM      6  C   UNL A   1      32.880  35.469  29.326  1.00  0.00     0.261 C 
BRANCH   6   7
ATOM      7  O   UNL A   1      33.519  34.179  29.388  1.00  0.00    -0.463 OA
BRANCH   7   8
ATOM      8  C   UNL A   1      34.218  33.838  28.278  1.00  0.00     0.310 C 
ATOM      9  O   UNL A   1      34.343  34.527  27.270  1.00  0.00    -0.252 OA
BRANCH   8  10
ATOM     10  C   UNL A   1      34.750  32.427  28.343  1.00  0.00     0.158 C 
BRANCH  10  11
ATOM     11  C   UNL A   1      36.179  32.211  28.816  1.00  0.00    -0.033 A 
ATOM     12  C   UNL A   1      36.008  29.718  28.398  1.00  0.00     0.045 C 
ATOM     13  C   UNL A   1      36.794  30.936  28.821  1.00  0.00    -0.039 A 
ATOM     14  C   UNL A   1      38.170  30.828  29.165  1.00  0.00    -0.015 A 
ATOM     15  C   UNL A   1      36.951  33.330  29.185  1.00  0.00     0.004 A 
ATOM     16  C   UNL A   1      38.871  31.938  29.650  1.00  0.00     0.009 A 
ATOM     17  C   UNL A   1      38.266  33.187  29.641  1.00  0.00     0.001 A 
BRANCH  14  18
ATOM     18  C   UNL A   1      38.972  29.680  28.684  1.00  0.00    -0.011 A 
ATOM     19  C   UNL A   1      39.322  29.653  27.275  1.00  0.00     0.027 A 
ATOM     20  C   UNL A   1      39.412  28.699  29.490  1.00  0.00     0.080 A 
ATOM     21  C   UNL A   1      39.969  28.615  26.749  1.00  0.00     0.095 A 
ATOM     22  C   UNL A   1      40.190  27.553  28.919  1.00  0.00     0.255 A 
ATOM     23  N   UNL A   1      40.371  27.562  27.542  1.00  0.00    -0.258 N 
ATOM     24  O   UNL A   1      40.610  26.683  29.677  1.00  0.00    -0.269 OA
BRANCH  23  25
ATOM     25  C   UNL A   1      41.001  26.420  26.937  1.00  0.00     0.451 C 
ATOM     26  F   UNL A   1      42.031  25.961  27.687  1.00  0.00    -0.185 F 
ATOM     27  F   UNL A   1      40.120  25.406  26.761  1.00  0.00    -0.185 F 
ENDBRANCH  23  25
ENDBRANCH  14  18
ENDBRANCH  10  11
ENDBRANCH   8  10
ENDBRANCH   7   8
ENDBRANCH   6   7
ENDBRANCH   5   6
ENDBRANCH   4   5
ENDBRANCH   3   4
ENDBRANCH   2   3
ENDBRANCH   1   2
BRANCH   1  28
ATOM     28  C   UNL A   1      35.454  34.563  34.277  1.00  0.00     0.188 C 
BRANCH  28  29
ATOM     29  C   UNL A   1      35.537  34.207  35.740  1.00  0.00     0.188 C 
BRANCH  29  30
ATOM     30  O   UNL A   1      36.593  33.269  35.883  1.00  0.00    -0.376 OA
BRANCH  30  31
ATOM     31  C   UNL A   1      37.385  33.375  37.049  1.00  0.00     0.202 C 
BRANCH  31  32
ATOM     32  C   UNL A   1      38.810  33.846  36.751  1.00  0.00     0.261 C 
BRANCH  32  33
ATOM     33  O   UNL A   1      38.784  34.532  35.482  1.00  0.00    -0.460 OA
BRANCH  33  34
ATOM     34  C   UNL A   1      39.718  35.522  35.330  1.00  0.00     0.338 C 
ATOM     35  O   UNL A   1      39.764  36.521  36.005  1.00  0.00    -0.246 OA
BRANCH  34  36
ATOM     36  C   UNL A   1      40.493  35.291  34.061  1.00  0.00     0.060 A 
ATOM     37  C   UNL A   1      39.891  34.615  32.990  1.00  0.00     0.016 A 
ATOM     38  C   UNL A   1      41.872  35.486  34.033  1.00  0.00     0.016 A 
ATOM     39  C   UNL A   1      40.676  33.948  32.023  1.00  0.00     0.010 A 
ATOM     40  C   UNL A   1      42.637  34.800  33.093  1.00  0.00     0.010 A 
ATOM     41  C   UNL A   1      42.057  33.929  32.142  1.00  0.00    -0.014 A 
BRANCH  41  42
ATOM     42  C   UNL A   1      43.004  33.006  31.452  1.00  0.00     0.031 A 
ATOM     43  C   UNL A   1      43.525  33.470  30.123  1.00  0.00     0.074 A 
ATOM     44  C   UNL A   1      43.680  32.016  32.109  1.00  0.00     0.049 A 
ATOM     45  N   UNL A   1      44.539  32.984  29.491  1.00  0.00    -0.248 NA
ATOM     46  C   UNL A   1      42.916  34.584  29.401  1.00  0.00     0.031 C 
ATOM     47  C   UNL A   1      45.084  31.666  31.854  1.00  0.00     0.029 A 
ATOM     48  N   UNL A   1      43.421  31.230  33.220  1.00  0.00    -0.354 N 
ATOM     49  C   UNL A   1      44.866  33.820  28.446  1.00  0.00     0.074 A 
ATOM     50  C   UNL A   1      43.790  34.777  28.408  1.00  0.00     0.031 C 
ATOM     51  C   UNL A   1      45.565  30.819  32.773  1.00  0.00     0.029 A 
ATOM     52  C   UNL A   1      44.416  30.259  33.423  1.00  0.00     0.049 A 
ATOM     53  H   UNL A   1      42.631  31.339  33.798  1.00  0.00     0.167 HD
ATOM     54  C   UNL A   1      46.056  33.639  27.802  1.00  0.00     0.034 A 
ATOM     55  C   UNL A   1      44.168  28.911  33.381  1.00  0.00     0.034 A 
ATOM     56  C   UNL A   1      46.683  32.338  28.182  1.00  0.00     0.049 A 
ATOM     57  C   UNL A   1      44.686  28.282  32.084  1.00  0.00     0.074 A 
ATOM     58  C   UNL A   1      47.923  31.947  28.666  1.00  0.00     0.029 A 
ATOM     59  N   UNL A   1      45.905  31.167  28.201  1.00  0.00    -0.354 N 
ATOM     60  N   UNL A   1      45.193  29.003  31.111  1.00  0.00    -0.248 NA
ATOM     61  C   UNL A   1      44.771  26.856  31.766  1.00  0.00     0.031 C 
ATOM     62  C   UNL A   1      47.811  30.613  29.163  1.00  0.00     0.029 A 
ATOM     63  C   UNL A   1      46.553  30.125  28.849  1.00  0.00     0.049 A 
ATOM     64  H   UNL A   1      45.007  31.096  27.803  1.00  0.00     0.167 HD
ATOM     65  C   UNL A   1      45.570  28.238  30.060  1.00  0.00     0.074 A 
ATOM     66  C   UNL A   1      45.319  26.885  30.532  1.00  0.00     0.031 C 
ATOM     67  C   UNL A   1      45.990  28.773  28.872  1.00  0.00     0.034 A 
BRANCH  54  68
ATOM     68  C   UNL A   1      46.769  34.687  26.914  1.00  0.00     0.023 A 
ATOM     69  C   UNL A   1      47.751  34.203  26.017  1.00  0.00     0.012 A 
ATOM     70  C   UNL A   1      46.631  36.105  26.932  1.00  0.00     0.148 A 
ATOM     71  C   UNL A   1      48.568  35.039  25.239  1.00  0.00     0.002 A 
ATOM     72  C   UNL A   1      47.399  36.942  26.100  1.00  0.00     0.091 A 
ATOM     73  F   UNL A   1      45.792  36.690  27.786  1.00  0.00    -0.205 F 
ATOM     74  C   UNL A   1      48.388  36.411  25.274  1.00  0.00     0.022 A 
BRANCH  72  75
ATOM     75  S   UNL A   1      47.182  38.737  26.011  1.00  0.00     0.127 S 
ATOM     76  O   UNL A   1      47.759  39.057  24.706  1.00  0.00    -0.237 OA
ATOM     77  O   UNL A   1      45.726  38.875  26.078  1.00  0.00    -0.237 OA
ATOM     78  O   UNL A   1      47.900  39.298  27.150  1.00  0.00    -0.744 OA
ENDBRANCH  72  75
ENDBRANCH  54  68
BRANCH  55  79
ATOM     79  C   UNL A   1      43.025  28.563  34.285  1.00  0.00     0.023 A 
ATOM     80  C   UNL A   1      43.244  28.990  35.626  1.00  0.00     0.012 A 
ATOM     81  C   UNL A   1      41.722  28.636  33.767  1.00  0.00     0.148 A 
ATOM     82  C   UNL A   1      42.290  29.768  36.287  1.00  0.00     0.002 A 
ATOM     83  C   UNL A   1      40.776  29.421  34.430  1.00  0.00     0.091 A 
ATOM     84  F   UNL A   1      41.474  28.076  32.575  1.00  0.00    -0.205 F 
ATOM     85  C   UNL A   1      41.080  30.039  35.658  1.00  0.00     0.022 A 
BRANCH  83  86
ATOM     86  S   UNL A   1      39.254  29.898  33.601  1.00  0.00     0.127 S 
ATOM     87  O   UNL A   1      38.659  28.606  33.279  1.00  0.00    -0.237 OA
ATOM     88  O   UNL A   1      38.552  30.656  34.638  1.00  0.00    -0.237 OA
ATOM     89  O   UNL A   1      39.688  30.705  32.470  1.00  0.00    -0.744 OA
ENDBRANCH  83  86
ENDBRANCH  55  79
BRANCH  67  90
ATOM     90  C   UNL A   1      45.897  28.011  27.574  1.00  0.00     0.023 A 
ATOM     91  C   UNL A   1      44.687  27.975  26.853  1.00  0.00     0.012 A 
ATOM     92  C   UNL A   1      47.050  27.497  26.934  1.00  0.00     0.148 A 
ATOM     93  C   UNL A   1      44.597  27.378  25.599  1.00  0.00     0.002 A 
ATOM     94  C   UNL A   1      46.977  27.008  25.636  1.00  0.00     0.091 A 
ATOM     95  F   UNL A   1      48.224  27.476  27.579  1.00  0.00    -0.205 F 
ATOM     96  C   UNL A   1      45.746  26.909  24.981  1.00  0.00     0.022 A 
BRANCH  94  97
ATOM     97  S   UNL A   1      48.458  26.633  24.689  1.00  0.00     0.127 S 
ATOM     98  O   UNL A   1      49.076  27.952  24.570  1.00  0.00    -0.237 OA
ATOM     99  O   UNL A   1      49.164  25.706  25.576  1.00  0.00    -0.237 OA
ATOM    100  O   UNL A   1      47.990  26.033  23.447  1.00  0.00    -0.744 OA
ENDBRANCH  94  97
ENDBRANCH  67  90
ENDBRANCH  41  42
ENDBRANCH  34  36
ENDBRANCH  33  34
ENDBRANCH  32  33
ENDBRANCH  31  32
ENDBRANCH  30  31
ENDBRANCH  29  30
ENDBRANCH  28  29
ENDBRANCH   1  28
TORSDOF 26
ENDMDL
