MODEL 1
REMARK VINA RESULT:      -9.8      0.000      0.000
REMARK SMILES CC1C[NH+]([C@@H](C(=O)OCCOCCOCCOCCOC(=O)c2ccc(-c3c4nc(c(-c5cccc(S(=O)(=O)[O-])c5F)c5ccc([nH]5)c(-c5cccc(S(=O)(=O)[O-])c5F)c5nc(c(-c6cccc(S(=O)(=O)[O-])c6F)c6ccc3[nH]6)C=C5)C=C4)cc2)C2CCCCC2)C1
REMARK SMILES IDX 15 1 14 2 13 3 12 4 11 5 10 6 9 7 8 8 6 9 7 10 5 11 4 12
REMARK SMILES IDX 1 13 2 14 3 15 92 16 86 18 87 19 91 20 88 21 90 22 89 23
REMARK SMILES IDX 16 24 17 25 18 26 19 27 20 28 21 29 22 30 23 31 24 32 85 33
REMARK SMILES IDX 25 34 84 35 26 36 27 37 28 38 78 39 29 40 83 41 77 42 79 43
REMARK SMILES IDX 30 44 82 45 76 46 75 47 31 49 63 50 43 51 62 52 44 53 47 54
REMARK SMILES IDX 61 55 80 56 45 57 46 58 60 60 81 61 48 62 32 63 33 64 41 65
REMARK SMILES IDX 34 66 36 67 42 68 35 69 37 70 38 71 39 72 40 73 64 74 65 75
REMARK SMILES IDX 73 76 66 77 68 78 74 79 67 80 69 81 70 82 71 83 72 84 49 85
REMARK SMILES IDX 50 86 58 87 51 88 53 89 59 90 52 91 54 92 55 93 56 94 57 95
REMARK H PARENT 4 17 79 48 47 59
REMARK Flexibility Score: inf
ROOT
ATOM      1  C   UNL A   1      31.509  29.812  25.261  1.00  0.00     0.188 C 
ENDROOT
BRANCH   1   2
ATOM      2  O   UNL A   1      31.685  29.150  24.023  1.00  0.00    -0.377 OA
BRANCH   2   3
ATOM      3  C   UNL A   1      30.675  29.191  23.039  1.00  0.00     0.188 C 
BRANCH   3   4
ATOM      4  C   UNL A   1      29.882  27.877  22.977  1.00  0.00     0.188 C 
BRANCH   4   5
ATOM      5  O   UNL A   1      30.064  26.951  24.039  1.00  0.00    -0.376 OA
BRANCH   5   6
ATOM      6  C   UNL A   1      30.191  25.571  23.685  1.00  0.00     0.202 C 
BRANCH   6   7
ATOM      7  C   UNL A   1      31.550  25.035  23.175  1.00  0.00     0.261 C 
BRANCH   7   8
ATOM      8  O   UNL A   1      32.760  25.678  23.670  1.00  0.00    -0.459 OA
BRANCH   8   9
ATOM      9  C   UNL A   1      33.365  25.081  24.725  1.00  0.00     0.365 C 
ATOM     10  O   UNL A   1      34.041  25.719  25.538  1.00  0.00    -0.245 OA
BRANCH   9  11
ATOM     11  C   UNL A   1      33.175  23.562  24.931  1.00  0.00     0.298 C 
BRANCH  11  12
ATOM     12  N   UNL A   1      32.464  22.948  26.076  1.00  0.00    -0.322 N 
ATOM     13  C   UNL A   1      29.311  22.752  27.392  1.00  0.00     0.020 C 
ATOM     14  C   UNL A   1      30.367  23.077  26.355  1.00  0.00     0.096 C 
ATOM     15  C   UNL A   1      31.610  23.761  26.930  1.00  0.00     0.272 C 
ATOM     16  C   UNL A   1      31.352  22.025  25.786  1.00  0.00     0.272 C 
ATOM     17  H   UNL A   1      33.338  22.596  26.466  1.00  0.00     0.348 HD
ENDBRANCH  11  12
BRANCH  11  18
ATOM     18  C   UNL A   1      34.439  22.770  24.400  1.00  0.00     0.059 C 
ATOM     19  C   UNL A   1      35.729  23.581  24.178  1.00  0.00     0.010 C 
ATOM     20  C   UNL A   1      34.738  21.541  25.280  1.00  0.00     0.010 C 
ATOM     21  C   UNL A   1      36.895  22.744  23.657  1.00  0.00     0.001 C 
ATOM     22  C   UNL A   1      35.903  20.715  24.734  1.00  0.00     0.001 C 
ATOM     23  C   UNL A   1      37.162  21.558  24.571  1.00  0.00     0.000 C 
ENDBRANCH  11  18
ENDBRANCH   9  11
ENDBRANCH   8   9
ENDBRANCH   7   8
ENDBRANCH   6   7
ENDBRANCH   5   6
ENDBRANCH   4   5
ENDBRANCH   3   4
ENDBRANCH   2   3
ENDBRANCH   1   2
BRANCH   1  24
ATOM     24  C   UNL A   1      31.997  29.057  26.496  1.00  0.00     0.188 C 
BRANCH  24  25
ATOM     25  O   UNL A   1      32.661  29.825  27.507  1.00  0.00    -0.376 OA
BRANCH  25  26
ATOM     26  C   UNL A   1      34.055  30.099  27.368  1.00  0.00     0.202 C 
BRANCH  26  27
ATOM     27  C   UNL A   1      34.449  31.553  27.611  1.00  0.00     0.261 C 
BRANCH  27  28
ATOM     28  O   UNL A   1      33.282  32.375  27.769  1.00  0.00    -0.460 OA
BRANCH  28  29
ATOM     29  C   UNL A   1      33.500  33.605  28.280  1.00  0.00     0.338 C 
ATOM     30  O   UNL A   1      32.842  34.616  28.085  1.00  0.00    -0.246 OA
BRANCH  29  31
ATOM     31  C   UNL A   1      34.580  33.522  29.276  1.00  0.00     0.060 A 
ATOM     32  C   UNL A   1      35.830  34.068  28.951  1.00  0.00     0.016 A 
ATOM     33  C   UNL A   1      34.385  32.843  30.480  1.00  0.00     0.016 A 
ATOM     34  C   UNL A   1      36.914  33.872  29.801  1.00  0.00     0.010 A 
ATOM     35  C   UNL A   1      35.475  32.634  31.323  1.00  0.00     0.010 A 
ATOM     36  C   UNL A   1      36.751  33.097  30.955  1.00  0.00    -0.014 A 
BRANCH  36  37
ATOM     37  C   UNL A   1      37.941  32.539  31.633  1.00  0.00     0.031 A 
ATOM     38  C   UNL A   1      38.637  31.378  30.976  1.00  0.00     0.074 A 
ATOM     39  C   UNL A   1      38.380  33.038  32.801  1.00  0.00     0.049 A 
ATOM     40  N   UNL A   1      39.615  30.638  31.422  1.00  0.00    -0.248 NA
ATOM     41  C   UNL A   1      38.155  30.993  29.636  1.00  0.00     0.031 C 
ATOM     42  C   UNL A   1      37.800  34.178  33.507  1.00  0.00     0.029 A 
ATOM     43  N   UNL A   1      39.400  32.616  33.615  1.00  0.00    -0.354 N 
ATOM     44  C   UNL A   1      39.843  29.683  30.438  1.00  0.00     0.074 A 
ATOM     45  C   UNL A   1      38.897  29.928  29.375  1.00  0.00     0.031 C 
ATOM     46  C   UNL A   1      38.446  34.337  34.676  1.00  0.00     0.029 A 
ATOM     47  C   UNL A   1      39.456  33.290  34.811  1.00  0.00     0.049 A 
ATOM     48  H   UNL A   1      40.030  31.901  33.366  1.00  0.00     0.167 HD
ATOM     49  C   UNL A   1      40.767  28.695  30.418  1.00  0.00     0.034 A 
ATOM     50  C   UNL A   1      40.212  33.054  35.903  1.00  0.00     0.034 A 
ATOM     51  C   UNL A   1      41.710  28.468  31.475  1.00  0.00     0.049 A 
ATOM     52  C   UNL A   1      41.204  31.918  35.873  1.00  0.00     0.074 A 
ATOM     53  C   UNL A   1      42.704  27.509  31.549  1.00  0.00     0.029 A 
ATOM     54  N   UNL A   1      41.772  29.204  32.648  1.00  0.00    -0.354 N 
ATOM     55  N   UNL A   1      41.463  31.070  34.906  1.00  0.00    -0.248 NA
ATOM     56  C   UNL A   1      42.031  31.724  37.073  1.00  0.00     0.031 C 
ATOM     57  C   UNL A   1      43.346  27.644  32.783  1.00  0.00     0.029 A 
ATOM     58  C   UNL A   1      42.785  28.720  33.454  1.00  0.00     0.049 A 
ATOM     59  H   UNL A   1      41.182  29.958  32.873  1.00  0.00     0.167 HD
ATOM     60  C   UNL A   1      42.517  30.284  35.359  1.00  0.00     0.074 A 
ATOM     61  C   UNL A   1      42.852  30.757  36.685  1.00  0.00     0.031 C 
ATOM     62  C   UNL A   1      43.149  29.257  34.739  1.00  0.00     0.034 A 
BRANCH  49  63
ATOM     63  C   UNL A   1      40.813  27.797  29.212  1.00  0.00     0.023 A 
ATOM     64  C   UNL A   1      39.953  26.682  29.136  1.00  0.00     0.012 A 
ATOM     65  C   UNL A   1      41.658  28.096  28.126  1.00  0.00     0.148 A 
ATOM     66  C   UNL A   1      39.952  25.865  28.006  1.00  0.00     0.002 A 
ATOM     67  C   UNL A   1      41.616  27.305  26.985  1.00  0.00     0.091 A 
ATOM     68  F   UNL A   1      42.483  29.147  28.231  1.00  0.00    -0.205 F 
ATOM     69  C   UNL A   1      40.773  26.183  26.928  1.00  0.00     0.022 A 
BRANCH  67  70
ATOM     70  S   UNL A   1      42.574  27.675  25.513  1.00  0.00     0.127 S 
ATOM     71  O   UNL A   1      43.934  27.729  26.050  1.00  0.00    -0.237 OA
ATOM     72  O   UNL A   1      42.298  26.513  24.668  1.00  0.00    -0.237 OA
ATOM     73  O   UNL A   1      42.061  28.938  25.001  1.00  0.00    -0.744 OA
ENDBRANCH  67  70
ENDBRANCH  49  63
BRANCH  50  74
ATOM     74  C   UNL A   1      40.066  33.903  37.120  1.00  0.00     0.023 A 
ATOM     75  C   UNL A   1      39.011  33.661  38.020  1.00  0.00     0.012 A 
ATOM     76  C   UNL A   1      40.956  34.963  37.376  1.00  0.00     0.148 A 
ATOM     77  C   UNL A   1      38.815  34.488  39.126  1.00  0.00     0.002 A 
ATOM     78  C   UNL A   1      40.791  35.748  38.511  1.00  0.00     0.091 A 
ATOM     79  F   UNL A   1      41.946  35.188  36.501  1.00  0.00    -0.205 F 
ATOM     80  C   UNL A   1      39.709  35.526  39.375  1.00  0.00     0.022 A 
BRANCH  78  81
ATOM     81  S   UNL A   1      41.966  37.024  38.977  1.00  0.00     0.127 S 
ATOM     82  O   UNL A   1      42.593  37.336  37.695  1.00  0.00    -0.237 OA
ATOM     83  O   UNL A   1      41.085  38.066  39.504  1.00  0.00    -0.237 OA
ATOM     84  O   UNL A   1      42.833  36.412  39.975  1.00  0.00    -0.744 OA
ENDBRANCH  78  81
ENDBRANCH  50  74
BRANCH  62  85
ATOM     85  C   UNL A   1      44.326  28.626  35.434  1.00  0.00     0.023 A 
ATOM     86  C   UNL A   1      45.633  29.080  35.179  1.00  0.00     0.012 A 
ATOM     87  C   UNL A   1      44.112  27.647  36.425  1.00  0.00     0.148 A 
ATOM     88  C   UNL A   1      46.715  28.548  35.881  1.00  0.00     0.002 A 
ATOM     89  C   UNL A   1      45.187  27.161  37.158  1.00  0.00     0.091 A 
ATOM     90  F   UNL A   1      42.859  27.219  36.641  1.00  0.00    -0.205 F 
ATOM     91  C   UNL A   1      46.490  27.601  36.879  1.00  0.00     0.022 A 
BRANCH  89  92
ATOM     92  S   UNL A   1      44.981  26.022  38.532  1.00  0.00     0.127 S 
ATOM     93  O   UNL A   1      43.907  26.663  39.290  1.00  0.00    -0.237 OA
ATOM     94  O   UNL A   1      44.594  24.787  37.851  1.00  0.00    -0.237 OA
ATOM     95  O   UNL A   1      46.270  25.965  39.208  1.00  0.00    -0.744 OA
ENDBRANCH  89  92
ENDBRANCH  62  85
ENDBRANCH  36  37
ENDBRANCH  29  31
ENDBRANCH  28  29
ENDBRANCH  27  28
ENDBRANCH  26  27
ENDBRANCH  25  26
ENDBRANCH  24  25
ENDBRANCH   1  24
TORSDOF 25
ENDMDL
MODEL 2
REMARK VINA RESULT:      -9.3      2.003      2.313
REMARK SMILES CC1C[NH+]([C@@H](C(=O)OCCOCCOCCOCCOC(=O)c2ccc(-c3c4nc(c(-c5cccc(S(=O)(=O)[O-])c5F)c5ccc([nH]5)c(-c5cccc(S(=O)(=O)[O-])c5F)c5nc(c(-c6cccc(S(=O)(=O)[O-])c6F)c6ccc3[nH]6)C=C5)C=C4)cc2)C2CCCCC2)C1
REMARK SMILES IDX 15 1 14 2 13 3 12 4 11 5 10 6 9 7 8 8 6 9 7 10 5 11 4 12
REMARK SMILES IDX 1 13 2 14 3 15 92 16 86 18 87 19 91 20 88 21 90 22 89 23
REMARK SMILES IDX 16 24 17 25 18 26 19 27 20 28 21 29 22 30 23 31 24 32 85 33
REMARK SMILES IDX 25 34 84 35 26 36 27 37 28 38 78 39 29 40 83 41 77 42 79 43
REMARK SMILES IDX 30 44 82 45 76 46 75 47 31 49 63 50 43 51 62 52 44 53 47 54
REMARK SMILES IDX 61 55 80 56 45 57 46 58 60 60 81 61 48 62 32 63 33 64 41 65
REMARK SMILES IDX 34 66 36 67 42 68 35 69 37 70 38 71 39 72 40 73 64 74 65 75
REMARK SMILES IDX 73 76 66 77 68 78 74 79 67 80 69 81 70 82 71 83 72 84 49 85
REMARK SMILES IDX 50 86 58 87 51 88 53 89 59 90 52 91 54 92 55 93 56 94 57 95
REMARK H PARENT 4 17 79 48 47 59
REMARK Flexibility Score: inf
ROOT
ATOM      1  C   UNL A   1      31.387  29.777  25.656  1.00  0.00     0.188 C 
ENDROOT
BRANCH   1   2
ATOM      2  O   UNL A   1      31.237  29.223  24.363  1.00  0.00    -0.377 OA
BRANCH   2   3
ATOM      3  C   UNL A   1      30.061  29.452  23.618  1.00  0.00     0.188 C 
BRANCH   3   4
ATOM      4  C   UNL A   1      29.874  28.407  22.508  1.00  0.00     0.188 C 
BRANCH   4   5
ATOM      5  O   UNL A   1      31.045  27.858  21.920  1.00  0.00    -0.376 OA
BRANCH   5   6
ATOM      6  C   UNL A   1      31.112  26.433  21.809  1.00  0.00     0.202 C 
BRANCH   6   7
ATOM      7  C   UNL A   1      32.469  25.755  21.503  1.00  0.00     0.261 C 
BRANCH   7   8
ATOM      8  O   UNL A   1      33.677  26.400  22.002  1.00  0.00    -0.459 OA
BRANCH   8   9
ATOM      9  C   UNL A   1      33.820  26.438  23.349  1.00  0.00     0.365 C 
ATOM     10  O   UNL A   1      34.028  27.494  23.954  1.00  0.00    -0.245 OA
BRANCH   9  11
ATOM     11  C   UNL A   1      33.689  25.124  24.150  1.00  0.00     0.298 C 
BRANCH  11  12
ATOM     12  N   UNL A   1      32.743  24.909  25.269  1.00  0.00    -0.322 N 
ATOM     13  C   UNL A   1      29.461  25.466  26.061  1.00  0.00     0.020 C 
ATOM     14  C   UNL A   1      30.681  25.384  25.165  1.00  0.00     0.096 C 
ATOM     15  C   UNL A   1      31.938  26.013  25.771  1.00  0.00     0.272 C 
ATOM     16  C   UNL A   1      31.538  24.102  25.012  1.00  0.00     0.272 C 
ATOM     17  H   UNL A   1      33.488  24.548  25.865  1.00  0.00     0.348 HD
ENDBRANCH  11  12
BRANCH  11  18
ATOM     18  C   UNL A   1      35.100  24.421  24.295  1.00  0.00     0.059 C 
ATOM     19  C   UNL A   1      35.429  23.793  25.662  1.00  0.00     0.010 C 
ATOM     20  C   UNL A   1      35.327  23.387  23.176  1.00  0.00     0.010 C 
ATOM     21  C   UNL A   1      36.811  23.145  25.721  1.00  0.00     0.001 C 
ATOM     22  C   UNL A   1      36.718  22.758  23.250  1.00  0.00     0.001 C 
ATOM     23  C   UNL A   1      36.975  22.119  24.610  1.00  0.00     0.000 C 
ENDBRANCH  11  18
ENDBRANCH   9  11
ENDBRANCH   8   9
ENDBRANCH   7   8
ENDBRANCH   6   7
ENDBRANCH   5   6
ENDBRANCH   4   5
ENDBRANCH   3   4
ENDBRANCH   2   3
ENDBRANCH   1   2
BRANCH   1  24
ATOM     24  C   UNL A   1      32.507  29.186  26.509  1.00  0.00     0.188 C 
BRANCH  24  25
ATOM     25  O   UNL A   1      33.018  30.003  27.569  1.00  0.00    -0.376 OA
BRANCH  25  26
ATOM     26  C   UNL A   1      34.392  30.388  27.549  1.00  0.00     0.202 C 
BRANCH  26  27
ATOM     27  C   UNL A   1      34.638  31.891  27.646  1.00  0.00     0.261 C 
BRANCH  27  28
ATOM     28  O   UNL A   1      33.396  32.600  27.772  1.00  0.00    -0.460 OA
BRANCH  28  29
ATOM     29  C   UNL A   1      33.465  33.792  28.403  1.00  0.00     0.338 C 
ATOM     30  O   UNL A   1      32.713  34.746  28.270  1.00  0.00    -0.246 OA
BRANCH  29  31
ATOM     31  C   UNL A   1      34.509  33.721  29.437  1.00  0.00     0.060 A 
ATOM     32  C   UNL A   1      35.715  34.402  29.216  1.00  0.00     0.016 A 
ATOM     33  C   UNL A   1      34.332  32.928  30.573  1.00  0.00     0.016 A 
ATOM     34  C   UNL A   1      36.778  34.232  30.096  1.00  0.00     0.010 A 
ATOM     35  C   UNL A   1      35.402  32.747  31.445  1.00  0.00     0.010 A 
ATOM     36  C   UNL A   1      36.644  33.352  31.175  1.00  0.00    -0.014 A 
BRANCH  36  37
ATOM     37  C   UNL A   1      37.853  32.847  31.860  1.00  0.00     0.031 A 
ATOM     38  C   UNL A   1      38.710  31.854  31.121  1.00  0.00     0.074 A 
ATOM     39  C   UNL A   1      38.172  33.245  33.103  1.00  0.00     0.049 A 
ATOM     40  N   UNL A   1      39.742  31.175  31.542  1.00  0.00    -0.248 NA
ATOM     41  C   UNL A   1      38.344  31.585  29.718  1.00  0.00     0.031 C 
ATOM     42  C   UNL A   1      37.431  34.223  33.896  1.00  0.00     0.029 A 
ATOM     43  N   UNL A   1      39.191  32.840  33.927  1.00  0.00    -0.354 N 
ATOM     44  C   UNL A   1      40.127  30.375  30.472  1.00  0.00     0.074 A 
ATOM     45  C   UNL A   1      39.214  30.644  29.385  1.00  0.00     0.031 C 
ATOM     46  C   UNL A   1      37.994  34.309  35.114  1.00  0.00     0.029 A 
ATOM     47  C   UNL A   1      39.109  33.367  35.194  1.00  0.00     0.049 A 
ATOM     48  H   UNL A   1      39.910  32.232  33.639  1.00  0.00     0.167 HD
ATOM     49  C   UNL A   1      41.157  29.502  30.399  1.00  0.00     0.034 A 
ATOM     50  C   UNL A   1      39.829  33.083  36.298  1.00  0.00     0.034 A 
ATOM     51  C   UNL A   1      42.065  29.252  31.481  1.00  0.00     0.049 A 
ATOM     52  C   UNL A   1      40.945  32.072  36.203  1.00  0.00     0.074 A 
ATOM     53  C   UNL A   1      43.156  28.402  31.508  1.00  0.00     0.029 A 
ATOM     54  N   UNL A   1      41.983  29.843  32.732  1.00  0.00    -0.354 N 
ATOM     55  N   UNL A   1      41.347  31.380  35.163  1.00  0.00    -0.248 NA
ATOM     56  C   UNL A   1      41.726  31.824  37.423  1.00  0.00     0.031 C 
ATOM     57  C   UNL A   1      43.715  28.456  32.789  1.00  0.00     0.029 A 
ATOM     58  C   UNL A   1      43.001  29.377  33.541  1.00  0.00     0.049 A 
ATOM     59  H   UNL A   1      41.300  30.497  33.003  1.00  0.00     0.167 HD
ATOM     60  C   UNL A   1      42.459  30.662  35.591  1.00  0.00     0.074 A 
ATOM     61  C   UNL A   1      42.670  31.005  36.981  1.00  0.00     0.031 C 
ATOM     62  C   UNL A   1      43.235  29.791  34.899  1.00  0.00     0.034 A 
BRANCH  49  63
ATOM     63  C   UNL A   1      41.367  28.766  29.104  1.00  0.00     0.023 A 
ATOM     64  C   UNL A   1      42.123  29.361  28.074  1.00  0.00     0.012 A 
ATOM     65  C   UNL A   1      40.874  27.458  28.934  1.00  0.00     0.148 A 
ATOM     66  C   UNL A   1      42.364  28.674  26.884  1.00  0.00     0.002 A 
ATOM     67  C   UNL A   1      41.159  26.763  27.766  1.00  0.00     0.091 A 
ATOM     68  F   UNL A   1      40.138  26.921  29.917  1.00  0.00    -0.205 F 
ATOM     69  C   UNL A   1      41.893  27.373  26.736  1.00  0.00     0.022 A 
BRANCH  67  70
ATOM     70  S   UNL A   1      40.667  25.055  27.509  1.00  0.00     0.127 S 
ATOM     71  O   UNL A   1      41.126  24.817  26.141  1.00  0.00    -0.237 OA
ATOM     72  O   UNL A   1      41.435  24.358  28.540  1.00  0.00    -0.237 OA
ATOM     73  O   UNL A   1      39.223  25.016  27.692  1.00  0.00    -0.744 OA
ENDBRANCH  67  70
ENDBRANCH  49  63
BRANCH  50  74
ATOM     74  C   UNL A   1      39.525  33.759  37.592  1.00  0.00     0.023 A 
ATOM     75  C   UNL A   1      40.132  34.993  37.896  1.00  0.00     0.012 A 
ATOM     76  C   UNL A   1      38.654  33.173  38.530  1.00  0.00     0.148 A 
ATOM     77  C   UNL A   1      39.916  35.607  39.130  1.00  0.00     0.002 A 
ATOM     78  C   UNL A   1      38.397  33.818  39.734  1.00  0.00     0.091 A 
ATOM     79  F   UNL A   1      38.097  31.991  38.229  1.00  0.00    -0.205 F 
ATOM     80  C   UNL A   1      39.044  35.023  40.046  1.00  0.00     0.022 A 
BRANCH  78  81
ATOM     81  S   UNL A   1      37.193  33.203  40.916  1.00  0.00     0.127 S 
ATOM     82  O   UNL A   1      38.002  32.292  41.721  1.00  0.00    -0.237 OA
ATOM     83  O   UNL A   1      36.784  34.432  41.596  1.00  0.00    -0.237 OA
ATOM     84  O   UNL A   1      36.143  32.583  40.118  1.00  0.00    -0.744 OA
ENDBRANCH  78  81
ENDBRANCH  50  74
BRANCH  62  85
ATOM     85  C   UNL A   1      44.440  29.211  35.592  1.00  0.00     0.023 A 
ATOM     86  C   UNL A   1      45.693  29.844  35.496  1.00  0.00     0.012 A 
ATOM     87  C   UNL A   1      44.292  28.086  36.429  1.00  0.00     0.148 A 
ATOM     88  C   UNL A   1      46.789  29.349  36.201  1.00  0.00     0.002 A 
ATOM     89  C   UNL A   1      45.375  27.632  37.170  1.00  0.00     0.091 A 
ATOM     90  F   UNL A   1      43.092  27.490  36.494  1.00  0.00    -0.205 F 
ATOM     91  C   UNL A   1      46.627  28.253  37.048  1.00  0.00     0.022 A 
BRANCH  89  92
ATOM     92  S   UNL A   1      45.233  26.298  38.365  1.00  0.00     0.127 S 
ATOM     93  O   UNL A   1      44.298  26.867  39.335  1.00  0.00    -0.237 OA
ATOM     94  O   UNL A   1      44.683  25.213  37.551  1.00  0.00    -0.237 OA
ATOM     95  O   UNL A   1      46.580  26.058  38.867  1.00  0.00    -0.744 OA
ENDBRANCH  89  92
ENDBRANCH  62  85
ENDBRANCH  36  37
ENDBRANCH  29  31
ENDBRANCH  28  29
ENDBRANCH  27  28
ENDBRANCH  26  27
ENDBRANCH  25  26
ENDBRANCH  24  25
ENDBRANCH   1  24
TORSDOF 25
ENDMDL
MODEL 3
REMARK VINA RESULT:      -9.2      2.310      8.033
REMARK SMILES CC1C[NH+]([C@@H](C(=O)OCCOCCOCCOCCOC(=O)c2ccc(-c3c4nc(c(-c5cccc(S(=O)(=O)[O-])c5F)c5ccc([nH]5)c(-c5cccc(S(=O)(=O)[O-])c5F)c5nc(c(-c6cccc(S(=O)(=O)[O-])c6F)c6ccc3[nH]6)C=C5)C=C4)cc2)C2CCCCC2)C1
REMARK SMILES IDX 15 1 14 2 13 3 12 4 11 5 10 6 9 7 8 8 6 9 7 10 5 11 4 12
REMARK SMILES IDX 1 13 2 14 3 15 92 16 86 18 87 19 91 20 88 21 90 22 89 23
REMARK SMILES IDX 16 24 17 25 18 26 19 27 20 28 21 29 22 30 23 31 24 32 85 33
REMARK SMILES IDX 25 34 84 35 26 36 27 37 28 38 78 39 29 40 83 41 77 42 79 43
REMARK SMILES IDX 30 44 82 45 76 46 75 47 31 49 63 50 43 51 62 52 44 53 47 54
REMARK SMILES IDX 61 55 80 56 45 57 46 58 60 60 81 61 48 62 32 63 33 64 41 65
REMARK SMILES IDX 34 66 36 67 42 68 35 69 37 70 38 71 39 72 40 73 64 74 65 75
REMARK SMILES IDX 73 76 66 77 68 78 74 79 67 80 69 81 70 82 71 83 72 84 49 85
REMARK SMILES IDX 50 86 58 87 51 88 53 89 59 90 52 91 54 92 55 93 56 94 57 95
REMARK H PARENT 4 17 79 48 47 59
REMARK Flexibility Score: inf
ROOT
ATOM      1  C   UNL A   1      31.657  28.470  25.876  1.00  0.00     0.188 C 
ENDROOT
BRANCH   1   2
ATOM      2  O   UNL A   1      32.082  27.142  25.632  1.00  0.00    -0.377 OA
BRANCH   2   3
ATOM      3  C   UNL A   1      33.396  26.740  25.953  1.00  0.00     0.188 C 
BRANCH   3   4
ATOM      4  C   UNL A   1      33.589  25.226  25.784  1.00  0.00     0.188 C 
BRANCH   4   5
ATOM      5  O   UNL A   1      32.550  24.377  26.252  1.00  0.00    -0.376 OA
BRANCH   5   6
ATOM      6  C   UNL A   1      31.411  24.211  25.402  1.00  0.00     0.202 C 
BRANCH   6   7
ATOM      7  C   UNL A   1      30.942  22.785  25.026  1.00  0.00     0.261 C 
BRANCH   7   8
ATOM      8  O   UNL A   1      31.755  21.663  25.476  1.00  0.00    -0.459 OA
BRANCH   8   9
ATOM      9  C   UNL A   1      32.626  21.156  24.570  1.00  0.00     0.365 C 
ATOM     10  O   UNL A   1      32.391  21.172  23.358  1.00  0.00    -0.245 OA
BRANCH   9  11
ATOM     11  C   UNL A   1      33.965  20.570  25.069  1.00  0.00     0.298 C 
BRANCH  11  12
ATOM     12  N   UNL A   1      35.303  21.064  24.670  1.00  0.00    -0.322 N 
ATOM     13  C   UNL A   1      37.448  23.642  25.350  1.00  0.00     0.020 C 
ATOM     14  C   UNL A   1      36.235  22.754  25.544  1.00  0.00     0.096 C 
ATOM     15  C   UNL A   1      35.480  22.446  24.249  1.00  0.00     0.272 C 
ATOM     16  C   UNL A   1      36.326  21.217  25.720  1.00  0.00     0.272 C 
ATOM     17  H   UNL A   1      35.393  20.332  23.966  1.00  0.00     0.348 HD
ENDBRANCH  11  12
BRANCH  11  18
ATOM     18  C   UNL A   1      33.841  19.006  25.278  1.00  0.00     0.059 C 
ATOM     19  C   UNL A   1      32.419  18.413  25.278  1.00  0.00     0.010 C 
ATOM     20  C   UNL A   1      34.728  18.237  24.280  1.00  0.00     0.010 C 
ATOM     21  C   UNL A   1      32.388  16.901  25.494  1.00  0.00     0.001 C 
ATOM     22  C   UNL A   1      34.687  16.728  24.521  1.00  0.00     0.001 C 
ATOM     23  C   UNL A   1      33.262  16.190  24.472  1.00  0.00     0.000 C 
ENDBRANCH  11  18
ENDBRANCH   9  11
ENDBRANCH   8   9
ENDBRANCH   7   8
ENDBRANCH   6   7
ENDBRANCH   5   6
ENDBRANCH   4   5
ENDBRANCH   3   4
ENDBRANCH   2   3
ENDBRANCH   1   2
BRANCH   1  24
ATOM     24  C   UNL A   1      32.620  29.570  25.434  1.00  0.00     0.188 C 
BRANCH  24  25
ATOM     25  O   UNL A   1      32.623  30.779  26.203  1.00  0.00    -0.376 OA
BRANCH  25  26
ATOM     26  C   UNL A   1      33.332  30.812  27.441  1.00  0.00     0.202 C 
BRANCH  26  27
ATOM     27  C   UNL A   1      33.971  32.157  27.777  1.00  0.00     0.261 C 
BRANCH  27  28
ATOM     28  O   UNL A   1      32.998  33.210  27.716  1.00  0.00    -0.460 OA
BRANCH  28  29
ATOM     29  C   UNL A   1      33.268  34.299  28.467  1.00  0.00     0.338 C 
ATOM     30  O   UNL A   1      32.645  35.351  28.499  1.00  0.00    -0.246 OA
BRANCH  29  31
ATOM     31  C   UNL A   1      34.357  33.974  29.400  1.00  0.00     0.060 A 
ATOM     32  C   UNL A   1      35.673  34.279  29.023  1.00  0.00     0.016 A 
ATOM     33  C   UNL A   1      34.091  33.305  30.596  1.00  0.00     0.016 A 
ATOM     34  C   UNL A   1      36.737  33.848  29.808  1.00  0.00     0.010 A 
ATOM     35  C   UNL A   1      35.158  32.860  31.374  1.00  0.00     0.010 A 
ATOM     36  C   UNL A   1      36.481  33.080  30.950  1.00  0.00    -0.014 A 
BRANCH  36  37
ATOM     37  C   UNL A   1      37.571  32.279  31.549  1.00  0.00     0.031 A 
ATOM     38  C   UNL A   1      38.112  32.725  32.880  1.00  0.00     0.074 A 
ATOM     39  C   UNL A   1      38.073  31.200  30.925  1.00  0.00     0.049 A 
ATOM     40  N   UNL A   1      39.137  32.274  33.551  1.00  0.00    -0.248 NA
ATOM     41  C   UNL A   1      37.406  33.839  33.539  1.00  0.00     0.031 C 
ATOM     42  C   UNL A   1      37.602  30.663  29.649  1.00  0.00     0.029 A 
ATOM     43  N   UNL A   1      39.119  30.384  31.271  1.00  0.00    -0.354 N 
ATOM     44  C   UNL A   1      39.219  33.067  34.690  1.00  0.00     0.074 A 
ATOM     45  C   UNL A   1      38.149  34.035  34.617  1.00  0.00     0.031 C 
ATOM     46  C   UNL A   1      38.390  29.633  29.296  1.00  0.00     0.029 A 
ATOM     47  C   UNL A   1      39.437  29.464  30.302  1.00  0.00     0.049 A 
ATOM     48  H   UNL A   1      39.596  30.452  32.130  1.00  0.00     0.167 HD
ATOM     49  C   UNL A   1      40.103  32.989  35.711  1.00  0.00     0.034 A 
ATOM     50  C   UNL A   1      40.482  28.615  30.224  1.00  0.00     0.034 A 
ATOM     51  C   UNL A   1      41.156  32.016  35.778  1.00  0.00     0.049 A 
ATOM     52  C   UNL A   1      41.479  28.577  31.354  1.00  0.00     0.074 A 
ATOM     53  C   UNL A   1      42.095  31.835  36.777  1.00  0.00     0.029 A 
ATOM     54  N   UNL A   1      41.414  31.066  34.803  1.00  0.00    -0.354 N 
ATOM     55  N   UNL A   1      41.502  29.281  32.462  1.00  0.00    -0.248 NA
ATOM     56  C   UNL A   1      42.580  27.609  31.241  1.00  0.00     0.031 C 
ATOM     57  C   UNL A   1      42.943  30.793  36.390  1.00  0.00     0.029 A 
ATOM     58  C   UNL A   1      42.500  30.295  35.174  1.00  0.00     0.049 A 
ATOM     59  H   UNL A   1      40.901  30.957  33.971  1.00  0.00     0.167 HD
ATOM     60  C   UNL A   1      42.580  28.800  33.198  1.00  0.00     0.074 A 
ATOM     61  C   UNL A   1      43.183  27.744  32.414  1.00  0.00     0.031 C 
ATOM     62  C   UNL A   1      43.035  29.199  34.411  1.00  0.00     0.034 A 
BRANCH  49  63
ATOM     63  C   UNL A   1      39.961  33.970  36.842  1.00  0.00     0.023 A 
ATOM     64  C   UNL A   1      40.350  35.313  36.659  1.00  0.00     0.012 A 
ATOM     65  C   UNL A   1      39.379  33.579  38.064  1.00  0.00     0.148 A 
ATOM     66  C   UNL A   1      40.185  36.245  37.683  1.00  0.00     0.002 A 
ATOM     67  C   UNL A   1      39.174  34.524  39.061  1.00  0.00     0.091 A 
ATOM     68  F   UNL A   1      39.038  32.292  38.224  1.00  0.00    -0.205 F 
ATOM     69  C   UNL A   1      39.587  35.853  38.877  1.00  0.00     0.022 A 
BRANCH  67  70
ATOM     70  S   UNL A   1      38.340  34.139  40.603  1.00  0.00     0.127 S 
ATOM     71  O   UNL A   1      38.206  35.465  41.206  1.00  0.00    -0.237 OA
ATOM     72  O   UNL A   1      37.084  33.554  40.133  1.00  0.00    -0.237 OA
ATOM     73  O   UNL A   1      39.212  33.219  41.319  1.00  0.00    -0.744 OA
ENDBRANCH  67  70
ENDBRANCH  49  63
BRANCH  50  74
ATOM     74  C   UNL A   1      40.646  27.728  29.036  1.00  0.00     0.023 A 
ATOM     75  C   UNL A   1      39.913  26.529  28.952  1.00  0.00     0.012 A 
ATOM     76  C   UNL A   1      41.542  28.059  28.001  1.00  0.00     0.148 A 
ATOM     77  C   UNL A   1      40.105  25.651  27.884  1.00  0.00     0.002 A 
ATOM     78  C   UNL A   1      41.685  27.209  26.911  1.00  0.00     0.091 A 
ATOM     79  F   UNL A   1      42.242  29.197  28.105  1.00  0.00    -0.205 F 
ATOM     80  C   UNL A   1      40.985  25.994  26.861  1.00  0.00     0.022 A 
BRANCH  78  81
ATOM     81  S   UNL A   1      42.699  27.631  25.491  1.00  0.00     0.127 S 
ATOM     82  O   UNL A   1      42.002  28.800  24.961  1.00  0.00    -0.237 OA
ATOM     83  O   UNL A   1      43.992  27.911  26.116  1.00  0.00    -0.237 OA
ATOM     84  O   UNL A   1      42.691  26.448  24.639  1.00  0.00    -0.744 OA
ENDBRANCH  78  81
ENDBRANCH  50  74
BRANCH  62  85
ATOM     85  C   UNL A   1      44.186  28.442  35.019  1.00  0.00     0.023 A 
ATOM     86  C   UNL A   1      43.958  27.258  35.745  1.00  0.00     0.012 A 
ATOM     87  C   UNL A   1      45.510  28.861  34.772  1.00  0.00     0.148 A 
ATOM     88  C   UNL A   1      45.030  26.517  36.241  1.00  0.00     0.002 A 
ATOM     89  C   UNL A   1      46.572  28.089  35.221  1.00  0.00     0.091 A 
ATOM     90  F   UNL A   1      45.702  30.000  34.089  1.00  0.00    -0.205 F 
ATOM     91  C   UNL A   1      46.335  26.924  35.967  1.00  0.00     0.022 A 
BRANCH  89  92
ATOM     92  S   UNL A   1      48.281  28.477  34.825  1.00  0.00     0.127 S 
ATOM     93  O   UNL A   1      48.968  27.258  35.250  1.00  0.00    -0.237 OA
ATOM     94  O   UNL A   1      48.224  28.672  33.376  1.00  0.00    -0.237 OA
ATOM     95  O   UNL A   1      48.612  29.674  35.586  1.00  0.00    -0.744 OA
ENDBRANCH  89  92
ENDBRANCH  62  85
ENDBRANCH  36  37
ENDBRANCH  29  31
ENDBRANCH  28  29
ENDBRANCH  27  28
ENDBRANCH  26  27
ENDBRANCH  25  26
ENDBRANCH  24  25
ENDBRANCH   1  24
TORSDOF 25
ENDMDL
