MODEL 1
REMARK VINA RESULT:     -11.4      0.000      0.000
REMARK SMILES CC1=C(C)C[C@@H](C(=O)OCCOCCOCCOCCOC(=O)c2ccc(-c3c4nc(c(-c5cccc(S(=O)(=O)[O-])c5F)c5ccc([nH]5)c(-c5cccc(S(=O)(=O)[O-])c5F)c5nc(c(-c6cccc(S(=O)(=O)[O-])c6F)c6ccc3[nH]6)C=C5)C=C4)cc2)[C@H](C(=O)NCC(=O)c2ccccc2)C1
REMARK SMILES IDX 14 1 13 2 12 3 11 4 10 5 9 6 7 7 8 8 6 9 1 10 2 11 3 12
REMARK SMILES IDX 100 13 4 14 5 15 87 16 88 17 89 18 90 19 91 21 92 22 93 23
REMARK SMILES IDX 94 24 95 25 99 26 96 27 98 28 97 29 15 30 16 31 17 32 18 33
REMARK SMILES IDX 19 34 20 35 21 36 22 37 23 38 24 39 25 40 86 41 26 42 85 43
REMARK SMILES IDX 27 44 28 45 29 46 79 47 30 48 84 49 78 50 80 51 31 52 83 53
REMARK SMILES IDX 77 54 76 55 32 57 64 58 44 59 63 60 45 61 48 62 62 63 81 64
REMARK SMILES IDX 46 65 47 66 61 68 82 69 49 70 33 71 34 72 42 73 35 74 37 75
REMARK SMILES IDX 43 76 36 77 38 78 39 79 40 80 41 81 65 82 66 83 74 84 67 85
REMARK SMILES IDX 69 86 75 87 68 88 70 89 71 90 72 91 73 92 50 93 51 94 59 95
REMARK SMILES IDX 52 96 54 97 60 98 53 99 55 100 56 101 57 102 58 103
REMARK H PARENT 90 20 80 56 48 67
REMARK Flexibility Score: inf
ROOT
ATOM      1  C   UNL A   1      33.596  30.455  26.944  1.00  0.00     0.188 C 
ENDROOT
BRANCH   1   2
ATOM      2  C   UNL A   1      34.330  29.139  26.676  1.00  0.00     0.188 C 
BRANCH   2   3
ATOM      3  O   UNL A   1      33.671  27.882  26.718  1.00  0.00    -0.376 OA
BRANCH   3   4
ATOM      4  C   UNL A   1      32.293  27.759  27.044  1.00  0.00     0.202 C 
BRANCH   4   5
ATOM      5  C   UNL A   1      31.436  26.581  26.545  1.00  0.00     0.261 C 
BRANCH   5   6
ATOM      6  O   UNL A   1      32.128  25.414  26.058  1.00  0.00    -0.463 OA
BRANCH   6   7
ATOM      7  C   UNL A   1      31.404  24.603  25.259  1.00  0.00     0.310 C 
ATOM      8  O   UNL A   1      30.304  24.146  25.566  1.00  0.00    -0.252 OA
BRANCH   7   9
ATOM      9  C   UNL A   1      32.078  24.187  23.956  1.00  0.00     0.116 C 
ATOM     10  C   UNL A   1      36.291  22.770  23.435  1.00  0.00     0.039 C 
ATOM     11  C   UNL A   1      34.838  23.153  23.572  1.00  0.00    -0.074 C 
ATOM     12  C   UNL A   1      33.873  22.314  23.991  1.00  0.00    -0.073 C 
ATOM     13  C   UNL A   1      34.571  24.578  23.185  1.00  0.00     0.045 C 
ATOM     14  C   UNL A   1      34.095  20.871  24.359  1.00  0.00     0.039 C 
ATOM     15  C   UNL A   1      32.429  22.710  24.106  1.00  0.00     0.046 C 
ATOM     16  C   UNL A   1      33.137  25.091  23.312  1.00  0.00     0.097 C 
BRANCH  16  17
ATOM     17  C   UNL A   1      32.668  25.658  21.961  1.00  0.00     0.224 C 
ATOM     18  O   UNL A   1      33.265  25.378  20.916  1.00  0.00    -0.275 OA
ATOM     19  N   UNL A   1      31.599  26.481  21.816  1.00  0.00    -0.348 N 
ATOM     20  H   UNL A   1      31.427  26.740  20.882  1.00  0.00     0.163 HD
BRANCH  19  21
ATOM     21  C   UNL A   1      30.660  27.059  22.759  1.00  0.00     0.197 C 
BRANCH  21  22
ATOM     22  C   UNL A   1      30.905  28.477  23.303  1.00  0.00     0.181 C 
ATOM     23  O   UNL A   1      32.041  28.823  23.640  1.00  0.00    -0.292 OA
BRANCH  22  24
ATOM     24  C   UNL A   1      29.857  29.532  23.246  1.00  0.00     0.019 A 
ATOM     25  C   UNL A   1      28.732  29.273  22.446  1.00  0.00     0.012 A 
ATOM     26  C   UNL A   1      29.919  30.723  23.974  1.00  0.00     0.012 A 
ATOM     27  C   UNL A   1      27.655  30.160  22.432  1.00  0.00     0.001 A 
ATOM     28  C   UNL A   1      28.833  31.605  23.966  1.00  0.00     0.001 A 
ATOM     29  C   UNL A   1      27.700  31.317  23.205  1.00  0.00     0.000 A 
ENDBRANCH  22  24
ENDBRANCH  21  22
ENDBRANCH  19  21
ENDBRANCH  16  17
ENDBRANCH   7   9
ENDBRANCH   6   7
ENDBRANCH   5   6
ENDBRANCH   4   5
ENDBRANCH   3   4
ENDBRANCH   2   3
ENDBRANCH   1   2
BRANCH   1  30
ATOM     30  O   UNL A   1      34.036  31.170  28.079  1.00  0.00    -0.377 OA
BRANCH  30  31
ATOM     31  C   UNL A   1      34.021  32.590  28.027  1.00  0.00     0.188 C 
BRANCH  31  32
ATOM     32  C   UNL A   1      35.374  33.310  28.127  1.00  0.00     0.188 C 
BRANCH  32  33
ATOM     33  O   UNL A   1      35.400  34.310  29.136  1.00  0.00    -0.376 OA
BRANCH  33  34
ATOM     34  C   UNL A   1      34.293  34.433  30.020  1.00  0.00     0.202 C 
BRANCH  34  35
ATOM     35  C   UNL A   1      34.400  33.916  31.466  1.00  0.00     0.261 C 
BRANCH  35  36
ATOM     36  O   UNL A   1      34.797  32.549  31.669  1.00  0.00    -0.460 OA
BRANCH  36  37
ATOM     37  C   UNL A   1      35.740  32.260  32.590  1.00  0.00     0.338 C 
ATOM     38  O   UNL A   1      35.700  32.493  33.780  1.00  0.00    -0.246 OA
BRANCH  37  39
ATOM     39  C   UNL A   1      36.759  31.415  31.925  1.00  0.00     0.060 A 
ATOM     40  C   UNL A   1      37.846  30.944  32.673  1.00  0.00     0.016 A 
ATOM     41  C   UNL A   1      36.648  31.102  30.568  1.00  0.00     0.016 A 
ATOM     42  C   UNL A   1      38.854  30.205  32.053  1.00  0.00     0.010 A 
ATOM     43  C   UNL A   1      37.666  30.377  29.944  1.00  0.00     0.010 A 
ATOM     44  C   UNL A   1      38.795  29.963  30.674  1.00  0.00    -0.014 A 
BRANCH  44  45
ATOM     45  C   UNL A   1      39.997  29.472  29.959  1.00  0.00     0.031 A 
ATOM     46  C   UNL A   1      41.190  30.386  29.860  1.00  0.00     0.074 A 
ATOM     47  C   UNL A   1      40.035  28.246  29.406  1.00  0.00     0.049 A 
ATOM     48  N   UNL A   1      42.326  30.207  29.240  1.00  0.00    -0.248 NA
ATOM     49  C   UNL A   1      41.081  31.682  30.552  1.00  0.00     0.031 C 
ATOM     50  C   UNL A   1      38.953  27.265  29.449  1.00  0.00     0.029 A 
ATOM     51  N   UNL A   1      41.020  27.632  28.674  1.00  0.00    -0.354 N 
ATOM     52  C   UNL A   1      43.054  31.374  29.440  1.00  0.00     0.074 A 
ATOM     53  C   UNL A   1      42.226  32.261  30.226  1.00  0.00     0.031 C 
ATOM     54  C   UNL A   1      39.321  26.180  28.744  1.00  0.00     0.029 A 
ATOM     55  C   UNL A   1      40.650  26.404  28.177  1.00  0.00     0.049 A 
ATOM     56  H   UNL A   1      41.906  28.032  28.519  1.00  0.00     0.167 HD
ATOM     57  C   UNL A   1      44.304  31.677  29.019  1.00  0.00     0.034 A 
ATOM     58  C   UNL A   1      41.300  25.573  27.337  1.00  0.00     0.034 A 
ATOM     59  C   UNL A   1      45.127  30.789  28.244  1.00  0.00     0.049 A 
ATOM     60  C   UNL A   1      42.675  25.953  26.845  1.00  0.00     0.074 A 
ATOM     61  C   UNL A   1      46.421  30.987  27.797  1.00  0.00     0.029 A 
ATOM     62  N   UNL A   1      44.731  29.541  27.788  1.00  0.00    -0.354 N 
ATOM     63  N   UNL A   1      43.391  27.015  27.124  1.00  0.00    -0.248 NA
ATOM     64  C   UNL A   1      43.344  25.002  25.943  1.00  0.00     0.031 C 
ATOM     65  C   UNL A   1      46.793  29.873  27.037  1.00  0.00     0.029 A 
ATOM     66  C   UNL A   1      45.748  28.963  27.051  1.00  0.00     0.049 A 
ATOM     67  H   UNL A   1      43.854  29.129  27.962  1.00  0.00     0.167 HD
ATOM     68  C   UNL A   1      44.608  26.840  26.472  1.00  0.00     0.074 A 
ATOM     69  C   UNL A   1      44.537  25.562  25.797  1.00  0.00     0.031 C 
ATOM     70  C   UNL A   1      45.683  27.666  26.428  1.00  0.00     0.034 A 
BRANCH  57  71
ATOM     71  C   UNL A   1      44.862  33.025  29.397  1.00  0.00     0.023 A 
ATOM     72  C   UNL A   1      45.737  33.140  30.496  1.00  0.00     0.012 A 
ATOM     73  C   UNL A   1      44.556  34.170  28.636  1.00  0.00     0.148 A 
ATOM     74  C   UNL A   1      46.270  34.378  30.855  1.00  0.00     0.002 A 
ATOM     75  C   UNL A   1      45.129  35.391  28.968  1.00  0.00     0.091 A 
ATOM     76  F   UNL A   1      43.705  34.046  27.608  1.00  0.00    -0.205 F 
ATOM     77  C   UNL A   1      45.975  35.499  30.085  1.00  0.00     0.022 A 
BRANCH  75  78
ATOM     78  S   UNL A   1      44.876  36.878  27.995  1.00  0.00     0.127 S 
ATOM     79  O   UNL A   1      44.123  36.360  26.854  1.00  0.00    -0.237 OA
ATOM     80  O   UNL A   1      44.097  37.713  28.910  1.00  0.00    -0.237 OA
ATOM     81  O   UNL A   1      46.203  37.389  27.685  1.00  0.00    -0.744 OA
ENDBRANCH  75  78
ENDBRANCH  57  71
BRANCH  58  82
ATOM     82  C   UNL A   1      40.671  24.288  26.916  1.00  0.00     0.023 A 
ATOM     83  C   UNL A   1      39.359  24.289  26.403  1.00  0.00     0.012 A 
ATOM     84  C   UNL A   1      41.363  23.066  27.030  1.00  0.00     0.148 A 
ATOM     85  C   UNL A   1      38.735  23.093  26.045  1.00  0.00     0.002 A 
ATOM     86  C   UNL A   1      40.756  21.886  26.617  1.00  0.00     0.091 A 
ATOM     87  F   UNL A   1      42.604  23.083  27.535  1.00  0.00    -0.205 F 
ATOM     88  C   UNL A   1      39.435  21.893  26.143  1.00  0.00     0.022 A 
BRANCH  86  89
ATOM     89  S   UNL A   1      41.622  20.312  26.591  1.00  0.00     0.127 S 
ATOM     90  O   UNL A   1      42.201  20.267  27.932  1.00  0.00    -0.237 OA
ATOM     91  O   UNL A   1      40.527  19.370  26.360  1.00  0.00    -0.237 OA
ATOM     92  O   UNL A   1      42.578  20.405  25.495  1.00  0.00    -0.744 OA
ENDBRANCH  86  89
ENDBRANCH  58  82
BRANCH  70  93
ATOM     93  C   UNL A   1      46.900  27.195  25.671  1.00  0.00     0.023 A 
ATOM     94  C   UNL A   1      47.768  26.245  26.244  1.00  0.00     0.012 A 
ATOM     95  C   UNL A   1      47.138  27.644  24.356  1.00  0.00     0.148 A 
ATOM     96  C   UNL A   1      48.875  25.778  25.535  1.00  0.00     0.002 A 
ATOM     97  C   UNL A   1      48.211  27.133  23.636  1.00  0.00     0.091 A 
ATOM     98  F   UNL A   1      46.309  28.559  23.833  1.00  0.00    -0.205 F 
ATOM     99  C   UNL A   1      49.088  26.212  24.228  1.00  0.00     0.022 A 
BRANCH  97 100
ATOM    100  S   UNL A   1      48.506  27.556  21.915  1.00  0.00     0.127 S 
ATOM    101  O   UNL A   1      49.583  28.539  22.031  1.00  0.00    -0.237 OA
ATOM    102  O   UNL A   1      48.912  26.270  21.347  1.00  0.00    -0.237 OA
ATOM    103  O   UNL A   1      47.244  28.073  21.403  1.00  0.00    -0.744 OA
ENDBRANCH  97 100
ENDBRANCH  70  93
ENDBRANCH  44  45
ENDBRANCH  37  39
ENDBRANCH  36  37
ENDBRANCH  35  36
ENDBRANCH  34  35
ENDBRANCH  33  34
ENDBRANCH  32  33
ENDBRANCH  31  32
ENDBRANCH  30  31
ENDBRANCH   1  30
TORSDOF 27
ENDMDL
MODEL 2
REMARK VINA RESULT:     -10.2      4.621      5.750
REMARK SMILES CC1=C(C)C[C@@H](C(=O)OCCOCCOCCOCCOC(=O)c2ccc(-c3c4nc(c(-c5cccc(S(=O)(=O)[O-])c5F)c5ccc([nH]5)c(-c5cccc(S(=O)(=O)[O-])c5F)c5nc(c(-c6cccc(S(=O)(=O)[O-])c6F)c6ccc3[nH]6)C=C5)C=C4)cc2)[C@H](C(=O)NCC(=O)c2ccccc2)C1
REMARK SMILES IDX 14 1 13 2 12 3 11 4 10 5 9 6 7 7 8 8 6 9 1 10 2 11 3 12
REMARK SMILES IDX 100 13 4 14 5 15 87 16 88 17 89 18 90 19 91 21 92 22 93 23
REMARK SMILES IDX 94 24 95 25 99 26 96 27 98 28 97 29 15 30 16 31 17 32 18 33
REMARK SMILES IDX 19 34 20 35 21 36 22 37 23 38 24 39 25 40 86 41 26 42 85 43
REMARK SMILES IDX 27 44 28 45 29 46 79 47 30 48 84 49 78 50 80 51 31 52 83 53
REMARK SMILES IDX 77 54 76 55 32 57 64 58 44 59 63 60 45 61 48 62 62 63 81 64
REMARK SMILES IDX 46 65 47 66 61 68 82 69 49 70 33 71 34 72 42 73 35 74 37 75
REMARK SMILES IDX 43 76 36 77 38 78 39 79 40 80 41 81 65 82 66 83 74 84 67 85
REMARK SMILES IDX 69 86 75 87 68 88 70 89 71 90 72 91 73 92 50 93 51 94 59 95
REMARK SMILES IDX 52 96 54 97 60 98 53 99 55 100 56 101 57 102 58 103
REMARK H PARENT 90 20 80 56 48 67
REMARK Flexibility Score: inf
ROOT
ATOM      1  C   UNL A   1      34.324  33.299  27.903  1.00  0.00     0.188 C 
ENDROOT
BRANCH   1   2
ATOM      2  C   UNL A   1      34.496  31.782  28.021  1.00  0.00     0.188 C 
BRANCH   2   3
ATOM      3  O   UNL A   1      33.678  30.869  27.306  1.00  0.00    -0.376 OA
BRANCH   3   4
ATOM      4  C   UNL A   1      34.143  29.587  26.906  1.00  0.00     0.202 C 
BRANCH   4   5
ATOM      5  C   UNL A   1      33.317  28.308  27.142  1.00  0.00     0.261 C 
BRANCH   5   6
ATOM      6  O   UNL A   1      33.389  27.274  26.141  1.00  0.00    -0.463 OA
BRANCH   6   7
ATOM      7  C   UNL A   1      32.207  26.731  25.784  1.00  0.00     0.310 C 
ATOM      8  O   UNL A   1      31.162  26.898  26.409  1.00  0.00    -0.252 OA
BRANCH   7   9
ATOM      9  C   UNL A   1      32.250  25.787  24.586  1.00  0.00     0.116 C 
ATOM     10  C   UNL A   1      34.607  22.001  24.218  1.00  0.00     0.039 C 
ATOM     11  C   UNL A   1      33.724  23.220  24.328  1.00  0.00    -0.074 C 
ATOM     12  C   UNL A   1      32.545  23.240  24.977  1.00  0.00    -0.073 C 
ATOM     13  C   UNL A   1      34.293  24.419  23.629  1.00  0.00     0.045 C 
ATOM     14  C   UNL A   1      31.926  22.051  25.664  1.00  0.00     0.039 C 
ATOM     15  C   UNL A   1      31.672  24.459  25.062  1.00  0.00     0.046 C 
ATOM     16  C   UNL A   1      33.501  25.723  23.698  1.00  0.00     0.097 C 
BRANCH  16  17
ATOM     17  C   UNL A   1      33.226  26.238  22.275  1.00  0.00     0.224 C 
ATOM     18  O   UNL A   1      33.604  25.600  21.287  1.00  0.00    -0.275 OA
ATOM     19  N   UNL A   1      32.569  27.394  22.002  1.00  0.00    -0.348 N 
ATOM     20  H   UNL A   1      32.464  27.569  21.039  1.00  0.00     0.163 HD
BRANCH  19  21
ATOM     21  C   UNL A   1      31.991  28.426  22.842  1.00  0.00     0.197 C 
BRANCH  21  22
ATOM     22  C   UNL A   1      30.604  28.995  22.502  1.00  0.00     0.181 C 
ATOM     23  O   UNL A   1      30.485  29.856  21.626  1.00  0.00    -0.292 OA
BRANCH  22  24
ATOM     24  C   UNL A   1      29.354  28.395  23.045  1.00  0.00     0.019 A 
ATOM     25  C   UNL A   1      28.182  29.163  22.948  1.00  0.00     0.012 A 
ATOM     26  C   UNL A   1      29.288  27.111  23.592  1.00  0.00     0.012 A 
ATOM     27  C   UNL A   1      26.951  28.626  23.328  1.00  0.00     0.001 A 
ATOM     28  C   UNL A   1      28.051  26.572  23.961  1.00  0.00     0.001 A 
ATOM     29  C   UNL A   1      26.885  27.325  23.819  1.00  0.00     0.000 A 
ENDBRANCH  22  24
ENDBRANCH  21  22
ENDBRANCH  19  21
ENDBRANCH  16  17
ENDBRANCH   7   9
ENDBRANCH   6   7
ENDBRANCH   5   6
ENDBRANCH   4   5
ENDBRANCH   3   4
ENDBRANCH   2   3
ENDBRANCH   1   2
BRANCH   1  30
ATOM     30  O   UNL A   1      33.792  33.936  29.044  1.00  0.00    -0.377 OA
BRANCH  30  31
ATOM     31  C   UNL A   1      32.876  35.005  28.854  1.00  0.00     0.188 C 
BRANCH  31  32
ATOM     32  C   UNL A   1      33.303  36.394  29.349  1.00  0.00     0.188 C 
BRANCH  32  33
ATOM     33  O   UNL A   1      32.635  36.791  30.539  1.00  0.00    -0.376 OA
BRANCH  33  34
ATOM     34  C   UNL A   1      32.763  35.992  31.707  1.00  0.00     0.202 C 
BRANCH  34  35
ATOM     35  C   UNL A   1      34.157  35.698  32.291  1.00  0.00     0.261 C 
BRANCH  35  36
ATOM     36  O   UNL A   1      34.900  34.593  31.749  1.00  0.00    -0.460 OA
BRANCH  36  37
ATOM     37  C   UNL A   1      34.711  33.355  32.251  1.00  0.00     0.338 C 
ATOM     38  O   UNL A   1      33.681  32.891  32.692  1.00  0.00    -0.246 OA
BRANCH  37  39
ATOM     39  C   UNL A   1      35.943  32.579  31.980  1.00  0.00     0.060 A 
ATOM     40  C   UNL A   1      36.027  31.255  32.433  1.00  0.00     0.016 A 
ATOM     41  C   UNL A   1      37.014  33.159  31.295  1.00  0.00     0.016 A 
ATOM     42  C   UNL A   1      37.203  30.527  32.250  1.00  0.00     0.010 A 
ATOM     43  C   UNL A   1      38.198  32.435  31.129  1.00  0.00     0.010 A 
ATOM     44  C   UNL A   1      38.312  31.132  31.645  1.00  0.00    -0.014 A 
BRANCH  44  45
ATOM     45  C   UNL A   1      39.646  30.490  31.738  1.00  0.00     0.031 A 
ATOM     46  C   UNL A   1      40.580  30.947  32.828  1.00  0.00     0.074 A 
ATOM     47  C   UNL A   1      40.025  29.528  30.878  1.00  0.00     0.049 A 
ATOM     48  N   UNL A   1      41.810  30.582  33.075  1.00  0.00    -0.248 NA
ATOM     49  C   UNL A   1      40.053  31.957  33.762  1.00  0.00     0.031 C 
ATOM     50  C   UNL A   1      39.206  28.990  29.795  1.00  0.00     0.029 A 
ATOM     51  N   UNL A   1      41.216  28.853  30.770  1.00  0.00    -0.354 N 
ATOM     52  C   UNL A   1      42.215  31.336  34.170  1.00  0.00     0.074 A 
ATOM     53  C   UNL A   1      41.106  32.191  34.531  1.00  0.00     0.031 C 
ATOM     54  C   UNL A   1      39.930  28.088  29.109  1.00  0.00     0.029 A 
ATOM     55  C   UNL A   1      41.270  28.007  29.687  1.00  0.00     0.049 A 
ATOM     56  H   UNL A   1      41.958  28.963  31.407  1.00  0.00     0.167 HD
ATOM     57  C   UNL A   1      43.399  31.313  34.826  1.00  0.00     0.034 A 
ATOM     58  C   UNL A   1      42.297  27.279  29.202  1.00  0.00     0.034 A 
ATOM     59  C   UNL A   1      44.496  30.456  34.469  1.00  0.00     0.049 A 
ATOM     60  C   UNL A   1      43.621  27.302  29.925  1.00  0.00     0.074 A 
ATOM     61  C   UNL A   1      45.727  30.330  35.090  1.00  0.00     0.029 A 
ATOM     62  N   UNL A   1      44.504  29.591  33.386  1.00  0.00    -0.354 N 
ATOM     63  N   UNL A   1      43.957  27.945  31.018  1.00  0.00    -0.248 NA
ATOM     64  C   UNL A   1      44.700  26.476  29.362  1.00  0.00     0.031 C 
ATOM     65  C   UNL A   1      46.491  29.416  34.359  1.00  0.00     0.029 A 
ATOM     66  C   UNL A   1      45.721  28.938  33.311  1.00  0.00     0.049 A 
ATOM     67  H   UNL A   1      43.753  29.461  32.762  1.00  0.00     0.167 HD
ATOM     68  C   UNL A   1      45.266  27.565  31.298  1.00  0.00     0.074 A 
ATOM     69  C   UNL A   1      45.657  26.626  30.269  1.00  0.00     0.031 C 
ATOM     70  C   UNL A   1      46.077  27.965  32.310  1.00  0.00     0.034 A 
BRANCH  57  71
ATOM     71  C   UNL A   1      43.564  32.237  36.005  1.00  0.00     0.023 A 
ATOM     72  C   UNL A   1      43.916  33.586  35.796  1.00  0.00     0.012 A 
ATOM     73  C   UNL A   1      43.324  31.781  37.316  1.00  0.00     0.148 A 
ATOM     74  C   UNL A   1      44.064  34.457  36.875  1.00  0.00     0.002 A 
ATOM     75  C   UNL A   1      43.424  32.667  38.382  1.00  0.00     0.091 A 
ATOM     76  F   UNL A   1      43.011  30.491  37.497  1.00  0.00    -0.205 F 
ATOM     77  C   UNL A   1      43.808  34.001  38.165  1.00  0.00     0.022 A 
BRANCH  75  78
ATOM     78  S   UNL A   1      43.039  32.198  40.072  1.00  0.00     0.127 S 
ATOM     79  O   UNL A   1      43.441  33.395  40.809  1.00  0.00    -0.237 OA
ATOM     80  O   UNL A   1      41.593  31.981  40.006  1.00  0.00    -0.237 OA
ATOM     81  O   UNL A   1      43.822  31.003  40.349  1.00  0.00    -0.744 OA
ENDBRANCH  75  78
ENDBRANCH  57  71
BRANCH  58  82
ATOM     82  C   UNL A   1      42.115  26.446  27.978  1.00  0.00     0.023 A 
ATOM     83  C   UNL A   1      42.063  27.067  26.715  1.00  0.00     0.012 A 
ATOM     84  C   UNL A   1      41.984  25.046  28.061  1.00  0.00     0.148 A 
ATOM     85  C   UNL A   1      41.849  26.313  25.560  1.00  0.00     0.002 A 
ATOM     86  C   UNL A   1      41.830  24.295  26.902  1.00  0.00     0.091 A 
ATOM     87  F   UNL A   1      42.020  24.476  29.273  1.00  0.00    -0.205 F 
ATOM     88  C   UNL A   1      41.742  24.927  25.652  1.00  0.00     0.022 A 
BRANCH  86  89
ATOM     89  S   UNL A   1      41.805  22.499  26.911  1.00  0.00     0.127 S 
ATOM     90  O   UNL A   1      40.510  22.220  27.526  1.00  0.00    -0.237 OA
ATOM     91  O   UNL A   1      41.889  22.191  25.483  1.00  0.00    -0.237 OA
ATOM     92  O   UNL A   1      42.971  22.092  27.685  1.00  0.00    -0.744 OA
ENDBRANCH  86  89
ENDBRANCH  58  82
BRANCH  70  93
ATOM     93  C   UNL A   1      47.450  27.350  32.395  1.00  0.00     0.023 A 
ATOM     94  C   UNL A   1      48.521  27.900  31.663  1.00  0.00     0.012 A 
ATOM     95  C   UNL A   1      47.693  26.267  33.266  1.00  0.00     0.148 A 
ATOM     96  C   UNL A   1      49.803  27.358  31.766  1.00  0.00     0.002 A 
ATOM     97  C   UNL A   1      48.982  25.769  33.405  1.00  0.00     0.091 A 
ATOM     98  F   UNL A   1      46.658  25.749  33.944  1.00  0.00    -0.205 F 
ATOM     99  C   UNL A   1      50.035  26.302  32.646  1.00  0.00     0.022 A 
BRANCH  97 100
ATOM    100  S   UNL A   1      49.396  24.480  34.587  1.00  0.00     0.127 S 
ATOM    101  O   UNL A   1      50.836  24.339  34.380  1.00  0.00    -0.237 OA
ATOM    102  O   UNL A   1      49.019  25.096  35.859  1.00  0.00    -0.237 OA
ATOM    103  O   UNL A   1      48.597  23.319  34.215  1.00  0.00    -0.744 OA
ENDBRANCH  97 100
ENDBRANCH  70  93
ENDBRANCH  44  45
ENDBRANCH  37  39
ENDBRANCH  36  37
ENDBRANCH  35  36
ENDBRANCH  34  35
ENDBRANCH  33  34
ENDBRANCH  32  33
ENDBRANCH  31  32
ENDBRANCH  30  31
ENDBRANCH   1  30
TORSDOF 27
ENDMDL
MODEL 3
REMARK VINA RESULT:     -10.1      4.288      5.083
REMARK SMILES CC1=C(C)C[C@@H](C(=O)OCCOCCOCCOCCOC(=O)c2ccc(-c3c4nc(c(-c5cccc(S(=O)(=O)[O-])c5F)c5ccc([nH]5)c(-c5cccc(S(=O)(=O)[O-])c5F)c5nc(c(-c6cccc(S(=O)(=O)[O-])c6F)c6ccc3[nH]6)C=C5)C=C4)cc2)[C@H](C(=O)NCC(=O)c2ccccc2)C1
REMARK SMILES IDX 14 1 13 2 12 3 11 4 10 5 9 6 7 7 8 8 6 9 1 10 2 11 3 12
REMARK SMILES IDX 100 13 4 14 5 15 87 16 88 17 89 18 90 19 91 21 92 22 93 23
REMARK SMILES IDX 94 24 95 25 99 26 96 27 98 28 97 29 15 30 16 31 17 32 18 33
REMARK SMILES IDX 19 34 20 35 21 36 22 37 23 38 24 39 25 40 86 41 26 42 85 43
REMARK SMILES IDX 27 44 28 45 29 46 79 47 30 48 84 49 78 50 80 51 31 52 83 53
REMARK SMILES IDX 77 54 76 55 32 57 64 58 44 59 63 60 45 61 48 62 62 63 81 64
REMARK SMILES IDX 46 65 47 66 61 68 82 69 49 70 33 71 34 72 42 73 35 74 37 75
REMARK SMILES IDX 43 76 36 77 38 78 39 79 40 80 41 81 65 82 66 83 74 84 67 85
REMARK SMILES IDX 69 86 75 87 68 88 70 89 71 90 72 91 73 92 50 93 51 94 59 95
REMARK SMILES IDX 52 96 54 97 60 98 53 99 55 100 56 101 57 102 58 103
REMARK H PARENT 90 20 80 56 48 67
REMARK Flexibility Score: inf
ROOT
ATOM      1  C   UNL A   1      32.426  29.574  26.268  1.00  0.00     0.188 C 
ENDROOT
BRANCH   1   2
ATOM      2  C   UNL A   1      31.802  28.678  27.341  1.00  0.00     0.188 C 
BRANCH   2   3
ATOM      3  O   UNL A   1      31.630  27.281  27.154  1.00  0.00    -0.376 OA
BRANCH   3   4
ATOM      4  C   UNL A   1      31.163  26.732  25.928  1.00  0.00     0.202 C 
BRANCH   4   5
ATOM      5  C   UNL A   1      30.024  25.697  25.878  1.00  0.00     0.261 C 
BRANCH   5   6
ATOM      6  O   UNL A   1      30.093  24.677  24.863  1.00  0.00    -0.463 OA
BRANCH   6   7
ATOM      7  C   UNL A   1      31.033  23.729  25.058  1.00  0.00     0.310 C 
ATOM      8  O   UNL A   1      31.142  23.079  26.096  1.00  0.00    -0.252 OA
BRANCH   7   9
ATOM      9  C   UNL A   1      32.048  23.565  23.932  1.00  0.00     0.116 C 
ATOM     10  C   UNL A   1      36.505  23.432  24.319  1.00  0.00     0.039 C 
ATOM     11  C   UNL A   1      35.007  23.379  24.146  1.00  0.00    -0.074 C 
ATOM     12  C   UNL A   1      34.259  22.285  24.383  1.00  0.00    -0.073 C 
ATOM     13  C   UNL A   1      34.426  24.679  23.673  1.00  0.00     0.045 C 
ATOM     14  C   UNL A   1      34.806  20.955  24.829  1.00  0.00     0.039 C 
ATOM     15  C   UNL A   1      32.770  22.247  24.191  1.00  0.00     0.046 C 
ATOM     16  C   UNL A   1      32.911  24.756  23.492  1.00  0.00     0.097 C 
BRANCH  16  17
ATOM     17  C   UNL A   1      32.584  25.207  22.058  1.00  0.00     0.224 C 
ATOM     18  O   UNL A   1      33.241  24.792  21.097  1.00  0.00    -0.275 OA
ATOM     19  N   UNL A   1      31.582  26.069  21.746  1.00  0.00    -0.348 N 
ATOM     20  H   UNL A   1      31.498  26.241  20.781  1.00  0.00     0.163 HD
BRANCH  19  21
ATOM     21  C   UNL A   1      30.611  26.789  22.548  1.00  0.00     0.197 C 
BRANCH  21  22
ATOM     22  C   UNL A   1      30.807  28.292  22.810  1.00  0.00     0.181 C 
ATOM     23  O   UNL A   1      31.902  28.820  22.597  1.00  0.00    -0.292 OA
BRANCH  22  24
ATOM     24  C   UNL A   1      29.662  29.192  23.117  1.00  0.00     0.019 A 
ATOM     25  C   UNL A   1      29.967  30.457  23.646  1.00  0.00     0.012 A 
ATOM     26  C   UNL A   1      28.328  28.859  22.863  1.00  0.00     0.012 A 
ATOM     27  C   UNL A   1      28.958  31.399  23.851  1.00  0.00     0.001 A 
ATOM     28  C   UNL A   1      27.322  29.810  23.060  1.00  0.00     0.001 A 
ATOM     29  C   UNL A   1      27.639  31.080  23.542  1.00  0.00     0.000 A 
ENDBRANCH  22  24
ENDBRANCH  21  22
ENDBRANCH  19  21
ENDBRANCH  16  17
ENDBRANCH   7   9
ENDBRANCH   6   7
ENDBRANCH   5   6
ENDBRANCH   4   5
ENDBRANCH   3   4
ENDBRANCH   2   3
ENDBRANCH   1   2
BRANCH   1  30
ATOM     30  O   UNL A   1      33.831  29.693  26.324  1.00  0.00    -0.377 OA
BRANCH  30  31
ATOM     31  C   UNL A   1      34.470  29.546  27.584  1.00  0.00     0.188 C 
BRANCH  31  32
ATOM     32  C   UNL A   1      35.911  30.063  27.706  1.00  0.00     0.188 C 
BRANCH  32  33
ATOM     33  O   UNL A   1      35.983  31.438  28.058  1.00  0.00    -0.376 OA
BRANCH  33  34
ATOM     34  C   UNL A   1      34.829  32.254  27.905  1.00  0.00     0.202 C 
BRANCH  34  35
ATOM     35  C   UNL A   1      34.298  33.070  29.099  1.00  0.00     0.261 C 
BRANCH  35  36
ATOM     36  O   UNL A   1      34.475  32.531  30.419  1.00  0.00    -0.460 OA
BRANCH  36  37
ATOM     37  C   UNL A   1      35.419  33.053  31.231  1.00  0.00     0.338 C 
ATOM     38  O   UNL A   1      35.270  33.917  32.069  1.00  0.00    -0.246 OA
BRANCH  37  39
ATOM     39  C   UNL A   1      36.643  32.237  31.062  1.00  0.00     0.060 A 
ATOM     40  C   UNL A   1      36.658  30.923  31.550  1.00  0.00     0.016 A 
ATOM     41  C   UNL A   1      37.774  32.771  30.438  1.00  0.00     0.016 A 
ATOM     42  C   UNL A   1      37.822  30.159  31.464  1.00  0.00     0.010 A 
ATOM     43  C   UNL A   1      38.944  32.011  30.370  1.00  0.00     0.010 A 
ATOM     44  C   UNL A   1      38.986  30.718  30.922  1.00  0.00    -0.014 A 
BRANCH  44  45
ATOM     45  C   UNL A   1      40.292  30.042  31.120  1.00  0.00     0.031 A 
ATOM     46  C   UNL A   1      41.181  30.528  32.235  1.00  0.00     0.074 A 
ATOM     47  C   UNL A   1      40.684  29.024  30.334  1.00  0.00     0.049 A 
ATOM     48  N   UNL A   1      42.384  30.140  32.567  1.00  0.00    -0.248 NA
ATOM     49  C   UNL A   1      40.640  31.602  33.086  1.00  0.00     0.031 C 
ATOM     50  C   UNL A   1      39.906  28.455  29.237  1.00  0.00     0.029 A 
ATOM     51  N   UNL A   1      41.856  28.310  30.325  1.00  0.00    -0.354 N 
ATOM     52  C   UNL A   1      42.755  30.940  33.641  1.00  0.00     0.074 A 
ATOM     53  C   UNL A   1      41.657  31.845  33.897  1.00  0.00     0.031 C 
ATOM     54  C   UNL A   1      40.635  27.496  28.638  1.00  0.00     0.029 A 
ATOM     55  C   UNL A   1      41.940  27.406  29.291  1.00  0.00     0.049 A 
ATOM     56  H   UNL A   1      42.567  28.431  30.995  1.00  0.00     0.167 HD
ATOM     57  C   UNL A   1      43.901  30.916  34.362  1.00  0.00     0.034 A 
ATOM     58  C   UNL A   1      42.966  26.622  28.902  1.00  0.00     0.034 A 
ATOM     59  C   UNL A   1      44.988  30.009  34.109  1.00  0.00     0.049 A 
ATOM     60  C   UNL A   1      44.250  26.645  29.693  1.00  0.00     0.074 A 
ATOM     61  C   UNL A   1      46.179  29.879  34.802  1.00  0.00     0.029 A 
ATOM     62  N   UNL A   1      45.024  29.087  33.074  1.00  0.00    -0.354 N 
ATOM     63  N   UNL A   1      44.549  27.334  30.768  1.00  0.00    -0.248 NA
ATOM     64  C   UNL A   1      45.329  25.758  29.233  1.00  0.00     0.031 C 
ATOM     65  C   UNL A   1      46.950  28.905  34.161  1.00  0.00     0.029 A 
ATOM     66  C   UNL A   1      46.222  28.395  33.099  1.00  0.00     0.049 A 
ATOM     67  H   UNL A   1      44.303  28.947  32.418  1.00  0.00     0.167 HD
ATOM     68  C   UNL A   1      45.829  26.931  31.138  1.00  0.00     0.074 A 
ATOM     69  C   UNL A   1      46.242  25.927  30.181  1.00  0.00     0.031 C 
ATOM     70  C   UNL A   1      46.597  27.360  32.170  1.00  0.00     0.034 A 
BRANCH  57  71
ATOM     71  C   UNL A   1      44.034  31.896  35.499  1.00  0.00     0.023 A 
ATOM     72  C   UNL A   1      44.582  33.174  35.264  1.00  0.00     0.012 A 
ATOM     73  C   UNL A   1      43.573  31.568  36.789  1.00  0.00     0.148 A 
ATOM     74  C   UNL A   1      44.704  34.096  36.302  1.00  0.00     0.002 A 
ATOM     75  C   UNL A   1      43.652  32.510  37.807  1.00  0.00     0.091 A 
ATOM     76  F   UNL A   1      43.076  30.342  36.998  1.00  0.00    -0.205 F 
ATOM     77  C   UNL A   1      44.229  33.769  37.569  1.00  0.00     0.022 A 
BRANCH  75  78
ATOM     78  S   UNL A   1      42.999  32.215  39.453  1.00  0.00     0.127 S 
ATOM     79  O   UNL A   1      41.601  31.897  39.163  1.00  0.00    -0.237 OA
ATOM     80  O   UNL A   1      43.802  31.077  39.901  1.00  0.00    -0.237 OA
ATOM     81  O   UNL A   1      43.215  33.446  40.200  1.00  0.00    -0.744 OA
ENDBRANCH  75  78
ENDBRANCH  57  71
BRANCH  58  82
ATOM     82  C   UNL A   1      42.821  25.732  27.714  1.00  0.00     0.023 A 
ATOM     83  C   UNL A   1      43.212  26.196  26.443  1.00  0.00     0.012 A 
ATOM     84  C   UNL A   1      42.291  24.432  27.837  1.00  0.00     0.148 A 
ATOM     85  C   UNL A   1      43.045  25.397  25.311  1.00  0.00     0.002 A 
ATOM     86  C   UNL A   1      42.182  23.620  26.714  1.00  0.00     0.091 A 
ATOM     87  F   UNL A   1      41.910  24.015  29.052  1.00  0.00    -0.205 F 
ATOM     88  C   UNL A   1      42.539  24.107  25.448  1.00  0.00     0.022 A 
BRANCH  86  89
ATOM     89  S   UNL A   1      41.657  21.905  26.811  1.00  0.00     0.127 S 
ATOM     90  O   UNL A   1      40.222  22.044  27.047  1.00  0.00    -0.237 OA
ATOM     91  O   UNL A   1      42.019  21.405  25.485  1.00  0.00    -0.237 OA
ATOM     92  O   UNL A   1      42.421  21.319  27.905  1.00  0.00    -0.744 OA
ENDBRANCH  86  89
ENDBRANCH  58  82
BRANCH  70  93
ATOM     93  C   UNL A   1      47.944  26.709  32.362  1.00  0.00     0.023 A 
ATOM     94  C   UNL A   1      48.058  25.524  33.115  1.00  0.00     0.012 A 
ATOM     95  C   UNL A   1      49.087  27.237  31.727  1.00  0.00     0.148 A 
ATOM     96  C   UNL A   1      49.295  24.896  33.265  1.00  0.00     0.002 A 
ATOM     97  C   UNL A   1      50.304  26.576  31.836  1.00  0.00     0.091 A 
ATOM     98  F   UNL A   1      48.961  28.374  31.027  1.00  0.00    -0.205 F 
ATOM     99  C   UNL A   1      50.414  25.415  32.616  1.00  0.00     0.022 A 
BRANCH  97 100
ATOM    100  S   UNL A   1      51.775  27.113  30.955  1.00  0.00     0.127 S 
ATOM    101  O   UNL A   1      51.370  28.435  30.479  1.00  0.00    -0.237 OA
ATOM    102  O   UNL A   1      52.782  27.128  32.016  1.00  0.00    -0.237 OA
ATOM    103  O   UNL A   1      52.007  26.121  29.913  1.00  0.00    -0.744 OA
ENDBRANCH  97 100
ENDBRANCH  70  93
ENDBRANCH  44  45
ENDBRANCH  37  39
ENDBRANCH  36  37
ENDBRANCH  35  36
ENDBRANCH  34  35
ENDBRANCH  33  34
ENDBRANCH  32  33
ENDBRANCH  31  32
ENDBRANCH  30  31
ENDBRANCH   1  30
TORSDOF 27
ENDMDL
