MODEL 1
REMARK VINA RESULT:      -7.9      0.000      0.000
REMARK SMILES COC(=O)c1ccc(C)c(NC(=O)[C@H]2CC=CC[C@H]2C(=O)OCCOCCOCCOCCOC(=O)c2ccc(-c3c4nc(c(-c5cccc(S(=O)(=O)[O-])c5F)c5ccc([nH]5)c(-c5cccc(S(=O)(=O)[O-])c5F)c5nc(c(-c6cccc(S(=O)(=O)[O-])c6F)c6ccc3[nH]6)C=C5)C=C4)cc2)c1
REMARK SMILES IDX 27 1 26 2 25 3 24 4 23 5 22 6 20 7 21 8 19 9 14 10 15 11
REMARK SMILES IDX 16 12 18 13 17 14 12 15 11 16 13 18 10 19 5 20 6 21 100 22
REMARK SMILES IDX 7 23 8 24 9 25 3 26 4 27 2 28 1 29 28 30 29 31 30 32 31 33
REMARK SMILES IDX 32 34 33 35 34 36 35 37 36 38 37 39 38 40 99 41 39 42 98 43
REMARK SMILES IDX 40 44 41 45 42 46 92 47 43 48 97 49 91 50 93 51 44 52 96 53
REMARK SMILES IDX 90 54 89 55 45 57 77 58 57 59 76 60 58 61 61 62 75 63 94 64
REMARK SMILES IDX 59 65 60 66 74 68 95 69 62 70 46 71 47 72 55 73 48 74 50 75
REMARK SMILES IDX 56 76 49 77 51 78 52 79 53 80 54 81 78 82 79 83 87 84 80 85
REMARK SMILES IDX 82 86 88 87 81 88 83 89 84 90 85 91 86 92 63 93 64 94 72 95
REMARK SMILES IDX 65 96 67 97 73 98 66 99 68 100 69 101 70 102 71 103
REMARK H PARENT 11 17 93 56 61 67
REMARK Flexibility Score: inf
ROOT
ATOM      1  C   UNL A   1      41.886  20.549  25.877  1.00  0.00     0.188 C 
ENDROOT
BRANCH   1   2
ATOM      2  C   UNL A   1      40.891  20.493  27.024  1.00  0.00     0.188 C 
BRANCH   2   3
ATOM      3  O   UNL A   1      39.686  21.205  26.838  1.00  0.00    -0.376 OA
BRANCH   3   4
ATOM      4  C   UNL A   1      38.951  20.871  25.668  1.00  0.00     0.202 C 
BRANCH   4   5
ATOM      5  C   UNL A   1      37.877  21.875  25.371  1.00  0.00     0.261 C 
BRANCH   5   6
ATOM      6  O   UNL A   1      36.979  21.355  24.389  1.00  0.00    -0.463 OA
BRANCH   6   7
ATOM      7  C   UNL A   1      35.859  20.813  24.874  1.00  0.00     0.310 C 
ATOM      8  O   UNL A   1      35.551  19.629  24.818  1.00  0.00    -0.252 OA
BRANCH   7   9
ATOM      9  C   UNL A   1      34.986  21.812  25.562  1.00  0.00     0.116 C 
ATOM     10  C   UNL A   1      34.156  22.740  24.641  1.00  0.00     0.097 C 
ATOM     11  C   UNL A   1      33.822  23.979  25.493  1.00  0.00     0.041 C 
ATOM     12  C   UNL A   1      33.540  23.698  26.949  1.00  0.00    -0.030 C 
ATOM     13  C   UNL A   1      34.230  21.301  26.783  1.00  0.00     0.043 C 
ATOM     14  C   UNL A   1      33.681  22.491  27.524  1.00  0.00    -0.030 C 
BRANCH  10  15
ATOM     15  C   UNL A   1      32.904  22.149  23.971  1.00  0.00     0.228 C 
ATOM     16  N   UNL A   1      32.016  22.875  23.212  1.00  0.00    -0.326 N 
ATOM     17  H   UNL A   1      31.244  22.357  22.888  1.00  0.00     0.169 HD
ATOM     18  O   UNL A   1      32.628  20.960  24.100  1.00  0.00    -0.274 OA
BRANCH  16  19
ATOM     19  C   UNL A   1      32.013  24.222  22.814  1.00  0.00     0.044 A 
ATOM     20  C   UNL A   1      31.345  26.485  23.364  1.00  0.00     0.062 A 
ATOM     21  C   UNL A   1      32.343  26.983  22.520  1.00  0.00     0.016 A 
ATOM     22  C   UNL A   1      31.186  25.098  23.516  1.00  0.00     0.042 A 
ATOM     23  C   UNL A   1      33.047  26.109  21.703  1.00  0.00     0.006 A 
ATOM     24  C   UNL A   1      32.797  24.736  21.776  1.00  0.00    -0.027 A 
ATOM     25  C   UNL A   1      33.175  23.897  20.600  1.00  0.00     0.046 C 
BRANCH  20  26
ATOM     26  C   UNL A   1      30.511  27.473  24.100  1.00  0.00     0.337 C 
ATOM     27  O   UNL A   1      29.624  28.132  23.597  1.00  0.00    -0.246 OA
BRANCH  26  28
ATOM     28  O   UNL A   1      30.837  27.497  25.415  1.00  0.00    -0.465 OA
ATOM     29  C   UNL A   1      31.545  28.679  25.784  1.00  0.00     0.282 C 
ENDBRANCH  26  28
ENDBRANCH  20  26
ENDBRANCH  16  19
ENDBRANCH  10  15
ENDBRANCH   7   9
ENDBRANCH   6   7
ENDBRANCH   5   6
ENDBRANCH   4   5
ENDBRANCH   3   4
ENDBRANCH   2   3
ENDBRANCH   1   2
BRANCH   1  30
ATOM     30  O   UNL A   1      43.256  20.738  26.130  1.00  0.00    -0.377 OA
BRANCH  30  31
ATOM     31  C   UNL A   1      43.918  21.804  25.490  1.00  0.00     0.188 C 
BRANCH  31  32
ATOM     32  C   UNL A   1      44.985  22.515  26.356  1.00  0.00     0.188 C 
BRANCH  32  33
ATOM     33  O   UNL A   1      44.524  23.273  27.454  1.00  0.00    -0.376 OA
BRANCH  33  34
ATOM     34  C   UNL A   1      43.374  24.061  27.159  1.00  0.00     0.202 C 
BRANCH  34  35
ATOM     35  C   UNL A   1      42.018  23.868  27.997  1.00  0.00     0.261 C 
BRANCH  35  36
ATOM     36  O   UNL A   1      40.780  24.368  27.276  1.00  0.00    -0.460 OA
BRANCH  36  37
ATOM     37  C   UNL A   1      39.525  24.872  27.552  1.00  0.00     0.338 C 
ATOM     38  O   UNL A   1      38.488  24.266  27.429  1.00  0.00    -0.246 OA
BRANCH  37  39
ATOM     39  C   UNL A   1      39.581  26.395  27.942  1.00  0.00     0.060 A 
ATOM     40  C   UNL A   1      40.318  27.311  27.204  1.00  0.00     0.016 A 
ATOM     41  C   UNL A   1      39.052  26.966  29.088  1.00  0.00     0.016 A 
ATOM     42  C   UNL A   1      40.911  28.453  27.819  1.00  0.00     0.010 A 
ATOM     43  C   UNL A   1      39.761  27.966  29.773  1.00  0.00     0.010 A 
ATOM     44  C   UNL A   1      40.847  28.603  29.187  1.00  0.00    -0.014 A 
BRANCH  44  45
ATOM     45  C   UNL A   1      41.891  29.207  30.068  1.00  0.00     0.031 A 
ATOM     46  C   UNL A   1      43.116  28.377  30.447  1.00  0.00     0.074 A 
ATOM     47  C   UNL A   1      41.990  30.575  30.092  1.00  0.00     0.049 A 
ATOM     48  N   UNL A   1      44.228  28.829  30.940  1.00  0.00    -0.248 NA
ATOM     49  C   UNL A   1      43.207  26.935  30.211  1.00  0.00     0.031 C 
ATOM     50  C   UNL A   1      43.266  31.276  30.180  1.00  0.00     0.029 A 
ATOM     51  N   UNL A   1      41.114  31.654  29.898  1.00  0.00    -0.354 N 
ATOM     52  C   UNL A   1      45.233  27.890  30.750  1.00  0.00     0.074 A 
ATOM     53  C   UNL A   1      44.517  26.696  30.372  1.00  0.00     0.031 C 
ATOM     54  C   UNL A   1      43.120  32.583  29.970  1.00  0.00     0.029 A 
ATOM     55  C   UNL A   1      41.749  32.873  30.225  1.00  0.00     0.049 A 
ATOM     56  H   UNL A   1      40.186  31.571  29.579  1.00  0.00     0.167 HD
ATOM     57  C   UNL A   1      46.555  28.259  30.822  1.00  0.00     0.034 A 
ATOM     58  C   UNL A   1      41.477  33.705  31.287  1.00  0.00     0.034 A 
ATOM     59  C   UNL A   1      46.748  29.669  31.303  1.00  0.00     0.049 A 
ATOM     60  C   UNL A   1      42.511  33.584  32.445  1.00  0.00     0.074 A 
ATOM     61  C   UNL A   1      47.536  30.758  30.946  1.00  0.00     0.029 A 
ATOM     62  N   UNL A   1      45.902  30.166  32.287  1.00  0.00    -0.354 N 
ATOM     63  N   UNL A   1      43.747  33.147  32.316  1.00  0.00    -0.248 NA
ATOM     64  C   UNL A   1      42.218  33.879  33.848  1.00  0.00     0.031 C 
ATOM     65  C   UNL A   1      47.098  31.907  31.687  1.00  0.00     0.029 A 
ATOM     66  C   UNL A   1      46.104  31.505  32.561  1.00  0.00     0.049 A 
ATOM     67  H   UNL A   1      45.224  29.618  32.745  1.00  0.00     0.167 HD
ATOM     68  C   UNL A   1      44.280  32.829  33.538  1.00  0.00     0.074 A 
ATOM     69  C   UNL A   1      43.311  33.392  34.470  1.00  0.00     0.031 C 
ATOM     70  C   UNL A   1      45.418  32.075  33.717  1.00  0.00     0.034 A 
BRANCH  57  71
ATOM     71  C   UNL A   1      47.764  27.409  30.363  1.00  0.00     0.023 A 
ATOM     72  C   UNL A   1      48.816  27.250  31.302  1.00  0.00     0.012 A 
ATOM     73  C   UNL A   1      48.005  26.827  29.085  1.00  0.00     0.148 A 
ATOM     74  C   UNL A   1      50.028  26.611  31.005  1.00  0.00     0.002 A 
ATOM     75  C   UNL A   1      49.195  26.120  28.809  1.00  0.00     0.091 A 
ATOM     76  F   UNL A   1      47.118  27.001  28.100  1.00  0.00    -0.205 F 
ATOM     77  C   UNL A   1      50.216  26.036  29.761  1.00  0.00     0.022 A 
BRANCH  75  78
ATOM     78  S   UNL A   1      49.521  25.243  27.260  1.00  0.00     0.127 S 
ATOM     79  O   UNL A   1      49.552  26.332  26.283  1.00  0.00    -0.237 OA
ATOM     80  O   UNL A   1      50.825  24.629  27.516  1.00  0.00    -0.237 OA
ATOM     81  O   UNL A   1      48.428  24.294  27.091  1.00  0.00    -0.744 OA
ENDBRANCH  75  78
ENDBRANCH  57  71
BRANCH  58  82
ATOM     82  C   UNL A   1      40.052  34.135  31.322  1.00  0.00     0.023 A 
ATOM     83  C   UNL A   1      39.616  34.799  30.140  1.00  0.00     0.012 A 
ATOM     84  C   UNL A   1      39.157  33.329  32.020  1.00  0.00     0.148 A 
ATOM     85  C   UNL A   1      38.419  34.442  29.521  1.00  0.00     0.002 A 
ATOM     86  C   UNL A   1      38.031  32.889  31.341  1.00  0.00     0.091 A 
ATOM     87  F   UNL A   1      39.532  32.818  33.200  1.00  0.00    -0.205 F 
ATOM     88  C   UNL A   1      37.657  33.439  30.095  1.00  0.00     0.022 A 
BRANCH  86  89
ATOM     89  S   UNL A   1      37.508  31.190  31.572  1.00  0.00     0.127 S 
ATOM     90  O   UNL A   1      36.750  31.218  32.811  1.00  0.00    -0.237 OA
ATOM     91  O   UNL A   1      36.707  31.063  30.360  1.00  0.00    -0.237 OA
ATOM     92  O   UNL A   1      38.728  30.391  31.582  1.00  0.00    -0.744 OA
ENDBRANCH  86  89
ENDBRANCH  58  82
BRANCH  70  93
ATOM     93  C   UNL A   1      46.001  31.740  35.082  1.00  0.00     0.023 A 
ATOM     94  C   UNL A   1      45.640  30.546  35.726  1.00  0.00     0.012 A 
ATOM     95  C   UNL A   1      46.812  32.649  35.823  1.00  0.00     0.148 A 
ATOM     96  C   UNL A   1      46.165  30.203  36.975  1.00  0.00     0.002 A 
ATOM     97  C   UNL A   1      47.251  32.347  37.105  1.00  0.00     0.091 A 
ATOM     98  F   UNL A   1      47.198  33.810  35.286  1.00  0.00    -0.205 F 
ATOM     99  C   UNL A   1      46.970  31.101  37.665  1.00  0.00     0.022 A 
BRANCH  97 100
ATOM    100  S   UNL A   1      48.106  33.543  38.145  1.00  0.00     0.127 S 
ATOM    101  O   UNL A   1      48.890  32.668  39.020  1.00  0.00    -0.237 OA
ATOM    102  O   UNL A   1      48.893  34.284  37.161  1.00  0.00    -0.237 OA
ATOM    103  O   UNL A   1      47.074  34.306  38.832  1.00  0.00    -0.744 OA
ENDBRANCH  97 100
ENDBRANCH  70  93
ENDBRANCH  44  45
ENDBRANCH  37  39
ENDBRANCH  36  37
ENDBRANCH  35  36
ENDBRANCH  34  35
ENDBRANCH  33  34
ENDBRANCH  32  33
ENDBRANCH  31  32
ENDBRANCH  30  31
ENDBRANCH   1  30
TORSDOF 27
ENDMDL
MODEL 2
REMARK VINA RESULT:      -7.3      4.408     12.360
REMARK SMILES COC(=O)c1ccc(C)c(NC(=O)[C@H]2CC=CC[C@H]2C(=O)OCCOCCOCCOCCOC(=O)c2ccc(-c3c4nc(c(-c5cccc(S(=O)(=O)[O-])c5F)c5ccc([nH]5)c(-c5cccc(S(=O)(=O)[O-])c5F)c5nc(c(-c6cccc(S(=O)(=O)[O-])c6F)c6ccc3[nH]6)C=C5)C=C4)cc2)c1
REMARK SMILES IDX 27 1 26 2 25 3 24 4 23 5 22 6 20 7 21 8 19 9 14 10 15 11
REMARK SMILES IDX 16 12 18 13 17 14 12 15 11 16 13 18 10 19 5 20 6 21 100 22
REMARK SMILES IDX 7 23 8 24 9 25 3 26 4 27 2 28 1 29 28 30 29 31 30 32 31 33
REMARK SMILES IDX 32 34 33 35 34 36 35 37 36 38 37 39 38 40 99 41 39 42 98 43
REMARK SMILES IDX 40 44 41 45 42 46 92 47 43 48 97 49 91 50 93 51 44 52 96 53
REMARK SMILES IDX 90 54 89 55 45 57 77 58 57 59 76 60 58 61 61 62 75 63 94 64
REMARK SMILES IDX 59 65 60 66 74 68 95 69 62 70 46 71 47 72 55 73 48 74 50 75
REMARK SMILES IDX 56 76 49 77 51 78 52 79 53 80 54 81 78 82 79 83 87 84 80 85
REMARK SMILES IDX 82 86 88 87 81 88 83 89 84 90 85 91 86 92 63 93 64 94 72 95
REMARK SMILES IDX 65 96 67 97 73 98 66 99 68 100 69 101 70 102 71 103
REMARK H PARENT 11 17 93 56 61 67
REMARK Flexibility Score: inf
ROOT
ATOM      1  C   UNL A   1      54.303  32.805  35.344  1.00  0.00     0.188 C 
ENDROOT
BRANCH   1   2
ATOM      2  C   UNL A   1      53.221  31.790  35.668  1.00  0.00     0.188 C 
BRANCH   2   3
ATOM      3  O   UNL A   1      53.314  30.547  35.002  1.00  0.00    -0.376 OA
BRANCH   3   4
ATOM      4  C   UNL A   1      52.331  30.313  34.002  1.00  0.00     0.202 C 
BRANCH   4   5
ATOM      5  C   UNL A   1      52.456  28.946  33.398  1.00  0.00     0.261 C 
BRANCH   5   6
ATOM      6  O   UNL A   1      51.397  28.724  32.466  1.00  0.00    -0.463 OA
BRANCH   6   7
ATOM      7  C   UNL A   1      50.468  27.849  32.859  1.00  0.00     0.310 C 
ATOM      8  O   UNL A   1      50.649  26.655  33.071  1.00  0.00    -0.252 OA
BRANCH   7   9
ATOM      9  C   UNL A   1      49.131  28.481  33.070  1.00  0.00     0.116 C 
ATOM     10  C   UNL A   1      47.983  27.966  32.167  1.00  0.00     0.097 C 
ATOM     11  C   UNL A   1      46.931  29.090  32.151  1.00  0.00     0.041 C 
ATOM     12  C   UNL A   1      46.764  29.830  33.455  1.00  0.00    -0.030 C 
ATOM     13  C   UNL A   1      48.731  28.716  34.521  1.00  0.00     0.043 C 
ATOM     14  C   UNL A   1      47.541  29.638  34.535  1.00  0.00    -0.030 C 
BRANCH  10  15
ATOM     15  C   UNL A   1      47.361  26.602  32.512  1.00  0.00     0.228 C 
ATOM     16  N   UNL A   1      46.879  25.713  31.580  1.00  0.00    -0.326 N 
ATOM     17  H   UNL A   1      46.474  24.902  31.966  1.00  0.00     0.169 HD
ATOM     18  O   UNL A   1      47.254  26.241  33.680  1.00  0.00    -0.274 OA
BRANCH  16  19
ATOM     19  C   UNL A   1      46.862  25.752  30.176  1.00  0.00     0.044 A 
ATOM     20  C   UNL A   1      48.088  25.322  28.131  1.00  0.00     0.062 A 
ATOM     21  C   UNL A   1      46.882  25.230  27.429  1.00  0.00     0.016 A 
ATOM     22  C   UNL A   1      48.075  25.576  29.512  1.00  0.00     0.042 A 
ATOM     23  C   UNL A   1      45.695  25.569  28.063  1.00  0.00     0.006 A 
ATOM     24  C   UNL A   1      45.707  25.938  29.411  1.00  0.00    -0.027 A 
ATOM     25  C   UNL A   1      44.558  26.746  29.920  1.00  0.00     0.046 C 
BRANCH  20  26
ATOM     26  C   UNL A   1      49.346  25.103  27.368  1.00  0.00     0.337 C 
ATOM     27  O   UNL A   1      50.180  24.266  27.646  1.00  0.00    -0.246 OA
BRANCH  26  28
ATOM     28  O   UNL A   1      49.409  25.923  26.291  1.00  0.00    -0.465 OA
ATOM     29  C   UNL A   1      50.748  26.271  25.943  1.00  0.00     0.282 C 
ENDBRANCH  26  28
ENDBRANCH  20  26
ENDBRANCH  16  19
ENDBRANCH  10  15
ENDBRANCH   7   9
ENDBRANCH   6   7
ENDBRANCH   5   6
ENDBRANCH   4   5
ENDBRANCH   3   4
ENDBRANCH   2   3
ENDBRANCH   1   2
BRANCH   1  30
ATOM     30  O   UNL A   1      54.531  33.205  34.016  1.00  0.00    -0.377 OA
BRANCH  30  31
ATOM     31  C   UNL A   1      53.598  34.062  33.402  1.00  0.00     0.188 C 
BRANCH  31  32
ATOM     32  C   UNL A   1      52.889  33.464  32.162  1.00  0.00     0.188 C 
BRANCH  32  33
ATOM     33  O   UNL A   1      52.274  34.370  31.272  1.00  0.00    -0.376 OA
BRANCH  33  34
ATOM     34  C   UNL A   1      51.760  33.751  30.095  1.00  0.00     0.202 C 
BRANCH  34  35
ATOM     35  C   UNL A   1      50.199  33.392  29.980  1.00  0.00     0.261 C 
BRANCH  35  36
ATOM     36  O   UNL A   1      49.910  31.903  30.041  1.00  0.00    -0.460 OA
BRANCH  36  37
ATOM     37  C   UNL A   1      50.102  30.756  29.299  1.00  0.00     0.338 C 
ATOM     38  O   UNL A   1      51.121  30.110  29.266  1.00  0.00    -0.246 OA
BRANCH  37  39
ATOM     39  C   UNL A   1      48.861  30.438  28.386  1.00  0.00     0.060 A 
ATOM     40  C   UNL A   1      48.180  31.438  27.706  1.00  0.00     0.016 A 
ATOM     41  C   UNL A   1      48.232  29.211  28.261  1.00  0.00     0.016 A 
ATOM     42  C   UNL A   1      46.783  31.332  27.437  1.00  0.00     0.010 A 
ATOM     43  C   UNL A   1      46.831  29.137  28.185  1.00  0.00     0.010 A 
ATOM     44  C   UNL A   1      46.066  30.273  27.950  1.00  0.00    -0.014 A 
BRANCH  44  45
ATOM     45  C   UNL A   1      44.649  30.298  28.420  1.00  0.00     0.031 A 
ATOM     46  C   UNL A   1      43.614  29.427  27.708  1.00  0.00     0.074 A 
ATOM     47  C   UNL A   1      44.415  30.669  29.719  1.00  0.00     0.049 A 
ATOM     48  N   UNL A   1      42.440  29.107  28.158  1.00  0.00    -0.248 NA
ATOM     49  C   UNL A   1      43.873  28.764  26.430  1.00  0.00     0.031 C 
ATOM     50  C   UNL A   1      43.386  30.051  30.547  1.00  0.00     0.029 A 
ATOM     51  N   UNL A   1      45.049  31.492  30.663  1.00  0.00    -0.354 N 
ATOM     52  C   UNL A   1      41.974  27.991  27.479  1.00  0.00     0.074 A 
ATOM     53  C   UNL A   1      42.869  27.877  26.353  1.00  0.00     0.031 C 
ATOM     54  C   UNL A   1      43.495  30.423  31.821  1.00  0.00     0.029 A 
ATOM     55  C   UNL A   1      44.243  31.637  31.815  1.00  0.00     0.049 A 
ATOM     56  H   UNL A   1      45.932  31.910  30.539  1.00  0.00     0.167 HD
ATOM     57  C   UNL A   1      40.959  27.227  28.004  1.00  0.00     0.034 A 
ATOM     58  C   UNL A   1      43.591  32.769  32.248  1.00  0.00     0.034 A 
ATOM     59  C   UNL A   1      40.332  27.839  29.224  1.00  0.00     0.049 A 
ATOM     60  C   UNL A   1      42.063  32.754  31.951  1.00  0.00     0.074 A 
ATOM     61  C   UNL A   1      39.917  27.397  30.475  1.00  0.00     0.029 A 
ATOM     62  N   UNL A   1      40.173  29.219  29.279  1.00  0.00    -0.354 N 
ATOM     63  N   UNL A   1      41.338  31.670  31.762  1.00  0.00    -0.248 NA
ATOM     64  C   UNL A   1      41.244  33.953  31.776  1.00  0.00     0.031 C 
ATOM     65  C   UNL A   1      39.575  28.537  31.278  1.00  0.00     0.029 A 
ATOM     66  C   UNL A   1      39.695  29.670  30.494  1.00  0.00     0.049 A 
ATOM     67  H   UNL A   1      40.383  29.818  28.526  1.00  0.00     0.167 HD
ATOM     68  C   UNL A   1      40.136  31.985  31.185  1.00  0.00     0.074 A 
ATOM     69  C   UNL A   1      40.093  33.438  31.299  1.00  0.00     0.031 C 
ATOM     70  C   UNL A   1      39.295  31.071  30.591  1.00  0.00     0.034 A 
BRANCH  57  71
ATOM     71  C   UNL A   1      40.530  25.822  27.517  1.00  0.00     0.023 A 
ATOM     72  C   UNL A   1      39.136  25.604  27.368  1.00  0.00     0.012 A 
ATOM     73  C   UNL A   1      41.347  24.680  27.274  1.00  0.00     0.148 A 
ATOM     74  C   UNL A   1      38.577  24.358  27.051  1.00  0.00     0.002 A 
ATOM     75  C   UNL A   1      40.789  23.445  26.882  1.00  0.00     0.091 A 
ATOM     76  F   UNL A   1      42.666  24.753  27.478  1.00  0.00    -0.205 F 
ATOM     77  C   UNL A   1      39.403  23.278  26.796  1.00  0.00     0.022 A 
BRANCH  75  78
ATOM     78  S   UNL A   1      41.762  21.987  26.429  1.00  0.00     0.127 S 
ATOM     79  O   UNL A   1      42.451  22.435  25.218  1.00  0.00    -0.237 OA
ATOM     80  O   UNL A   1      42.637  21.821  27.591  1.00  0.00    -0.237 OA
ATOM     81  O   UNL A   1      40.806  20.905  26.230  1.00  0.00    -0.744 OA
ENDBRANCH  75  78
ENDBRANCH  57  71
BRANCH  58  82
ATOM     82  C   UNL A   1      44.516  33.922  32.431  1.00  0.00     0.023 A 
ATOM     83  C   UNL A   1      45.672  33.623  33.207  1.00  0.00     0.012 A 
ATOM     84  C   UNL A   1      44.616  34.834  31.383  1.00  0.00     0.148 A 
ATOM     85  C   UNL A   1      46.942  34.001  32.772  1.00  0.00     0.002 A 
ATOM     86  C   UNL A   1      45.883  35.103  30.890  1.00  0.00     0.091 A 
ATOM     87  F   UNL A   1      43.500  35.212  30.747  1.00  0.00    -0.205 F 
ATOM     88  C   UNL A   1      47.047  34.690  31.576  1.00  0.00     0.022 A 
BRANCH  86  89
ATOM     89  S   UNL A   1      46.095  35.232  29.114  1.00  0.00     0.127 S 
ATOM     90  O   UNL A   1      47.530  35.121  28.921  1.00  0.00    -0.237 OA
ATOM     91  O   UNL A   1      45.327  34.053  28.737  1.00  0.00    -0.237 OA
ATOM     92  O   UNL A   1      45.491  36.502  28.729  1.00  0.00    -0.744 OA
ENDBRANCH  86  89
ENDBRANCH  58  82
BRANCH  70  93
ATOM     93  C   UNL A   1      37.958  31.438  29.964  1.00  0.00     0.023 A 
ATOM     94  C   UNL A   1      37.745  31.229  28.592  1.00  0.00     0.012 A 
ATOM     95  C   UNL A   1      36.928  32.118  30.677  1.00  0.00     0.148 A 
ATOM     96  C   UNL A   1      36.527  31.545  27.986  1.00  0.00     0.002 A 
ATOM     97  C   UNL A   1      35.756  32.519  30.048  1.00  0.00     0.091 A 
ATOM     98  F   UNL A   1      37.051  32.359  31.985  1.00  0.00    -0.205 F 
ATOM     99  C   UNL A   1      35.532  32.189  28.712  1.00  0.00     0.022 A 
BRANCH  97 100
ATOM    100  S   UNL A   1      34.522  33.549  30.861  1.00  0.00     0.127 S 
ATOM    101  O   UNL A   1      33.984  32.629  31.865  1.00  0.00    -0.237 OA
ATOM    102  O   UNL A   1      35.346  34.628  31.402  1.00  0.00    -0.237 OA
ATOM    103  O   UNL A   1      33.567  33.938  29.833  1.00  0.00    -0.744 OA
ENDBRANCH  97 100
ENDBRANCH  70  93
ENDBRANCH  44  45
ENDBRANCH  37  39
ENDBRANCH  36  37
ENDBRANCH  35  36
ENDBRANCH  34  35
ENDBRANCH  33  34
ENDBRANCH  32  33
ENDBRANCH  31  32
ENDBRANCH  30  31
ENDBRANCH   1  30
TORSDOF 27
ENDMDL
MODEL 3
REMARK VINA RESULT:      -7.0      7.813     12.498
REMARK SMILES COC(=O)c1ccc(C)c(NC(=O)[C@H]2CC=CC[C@H]2C(=O)OCCOCCOCCOCCOC(=O)c2ccc(-c3c4nc(c(-c5cccc(S(=O)(=O)[O-])c5F)c5ccc([nH]5)c(-c5cccc(S(=O)(=O)[O-])c5F)c5nc(c(-c6cccc(S(=O)(=O)[O-])c6F)c6ccc3[nH]6)C=C5)C=C4)cc2)c1
REMARK SMILES IDX 27 1 26 2 25 3 24 4 23 5 22 6 20 7 21 8 19 9 14 10 15 11
REMARK SMILES IDX 16 12 18 13 17 14 12 15 11 16 13 18 10 19 5 20 6 21 100 22
REMARK SMILES IDX 7 23 8 24 9 25 3 26 4 27 2 28 1 29 28 30 29 31 30 32 31 33
REMARK SMILES IDX 32 34 33 35 34 36 35 37 36 38 37 39 38 40 99 41 39 42 98 43
REMARK SMILES IDX 40 44 41 45 42 46 92 47 43 48 97 49 91 50 93 51 44 52 96 53
REMARK SMILES IDX 90 54 89 55 45 57 77 58 57 59 76 60 58 61 61 62 75 63 94 64
REMARK SMILES IDX 59 65 60 66 74 68 95 69 62 70 46 71 47 72 55 73 48 74 50 75
REMARK SMILES IDX 56 76 49 77 51 78 52 79 53 80 54 81 78 82 79 83 87 84 80 85
REMARK SMILES IDX 82 86 88 87 81 88 83 89 84 90 85 91 86 92 63 93 64 94 72 95
REMARK SMILES IDX 65 96 67 97 73 98 66 99 68 100 69 101 70 102 71 103
REMARK H PARENT 11 17 93 56 61 67
REMARK Flexibility Score: inf
ROOT
ATOM      1  C   UNL A   1      47.429  30.493  32.934  1.00  0.00     0.188 C 
ENDROOT
BRANCH   1   2
ATOM      2  C   UNL A   1      46.222  29.831  33.577  1.00  0.00     0.188 C 
BRANCH   2   3
ATOM      3  O   UNL A   1      45.418  30.660  34.391  1.00  0.00    -0.376 OA
BRANCH   3   4
ATOM      4  C   UNL A   1      44.315  30.018  35.017  1.00  0.00     0.202 C 
BRANCH   4   5
ATOM      5  C   UNL A   1      43.756  30.832  36.147  1.00  0.00     0.261 C 
BRANCH   5   6
ATOM      6  O   UNL A   1      42.502  31.400  35.767  1.00  0.00    -0.463 OA
BRANCH   6   7
ATOM      7  C   UNL A   1      41.740  31.823  36.779  1.00  0.00     0.310 C 
ATOM      8  O   UNL A   1      41.890  31.535  37.961  1.00  0.00    -0.252 OA
BRANCH   7   9
ATOM      9  C   UNL A   1      40.660  32.756  36.337  1.00  0.00     0.116 C 
ATOM     10  C   UNL A   1      39.754  32.253  35.186  1.00  0.00     0.097 C 
ATOM     11  C   UNL A   1      39.149  33.519  34.550  1.00  0.00     0.041 C 
ATOM     12  C   UNL A   1      38.813  34.625  35.521  1.00  0.00    -0.030 C 
ATOM     13  C   UNL A   1      39.915  33.481  37.451  1.00  0.00     0.043 C 
ATOM     14  C   UNL A   1      39.116  34.596  36.830  1.00  0.00    -0.030 C 
BRANCH  10  15
ATOM     15  C   UNL A   1      38.675  31.211  35.529  1.00  0.00     0.228 C 
ATOM     16  N   UNL A   1      37.752  30.729  34.631  1.00  0.00    -0.326 N 
ATOM     17  H   UNL A   1      37.103  30.098  35.019  1.00  0.00     0.169 HD
ATOM     18  O   UNL A   1      38.583  30.758  36.665  1.00  0.00    -0.274 OA
BRANCH  16  19
ATOM     19  C   UNL A   1      37.568  30.973  33.261  1.00  0.00     0.044 A 
ATOM     20  C   UNL A   1      36.288  32.155  31.577  1.00  0.00     0.062 A 
ATOM     21  C   UNL A   1      37.353  32.028  30.680  1.00  0.00     0.016 A 
ATOM     22  C   UNL A   1      36.401  31.632  32.875  1.00  0.00     0.042 A 
ATOM     23  C   UNL A   1      38.438  31.230  31.015  1.00  0.00     0.006 A 
ATOM     24  C   UNL A   1      38.486  30.614  32.269  1.00  0.00    -0.027 A 
ATOM     25  C   UNL A   1      39.365  29.416  32.421  1.00  0.00     0.046 C 
BRANCH  20  26
ATOM     26  C   UNL A   1      35.080  32.888  31.110  1.00  0.00     0.337 C 
ATOM     27  O   UNL A   1      34.088  33.074  31.785  1.00  0.00    -0.246 OA
BRANCH  26  28
ATOM     28  O   UNL A   1      35.258  33.367  29.855  1.00  0.00    -0.465 OA
ATOM     29  C   UNL A   1      34.043  33.825  29.264  1.00  0.00     0.282 C 
ENDBRANCH  26  28
ENDBRANCH  20  26
ENDBRANCH  16  19
ENDBRANCH  10  15
ENDBRANCH   7   9
ENDBRANCH   6   7
ENDBRANCH   5   6
ENDBRANCH   4   5
ENDBRANCH   3   4
ENDBRANCH   2   3
ENDBRANCH   1   2
BRANCH   1  30
ATOM     30  O   UNL A   1      47.622  30.426  31.543  1.00  0.00    -0.377 OA
BRANCH  30  31
ATOM     31  C   UNL A   1      46.995  31.389  30.730  1.00  0.00     0.188 C 
BRANCH  31  32
ATOM     32  C   UNL A   1      47.059  31.093  29.211  1.00  0.00     0.188 C 
BRANCH  32  33
ATOM     33  O   UNL A   1      46.147  30.146  28.700  1.00  0.00    -0.376 OA
BRANCH  33  34
ATOM     34  C   UNL A   1      45.548  30.540  27.468  1.00  0.00     0.202 C 
BRANCH  34  35
ATOM     35  C   UNL A   1      46.398  31.349  26.372  1.00  0.00     0.261 C 
BRANCH  35  36
ATOM     36  O   UNL A   1      45.773  32.673  25.971  1.00  0.00    -0.460 OA
BRANCH  36  37
ATOM     37  C   UNL A   1      44.545  33.206  25.639  1.00  0.00     0.338 C 
ATOM     38  O   UNL A   1      44.006  33.099  24.564  1.00  0.00    -0.246 OA
BRANCH  37  39
ATOM     39  C   UNL A   1      43.959  34.091  26.801  1.00  0.00     0.060 A 
ATOM     40  C   UNL A   1      43.127  35.171  26.547  1.00  0.00     0.016 A 
ATOM     41  C   UNL A   1      44.293  34.003  28.142  1.00  0.00     0.016 A 
ATOM     42  C   UNL A   1      43.111  36.312  27.402  1.00  0.00     0.010 A 
ATOM     43  C   UNL A   1      44.451  35.169  28.910  1.00  0.00     0.010 A 
ATOM     44  C   UNL A   1      44.011  36.400  28.441  1.00  0.00    -0.014 A 
BRANCH  44  45
ATOM     45  C   UNL A   1      44.658  37.643  28.959  1.00  0.00     0.031 A 
ATOM     46  C   UNL A   1      45.359  38.581  27.978  1.00  0.00     0.074 A 
ATOM     47  C   UNL A   1      44.194  38.157  30.143  1.00  0.00     0.049 A 
ATOM     48  N   UNL A   1      45.701  39.812  28.203  1.00  0.00    -0.248 NA
ATOM     49  C   UNL A   1      45.659  38.209  26.595  1.00  0.00     0.031 C 
ATOM     50  C   UNL A   1      44.075  39.588  30.395  1.00  0.00     0.029 A 
ATOM     51  N   UNL A   1      43.590  37.639  31.300  1.00  0.00    -0.354 N 
ATOM     52  C   UNL A   1      45.900  40.465  26.995  1.00  0.00     0.074 A 
ATOM     53  C   UNL A   1      45.948  39.392  26.031  1.00  0.00     0.031 C 
ATOM     54  C   UNL A   1      43.405  39.833  31.518  1.00  0.00     0.029 A 
ATOM     55  C   UNL A   1      43.483  38.639  32.293  1.00  0.00     0.049 A 
ATOM     56  H   UNL A   1      43.284  36.709  31.404  1.00  0.00     0.167 HD
ATOM     57  C   UNL A   1      45.889  41.838  26.933  1.00  0.00     0.034 A 
ATOM     58  C   UNL A   1      44.164  38.717  33.486  1.00  0.00     0.034 A 
ATOM     59  C   UNL A   1      45.839  42.488  28.286  1.00  0.00     0.049 A 
ATOM     60  C   UNL A   1      45.329  39.750  33.465  1.00  0.00     0.074 A 
ATOM     61  C   UNL A   1      45.147  43.541  28.874  1.00  0.00     0.029 A 
ATOM     62  N   UNL A   1      46.544  41.913  29.336  1.00  0.00    -0.354 N 
ATOM     63  N   UNL A   1      45.415  40.780  32.648  1.00  0.00    -0.248 NA
ATOM     64  C   UNL A   1      46.519  39.669  34.311  1.00  0.00     0.031 C 
ATOM     65  C   UNL A   1      45.408  43.533  30.286  1.00  0.00     0.029 A 
ATOM     66  C   UNL A   1      46.327  42.534  30.550  1.00  0.00     0.049 A 
ATOM     67  H   UNL A   1      47.140  41.136  29.226  1.00  0.00     0.167 HD
ATOM     68  C   UNL A   1      46.690  41.282  32.632  1.00  0.00     0.074 A 
ATOM     69  C   UNL A   1      47.318  40.605  33.761  1.00  0.00     0.031 C 
ATOM     70  C   UNL A   1      47.173  42.145  31.675  1.00  0.00     0.034 A 
BRANCH  57  71
ATOM     71  C   UNL A   1      45.815  42.691  25.643  1.00  0.00     0.023 A 
ATOM     72  C   UNL A   1      46.782  43.721  25.512  1.00  0.00     0.012 A 
ATOM     73  C   UNL A   1      44.848  42.636  24.599  1.00  0.00     0.148 A 
ATOM     74  C   UNL A   1      46.780  44.654  24.466  1.00  0.00     0.002 A 
ATOM     75  C   UNL A   1      44.891  43.529  23.507  1.00  0.00     0.091 A 
ATOM     76  F   UNL A   1      43.838  41.763  24.675  1.00  0.00    -0.205 F 
ATOM     77  C   UNL A   1      45.841  44.554  23.455  1.00  0.00     0.022 A 
BRANCH  75  78
ATOM     78  S   UNL A   1      43.783  43.444  22.078  1.00  0.00     0.127 S 
ATOM     79  O   UNL A   1      44.238  44.569  21.261  1.00  0.00    -0.237 OA
ATOM     80  O   UNL A   1      44.097  42.128  21.517  1.00  0.00    -0.237 OA
ATOM     81  O   UNL A   1      42.429  43.571  22.603  1.00  0.00    -0.744 OA
ENDBRANCH  75  78
ENDBRANCH  57  71
BRANCH  58  82
ATOM     82  C   UNL A   1      43.985  37.498  34.323  1.00  0.00     0.023 A 
ATOM     83  C   UNL A   1      42.625  37.160  34.574  1.00  0.00     0.012 A 
ATOM     84  C   UNL A   1      44.924  36.480  34.180  1.00  0.00     0.148 A 
ATOM     85  C   UNL A   1      42.170  35.854  34.404  1.00  0.00     0.002 A 
ATOM     86  C   UNL A   1      44.450  35.209  33.892  1.00  0.00     0.091 A 
ATOM     87  F   UNL A   1      46.220  36.805  34.080  1.00  0.00    -0.205 F 
ATOM     88  C   UNL A   1      43.078  34.890  34.000  1.00  0.00     0.022 A 
BRANCH  86  89
ATOM     89  S   UNL A   1      45.330  34.228  32.677  1.00  0.00     0.127 S 
ATOM     90  O   UNL A   1      44.347  33.258  32.227  1.00  0.00    -0.237 OA
ATOM     91  O   UNL A   1      45.621  35.298  31.731  1.00  0.00    -0.237 OA
ATOM     92  O   UNL A   1      46.497  33.689  33.365  1.00  0.00    -0.744 OA
ENDBRANCH  86  89
ENDBRANCH  58  82
BRANCH  70  93
ATOM     93  C   UNL A   1      48.590  42.701  31.680  1.00  0.00     0.023 A 
ATOM     94  C   UNL A   1      48.885  43.864  32.407  1.00  0.00     0.012 A 
ATOM     95  C   UNL A   1      49.634  42.170  30.867  1.00  0.00     0.148 A 
ATOM     96  C   UNL A   1      50.177  44.396  32.441  1.00  0.00     0.002 A 
ATOM     97  C   UNL A   1      50.891  42.758  30.829  1.00  0.00     0.091 A 
ATOM     98  F   UNL A   1      49.437  41.066  30.142  1.00  0.00    -0.205 F 
ATOM     99  C   UNL A   1      51.181  43.844  31.654  1.00  0.00     0.022 A 
BRANCH  97 100
ATOM    100  S   UNL A   1      52.171  42.240  29.672  1.00  0.00     0.127 S 
ATOM    101  O   UNL A   1      51.461  42.315  28.393  1.00  0.00    -0.237 OA
ATOM    102  O   UNL A   1      53.185  43.274  29.867  1.00  0.00    -0.237 OA
ATOM    103  O   UNL A   1      52.559  40.893  30.062  1.00  0.00    -0.744 OA
ENDBRANCH  97 100
ENDBRANCH  70  93
ENDBRANCH  44  45
ENDBRANCH  37  39
ENDBRANCH  36  37
ENDBRANCH  35  36
ENDBRANCH  34  35
ENDBRANCH  33  34
ENDBRANCH  32  33
ENDBRANCH  31  32
ENDBRANCH  30  31
ENDBRANCH   1  30
TORSDOF 27
ENDMDL
