MODEL 1
REMARK VINA RESULT:      -7.8      0.000      0.000
REMARK SMILES CC[NH+]1CC[NH+]([C@@H]2CC(=O)N(c3ccc(C(=O)OCCOCCOCCOCCOC(=O)c4ccc(-c5c6nc(c(-c7cccc(S(=O)(=O)[O-])c7F)c7ccc([nH]7)c(-c7cccc(S(=O)(=O)[O-])c7F)c7nc(c(-c8cccc(S(=O)(=O)[O-])c8F)c8ccc5[nH]8)C=C7)C=C6)cc4)cc3)C2=O)CC1
REMARK SMILES IDX 24 1 23 2 22 3 21 4 20 5 19 6 18 7 16 8 17 9 15 10 12 11
REMARK SMILES IDX 13 12 97 13 14 14 96 15 11 16 7 17 8 18 98 19 9 20 99 21
REMARK SMILES IDX 10 22 6 23 3 24 4 25 101 26 5 28 100 29 2 31 1 32 25 33
REMARK SMILES IDX 26 34 27 35 28 36 29 37 30 38 31 39 32 40 33 41 34 42 95 43
REMARK SMILES IDX 35 44 94 45 36 46 37 47 38 48 88 49 39 50 93 51 87 52 89 53
REMARK SMILES IDX 40 54 92 55 86 56 85 57 41 59 73 60 53 61 72 62 54 63 57 64
REMARK SMILES IDX 71 65 90 66 55 67 56 68 70 70 91 71 58 72 42 73 43 74 51 75
REMARK SMILES IDX 44 76 46 77 52 78 45 79 47 80 48 81 49 82 50 83 74 84 75 85
REMARK SMILES IDX 83 86 76 87 78 88 84 89 77 90 79 91 80 92 81 93 82 94 59 95
REMARK SMILES IDX 60 96 68 97 61 98 63 99 69 100 62 101 64 102 65 103 66 104
REMARK SMILES IDX 67 105
REMARK H PARENT 3 27 6 30 89 58 57 69
REMARK Flexibility Score: inf
ROOT
ATOM      1  O   UNL A   1      42.032  40.445  28.203  1.00  0.00    -0.377 OA
ENDROOT
BRANCH   1   2
ATOM      2  C   UNL A   1      41.892  39.232  27.483  1.00  0.00     0.188 C 
BRANCH   2   3
ATOM      3  C   UNL A   1      42.111  37.906  28.240  1.00  0.00     0.188 C 
BRANCH   3   4
ATOM      4  O   UNL A   1      42.694  36.884  27.454  1.00  0.00    -0.376 OA
BRANCH   4   5
ATOM      5  C   UNL A   1      43.953  37.080  26.840  1.00  0.00     0.202 C 
BRANCH   5   6
ATOM      6  C   UNL A   1      45.229  37.259  27.675  1.00  0.00     0.261 C 
BRANCH   6   7
ATOM      7  O   UNL A   1      46.065  38.365  27.333  1.00  0.00    -0.460 OA
BRANCH   7   8
ATOM      8  C   UNL A   1      46.732  38.310  26.163  1.00  0.00     0.338 C 
ATOM      9  O   UNL A   1      47.317  37.352  25.691  1.00  0.00    -0.246 OA
BRANCH   8  10
ATOM     10  C   UNL A   1      46.432  39.564  25.434  1.00  0.00     0.060 A 
ATOM     11  C   UNL A   1      45.833  41.959  24.092  1.00  0.00     0.052 A 
ATOM     12  C   UNL A   1      45.248  41.678  25.336  1.00  0.00     0.028 A 
ATOM     13  C   UNL A   1      46.795  41.070  23.588  1.00  0.00     0.028 A 
ATOM     14  C   UNL A   1      45.521  40.470  25.988  1.00  0.00     0.018 A 
ATOM     15  C   UNL A   1      47.106  39.885  24.256  1.00  0.00     0.018 A 
BRANCH  11  16
ATOM     16  N   UNL A   1      45.375  43.045  23.302  1.00  0.00    -0.245 N 
ATOM     17  C   UNL A   1      44.323  44.246  21.564  1.00  0.00     0.285 C 
ATOM     18  C   UNL A   1      45.424  45.097  22.176  1.00  0.00     0.176 C 
ATOM     19  C   UNL A   1      44.268  43.024  22.483  1.00  0.00     0.292 C 
ATOM     20  C   UNL A   1      46.103  44.202  23.155  1.00  0.00     0.240 C 
ATOM     21  O   UNL A   1      43.378  42.182  22.448  1.00  0.00    -0.267 OA
ATOM     22  O   UNL A   1      47.181  44.500  23.653  1.00  0.00    -0.274 OA
BRANCH  17  23
ATOM     23  N   UNL A   1      44.375  43.865  20.132  1.00  0.00    -0.315 N 
ATOM     24  N   UNL A   1      43.046  45.817  18.274  1.00  0.00    -0.326 N 
ATOM     25  C   UNL A   1      42.288  44.714  18.878  1.00  0.00     0.324 C 
ATOM     26  C   UNL A   1      44.381  46.036  18.846  1.00  0.00     0.324 C 
ATOM     27  H   UNL A   1      42.498  46.632  18.551  1.00  0.00     0.348 HD
ATOM     28  C   UNL A   1      43.077  43.542  19.521  1.00  0.00     0.325 C 
ATOM     29  C   UNL A   1      45.125  44.747  19.228  1.00  0.00     0.325 C 
ATOM     30  H   UNL A   1      44.922  43.008  20.220  1.00  0.00     0.349 HD
BRANCH  24  31
ATOM     31  C   UNL A   1      43.045  45.842  16.815  1.00  0.00     0.259 C 
ATOM     32  C   UNL A   1      43.015  44.402  16.312  1.00  0.00     0.071 C 
ENDBRANCH  24  31
ENDBRANCH  17  23
ENDBRANCH  11  16
ENDBRANCH   8  10
ENDBRANCH   7   8
ENDBRANCH   6   7
ENDBRANCH   5   6
ENDBRANCH   4   5
ENDBRANCH   3   4
ENDBRANCH   2   3
ENDBRANCH   1   2
BRANCH   1  33
ATOM     33  C   UNL A   1      43.324  40.896  28.604  1.00  0.00     0.188 C 
BRANCH  33  34
ATOM     34  C   UNL A   1      43.555  41.708  29.903  1.00  0.00     0.188 C 
BRANCH  34  35
ATOM     35  O   UNL A   1      44.836  42.305  30.021  1.00  0.00    -0.376 OA
BRANCH  35  36
ATOM     36  C   UNL A   1      45.479  42.251  31.280  1.00  0.00     0.202 C 
BRANCH  36  37
ATOM     37  C   UNL A   1      44.577  42.222  32.521  1.00  0.00     0.261 C 
BRANCH  37  38
ATOM     38  O   UNL A   1      44.565  40.996  33.265  1.00  0.00    -0.460 OA
BRANCH  38  39
ATOM     39  C   UNL A   1      43.379  40.365  33.398  1.00  0.00     0.338 C 
ATOM     40  O   UNL A   1      42.296  40.879  33.632  1.00  0.00    -0.246 OA
BRANCH  39  41
ATOM     41  C   UNL A   1      43.578  38.952  33.017  1.00  0.00     0.060 A 
ATOM     42  C   UNL A   1      43.845  38.637  31.678  1.00  0.00     0.016 A 
ATOM     43  C   UNL A   1      43.515  37.946  33.983  1.00  0.00     0.016 A 
ATOM     44  C   UNL A   1      44.015  37.307  31.296  1.00  0.00     0.010 A 
ATOM     45  C   UNL A   1      43.665  36.612  33.595  1.00  0.00     0.010 A 
ATOM     46  C   UNL A   1      43.880  36.285  32.244  1.00  0.00    -0.014 A 
BRANCH  46  47
ATOM     47  C   UNL A   1      43.776  34.876  31.794  1.00  0.00     0.031 A 
ATOM     48  C   UNL A   1      45.028  34.177  31.334  1.00  0.00     0.074 A 
ATOM     49  C   UNL A   1      42.601  34.221  31.803  1.00  0.00     0.049 A 
ATOM     50  N   UNL A   1      45.177  32.967  30.864  1.00  0.00    -0.248 NA
ATOM     51  C   UNL A   1      46.279  34.951  31.416  1.00  0.00     0.031 C 
ATOM     52  C   UNL A   1      41.322  34.786  32.230  1.00  0.00     0.029 A 
ATOM     53  N   UNL A   1      42.293  32.940  31.415  1.00  0.00    -0.354 N 
ATOM     54  C   UNL A   1      46.531  32.839  30.577  1.00  0.00     0.074 A 
ATOM     55  C   UNL A   1      47.156  34.101  30.903  1.00  0.00     0.031 C 
ATOM     56  C   UNL A   1      40.358  33.867  32.042  1.00  0.00     0.029 A 
ATOM     57  C   UNL A   1      40.947  32.662  31.461  1.00  0.00     0.049 A 
ATOM     58  H   UNL A   1      42.970  32.285  31.130  1.00  0.00     0.167 HD
ATOM     59  C   UNL A   1      47.201  31.762  30.103  1.00  0.00     0.034 A 
ATOM     60  C   UNL A   1      40.268  31.572  31.048  1.00  0.00     0.034 A 
ATOM     61  C   UNL A   1      46.579  30.506  29.781  1.00  0.00     0.049 A 
ATOM     62  C   UNL A   1      41.030  30.400  30.483  1.00  0.00     0.074 A 
ATOM     63  C   UNL A   1      47.174  29.348  29.312  1.00  0.00     0.029 A 
ATOM     64  N   UNL A   1      45.221  30.247  29.879  1.00  0.00    -0.354 N 
ATOM     65  N   UNL A   1      42.322  30.257  30.310  1.00  0.00    -0.248 NA
ATOM     66  C   UNL A   1      40.243  29.221  30.090  1.00  0.00     0.031 C 
ATOM     67  C   UNL A   1      46.169  28.398  29.098  1.00  0.00     0.029 A 
ATOM     68  C   UNL A   1      44.956  28.951  29.474  1.00  0.00     0.049 A 
ATOM     69  H   UNL A   1      44.544  30.892  30.191  1.00  0.00     0.167 HD
ATOM     70  C   UNL A   1      42.504  28.966  29.825  1.00  0.00     0.074 A 
ATOM     71  C   UNL A   1      41.192  28.359  29.756  1.00  0.00     0.031 C 
ATOM     72  C   UNL A   1      43.651  28.341  29.458  1.00  0.00     0.034 A 
BRANCH  59  73
ATOM     73  C   UNL A   1      48.691  31.887  29.928  1.00  0.00     0.023 A 
ATOM     74  C   UNL A   1      49.540  31.722  31.042  1.00  0.00     0.012 A 
ATOM     75  C   UNL A   1      49.255  32.112  28.657  1.00  0.00     0.148 A 
ATOM     76  C   UNL A   1      50.924  31.810  30.899  1.00  0.00     0.002 A 
ATOM     77  C   UNL A   1      50.637  32.150  28.515  1.00  0.00     0.091 A 
ATOM     78  F   UNL A   1      48.430  32.286  27.615  1.00  0.00    -0.205 F 
ATOM     79  C   UNL A   1      51.472  32.012  29.635  1.00  0.00     0.022 A 
BRANCH  77  80
ATOM     80  S   UNL A   1      51.445  32.328  26.920  1.00  0.00     0.127 S 
ATOM     81  O   UNL A   1      52.584  31.423  27.065  1.00  0.00    -0.237 OA
ATOM     82  O   UNL A   1      50.408  31.860  26.000  1.00  0.00    -0.237 OA
ATOM     83  O   UNL A   1      51.784  33.738  26.793  1.00  0.00    -0.744 OA
ENDBRANCH  77  80
ENDBRANCH  59  73
BRANCH  60  84
ATOM     84  C   UNL A   1      38.781  31.533  31.148  1.00  0.00     0.023 A 
ATOM     85  C   UNL A   1      38.164  30.887  32.237  1.00  0.00     0.012 A 
ATOM     86  C   UNL A   1      37.975  32.124  30.155  1.00  0.00     0.148 A 
ATOM     87  C   UNL A   1      36.773  30.794  32.314  1.00  0.00     0.002 A 
ATOM     88  C   UNL A   1      36.591  32.081  30.269  1.00  0.00     0.091 A 
ATOM     89  F   UNL A   1      38.580  32.718  29.117  1.00  0.00    -0.205 F 
ATOM     90  C   UNL A   1      35.987  31.398  31.336  1.00  0.00     0.022 A 
BRANCH  88  91
ATOM     91  S   UNL A   1      35.505  32.942  29.126  1.00  0.00     0.127 S 
ATOM     92  O   UNL A   1      34.330  32.074  29.120  1.00  0.00    -0.237 OA
ATOM     93  O   UNL A   1      35.320  34.227  29.800  1.00  0.00    -0.237 OA
ATOM     94  O   UNL A   1      36.239  33.022  27.871  1.00  0.00    -0.744 OA
ENDBRANCH  88  91
ENDBRANCH  60  84
BRANCH  72  95
ATOM     95  C   UNL A   1      43.554  26.909  28.998  1.00  0.00     0.023 A 
ATOM     96  C   UNL A   1      43.656  25.856  29.928  1.00  0.00     0.012 A 
ATOM     97  C   UNL A   1      43.298  26.610  27.644  1.00  0.00     0.148 A 
ATOM     98  C   UNL A   1      43.546  24.529  29.513  1.00  0.00     0.002 A 
ATOM     99  C   UNL A   1      43.136  25.289  27.246  1.00  0.00     0.091 A 
ATOM    100  F   UNL A   1      43.219  27.623  26.769  1.00  0.00    -0.205 F 
ATOM    101  C   UNL A   1      43.275  24.246  28.177  1.00  0.00     0.022 A 
BRANCH  99 102
ATOM    102  S   UNL A   1      42.689  24.833  25.567  1.00  0.00     0.127 S 
ATOM    103  O   UNL A   1      41.548  25.710  25.314  1.00  0.00    -0.237 OA
ATOM    104  O   UNL A   1      43.901  25.176  24.821  1.00  0.00    -0.237 OA
ATOM    105  O   UNL A   1      42.384  23.409  25.603  1.00  0.00    -0.744 OA
ENDBRANCH  99 102
ENDBRANCH  72  95
ENDBRANCH  46  47
ENDBRANCH  39  41
ENDBRANCH  38  39
ENDBRANCH  37  38
ENDBRANCH  36  37
ENDBRANCH  35  36
ENDBRANCH  34  35
ENDBRANCH  33  34
ENDBRANCH   1  33
TORSDOF 26
ENDMDL
MODEL 2
REMARK VINA RESULT:      -7.6      9.445     18.999
REMARK SMILES CC[NH+]1CC[NH+]([C@@H]2CC(=O)N(c3ccc(C(=O)OCCOCCOCCOCCOC(=O)c4ccc(-c5c6nc(c(-c7cccc(S(=O)(=O)[O-])c7F)c7ccc([nH]7)c(-c7cccc(S(=O)(=O)[O-])c7F)c7nc(c(-c8cccc(S(=O)(=O)[O-])c8F)c8ccc5[nH]8)C=C7)C=C6)cc4)cc3)C2=O)CC1
REMARK SMILES IDX 24 1 23 2 22 3 21 4 20 5 19 6 18 7 16 8 17 9 15 10 12 11
REMARK SMILES IDX 13 12 97 13 14 14 96 15 11 16 7 17 8 18 98 19 9 20 99 21
REMARK SMILES IDX 10 22 6 23 3 24 4 25 101 26 5 28 100 29 2 31 1 32 25 33
REMARK SMILES IDX 26 34 27 35 28 36 29 37 30 38 31 39 32 40 33 41 34 42 95 43
REMARK SMILES IDX 35 44 94 45 36 46 37 47 38 48 88 49 39 50 93 51 87 52 89 53
REMARK SMILES IDX 40 54 92 55 86 56 85 57 41 59 73 60 53 61 72 62 54 63 57 64
REMARK SMILES IDX 71 65 90 66 55 67 56 68 70 70 91 71 58 72 42 73 43 74 51 75
REMARK SMILES IDX 44 76 46 77 52 78 45 79 47 80 48 81 49 82 50 83 74 84 75 85
REMARK SMILES IDX 83 86 76 87 78 88 84 89 77 90 79 91 80 92 81 93 82 94 59 95
REMARK SMILES IDX 60 96 68 97 61 98 63 99 69 100 62 101 64 102 65 103 66 104
REMARK SMILES IDX 67 105
REMARK H PARENT 3 27 6 30 89 58 57 69
REMARK Flexibility Score: inf
ROOT
ATOM      1  O   UNL A   1      51.349  26.741  38.858  1.00  0.00    -0.377 OA
ENDROOT
BRANCH   1   2
ATOM      2  C   UNL A   1      51.286  25.547  39.618  1.00  0.00     0.188 C 
BRANCH   2   3
ATOM      3  C   UNL A   1      50.676  24.293  38.957  1.00  0.00     0.188 C 
BRANCH   3   4
ATOM      4  O   UNL A   1      51.214  23.994  37.683  1.00  0.00    -0.376 OA
BRANCH   4   5
ATOM      5  C   UNL A   1      51.025  22.715  37.107  1.00  0.00     0.202 C 
BRANCH   5   6
ATOM      6  C   UNL A   1      51.221  21.433  37.929  1.00  0.00     0.261 C 
BRANCH   6   7
ATOM      7  O   UNL A   1      50.809  20.213  37.314  1.00  0.00    -0.460 OA
BRANCH   7   8
ATOM      8  C   UNL A   1      49.587  20.176  36.747  1.00  0.00     0.338 C 
ATOM      9  O   UNL A   1      49.317  20.273  35.564  1.00  0.00    -0.246 OA
BRANCH   8  10
ATOM     10  C   UNL A   1      48.633  19.762  37.802  1.00  0.00     0.060 A 
ATOM     11  C   UNL A   1      46.864  18.964  39.836  1.00  0.00     0.052 A 
ATOM     12  C   UNL A   1      48.250  18.820  40.004  1.00  0.00     0.028 A 
ATOM     13  C   UNL A   1      46.393  19.606  38.679  1.00  0.00     0.028 A 
ATOM     14  C   UNL A   1      49.128  19.187  38.977  1.00  0.00     0.018 A 
ATOM     15  C   UNL A   1      47.268  20.015  37.672  1.00  0.00     0.018 A 
BRANCH  11  16
ATOM     16  N   UNL A   1      45.954  18.366  40.745  1.00  0.00    -0.245 N 
ATOM     17  C   UNL A   1      44.890  17.782  42.768  1.00  0.00     0.285 C 
ATOM     18  C   UNL A   1      44.615  16.713  41.722  1.00  0.00     0.176 C 
ATOM     19  C   UNL A   1      45.608  18.876  41.976  1.00  0.00     0.292 C 
ATOM     20  C   UNL A   1      45.438  17.108  40.544  1.00  0.00     0.240 C 
ATOM     21  O   UNL A   1      45.833  20.000  42.413  1.00  0.00    -0.267 OA
ATOM     22  O   UNL A   1      45.629  16.339  39.612  1.00  0.00    -0.274 OA
BRANCH  17  23
ATOM     23  N   UNL A   1      45.604  17.441  44.022  1.00  0.00    -0.315 N 
ATOM     24  N   UNL A   1      45.221  14.607  44.944  1.00  0.00    -0.326 N 
ATOM     25  C   UNL A   1      44.302  15.669  45.369  1.00  0.00     0.324 C 
ATOM     26  C   UNL A   1      46.138  14.980  43.859  1.00  0.00     0.324 C 
ATOM     27  H   UNL A   1      44.585  13.922  44.533  1.00  0.00     0.348 HD
ATOM     28  C   UNL A   1      44.741  17.146  45.176  1.00  0.00     0.325 C 
ATOM     29  C   UNL A   1      46.660  16.424  43.940  1.00  0.00     0.325 C 
ATOM     30  H   UNL A   1      46.074  18.333  44.180  1.00  0.00     0.349 HD
BRANCH  24  31
ATOM     31  C   UNL A   1      45.890  13.895  46.029  1.00  0.00     0.259 C 
ATOM     32  C   UNL A   1      46.796  12.831  45.415  1.00  0.00     0.071 C 
ENDBRANCH  24  31
ENDBRANCH  17  23
ENDBRANCH  11  16
ENDBRANCH   8  10
ENDBRANCH   7   8
ENDBRANCH   6   7
ENDBRANCH   5   6
ENDBRANCH   4   5
ENDBRANCH   3   4
ENDBRANCH   2   3
ENDBRANCH   1   2
BRANCH   1  33
ATOM     33  C   UNL A   1      52.561  27.488  38.792  1.00  0.00     0.188 C 
BRANCH  33  34
ATOM     34  C   UNL A   1      52.735  28.711  37.858  1.00  0.00     0.188 C 
BRANCH  34  35
ATOM     35  O   UNL A   1      51.716  28.877  36.885  1.00  0.00    -0.376 OA
BRANCH  35  36
ATOM     36  C   UNL A   1      50.570  29.623  37.248  1.00  0.00     0.202 C 
BRANCH  36  37
ATOM     37  C   UNL A   1      49.550  29.914  36.138  1.00  0.00     0.261 C 
BRANCH  37  38
ATOM     38  O   UNL A   1      49.361  28.875  35.167  1.00  0.00    -0.460 OA
BRANCH  38  39
ATOM     39  C   UNL A   1      48.466  27.909  35.462  1.00  0.00     0.338 C 
ATOM     40  O   UNL A   1      48.646  26.932  36.172  1.00  0.00    -0.246 OA
BRANCH  39  41
ATOM     41  C   UNL A   1      47.155  28.335  34.931  1.00  0.00     0.060 A 
ATOM     42  C   UNL A   1      46.043  27.501  35.111  1.00  0.00     0.016 A 
ATOM     43  C   UNL A   1      47.025  29.559  34.272  1.00  0.00     0.016 A 
ATOM     44  C   UNL A   1      44.801  27.877  34.598  1.00  0.00     0.010 A 
ATOM     45  C   UNL A   1      45.784  29.924  33.741  1.00  0.00     0.010 A 
ATOM     46  C   UNL A   1      44.676  29.067  33.871  1.00  0.00    -0.014 A 
BRANCH  46  47
ATOM     47  C   UNL A   1      43.442  29.324  33.091  1.00  0.00     0.031 A 
ATOM     48  C   UNL A   1      42.297  30.025  33.773  1.00  0.00     0.074 A 
ATOM     49  C   UNL A   1      43.338  28.957  31.801  1.00  0.00     0.049 A 
ATOM     50  N   UNL A   1      41.113  30.323  33.309  1.00  0.00    -0.248 NA
ATOM     51  C   UNL A   1      42.522  30.447  35.167  1.00  0.00     0.031 C 
ATOM     52  C   UNL A   1      44.376  28.276  31.030  1.00  0.00     0.029 A 
ATOM     53  N   UNL A   1      42.290  29.084  30.922  1.00  0.00    -0.354 N 
ATOM     54  C   UNL A   1      40.444  30.949  34.356  1.00  0.00     0.074 A 
ATOM     55  C   UNL A   1      41.346  30.966  35.486  1.00  0.00     0.031 C 
ATOM     56  C   UNL A   1      43.899  28.010  29.801  1.00  0.00     0.029 A 
ATOM     57  C   UNL A   1      42.517  28.477  29.709  1.00  0.00     0.049 A 
ATOM     58  H   UNL A   1      41.458  29.562  31.140  1.00  0.00     0.167 HD
ATOM     59  C   UNL A   1      39.199  31.479  34.372  1.00  0.00     0.034 A 
ATOM     60  C   UNL A   1      41.690  28.292  28.660  1.00  0.00     0.034 A 
ATOM     61  C   UNL A   1      38.303  31.463  33.247  1.00  0.00     0.049 A 
ATOM     62  C   UNL A   1      40.292  28.854  28.716  1.00  0.00     0.074 A 
ATOM     63  C   UNL A   1      37.028  31.991  33.157  1.00  0.00     0.029 A 
ATOM     64  N   UNL A   1      38.581  30.877  32.022  1.00  0.00    -0.354 N 
ATOM     65  N   UNL A   1      39.708  29.530  29.676  1.00  0.00    -0.248 NA
ATOM     66  C   UNL A   1      39.448  28.661  27.526  1.00  0.00     0.031 C 
ATOM     67  C   UNL A   1      36.523  31.697  31.886  1.00  0.00     0.029 A 
ATOM     68  C   UNL A   1      37.500  31.025  31.171  1.00  0.00     0.049 A 
ATOM     69  H   UNL A   1      39.425  30.423  31.792  1.00  0.00     0.167 HD
ATOM     70  C   UNL A   1      38.449  29.872  29.194  1.00  0.00     0.074 A 
ATOM     71  C   UNL A   1      38.363  29.351  27.846  1.00  0.00     0.031 C 
ATOM     72  C   UNL A   1      37.447  30.546  29.813  1.00  0.00     0.034 A 
BRANCH  59  73
ATOM     73  C   UNL A   1      38.740  32.146  35.641  1.00  0.00     0.023 A 
ATOM     74  C   UNL A   1      38.859  33.545  35.776  1.00  0.00     0.012 A 
ATOM     75  C   UNL A   1      38.143  31.401  36.676  1.00  0.00     0.148 A 
ATOM     76  C   UNL A   1      38.419  34.187  36.933  1.00  0.00     0.002 A 
ATOM     77  C   UNL A   1      37.662  32.053  37.805  1.00  0.00     0.091 A 
ATOM     78  F   UNL A   1      38.057  30.070  36.537  1.00  0.00    -0.205 F 
ATOM     79  C   UNL A   1      37.810  33.444  37.941  1.00  0.00     0.022 A 
BRANCH  77  80
ATOM     80  S   UNL A   1      36.794  31.199  39.125  1.00  0.00     0.127 S 
ATOM     81  O   UNL A   1      36.677  29.849  38.576  1.00  0.00    -0.237 OA
ATOM     82  O   UNL A   1      37.733  31.325  40.239  1.00  0.00    -0.237 OA
ATOM     83  O   UNL A   1      35.534  31.907  39.305  1.00  0.00    -0.744 OA
ENDBRANCH  77  80
ENDBRANCH  59  73
BRANCH  60  84
ATOM     84  C   UNL A   1      42.156  27.537  27.461  1.00  0.00     0.023 A 
ATOM     85  C   UNL A   1      42.673  28.229  26.349  1.00  0.00     0.012 A 
ATOM     86  C   UNL A   1      42.074  26.131  27.418  1.00  0.00     0.148 A 
ATOM     87  C   UNL A   1      43.060  27.537  25.199  1.00  0.00     0.002 A 
ATOM     88  C   UNL A   1      42.519  25.444  26.295  1.00  0.00     0.091 A 
ATOM     89  F   UNL A   1      41.563  25.492  28.480  1.00  0.00    -0.205 F 
ATOM     90  C   UNL A   1      42.992  26.146  25.175  1.00  0.00     0.022 A 
BRANCH  88  91
ATOM     91  S   UNL A   1      42.587  23.651  26.228  1.00  0.00     0.127 S 
ATOM     92  O   UNL A   1      43.477  23.345  27.346  1.00  0.00    -0.237 OA
ATOM     93  O   UNL A   1      41.185  23.290  26.438  1.00  0.00    -0.237 OA
ATOM     94  O   UNL A   1      43.099  23.326  24.904  1.00  0.00    -0.744 OA
ENDBRANCH  88  91
ENDBRANCH  60  84
BRANCH  72  95
ATOM     95  C   UNL A   1      36.187  30.810  29.028  1.00  0.00     0.023 A 
ATOM     96  C   UNL A   1      35.490  29.744  28.427  1.00  0.00     0.012 A 
ATOM     97  C   UNL A   1      35.660  32.115  28.941  1.00  0.00     0.148 A 
ATOM     98  C   UNL A   1      34.312  29.977  27.717  1.00  0.00     0.002 A 
ATOM     99  C   UNL A   1      34.459  32.332  28.280  1.00  0.00     0.091 A 
ATOM    100  F   UNL A   1      36.345  33.120  29.507  1.00  0.00    -0.205 F 
ATOM    101  C   UNL A   1      33.791  31.267  27.653  1.00  0.00     0.022 A 
BRANCH  99 102
ATOM    102  S   UNL A   1      33.661  33.941  28.229  1.00  0.00     0.127 S 
ATOM    103  O   UNL A   1      34.616  34.722  27.445  1.00  0.00    -0.237 OA
ATOM    104  O   UNL A   1      32.406  33.641  27.538  1.00  0.00    -0.237 OA
ATOM    105  O   UNL A   1      33.504  34.358  29.615  1.00  0.00    -0.744 OA
ENDBRANCH  99 102
ENDBRANCH  72  95
ENDBRANCH  46  47
ENDBRANCH  39  41
ENDBRANCH  38  39
ENDBRANCH  37  38
ENDBRANCH  36  37
ENDBRANCH  35  36
ENDBRANCH  34  35
ENDBRANCH  33  34
ENDBRANCH   1  33
TORSDOF 26
ENDMDL
MODEL 3
REMARK VINA RESULT:      -7.5      5.450     13.594
REMARK SMILES CC[NH+]1CC[NH+]([C@@H]2CC(=O)N(c3ccc(C(=O)OCCOCCOCCOCCOC(=O)c4ccc(-c5c6nc(c(-c7cccc(S(=O)(=O)[O-])c7F)c7ccc([nH]7)c(-c7cccc(S(=O)(=O)[O-])c7F)c7nc(c(-c8cccc(S(=O)(=O)[O-])c8F)c8ccc5[nH]8)C=C7)C=C6)cc4)cc3)C2=O)CC1
REMARK SMILES IDX 24 1 23 2 22 3 21 4 20 5 19 6 18 7 16 8 17 9 15 10 12 11
REMARK SMILES IDX 13 12 97 13 14 14 96 15 11 16 7 17 8 18 98 19 9 20 99 21
REMARK SMILES IDX 10 22 6 23 3 24 4 25 101 26 5 28 100 29 2 31 1 32 25 33
REMARK SMILES IDX 26 34 27 35 28 36 29 37 30 38 31 39 32 40 33 41 34 42 95 43
REMARK SMILES IDX 35 44 94 45 36 46 37 47 38 48 88 49 39 50 93 51 87 52 89 53
REMARK SMILES IDX 40 54 92 55 86 56 85 57 41 59 73 60 53 61 72 62 54 63 57 64
REMARK SMILES IDX 71 65 90 66 55 67 56 68 70 70 91 71 58 72 42 73 43 74 51 75
REMARK SMILES IDX 44 76 46 77 52 78 45 79 47 80 48 81 49 82 50 83 74 84 75 85
REMARK SMILES IDX 83 86 76 87 78 88 84 89 77 90 79 91 80 92 81 93 82 94 59 95
REMARK SMILES IDX 60 96 68 97 61 98 63 99 69 100 62 101 64 102 65 103 66 104
REMARK SMILES IDX 67 105
REMARK H PARENT 3 27 6 30 89 58 57 69
REMARK Flexibility Score: inf
ROOT
ATOM      1  O   UNL A   1      39.685  25.722  27.694  1.00  0.00    -0.377 OA
ENDROOT
BRANCH   1   2
ATOM      2  C   UNL A   1      39.814  26.422  28.920  1.00  0.00     0.188 C 
BRANCH   2   3
ATOM      3  C   UNL A   1      39.355  27.894  28.970  1.00  0.00     0.188 C 
BRANCH   3   4
ATOM      4  O   UNL A   1      39.688  28.560  30.174  1.00  0.00    -0.376 OA
BRANCH   4   5
ATOM      5  C   UNL A   1      39.423  29.942  30.326  1.00  0.00     0.202 C 
BRANCH   5   6
ATOM      6  C   UNL A   1      38.510  30.692  29.346  1.00  0.00     0.261 C 
BRANCH   6   7
ATOM      7  O   UNL A   1      37.112  30.671  29.635  1.00  0.00    -0.460 OA
BRANCH   7   8
ATOM      8  C   UNL A   1      36.331  31.588  29.029  1.00  0.00     0.338 C 
ATOM      9  O   UNL A   1      36.502  32.793  28.986  1.00  0.00    -0.246 OA
BRANCH   8  10
ATOM     10  C   UNL A   1      35.340  30.843  28.218  1.00  0.00     0.060 A 
ATOM     11  C   UNL A   1      33.427  29.474  26.681  1.00  0.00     0.052 A 
ATOM     12  C   UNL A   1      33.182  30.786  27.113  1.00  0.00     0.028 A 
ATOM     13  C   UNL A   1      34.683  28.906  26.945  1.00  0.00     0.028 A 
ATOM     14  C   UNL A   1      34.121  31.455  27.907  1.00  0.00     0.018 A 
ATOM     15  C   UNL A   1      35.641  29.585  27.697  1.00  0.00     0.018 A 
BRANCH  11  16
ATOM     16  N   UNL A   1      32.393  28.693  26.102  1.00  0.00    -0.245 N 
ATOM     17  C   UNL A   1      30.839  26.948  25.776  1.00  0.00     0.285 C 
ATOM     18  C   UNL A   1      31.138  27.617  24.445  1.00  0.00     0.176 C 
ATOM     19  C   UNL A   1      31.562  27.837  26.790  1.00  0.00     0.292 C 
ATOM     20  C   UNL A   1      32.220  28.598  24.742  1.00  0.00     0.240 C 
ATOM     21  O   UNL A   1      31.412  27.751  28.004  1.00  0.00    -0.267 OA
ATOM     22  O   UNL A   1      32.855  29.140  23.847  1.00  0.00    -0.274 OA
BRANCH  17  23
ATOM     23  N   UNL A   1      31.139  25.510  25.980  1.00  0.00    -0.315 N 
ATOM     24  N   UNL A   1      33.081  24.350  24.002  1.00  0.00    -0.326 N 
ATOM     25  C   UNL A   1      31.638  24.348  23.733  1.00  0.00     0.324 C 
ATOM     26  C   UNL A   1      33.497  25.178  25.142  1.00  0.00     0.324 C 
ATOM     27  H   UNL A   1      33.454  24.823  23.178  1.00  0.00     0.348 HD
ATOM     28  C   UNL A   1      30.667  24.613  24.914  1.00  0.00     0.325 C 
ATOM     29  C   UNL A   1      32.521  25.154  26.330  1.00  0.00     0.325 C 
ATOM     30  H   UNL A   1      30.579  25.352  26.818  1.00  0.00     0.349 HD
BRANCH  24  31
ATOM     31  C   UNL A   1      33.714  23.035  23.999  1.00  0.00     0.259 C 
ATOM     32  C   UNL A   1      35.015  23.132  23.207  1.00  0.00     0.071 C 
ENDBRANCH  24  31
ENDBRANCH  17  23
ENDBRANCH  11  16
ENDBRANCH   8  10
ENDBRANCH   7   8
ENDBRANCH   6   7
ENDBRANCH   5   6
ENDBRANCH   4   5
ENDBRANCH   3   4
ENDBRANCH   2   3
ENDBRANCH   1   2
BRANCH   1  33
ATOM     33  C   UNL A   1      40.740  24.882  27.233  1.00  0.00     0.188 C 
BRANCH  33  34
ATOM     34  C   UNL A   1      41.676  24.115  28.200  1.00  0.00     0.188 C 
BRANCH  34  35
ATOM     35  O   UNL A   1      42.676  23.328  27.574  1.00  0.00    -0.376 OA
BRANCH  35  36
ATOM     36  C   UNL A   1      44.030  23.656  27.824  1.00  0.00     0.202 C 
BRANCH  36  37
ATOM     37  C   UNL A   1      44.568  24.936  27.171  1.00  0.00     0.261 C 
BRANCH  37  38
ATOM     38  O   UNL A   1      45.545  25.667  27.924  1.00  0.00    -0.460 OA
BRANCH  38  39
ATOM     39  C   UNL A   1      46.145  26.709  27.312  1.00  0.00     0.338 C 
ATOM     40  O   UNL A   1      46.696  26.702  26.221  1.00  0.00    -0.246 OA
BRANCH  39  41
ATOM     41  C   UNL A   1      45.854  27.922  28.102  1.00  0.00     0.060 A 
ATOM     42  C   UNL A   1      44.548  28.427  28.119  1.00  0.00     0.016 A 
ATOM     43  C   UNL A   1      46.866  28.547  28.834  1.00  0.00     0.016 A 
ATOM     44  C   UNL A   1      44.258  29.584  28.844  1.00  0.00     0.010 A 
ATOM     45  C   UNL A   1      46.578  29.716  29.543  1.00  0.00     0.010 A 
ATOM     46  C   UNL A   1      45.281  30.259  29.521  1.00  0.00    -0.014 A 
BRANCH  46  47
ATOM     47  C   UNL A   1      45.036  31.624  30.045  1.00  0.00     0.031 A 
ATOM     48  C   UNL A   1      45.791  32.773  29.431  1.00  0.00     0.074 A 
ATOM     49  C   UNL A   1      44.155  31.848  31.036  1.00  0.00     0.049 A 
ATOM     50  N   UNL A   1      45.772  34.041  29.745  1.00  0.00    -0.248 NA
ATOM     51  C   UNL A   1      46.689  32.443  28.309  1.00  0.00     0.031 C 
ATOM     52  C   UNL A   1      43.360  30.821  31.709  1.00  0.00     0.029 A 
ATOM     53  N   UNL A   1      43.803  33.016  31.667  1.00  0.00    -0.354 N 
ATOM     54  C   UNL A   1      46.665  34.658  28.877  1.00  0.00     0.074 A 
ATOM     55  C   UNL A   1      47.227  33.623  28.038  1.00  0.00     0.031 C 
ATOM     56  C   UNL A   1      42.642  31.400  32.686  1.00  0.00     0.029 A 
ATOM     57  C   UNL A   1      42.944  32.830  32.725  1.00  0.00     0.049 A 
ATOM     58  H   UNL A   1      44.134  33.900  31.389  1.00  0.00     0.167 HD
ATOM     59  C   UNL A   1      46.977  35.971  28.772  1.00  0.00     0.034 A 
ATOM     60  C   UNL A   1      42.484  33.709  33.638  1.00  0.00     0.034 A 
ATOM     61  C   UNL A   1      46.416  37.001  29.604  1.00  0.00     0.049 A 
ATOM     62  C   UNL A   1      42.878  35.161  33.527  1.00  0.00     0.074 A 
ATOM     63  C   UNL A   1      46.654  38.363  29.563  1.00  0.00     0.029 A 
ATOM     64  N   UNL A   1      45.519  36.782  30.637  1.00  0.00    -0.354 N 
ATOM     65  N   UNL A   1      43.646  35.745  32.640  1.00  0.00    -0.248 NA
ATOM     66  C   UNL A   1      42.312  36.083  34.524  1.00  0.00     0.031 C 
ATOM     67  C   UNL A   1      45.922  38.964  30.593  1.00  0.00     0.029 A 
ATOM     68  C   UNL A   1      45.196  37.981  31.246  1.00  0.00     0.049 A 
ATOM     69  H   UNL A   1      45.163  35.901  30.899  1.00  0.00     0.167 HD
ATOM     70  C   UNL A   1      43.625  37.102  32.948  1.00  0.00     0.074 A 
ATOM     71  C   UNL A   1      42.748  37.256  34.089  1.00  0.00     0.031 C 
ATOM     72  C   UNL A   1      44.281  38.128  32.349  1.00  0.00     0.034 A 
BRANCH  59  73
ATOM     73  C   UNL A   1      47.953  36.373  27.698  1.00  0.00     0.023 A 
ATOM     74  C   UNL A   1      47.474  36.755  26.427  1.00  0.00     0.012 A 
ATOM     75  C   UNL A   1      49.336  36.427  27.960  1.00  0.00     0.148 A 
ATOM     76  C   UNL A   1      48.358  37.154  25.426  1.00  0.00     0.002 A 
ATOM     77  C   UNL A   1      50.206  36.872  26.972  1.00  0.00     0.091 A 
ATOM     78  F   UNL A   1      49.772  36.042  29.167  1.00  0.00    -0.205 F 
ATOM     79  C   UNL A   1      49.721  37.224  25.701  1.00  0.00     0.022 A 
BRANCH  77  80
ATOM     80  S   UNL A   1      51.970  37.073  27.249  1.00  0.00     0.127 S 
ATOM     81  O   UNL A   1      52.375  35.706  27.571  1.00  0.00    -0.237 OA
ATOM     82  O   UNL A   1      52.429  37.554  25.946  1.00  0.00    -0.237 OA
ATOM     83  O   UNL A   1      52.102  38.033  28.336  1.00  0.00    -0.744 OA
ENDBRANCH  77  80
ENDBRANCH  59  73
BRANCH  60  84
ATOM     84  C   UNL A   1      41.598  33.247  34.745  1.00  0.00     0.023 A 
ATOM     85  C   UNL A   1      42.151  32.888  35.989  1.00  0.00     0.012 A 
ATOM     86  C   UNL A   1      40.205  33.149  34.560  1.00  0.00     0.148 A 
ATOM     87  C   UNL A   1      41.338  32.400  37.014  1.00  0.00     0.002 A 
ATOM     88  C   UNL A   1      39.394  32.721  35.604  1.00  0.00     0.091 A 
ATOM     89  F   UNL A   1      39.698  33.478  33.362  1.00  0.00    -0.205 F 
ATOM     90  C   UNL A   1      39.961  32.325  36.825  1.00  0.00     0.022 A 
BRANCH  88  91
ATOM     91  S   UNL A   1      37.602  32.716  35.491  1.00  0.00     0.127 S 
ATOM     92  O   UNL A   1      37.321  34.109  35.153  1.00  0.00    -0.237 OA
ATOM     93  O   UNL A   1      37.373  31.760  34.408  1.00  0.00    -0.237 OA
ATOM     94  O   UNL A   1      37.127  32.274  36.795  1.00  0.00    -0.744 OA
ENDBRANCH  88  91
ENDBRANCH  60  84
BRANCH  72  95
ATOM     95  C   UNL A   1      44.040  39.519  32.877  1.00  0.00     0.023 A 
ATOM     96  C   UNL A   1      43.144  40.382  32.217  1.00  0.00     0.012 A 
ATOM     97  C   UNL A   1      44.659  39.948  34.069  1.00  0.00     0.148 A 
ATOM     98  C   UNL A   1      42.898  41.664  32.711  1.00  0.00     0.002 A 
ATOM     99  C   UNL A   1      44.368  41.205  34.585  1.00  0.00     0.091 A 
ATOM    100  F   UNL A   1      45.520  39.119  34.677  1.00  0.00    -0.205 F 
ATOM    101  C   UNL A   1      43.500  42.070  33.899  1.00  0.00     0.022 A 
BRANCH  99 102
ATOM    102  S   UNL A   1      45.020  41.777  36.158  1.00  0.00     0.127 S 
ATOM    103  O   UNL A   1      46.413  42.059  35.819  1.00  0.00    -0.237 OA
ATOM    104  O   UNL A   1      44.202  42.964  36.417  1.00  0.00    -0.237 OA
ATOM    105  O   UNL A   1      44.817  40.685  37.100  1.00  0.00    -0.744 OA
ENDBRANCH  99 102
ENDBRANCH  72  95
ENDBRANCH  46  47
ENDBRANCH  39  41
ENDBRANCH  38  39
ENDBRANCH  37  38
ENDBRANCH  36  37
ENDBRANCH  35  36
ENDBRANCH  34  35
ENDBRANCH  33  34
ENDBRANCH   1  33
TORSDOF 26
ENDMDL
