MODEL 1
REMARK VINA RESULT:      -6.7      0.000      0.000
REMARK SMILES CC[C@H]1CCCC[N@H+]1[C@@H]1CC(=O)N(c2nc(CC(=O)OCCOCCOCCOCCOC(=O)c3ccc(-c4c5nc(c(-c6cccc(S(=O)(=O)[O-])c6F)c6ccc([nH]6)c(-c6cccc(S(=O)(=O)[O-])c6F)c6nc(c(-c7cccc(S(=O)(=O)[O-])c7F)c7ccc4[nH]7)C=C6)C=C5)cc3)cs2)C1=O
REMARK SMILES IDX 25 1 24 2 23 3 22 4 21 5 20 6 18 7 19 8 17 9 16 10 14 11
REMARK SMILES IDX 15 12 99 13 98 14 13 15 9 16 10 17 100 18 11 19 101 20 12 21
REMARK SMILES IDX 8 22 3 23 4 24 5 25 7 26 6 28 2 29 1 30 26 31 27 32 28 33
REMARK SMILES IDX 29 34 30 35 31 36 32 37 33 38 34 39 35 40 36 41 97 42 37 43
REMARK SMILES IDX 96 44 38 45 39 46 40 47 90 48 41 49 95 50 89 51 91 52 42 53
REMARK SMILES IDX 94 54 88 55 87 56 43 58 75 59 55 60 74 61 56 62 59 63 73 64
REMARK SMILES IDX 92 65 57 66 58 67 72 69 93 70 60 71 44 72 45 73 53 74 46 75
REMARK SMILES IDX 48 76 54 77 47 78 49 79 50 80 51 81 52 82 76 83 77 84 85 85
REMARK SMILES IDX 78 86 80 87 86 88 79 89 81 90 82 91 83 92 84 93 61 94 62 95
REMARK SMILES IDX 70 96 63 97 65 98 71 99 64 100 66 101 67 102 68 103 69 104
REMARK H PARENT 8 27 91 57 59 68
REMARK Flexibility Score: inf
ROOT
ATOM      1  C   UNL A   1      48.444  25.280  26.688  1.00  0.00     0.188 C 
ENDROOT
BRANCH   1   2
ATOM      2  C   UNL A   1      47.714  26.628  26.578  1.00  0.00     0.188 C 
BRANCH   2   3
ATOM      3  O   UNL A   1      48.414  27.847  26.323  1.00  0.00    -0.376 OA
BRANCH   3   4
ATOM      4  C   UNL A   1      47.812  29.088  26.653  1.00  0.00     0.202 C 
BRANCH   4   5
ATOM      5  C   UNL A   1      46.398  29.302  26.092  1.00  0.00     0.261 C 
BRANCH   5   6
ATOM      6  O   UNL A   1      46.131  30.603  25.528  1.00  0.00    -0.463 OA
BRANCH   6   7
ATOM      7  C   UNL A   1      45.377  31.450  26.274  1.00  0.00     0.311 C 
ATOM      8  O   UNL A   1      44.150  31.402  26.337  1.00  0.00    -0.252 OA
BRANCH   7   9
ATOM      9  C   UNL A   1      46.146  32.546  26.983  1.00  0.00     0.179 C 
BRANCH   9  10
ATOM     10  C   UNL A   1      45.422  33.794  27.381  1.00  0.00     0.065 A 
ATOM     11  C   UNL A   1      44.357  35.044  28.882  1.00  0.00     0.199 A 
ATOM     12  N   UNL A   1      44.898  33.866  28.660  1.00  0.00    -0.224 NA
ATOM     13  S   UNL A   1      44.393  36.129  27.557  1.00  0.00    -0.104 S 
ATOM     14  C   UNL A   1      45.347  34.991  26.685  1.00  0.00     0.093 A 
BRANCH  11  15
ATOM     15  N   UNL A   1      44.074  35.556  30.120  1.00  0.00    -0.219 N 
ATOM     16  C   UNL A   1      44.162  36.628  32.201  1.00  0.00     0.285 C 
ATOM     17  C   UNL A   1      42.997  35.646  32.166  1.00  0.00     0.176 C 
ATOM     18  C   UNL A   1      44.872  36.395  30.852  1.00  0.00     0.294 C 
ATOM     19  C   UNL A   1      43.023  35.032  30.810  1.00  0.00     0.242 C 
ATOM     20  O   UNL A   1      45.946  36.879  30.520  1.00  0.00    -0.267 OA
ATOM     21  O   UNL A   1      42.284  34.102  30.508  1.00  0.00    -0.274 OA
BRANCH  16  22
ATOM     22  N   UNL A   1      45.078  36.535  33.360  1.00  0.00    -0.322 N 
ATOM     23  C   UNL A   1      45.257  37.767  34.164  1.00  0.00     0.184 C 
ATOM     24  C   UNL A   1      46.515  37.603  35.052  1.00  0.00     0.065 C 
ATOM     25  C   UNL A   1      46.447  36.352  35.922  1.00  0.00     0.012 C 
ATOM     26  C   UNL A   1      45.003  35.299  34.141  1.00  0.00     0.263 C 
ATOM     27  H   UNL A   1      45.973  36.452  32.880  1.00  0.00     0.349 HD
ATOM     28  C   UNL A   1      46.229  35.132  35.043  1.00  0.00     0.062 C 
BRANCH  23  29
ATOM     29  C   UNL A   1      44.060  38.196  35.057  1.00  0.00     0.061 C 
ATOM     30  C   UNL A   1      44.447  39.059  36.253  1.00  0.00     0.010 C 
ENDBRANCH  23  29
ENDBRANCH  16  22
ENDBRANCH  11  15
ENDBRANCH   9  10
ENDBRANCH   7   9
ENDBRANCH   6   7
ENDBRANCH   5   6
ENDBRANCH   4   5
ENDBRANCH   3   4
ENDBRANCH   2   3
ENDBRANCH   1   2
BRANCH   1  31
ATOM     31  O   UNL A   1      48.281  24.638  27.934  1.00  0.00    -0.377 OA
BRANCH  31  32
ATOM     32  C   UNL A   1      47.980  25.483  29.026  1.00  0.00     0.188 C 
BRANCH  32  33
ATOM     33  C   UNL A   1      49.216  25.900  29.826  1.00  0.00     0.188 C 
BRANCH  33  34
ATOM     34  O   UNL A   1      49.061  27.186  30.438  1.00  0.00    -0.376 OA
BRANCH  34  35
ATOM     35  C   UNL A   1      49.965  27.481  31.500  1.00  0.00     0.202 C 
BRANCH  35  36
ATOM     36  C   UNL A   1      50.446  28.940  31.546  1.00  0.00     0.261 C 
BRANCH  36  37
ATOM     37  O   UNL A   1      50.523  29.543  32.847  1.00  0.00    -0.460 OA
BRANCH  37  38
ATOM     38  C   UNL A   1      49.708  29.084  33.818  1.00  0.00     0.338 C 
ATOM     39  O   UNL A   1      50.039  28.564  34.871  1.00  0.00    -0.246 OA
BRANCH  38  40
ATOM     40  C   UNL A   1      48.329  29.504  33.495  1.00  0.00     0.060 A 
ATOM     41  C   UNL A   1      47.268  28.660  33.855  1.00  0.00     0.016 A 
ATOM     42  C   UNL A   1      48.082  30.717  32.848  1.00  0.00     0.016 A 
ATOM     43  C   UNL A   1      45.958  29.007  33.526  1.00  0.00     0.010 A 
ATOM     44  C   UNL A   1      46.775  31.049  32.494  1.00  0.00     0.010 A 
ATOM     45  C   UNL A   1      45.713  30.177  32.796  1.00  0.00    -0.014 A 
BRANCH  45  46
ATOM     46  C   UNL A   1      44.407  30.371  32.125  1.00  0.00     0.031 A 
ATOM     47  C   UNL A   1      43.384  31.223  32.825  1.00  0.00     0.074 A 
ATOM     48  C   UNL A   1      44.115  29.775  30.956  1.00  0.00     0.049 A 
ATOM     49  N   UNL A   1      42.149  31.483  32.490  1.00  0.00    -0.248 NA
ATOM     50  C   UNL A   1      43.815  31.863  34.081  1.00  0.00     0.031 C 
ATOM     51  C   UNL A   1      45.025  28.931  30.184  1.00  0.00     0.029 A 
ATOM     52  N   UNL A   1      42.949  29.768  30.232  1.00  0.00    -0.354 N 
ATOM     53  C   UNL A   1      41.648  32.291  33.503  1.00  0.00     0.074 A 
ATOM     54  C   UNL A   1      42.708  32.475  34.469  1.00  0.00     0.031 C 
ATOM     55  C   UNL A   1      44.368  28.456  29.110  1.00  0.00     0.029 A 
ATOM     56  C   UNL A   1      42.989  28.943  29.134  1.00  0.00     0.049 A 
ATOM     57  H   UNL A   1      42.159  30.302  30.477  1.00  0.00     0.167 HD
ATOM     58  C   UNL A   1      40.418  32.842  33.618  1.00  0.00     0.034 A 
ATOM     59  C   UNL A   1      42.015  28.606  28.265  1.00  0.00     0.034 A 
ATOM     60  C   UNL A   1      39.367  32.659  32.658  1.00  0.00     0.049 A 
ATOM     61  C   UNL A   1      40.642  29.210  28.426  1.00  0.00     0.074 A 
ATOM     62  C   UNL A   1      38.092  33.196  32.666  1.00  0.00     0.029 A 
ATOM     63  N   UNL A   1      39.463  31.866  31.525  1.00  0.00    -0.354 N 
ATOM     64  N   UNL A   1      40.217  30.069  29.322  1.00  0.00    -0.248 NA
ATOM     65  C   UNL A   1      39.621  28.824  27.440  1.00  0.00     0.031 C 
ATOM     66  C   UNL A   1      37.411  32.712  31.544  1.00  0.00     0.029 A 
ATOM     67  C   UNL A   1      38.270  31.893  30.827  1.00  0.00     0.049 A 
ATOM     68  H   UNL A   1      40.264  31.359  31.258  1.00  0.00     0.167 HD
ATOM     69  C   UNL A   1      38.898  30.359  28.982  1.00  0.00     0.074 A 
ATOM     70  C   UNL A   1      38.597  29.590  27.792  1.00  0.00     0.031 C 
ATOM     71  C   UNL A   1      38.012  31.175  29.605  1.00  0.00     0.034 A 
BRANCH  58  72
ATOM     72  C   UNL A   1      40.158  33.711  34.818  1.00  0.00     0.023 A 
ATOM     73  C   UNL A   1      40.318  35.107  34.710  1.00  0.00     0.012 A 
ATOM     74  C   UNL A   1      39.735  33.153  36.039  1.00  0.00     0.148 A 
ATOM     75  C   UNL A   1      40.092  35.934  35.809  1.00  0.00     0.002 A 
ATOM     76  C   UNL A   1      39.471  33.988  37.118  1.00  0.00     0.091 A 
ATOM     77  F   UNL A   1      39.619  31.821  36.128  1.00  0.00    -0.205 F 
ATOM     78  C   UNL A   1      39.659  35.375  37.009  1.00  0.00     0.022 A 
BRANCH  76  79
ATOM     79  S   UNL A   1      38.844  33.368  38.683  1.00  0.00     0.127 S 
ATOM     80  O   UNL A   1      39.895  32.428  39.071  1.00  0.00    -0.237 OA
ATOM     81  O   UNL A   1      38.784  34.584  39.496  1.00  0.00    -0.237 OA
ATOM     82  O   UNL A   1      37.548  32.774  38.388  1.00  0.00    -0.744 OA
ENDBRANCH  76  79
ENDBRANCH  58  72
BRANCH  59  83
ATOM     83  C   UNL A   1      42.308  27.677  27.135  1.00  0.00     0.023 A 
ATOM     84  C   UNL A   1      42.711  28.205  25.893  1.00  0.00     0.012 A 
ATOM     85  C   UNL A   1      42.202  26.280  27.285  1.00  0.00     0.148 A 
ATOM     86  C   UNL A   1      42.976  27.362  24.813  1.00  0.00     0.002 A 
ATOM     87  C   UNL A   1      42.515  25.443  26.220  1.00  0.00     0.091 A 
ATOM     88  F   UNL A   1      41.798  25.797  28.468  1.00  0.00    -0.205 F 
ATOM     89  C   UNL A   1      42.887  25.982  24.979  1.00  0.00     0.022 A 
BRANCH  87  90
ATOM     90  S   UNL A   1      42.540  23.653  26.373  1.00  0.00     0.127 S 
ATOM     91  O   UNL A   1      41.124  23.349  26.569  1.00  0.00    -0.237 OA
ATOM     92  O   UNL A   1      43.086  23.246  25.079  1.00  0.00    -0.237 OA
ATOM     93  O   UNL A   1      43.409  23.367  27.508  1.00  0.00    -0.744 OA
ENDBRANCH  87  90
ENDBRANCH  59  83
BRANCH  71  94
ATOM     94  C   UNL A   1      36.644  31.334  28.995  1.00  0.00     0.023 A 
ATOM     95  C   UNL A   1      35.837  30.200  28.780  1.00  0.00     0.012 A 
ATOM     96  C   UNL A   1      36.121  32.618  28.740  1.00  0.00     0.148 A 
ATOM     97  C   UNL A   1      34.535  30.341  28.300  1.00  0.00     0.002 A 
ATOM     98  C   UNL A   1      34.807  32.752  28.307  1.00  0.00     0.091 A 
ATOM     99  F   UNL A   1      36.912  33.682  28.936  1.00  0.00    -0.205 F 
ATOM    100  C   UNL A   1      34.016  31.615  28.077  1.00  0.00     0.022 A 
BRANCH  98 101
ATOM    101  S   UNL A   1      34.025  34.356  28.092  1.00  0.00     0.127 S 
ATOM    102  O   UNL A   1      34.730  34.877  26.922  1.00  0.00    -0.237 OA
ATOM    103  O   UNL A   1      32.629  33.993  27.852  1.00  0.00    -0.237 OA
ATOM    104  O   UNL A   1      34.254  35.082  29.334  1.00  0.00    -0.744 OA
ENDBRANCH  98 101
ENDBRANCH  71  94
ENDBRANCH  45  46
ENDBRANCH  38  40
ENDBRANCH  37  38
ENDBRANCH  36  37
ENDBRANCH  35  36
ENDBRANCH  34  35
ENDBRANCH  33  34
ENDBRANCH  32  33
ENDBRANCH  31  32
ENDBRANCH   1  31
TORSDOF 27
ENDMDL
MODEL 2
REMARK VINA RESULT:      -6.5      5.047     13.771
REMARK SMILES CC[C@H]1CCCC[N@H+]1[C@@H]1CC(=O)N(c2nc(CC(=O)OCCOCCOCCOCCOC(=O)c3ccc(-c4c5nc(c(-c6cccc(S(=O)(=O)[O-])c6F)c6ccc([nH]6)c(-c6cccc(S(=O)(=O)[O-])c6F)c6nc(c(-c7cccc(S(=O)(=O)[O-])c7F)c7ccc4[nH]7)C=C6)C=C5)cc3)cs2)C1=O
REMARK SMILES IDX 25 1 24 2 23 3 22 4 21 5 20 6 18 7 19 8 17 9 16 10 14 11
REMARK SMILES IDX 15 12 99 13 98 14 13 15 9 16 10 17 100 18 11 19 101 20 12 21
REMARK SMILES IDX 8 22 3 23 4 24 5 25 7 26 6 28 2 29 1 30 26 31 27 32 28 33
REMARK SMILES IDX 29 34 30 35 31 36 32 37 33 38 34 39 35 40 36 41 97 42 37 43
REMARK SMILES IDX 96 44 38 45 39 46 40 47 90 48 41 49 95 50 89 51 91 52 42 53
REMARK SMILES IDX 94 54 88 55 87 56 43 58 75 59 55 60 74 61 56 62 59 63 73 64
REMARK SMILES IDX 92 65 57 66 58 67 72 69 93 70 60 71 44 72 45 73 53 74 46 75
REMARK SMILES IDX 48 76 54 77 47 78 49 79 50 80 51 81 52 82 76 83 77 84 85 85
REMARK SMILES IDX 78 86 80 87 86 88 79 89 81 90 82 91 83 92 84 93 61 94 62 95
REMARK SMILES IDX 70 96 63 97 65 98 71 99 64 100 66 101 67 102 68 103 69 104
REMARK H PARENT 8 27 91 57 59 68
REMARK Flexibility Score: inf
ROOT
ATOM      1  C   UNL A   1      40.303  32.016  31.002  1.00  0.00     0.188 C 
ENDROOT
BRANCH   1   2
ATOM      2  C   UNL A   1      38.950  32.055  31.730  1.00  0.00     0.188 C 
BRANCH   2   3
ATOM      3  O   UNL A   1      37.974  33.063  31.454  1.00  0.00    -0.376 OA
BRANCH   3   4
ATOM      4  C   UNL A   1      36.907  32.784  30.564  1.00  0.00     0.202 C 
BRANCH   4   5
ATOM      5  C   UNL A   1      37.314  32.142  29.229  1.00  0.00     0.261 C 
BRANCH   5   6
ATOM      6  O   UNL A   1      36.330  31.287  28.611  1.00  0.00    -0.463 OA
BRANCH   6   7
ATOM      7  C   UNL A   1      35.311  31.901  27.958  1.00  0.00     0.311 C 
ATOM      8  O   UNL A   1      35.422  32.971  27.364  1.00  0.00    -0.252 OA
BRANCH   7   9
ATOM      9  C   UNL A   1      33.964  31.216  28.073  1.00  0.00     0.179 C 
BRANCH   9  10
ATOM     10  C   UNL A   1      33.560  30.236  27.016  1.00  0.00     0.065 A 
ATOM     11  C   UNL A   1      33.263  28.154  26.288  1.00  0.00     0.199 A 
ATOM     12  N   UNL A   1      33.727  28.887  27.277  1.00  0.00    -0.224 NA
ATOM     13  S   UNL A   1      32.643  29.032  24.954  1.00  0.00    -0.104 S 
ATOM     14  C   UNL A   1      32.865  30.490  25.844  1.00  0.00     0.093 A 
BRANCH  11  15
ATOM     15  N   UNL A   1      32.958  26.823  26.375  1.00  0.00    -0.219 N 
ATOM     16  C   UNL A   1      32.887  24.495  26.122  1.00  0.00     0.285 C 
ATOM     17  C   UNL A   1      31.585  24.995  26.738  1.00  0.00     0.176 C 
ATOM     18  C   UNL A   1      33.662  25.791  25.812  1.00  0.00     0.294 C 
ATOM     19  C   UNL A   1      31.737  26.470  26.865  1.00  0.00     0.242 C 
ATOM     20  O   UNL A   1      34.708  25.861  25.180  1.00  0.00    -0.267 OA
ATOM     21  O   UNL A   1      30.805  27.187  27.213  1.00  0.00    -0.274 OA
BRANCH  16  22
ATOM     22  N   UNL A   1      32.768  23.598  24.950  1.00  0.00    -0.322 N 
ATOM     23  C   UNL A   1      33.707  22.452  24.894  1.00  0.00     0.184 C 
ATOM     24  C   UNL A   1      33.713  21.884  23.454  1.00  0.00     0.065 C 
ATOM     25  C   UNL A   1      32.314  21.507  22.977  1.00  0.00     0.012 C 
ATOM     26  C   UNL A   1      31.406  23.297  24.506  1.00  0.00     0.263 C 
ATOM     27  H   UNL A   1      33.122  24.209  24.215  1.00  0.00     0.349 HD
ATOM     28  C   UNL A   1      31.395  22.712  23.091  1.00  0.00     0.062 C 
BRANCH  23  29
ATOM     29  C   UNL A   1      33.449  21.292  25.895  1.00  0.00     0.061 C 
ATOM     30  C   UNL A   1      33.961  21.557  27.307  1.00  0.00     0.010 C 
ENDBRANCH  23  29
ENDBRANCH  16  22
ENDBRANCH  11  15
ENDBRANCH   9  10
ENDBRANCH   7   9
ENDBRANCH   6   7
ENDBRANCH   5   6
ENDBRANCH   4   5
ENDBRANCH   3   4
ENDBRANCH   2   3
ENDBRANCH   1   2
BRANCH   1  31
ATOM     31  O   UNL A   1      40.900  33.283  30.830  1.00  0.00    -0.377 OA
BRANCH  31  32
ATOM     32  C   UNL A   1      41.814  33.391  29.757  1.00  0.00     0.188 C 
BRANCH  32  33
ATOM     33  C   UNL A   1      41.935  34.814  29.207  1.00  0.00     0.188 C 
BRANCH  33  34
ATOM     34  O   UNL A   1      43.166  35.441  29.584  1.00  0.00    -0.376 OA
BRANCH  34  35
ATOM     35  C   UNL A   1      44.238  35.318  28.652  1.00  0.00     0.202 C 
BRANCH  35  36
ATOM     36  C   UNL A   1      43.834  35.512  27.181  1.00  0.00     0.261 C 
BRANCH  36  37
ATOM     37  O   UNL A   1      44.845  35.228  26.202  1.00  0.00    -0.460 OA
BRANCH  37  38
ATOM     38  C   UNL A   1      44.669  34.170  25.384  1.00  0.00     0.338 C 
ATOM     39  O   UNL A   1      44.499  34.195  24.176  1.00  0.00    -0.246 OA
BRANCH  38  40
ATOM     40  C   UNL A   1      44.926  32.942  26.162  1.00  0.00     0.060 A 
ATOM     41  C   UNL A   1      43.831  32.192  26.615  1.00  0.00     0.016 A 
ATOM     42  C   UNL A   1      46.231  32.530  26.441  1.00  0.00     0.016 A 
ATOM     43  C   UNL A   1      44.038  31.051  27.388  1.00  0.00     0.010 A 
ATOM     44  C   UNL A   1      46.437  31.404  27.239  1.00  0.00     0.010 A 
ATOM     45  C   UNL A   1      45.341  30.685  27.748  1.00  0.00    -0.014 A 
BRANCH  45  46
ATOM     46  C   UNL A   1      45.561  29.722  28.852  1.00  0.00     0.031 A 
ATOM     47  C   UNL A   1      44.964  28.348  28.707  1.00  0.00     0.074 A 
ATOM     48  C   UNL A   1      46.226  30.063  29.969  1.00  0.00     0.049 A 
ATOM     49  N   UNL A   1      44.947  27.356  29.556  1.00  0.00    -0.248 NA
ATOM     50  C   UNL A   1      44.288  28.060  27.430  1.00  0.00     0.031 C 
ATOM     51  C   UNL A   1      46.850  31.360  30.221  1.00  0.00     0.029 A 
ATOM     52  N   UNL A   1      46.457  29.346  31.116  1.00  0.00    -0.354 N 
ATOM     53  C   UNL A   1      44.238  26.339  28.928  1.00  0.00     0.074 A 
ATOM     54  C   UNL A   1      43.836  26.834  27.631  1.00  0.00     0.031 C 
ATOM     55  C   UNL A   1      47.362  31.360  31.466  1.00  0.00     0.029 A 
ATOM     56  C   UNL A   1      47.080  30.073  32.103  1.00  0.00     0.049 A 
ATOM     57  H   UNL A   1      46.200  28.402  31.223  1.00  0.00     0.167 HD
ATOM     58  C   UNL A   1      43.953  25.098  29.385  1.00  0.00     0.034 A 
ATOM     59  C   UNL A   1      47.367  29.741  33.377  1.00  0.00     0.034 A 
ATOM     60  C   UNL A   1      44.354  24.607  30.673  1.00  0.00     0.049 A 
ATOM     61  C   UNL A   1      47.017  28.360  33.876  1.00  0.00     0.074 A 
ATOM     62  C   UNL A   1      44.141  23.355  31.221  1.00  0.00     0.029 A 
ATOM     63  N   UNL A   1      45.038  25.351  31.621  1.00  0.00    -0.354 N 
ATOM     64  N   UNL A   1      46.453  27.367  33.230  1.00  0.00    -0.248 NA
ATOM     65  C   UNL A   1      47.369  28.043  35.268  1.00  0.00     0.031 C 
ATOM     66  C   UNL A   1      44.681  23.350  32.511  1.00  0.00     0.029 A 
ATOM     67  C   UNL A   1      45.251  24.590  32.755  1.00  0.00     0.049 A 
ATOM     68  H   UNL A   1      45.328  26.285  31.504  1.00  0.00     0.167 HD
ATOM     69  C   UNL A   1      46.424  26.297  34.120  1.00  0.00     0.074 A 
ATOM     70  C   UNL A   1      47.034  26.761  35.348  1.00  0.00     0.031 C 
ATOM     71  C   UNL A   1      45.925  25.048  33.943  1.00  0.00     0.034 A 
BRANCH  58  72
ATOM     72  C   UNL A   1      43.189  24.183  28.469  1.00  0.00     0.023 A 
ATOM     73  C   UNL A   1      41.784  24.123  28.562  1.00  0.00     0.012 A 
ATOM     74  C   UNL A   1      43.853  23.404  27.502  1.00  0.00     0.148 A 
ATOM     75  C   UNL A   1      41.052  23.277  27.730  1.00  0.00     0.002 A 
ATOM     76  C   UNL A   1      43.113  22.594  26.648  1.00  0.00     0.091 A 
ATOM     77  F   UNL A   1      45.191  23.452  27.450  1.00  0.00    -0.205 F 
ATOM     78  C   UNL A   1      41.716  22.521  26.767  1.00  0.00     0.022 A 
BRANCH  76  79
ATOM     79  S   UNL A   1      43.872  21.636  25.333  1.00  0.00     0.127 S 
ATOM     80  O   UNL A   1      43.705  22.526  24.184  1.00  0.00    -0.237 OA
ATOM     81  O   UNL A   1      45.252  21.502  25.804  1.00  0.00    -0.237 OA
ATOM     82  O   UNL A   1      43.131  20.384  25.270  1.00  0.00    -0.744 OA
ENDBRANCH  76  79
ENDBRANCH  58  72
BRANCH  59  83
ATOM     83  C   UNL A   1      48.059  30.717  34.268  1.00  0.00     0.023 A 
ATOM     84  C   UNL A   1      47.293  31.568  35.088  1.00  0.00     0.012 A 
ATOM     85  C   UNL A   1      49.464  30.800  34.316  1.00  0.00     0.148 A 
ATOM     86  C   UNL A   1      47.911  32.503  35.919  1.00  0.00     0.002 A 
ATOM     87  C   UNL A   1      50.076  31.698  35.183  1.00  0.00     0.091 A 
ATOM     88  F   UNL A   1      50.176  29.996  33.514  1.00  0.00    -0.205 F 
ATOM     89  C   UNL A   1      49.301  32.562  35.973  1.00  0.00     0.022 A 
BRANCH  87  90
ATOM     90  S   UNL A   1      51.858  31.767  35.405  1.00  0.00     0.127 S 
ATOM     91  O   UNL A   1      52.323  31.975  34.035  1.00  0.00    -0.237 OA
ATOM     92  O   UNL A   1      52.009  32.921  36.290  1.00  0.00    -0.237 OA
ATOM     93  O   UNL A   1      52.228  30.494  36.010  1.00  0.00    -0.744 OA
ENDBRANCH  87  90
ENDBRANCH  59  83
BRANCH  71  94
ATOM     94  C   UNL A   1      46.058  24.064  35.076  1.00  0.00     0.023 A 
ATOM     95  C   UNL A   1      45.073  24.016  36.081  1.00  0.00     0.012 A 
ATOM     96  C   UNL A   1      47.101  23.116  35.079  1.00  0.00     0.148 A 
ATOM     97  C   UNL A   1      45.137  23.050  37.086  1.00  0.00     0.002 A 
ATOM     98  C   UNL A   1      47.130  22.129  36.056  1.00  0.00     0.091 A 
ATOM     99  F   UNL A   1      48.036  23.191  34.121  1.00  0.00    -0.205 F 
ATOM    100  C   UNL A   1      46.156  22.100  37.066  1.00  0.00     0.022 A 
BRANCH  98 101
ATOM    101  S   UNL A   1      48.347  20.806  36.048  1.00  0.00     0.127 S 
ATOM    102  O   UNL A   1      48.078  20.160  34.765  1.00  0.00    -0.237 OA
ATOM    103  O   UNL A   1      49.610  21.542  36.108  1.00  0.00    -0.237 OA
ATOM    104  O   UNL A   1      48.064  19.997  37.227  1.00  0.00    -0.744 OA
ENDBRANCH  98 101
ENDBRANCH  71  94
ENDBRANCH  45  46
ENDBRANCH  38  40
ENDBRANCH  37  38
ENDBRANCH  36  37
ENDBRANCH  35  36
ENDBRANCH  34  35
ENDBRANCH  33  34
ENDBRANCH  32  33
ENDBRANCH  31  32
ENDBRANCH   1  31
TORSDOF 27
ENDMDL
MODEL 3
REMARK VINA RESULT:      -5.9      4.000     12.198
REMARK SMILES CC[C@H]1CCCC[N@H+]1[C@@H]1CC(=O)N(c2nc(CC(=O)OCCOCCOCCOCCOC(=O)c3ccc(-c4c5nc(c(-c6cccc(S(=O)(=O)[O-])c6F)c6ccc([nH]6)c(-c6cccc(S(=O)(=O)[O-])c6F)c6nc(c(-c7cccc(S(=O)(=O)[O-])c7F)c7ccc4[nH]7)C=C6)C=C5)cc3)cs2)C1=O
REMARK SMILES IDX 25 1 24 2 23 3 22 4 21 5 20 6 18 7 19 8 17 9 16 10 14 11
REMARK SMILES IDX 15 12 99 13 98 14 13 15 9 16 10 17 100 18 11 19 101 20 12 21
REMARK SMILES IDX 8 22 3 23 4 24 5 25 7 26 6 28 2 29 1 30 26 31 27 32 28 33
REMARK SMILES IDX 29 34 30 35 31 36 32 37 33 38 34 39 35 40 36 41 97 42 37 43
REMARK SMILES IDX 96 44 38 45 39 46 40 47 90 48 41 49 95 50 89 51 91 52 42 53
REMARK SMILES IDX 94 54 88 55 87 56 43 58 75 59 55 60 74 61 56 62 59 63 73 64
REMARK SMILES IDX 92 65 57 66 58 67 72 69 93 70 60 71 44 72 45 73 53 74 46 75
REMARK SMILES IDX 48 76 54 77 47 78 49 79 50 80 51 81 52 82 76 83 77 84 85 85
REMARK SMILES IDX 78 86 80 87 86 88 79 89 81 90 82 91 83 92 84 93 61 94 62 95
REMARK SMILES IDX 70 96 63 97 65 98 71 99 64 100 66 101 67 102 68 103 69 104
REMARK H PARENT 8 27 91 57 59 68
REMARK Flexibility Score: inf
ROOT
ATOM      1  C   UNL A   1      39.266  33.135  35.326  1.00  0.00     0.188 C 
ENDROOT
BRANCH   1   2
ATOM      2  C   UNL A   1      39.385  33.688  36.756  1.00  0.00     0.188 C 
BRANCH   2   3
ATOM      3  O   UNL A   1      39.357  35.091  37.027  1.00  0.00    -0.376 OA
BRANCH   3   4
ATOM      4  C   UNL A   1      39.296  35.547  38.369  1.00  0.00     0.202 C 
BRANCH   4   5
ATOM      5  C   UNL A   1      40.169  36.769  38.689  1.00  0.00     0.261 C 
BRANCH   5   6
ATOM      6  O   UNL A   1      41.458  36.490  39.273  1.00  0.00    -0.463 OA
BRANCH   6   7
ATOM      7  C   UNL A   1      42.544  36.970  38.616  1.00  0.00     0.311 C 
ATOM      8  O   UNL A   1      43.463  37.579  39.160  1.00  0.00    -0.252 OA
BRANCH   7   9
ATOM      9  C   UNL A   1      42.524  36.782  37.113  1.00  0.00     0.179 C 
BRANCH   9  10
ATOM     10  C   UNL A   1      43.659  36.056  36.460  1.00  0.00     0.065 A 
ATOM     11  C   UNL A   1      44.755  34.187  35.956  1.00  0.00     0.199 A 
ATOM     12  N   UNL A   1      43.753  34.688  36.645  1.00  0.00    -0.224 NA
ATOM     13  S   UNL A   1      45.686  35.327  35.081  1.00  0.00    -0.104 S 
ATOM     14  C   UNL A   1      44.561  36.552  35.532  1.00  0.00     0.093 A 
BRANCH  11  15
ATOM     15  N   UNL A   1      44.905  32.863  35.642  1.00  0.00    -0.219 N 
ATOM     16  C   UNL A   1      44.676  30.705  34.759  1.00  0.00     0.285 C 
ATOM     17  C   UNL A   1      45.543  30.669  36.012  1.00  0.00     0.176 C 
ATOM     18  C   UNL A   1      44.212  32.174  34.682  1.00  0.00     0.294 C 
ATOM     19  C   UNL A   1      45.634  32.078  36.483  1.00  0.00     0.242 C 
ATOM     20  O   UNL A   1      43.380  32.616  33.901  1.00  0.00    -0.267 OA
ATOM     21  O   UNL A   1      46.163  32.369  37.550  1.00  0.00    -0.274 OA
BRANCH  16  22
ATOM     22  N   UNL A   1      43.555  29.740  34.697  1.00  0.00    -0.322 N 
ATOM     23  C   UNL A   1      43.716  28.595  33.770  1.00  0.00     0.184 C 
ATOM     24  C   UNL A   1      42.332  27.943  33.539  1.00  0.00     0.065 C 
ATOM     25  C   UNL A   1      41.661  27.535  34.847  1.00  0.00     0.012 C 
ATOM     26  C   UNL A   1      42.919  29.410  35.973  1.00  0.00     0.263 C 
ATOM     27  H   UNL A   1      42.851  30.308  34.226  1.00  0.00     0.349 HD
ATOM     28  C   UNL A   1      41.557  28.743  35.763  1.00  0.00     0.062 C 
BRANCH  23  29
ATOM     29  C   UNL A   1      44.730  27.496  34.192  1.00  0.00     0.061 C 
ATOM     30  C   UNL A   1      45.018  26.459  33.110  1.00  0.00     0.010 C 
ENDBRANCH  23  29
ENDBRANCH  16  22
ENDBRANCH  11  15
ENDBRANCH   9  10
ENDBRANCH   7   9
ENDBRANCH   6   7
ENDBRANCH   5   6
ENDBRANCH   4   5
ENDBRANCH   3   4
ENDBRANCH   2   3
ENDBRANCH   1   2
BRANCH   1  31
ATOM     31  O   UNL A   1      40.245  33.628  34.436  1.00  0.00    -0.377 OA
BRANCH  31  32
ATOM     32  C   UNL A   1      39.755  34.327  33.311  1.00  0.00     0.188 C 
BRANCH  32  33
ATOM     33  C   UNL A   1      38.241  34.550  33.349  1.00  0.00     0.188 C 
BRANCH  33  34
ATOM     34  O   UNL A   1      37.670  34.641  32.039  1.00  0.00    -0.376 OA
BRANCH  34  35
ATOM     35  C   UNL A   1      36.692  33.655  31.718  1.00  0.00     0.202 C 
BRANCH  35  36
ATOM     36  C   UNL A   1      37.268  32.302  31.270  1.00  0.00     0.261 C 
BRANCH  36  37
ATOM     37  O   UNL A   1      36.611  31.132  31.781  1.00  0.00    -0.460 OA
BRANCH  37  38
ATOM     38  C   UNL A   1      37.356  30.039  32.047  1.00  0.00     0.338 C 
ATOM     39  O   UNL A   1      36.961  28.963  32.463  1.00  0.00    -0.246 OA
BRANCH  38  40
ATOM     40  C   UNL A   1      38.725  30.288  31.549  1.00  0.00     0.060 A 
ATOM     41  C   UNL A   1      39.709  30.688  32.463  1.00  0.00     0.016 A 
ATOM     42  C   UNL A   1      39.036  30.124  30.197  1.00  0.00     0.016 A 
ATOM     43  C   UNL A   1      41.000  30.972  32.019  1.00  0.00     0.010 A 
ATOM     44  C   UNL A   1      40.320  30.436  29.749  1.00  0.00     0.010 A 
ATOM     45  C   UNL A   1      41.294  30.899  30.652  1.00  0.00    -0.014 A 
BRANCH  45  46
ATOM     46  C   UNL A   1      42.519  31.542  30.123  1.00  0.00     0.031 A 
ATOM     47  C   UNL A   1      43.753  30.691  29.996  1.00  0.00     0.074 A 
ATOM     48  C   UNL A   1      42.555  32.849  29.808  1.00  0.00     0.049 A 
ATOM     49  N   UNL A   1      44.963  31.028  29.636  1.00  0.00    -0.248 NA
ATOM     50  C   UNL A   1      43.600  29.263  30.328  1.00  0.00     0.031 C 
ATOM     51  C   UNL A   1      41.424  33.771  29.887  1.00  0.00     0.029 A 
ATOM     52  N   UNL A   1      43.602  33.630  29.389  1.00  0.00    -0.354 N 
ATOM     53  C   UNL A   1      45.718  29.865  29.725  1.00  0.00     0.074 A 
ATOM     54  C   UNL A   1      44.836  28.814  30.177  1.00  0.00     0.031 C 
ATOM     55  C   UNL A   1      41.850  35.006  29.563  1.00  0.00     0.029 A 
ATOM     56  C   UNL A   1      43.284  34.962  29.278  1.00  0.00     0.049 A 
ATOM     57  H   UNL A   1      44.497  33.271  29.188  1.00  0.00     0.167 HD
ATOM     58  C   UNL A   1      47.029  29.684  29.445  1.00  0.00     0.034 A 
ATOM     59  C   UNL A   1      44.069  36.023  29.000  1.00  0.00     0.034 A 
ATOM     60  C   UNL A   1      47.904  30.728  28.995  1.00  0.00     0.049 A 
ATOM     61  C   UNL A   1      45.535  35.802  28.718  1.00  0.00     0.074 A 
ATOM     62  C   UNL A   1      49.242  30.643  28.657  1.00  0.00     0.029 A 
ATOM     63  N   UNL A   1      47.532  32.054  28.835  1.00  0.00    -0.354 N 
ATOM     64  N   UNL A   1      46.210  34.677  28.688  1.00  0.00    -0.248 NA
ATOM     65  C   UNL A   1      46.341  36.990  28.402  1.00  0.00     0.031 C 
ATOM     66  C   UNL A   1      49.684  31.924  28.309  1.00  0.00     0.029 A 
ATOM     67  C   UNL A   1      48.613  32.800  28.408  1.00  0.00     0.049 A 
ATOM     68  H   UNL A   1      46.628  32.410  29.001  1.00  0.00     0.167 HD
ATOM     69  C   UNL A   1      47.505  35.017  28.307  1.00  0.00     0.074 A 
ATOM     70  C   UNL A   1      47.518  36.451  28.109  1.00  0.00     0.031 C 
ATOM     71  C   UNL A   1      48.589  34.217  28.148  1.00  0.00     0.034 A 
BRANCH  58  72
ATOM     72  C   UNL A   1      47.582  28.294  29.601  1.00  0.00     0.023 A 
ATOM     73  C   UNL A   1      47.869  27.802  30.890  1.00  0.00     0.012 A 
ATOM     74  C   UNL A   1      47.794  27.468  28.480  1.00  0.00     0.148 A 
ATOM     75  C   UNL A   1      48.390  26.520  31.060  1.00  0.00     0.002 A 
ATOM     76  C   UNL A   1      48.275  26.177  28.662  1.00  0.00     0.091 A 
ATOM     77  F   UNL A   1      47.544  27.966  27.261  1.00  0.00    -0.205 F 
ATOM     78  C   UNL A   1      48.583  25.705  29.948  1.00  0.00     0.022 A 
BRANCH  76  79
ATOM     79  S   UNL A   1      48.491  25.030  27.297  1.00  0.00     0.127 S 
ATOM     80  O   UNL A   1      49.711  24.328  27.691  1.00  0.00    -0.237 OA
ATOM     81  O   UNL A   1      47.272  24.223  27.375  1.00  0.00    -0.237 OA
ATOM     82  O   UNL A   1      48.598  25.850  26.098  1.00  0.00    -0.744 OA
ENDBRANCH  76  79
ENDBRANCH  58  72
BRANCH  59  83
ATOM     83  C   UNL A   1      43.481  37.392  28.934  1.00  0.00     0.023 A 
ATOM     84  C   UNL A   1      42.688  37.752  27.827  1.00  0.00     0.012 A 
ATOM     85  C   UNL A   1      43.691  38.333  29.962  1.00  0.00     0.148 A 
ATOM     86  C   UNL A   1      42.138  39.031  27.730  1.00  0.00     0.002 A 
ATOM     87  C   UNL A   1      43.100  39.588  29.883  1.00  0.00     0.091 A 
ATOM     88  F   UNL A   1      44.465  37.980  30.998  1.00  0.00    -0.205 F 
ATOM     89  C   UNL A   1      42.337  39.945  28.760  1.00  0.00     0.022 A 
BRANCH  87  90
ATOM     90  S   UNL A   1      43.205  40.791  31.214  1.00  0.00     0.127 S 
ATOM     91  O   UNL A   1      42.712  40.021  32.354  1.00  0.00    -0.237 OA
ATOM     92  O   UNL A   1      44.637  41.087  31.243  1.00  0.00    -0.237 OA
ATOM     93  O   UNL A   1      42.369  41.910  30.800  1.00  0.00    -0.744 OA
ENDBRANCH  87  90
ENDBRANCH  59  83
BRANCH  71  94
ATOM     94  C   UNL A   1      49.876  34.851  27.689  1.00  0.00     0.023 A 
ATOM     95  C   UNL A   1      50.743  35.437  28.631  1.00  0.00     0.012 A 
ATOM     96  C   UNL A   1      50.273  34.762  26.340  1.00  0.00     0.148 A 
ATOM     97  C   UNL A   1      51.979  35.947  28.231  1.00  0.00     0.002 A 
ATOM     98  C   UNL A   1      51.525  35.229  25.958  1.00  0.00     0.091 A 
ATOM     99  F   UNL A   1      49.425  34.215  25.457  1.00  0.00    -0.205 F 
ATOM    100  C   UNL A   1      52.375  35.831  26.900  1.00  0.00     0.022 A 
BRANCH  98 101
ATOM    101  S   UNL A   1      52.157  35.030  24.288  1.00  0.00     0.127 S 
ATOM    102  O   UNL A   1      51.491  36.124  23.584  1.00  0.00    -0.237 OA
ATOM    103  O   UNL A   1      53.597  35.213  24.475  1.00  0.00    -0.237 OA
ATOM    104  O   UNL A   1      51.769  33.690  23.871  1.00  0.00    -0.744 OA
ENDBRANCH  98 101
ENDBRANCH  71  94
ENDBRANCH  45  46
ENDBRANCH  38  40
ENDBRANCH  37  38
ENDBRANCH  36  37
ENDBRANCH  35  36
ENDBRANCH  34  35
ENDBRANCH  33  34
ENDBRANCH  32  33
ENDBRANCH  31  32
ENDBRANCH   1  31
TORSDOF 27
ENDMDL
