MODEL 1
REMARK VINA RESULT:      -9.6      0.000      0.000
REMARK SMILES O=C(CCn1cc(/C=C\C(=O)c2ccc(F)cc2)c(-c2cccc(Cl)c2)n1)OCCOCCOCCOCCOC(=O)c1ccc(-c2c3nc(c(-c4cccc(S(=O)(=O)[O-])c4F)c4ccc([nH]4)c(-c4cccc(S(=O)(=O)[O-])c4F)c4nc(c(-c5cccc(S(=O)(=O)[O-])c5F)c5ccc2[nH]5)C=C4)C=C3)cc1
REMARK SMILES IDX 33 1 32 2 31 3 30 4 29 5 28 6 2 7 1 8 3 9 4 10 5 11 6 12
REMARK SMILES IDX 27 13 7 14 19 15 8 16 9 17 10 18 11 19 12 20 13 21 18 22
REMARK SMILES IDX 14 23 17 24 15 25 16 26 20 27 21 28 26 29 22 30 24 31 23 32
REMARK SMILES IDX 25 33 34 34 35 35 36 36 37 37 38 38 39 39 40 40 41 41 42 42
REMARK SMILES IDX 43 43 44 44 105 45 45 46 104 47 46 48 47 49 48 50 98 51
REMARK SMILES IDX 49 52 103 53 97 54 99 55 50 56 102 57 96 58 95 59 51 61
REMARK SMILES IDX 83 62 63 63 82 64 64 65 67 66 81 67 100 68 65 69 66 70 80 72
REMARK SMILES IDX 101 73 68 74 52 75 53 76 61 77 54 78 56 79 62 80 55 81 57 82
REMARK SMILES IDX 58 83 59 84 60 85 84 86 85 87 93 88 86 89 88 90 94 91 87 92
REMARK SMILES IDX 89 93 90 94 91 95 92 96 69 97 70 98 78 99 71 100 73 101
REMARK SMILES IDX 79 102 72 103 74 104 75 105 76 106 77 107
REMARK H PARENT 99 60 67 71
REMARK Flexibility Score: inf
ROOT
ATOM      1  C   UNL A   1      36.447  21.525  24.698  1.00  0.00     0.188 C 
ENDROOT
BRANCH   1   2
ATOM      2  C   UNL A   1      35.715  21.695  26.032  1.00  0.00     0.188 C 
BRANCH   2   3
ATOM      3  O   UNL A   1      34.498  22.432  26.017  1.00  0.00    -0.376 OA
BRANCH   3   4
ATOM      4  C   UNL A   1      33.338  21.844  26.603  1.00  0.00     0.202 C 
BRANCH   4   5
ATOM      5  C   UNL A   1      33.005  20.376  26.307  1.00  0.00     0.261 C 
BRANCH   5   6
ATOM      6  O   UNL A   1      33.340  19.804  25.035  1.00  0.00    -0.463 OA
BRANCH   6   7
ATOM      7  C   UNL A   1      32.555  19.109  24.201  1.00  0.00     0.307 C 
ATOM      8  O   UNL A   1      31.875  18.179  24.628  1.00  0.00    -0.252 OA
BRANCH   7   9
ATOM      9  C   UNL A   1      32.602  19.402  22.736  1.00  0.00     0.146 C 
BRANCH   9  10
ATOM     10  C   UNL A   1      31.664  20.502  22.272  1.00  0.00     0.156 C 
BRANCH  10  11
ATOM     11  N   UNL A   1      32.046  21.868  22.568  1.00  0.00    -0.271 N 
ATOM     12  C   UNL A   1      33.298  22.405  22.603  1.00  0.00     0.117 A 
ATOM     13  N   UNL A   1      31.093  22.775  22.792  1.00  0.00    -0.172 NA
ATOM     14  C   UNL A   1      33.161  23.715  23.037  1.00  0.00     0.021 A 
ATOM     15  C   UNL A   1      31.742  23.933  23.033  1.00  0.00     0.100 A 
BRANCH  14  16
ATOM     16  C   UNL A   1      34.325  24.520  23.245  1.00  0.00     0.016 C 
ATOM     17  C   UNL A   1      34.764  25.392  24.168  1.00  0.00     0.053 C 
BRANCH  17  18
ATOM     18  C   UNL A   1      34.337  26.014  25.453  1.00  0.00     0.185 C 
ATOM     19  O   UNL A   1      34.701  25.517  26.516  1.00  0.00    -0.289 OA
BRANCH  18  20
ATOM     20  C   UNL A   1      33.466  27.185  25.479  1.00  0.00     0.022 A 
ATOM     21  C   UNL A   1      33.729  28.293  24.675  1.00  0.00     0.015 A 
ATOM     22  C   UNL A   1      32.323  27.142  26.276  1.00  0.00     0.015 A 
ATOM     23  C   UNL A   1      32.931  29.431  24.812  1.00  0.00     0.040 A 
ATOM     24  C   UNL A   1      31.568  28.298  26.451  1.00  0.00     0.040 A 
ATOM     25  C   UNL A   1      31.912  29.448  25.758  1.00  0.00     0.123 A 
ATOM     26  F   UNL A   1      31.260  30.589  26.012  1.00  0.00    -0.207 F 
ENDBRANCH  18  20
ENDBRANCH  17  18
ENDBRANCH  14  16
BRANCH  15  27
ATOM     27  C   UNL A   1      30.942  25.147  23.203  1.00  0.00     0.004 A 
ATOM     28  C   UNL A   1      29.820  25.135  24.055  1.00  0.00     0.010 A 
ATOM     29  C   UNL A   1      31.255  26.328  22.522  1.00  0.00     0.031 A 
ATOM     30  C   UNL A   1      29.080  26.297  24.288  1.00  0.00     0.002 A 
ATOM     31  C   UNL A   1      30.515  27.488  22.764  1.00  0.00     0.041 A 
ATOM     32  C   UNL A   1      29.445  27.483  23.658  1.00  0.00     0.020 A 
ATOM     33  Cl  UNL A   1      30.967  28.956  21.988  1.00  0.00    -0.084 Cl
ENDBRANCH  15  27
ENDBRANCH  10  11
ENDBRANCH   9  10
ENDBRANCH   7   9
ENDBRANCH   6   7
ENDBRANCH   5   6
ENDBRANCH   4   5
ENDBRANCH   3   4
ENDBRANCH   2   3
ENDBRANCH   1   2
BRANCH   1  34
ATOM     34  O   UNL A   1      37.820  21.857  24.804  1.00  0.00    -0.377 OA
BRANCH  34  35
ATOM     35  C   UNL A   1      38.567  21.081  25.715  1.00  0.00     0.188 C 
BRANCH  35  36
ATOM     36  C   UNL A   1      39.952  21.612  26.147  1.00  0.00     0.188 C 
BRANCH  36  37
ATOM     37  O   UNL A   1      41.192  21.288  25.539  1.00  0.00    -0.376 OA
BRANCH  37  38
ATOM     38  C   UNL A   1      42.451  21.101  26.156  1.00  0.00     0.202 C 
BRANCH  38  39
ATOM     39  C   UNL A   1      42.976  21.927  27.323  1.00  0.00     0.261 C 
BRANCH  39  40
ATOM     40  O   UNL A   1      43.741  23.031  26.917  1.00  0.00    -0.460 OA
BRANCH  40  41
ATOM     41  C   UNL A   1      42.990  24.021  26.399  1.00  0.00     0.338 C 
ATOM     42  O   UNL A   1      42.868  24.321  25.219  1.00  0.00    -0.246 OA
BRANCH  41  43
ATOM     43  C   UNL A   1      42.319  24.702  27.501  1.00  0.00     0.060 A 
ATOM     44  C   UNL A   1      41.056  25.223  27.224  1.00  0.00     0.016 A 
ATOM     45  C   UNL A   1      43.051  25.034  28.652  1.00  0.00     0.016 A 
ATOM     46  C   UNL A   1      40.678  26.334  27.924  1.00  0.00     0.010 A 
ATOM     47  C   UNL A   1      42.673  26.140  29.354  1.00  0.00     0.010 A 
ATOM     48  C   UNL A   1      41.573  26.837  28.873  1.00  0.00    -0.014 A 
BRANCH  48  49
ATOM     49  C   UNL A   1      41.394  28.202  29.281  1.00  0.00     0.031 A 
ATOM     50  C   UNL A   1      42.327  29.119  28.620  1.00  0.00     0.074 A 
ATOM     51  C   UNL A   1      40.428  28.524  30.160  1.00  0.00     0.049 A 
ATOM     52  N   UNL A   1      43.359  29.689  29.143  1.00  0.00    -0.248 NA
ATOM     53  C   UNL A   1      42.237  29.232  27.159  1.00  0.00     0.031 C 
ATOM     54  C   UNL A   1      39.299  27.705  30.620  1.00  0.00     0.029 A 
ATOM     55  N   UNL A   1      40.180  29.730  30.720  1.00  0.00    -0.354 N 
ATOM     56  C   UNL A   1      43.910  30.436  28.111  1.00  0.00     0.074 A 
ATOM     57  C   UNL A   1      43.346  29.921  26.893  1.00  0.00     0.031 C 
ATOM     58  C   UNL A   1      38.361  28.518  31.159  1.00  0.00     0.029 A 
ATOM     59  C   UNL A   1      38.887  29.872  31.203  1.00  0.00     0.049 A 
ATOM     60  H   UNL A   1      40.855  30.443  30.780  1.00  0.00     0.167 HD
ATOM     61  C   UNL A   1      44.561  31.600  28.366  1.00  0.00     0.034 A 
ATOM     62  C   UNL A   1      38.287  31.052  31.490  1.00  0.00     0.034 A 
ATOM     63  C   UNL A   1      44.899  31.710  29.764  1.00  0.00     0.049 A 
ATOM     64  C   UNL A   1      39.369  32.056  31.664  1.00  0.00     0.074 A 
ATOM     65  C   UNL A   1      45.690  30.990  30.636  1.00  0.00     0.029 A 
ATOM     66  N   UNL A   1      44.061  32.473  30.542  1.00  0.00    -0.354 N 
ATOM     67  N   UNL A   1      40.238  32.019  32.635  1.00  0.00    -0.248 NA
ATOM     68  C   UNL A   1      39.763  32.842  30.504  1.00  0.00     0.031 C 
ATOM     69  C   UNL A   1      45.002  31.033  31.883  1.00  0.00     0.029 A 
ATOM     70  C   UNL A   1      43.853  31.812  31.723  1.00  0.00     0.049 A 
ATOM     71  H   UNL A   1      43.676  33.344  30.293  1.00  0.00     0.167 HD
ATOM     72  C   UNL A   1      41.441  32.387  32.042  1.00  0.00     0.074 A 
ATOM     73  C   UNL A   1      41.065  32.991  30.765  1.00  0.00     0.031 C 
ATOM     74  C   UNL A   1      42.632  31.897  32.499  1.00  0.00     0.034 A 
BRANCH  61  75
ATOM     75  C   UNL A   1      44.559  32.803  27.454  1.00  0.00     0.023 A 
ATOM     76  C   UNL A   1      43.967  32.632  26.183  1.00  0.00     0.012 A 
ATOM     77  C   UNL A   1      45.314  33.983  27.650  1.00  0.00     0.148 A 
ATOM     78  C   UNL A   1      44.170  33.548  25.148  1.00  0.00     0.002 A 
ATOM     79  C   UNL A   1      45.445  34.933  26.645  1.00  0.00     0.091 A 
ATOM     80  F   UNL A   1      46.033  34.153  28.761  1.00  0.00    -0.205 F 
ATOM     81  C   UNL A   1      44.905  34.703  25.380  1.00  0.00     0.022 A 
BRANCH  79  82
ATOM     82  S   UNL A   1      46.344  36.466  26.914  1.00  0.00     0.127 S 
ATOM     83  O   UNL A   1      45.262  37.388  27.240  1.00  0.00    -0.237 OA
ATOM     84  O   UNL A   1      47.215  36.108  28.035  1.00  0.00    -0.237 OA
ATOM     85  O   UNL A   1      47.057  36.727  25.669  1.00  0.00    -0.744 OA
ENDBRANCH  79  82
ENDBRANCH  61  75
BRANCH  62  86
ATOM     86  C   UNL A   1      36.879  31.454  31.264  1.00  0.00     0.023 A 
ATOM     87  C   UNL A   1      36.112  31.910  32.355  1.00  0.00     0.012 A 
ATOM     88  C   UNL A   1      36.382  31.680  29.960  1.00  0.00     0.148 A 
ATOM     89  C   UNL A   1      34.914  32.607  32.153  1.00  0.00     0.002 A 
ATOM     90  C   UNL A   1      35.191  32.371  29.765  1.00  0.00     0.091 A 
ATOM     91  F   UNL A   1      37.125  31.309  28.909  1.00  0.00    -0.205 F 
ATOM     92  C   UNL A   1      34.460  32.848  30.860  1.00  0.00     0.022 A 
BRANCH  90  93
ATOM     93  S   UNL A   1      34.566  32.758  28.123  1.00  0.00     0.127 S 
ATOM     94  O   UNL A   1      35.729  33.391  27.498  1.00  0.00    -0.237 OA
ATOM     95  O   UNL A   1      34.240  31.431  27.607  1.00  0.00    -0.237 OA
ATOM     96  O   UNL A   1      33.434  33.653  28.326  1.00  0.00    -0.744 OA
ENDBRANCH  90  93
ENDBRANCH  62  86
BRANCH  74  97
ATOM     97  C   UNL A   1      42.634  31.140  33.807  1.00  0.00     0.023 A 
ATOM     98  C   UNL A   1      42.639  31.799  35.056  1.00  0.00     0.012 A 
ATOM     99  C   UNL A   1      42.408  29.755  33.773  1.00  0.00     0.148 A 
ATOM    100  C   UNL A   1      42.431  31.088  36.242  1.00  0.00     0.002 A 
ATOM    101  C   UNL A   1      42.146  29.061  34.947  1.00  0.00     0.091 A 
ATOM    102  F   UNL A   1      42.407  29.144  32.578  1.00  0.00    -0.205 F 
ATOM    103  C   UNL A   1      42.166  29.721  36.186  1.00  0.00     0.022 A 
BRANCH 101 104
ATOM    104  S   UNL A   1      41.645  27.338  34.927  1.00  0.00     0.127 S 
ATOM    105  O   UNL A   1      40.544  27.351  33.967  1.00  0.00    -0.237 OA
ATOM    106  O   UNL A   1      42.858  26.665  34.459  1.00  0.00    -0.237 OA
ATOM    107  O   UNL A   1      41.278  27.012  36.299  1.00  0.00    -0.744 OA
ENDBRANCH 101 104
ENDBRANCH  74  97
ENDBRANCH  48  49
ENDBRANCH  41  43
ENDBRANCH  40  41
ENDBRANCH  39  40
ENDBRANCH  38  39
ENDBRANCH  37  38
ENDBRANCH  36  37
ENDBRANCH  35  36
ENDBRANCH  34  35
ENDBRANCH   1  34
TORSDOF 29
ENDMDL
MODEL 2
REMARK VINA RESULT:      -9.5      3.856      8.257
REMARK SMILES O=C(CCn1cc(/C=C\C(=O)c2ccc(F)cc2)c(-c2cccc(Cl)c2)n1)OCCOCCOCCOCCOC(=O)c1ccc(-c2c3nc(c(-c4cccc(S(=O)(=O)[O-])c4F)c4ccc([nH]4)c(-c4cccc(S(=O)(=O)[O-])c4F)c4nc(c(-c5cccc(S(=O)(=O)[O-])c5F)c5ccc2[nH]5)C=C4)C=C3)cc1
REMARK SMILES IDX 33 1 32 2 31 3 30 4 29 5 28 6 2 7 1 8 3 9 4 10 5 11 6 12
REMARK SMILES IDX 27 13 7 14 19 15 8 16 9 17 10 18 11 19 12 20 13 21 18 22
REMARK SMILES IDX 14 23 17 24 15 25 16 26 20 27 21 28 26 29 22 30 24 31 23 32
REMARK SMILES IDX 25 33 34 34 35 35 36 36 37 37 38 38 39 39 40 40 41 41 42 42
REMARK SMILES IDX 43 43 44 44 105 45 45 46 104 47 46 48 47 49 48 50 98 51
REMARK SMILES IDX 49 52 103 53 97 54 99 55 50 56 102 57 96 58 95 59 51 61
REMARK SMILES IDX 83 62 63 63 82 64 64 65 67 66 81 67 100 68 65 69 66 70 80 72
REMARK SMILES IDX 101 73 68 74 52 75 53 76 61 77 54 78 56 79 62 80 55 81 57 82
REMARK SMILES IDX 58 83 59 84 60 85 84 86 85 87 93 88 86 89 88 90 94 91 87 92
REMARK SMILES IDX 89 93 90 94 91 95 92 96 69 97 70 98 78 99 71 100 73 101
REMARK SMILES IDX 79 102 72 103 74 104 75 105 76 106 77 107
REMARK H PARENT 99 60 67 71
REMARK Flexibility Score: inf
ROOT
ATOM      1  C   UNL A   1      33.298  22.838  26.039  1.00  0.00     0.188 C 
ENDROOT
BRANCH   1   2
ATOM      2  C   UNL A   1      32.677  23.839  25.061  1.00  0.00     0.188 C 
BRANCH   2   3
ATOM      3  O   UNL A   1      31.355  24.288  25.341  1.00  0.00    -0.376 OA
BRANCH   3   4
ATOM      4  C   UNL A   1      30.663  25.031  24.341  1.00  0.00     0.202 C 
BRANCH   4   5
ATOM      5  C   UNL A   1      30.258  26.484  24.623  1.00  0.00     0.261 C 
BRANCH   5   6
ATOM      6  O   UNL A   1      30.984  27.563  24.019  1.00  0.00    -0.463 OA
BRANCH   6   7
ATOM      7  C   UNL A   1      30.751  28.879  24.110  1.00  0.00     0.307 C 
ATOM      8  O   UNL A   1      29.962  29.419  23.337  1.00  0.00    -0.252 OA
BRANCH   7   9
ATOM      9  C   UNL A   1      31.540  29.697  25.081  1.00  0.00     0.146 C 
BRANCH   9  10
ATOM     10  C   UNL A   1      32.322  28.897  26.107  1.00  0.00     0.156 C 
BRANCH  10  11
ATOM     11  N   UNL A   1      33.417  29.568  26.776  1.00  0.00    -0.271 N 
ATOM     12  C   UNL A   1      34.752  29.309  26.679  1.00  0.00     0.117 A 
ATOM     13  N   UNL A   1      33.155  30.617  27.560  1.00  0.00    -0.172 NA
ATOM     14  C   UNL A   1      35.390  30.142  27.587  1.00  0.00     0.021 A 
ATOM     15  C   UNL A   1      34.351  31.025  28.034  1.00  0.00     0.100 A 
BRANCH  14  16
ATOM     16  C   UNL A   1      36.806  30.044  27.766  1.00  0.00     0.016 C 
ATOM     17  C   UNL A   1      37.652  29.764  28.772  1.00  0.00     0.053 C 
BRANCH  17  18
ATOM     18  C   UNL A   1      37.635  29.409  30.219  1.00  0.00     0.185 C 
ATOM     19  O   UNL A   1      36.562  29.193  30.777  1.00  0.00    -0.289 OA
BRANCH  18  20
ATOM     20  C   UNL A   1      38.866  29.346  31.002  1.00  0.00     0.022 A 
ATOM     21  C   UNL A   1      39.657  30.479  31.186  1.00  0.00     0.015 A 
ATOM     22  C   UNL A   1      39.197  28.141  31.619  1.00  0.00     0.015 A 
ATOM     23  C   UNL A   1      40.879  30.348  31.850  1.00  0.00     0.040 A 
ATOM     24  C   UNL A   1      40.442  28.004  32.226  1.00  0.00     0.040 A 
ATOM     25  C   UNL A   1      41.294  29.096  32.289  1.00  0.00     0.123 A 
ATOM     26  F   UNL A   1      42.533  28.936  32.768  1.00  0.00    -0.207 F 
ENDBRANCH  18  20
ENDBRANCH  17  18
ENDBRANCH  14  16
BRANCH  15  27
ATOM     27  C   UNL A   1      34.390  32.244  28.843  1.00  0.00     0.004 A 
ATOM     28  C   UNL A   1      35.153  32.276  30.027  1.00  0.00     0.010 A 
ATOM     29  C   UNL A   1      33.670  33.386  28.477  1.00  0.00     0.031 A 
ATOM     30  C   UNL A   1      35.263  33.448  30.782  1.00  0.00     0.002 A 
ATOM     31  C   UNL A   1      33.789  34.555  29.232  1.00  0.00     0.041 A 
ATOM     32  C   UNL A   1      34.597  34.597  30.368  1.00  0.00     0.020 A 
ATOM     33  Cl  UNL A   1      32.968  35.979  28.720  1.00  0.00    -0.084 Cl
ENDBRANCH  15  27
ENDBRANCH  10  11
ENDBRANCH   9  10
ENDBRANCH   7   9
ENDBRANCH   6   7
ENDBRANCH   5   6
ENDBRANCH   4   5
ENDBRANCH   3   4
ENDBRANCH   2   3
ENDBRANCH   1   2
BRANCH   1  34
ATOM     34  O   UNL A   1      32.761  21.538  25.874  1.00  0.00    -0.377 OA
BRANCH  34  35
ATOM     35  C   UNL A   1      33.697  20.522  25.586  1.00  0.00     0.188 C 
BRANCH  35  36
ATOM     36  C   UNL A   1      35.072  20.948  25.024  1.00  0.00     0.188 C 
BRANCH  36  37
ATOM     37  O   UNL A   1      36.242  20.147  24.998  1.00  0.00    -0.376 OA
BRANCH  37  38
ATOM     38  C   UNL A   1      37.592  20.560  25.083  1.00  0.00     0.202 C 
BRANCH  38  39
ATOM     39  C   UNL A   1      38.079  21.781  25.853  1.00  0.00     0.261 C 
BRANCH  39  40
ATOM     40  O   UNL A   1      39.439  22.056  25.647  1.00  0.00    -0.460 OA
BRANCH  40  41
ATOM     41  C   UNL A   1      40.119  22.212  26.798  1.00  0.00     0.338 C 
ATOM     42  O   UNL A   1      40.330  21.367  27.657  1.00  0.00    -0.246 OA
BRANCH  41  43
ATOM     43  C   UNL A   1      40.585  23.593  26.862  1.00  0.00     0.060 A 
ATOM     44  C   UNL A   1      41.795  23.865  26.227  1.00  0.00     0.016 A 
ATOM     45  C   UNL A   1      39.970  24.485  27.756  1.00  0.00     0.016 A 
ATOM     46  C   UNL A   1      42.554  24.874  26.748  1.00  0.00     0.010 A 
ATOM     47  C   UNL A   1      40.725  25.495  28.274  1.00  0.00     0.010 A 
ATOM     48  C   UNL A   1      42.046  25.564  27.852  1.00  0.00    -0.014 A 
BRANCH  48  49
ATOM     49  C   UNL A   1      42.984  26.295  28.656  1.00  0.00     0.031 A 
ATOM     50  C   UNL A   1      42.964  27.736  28.383  1.00  0.00     0.074 A 
ATOM     51  C   UNL A   1      43.743  25.653  29.562  1.00  0.00     0.049 A 
ATOM     52  N   UNL A   1      43.848  28.417  27.736  1.00  0.00    -0.248 NA
ATOM     53  C   UNL A   1      41.714  28.455  28.658  1.00  0.00     0.031 C 
ATOM     54  C   UNL A   1      43.599  24.284  30.072  1.00  0.00     0.029 A 
ATOM     55  N   UNL A   1      44.734  26.163  30.330  1.00  0.00    -0.354 N 
ATOM     56  C   UNL A   1      43.362  29.717  27.740  1.00  0.00     0.074 A 
ATOM     57  C   UNL A   1      41.969  29.628  28.081  1.00  0.00     0.031 C 
ATOM     58  C   UNL A   1      44.282  24.177  31.235  1.00  0.00     0.029 A 
ATOM     59  C   UNL A   1      45.010  25.413  31.464  1.00  0.00     0.049 A 
ATOM     60  H   UNL A   1      45.215  26.992  30.105  1.00  0.00     0.167 HD
ATOM     61  C   UNL A   1      44.213  30.776  27.745  1.00  0.00     0.034 A 
ATOM     62  C   UNL A   1      45.691  25.859  32.547  1.00  0.00     0.034 A 
ATOM     63  C   UNL A   1      45.547  30.372  27.376  1.00  0.00     0.049 A 
ATOM     64  C   UNL A   1      46.469  27.048  32.110  1.00  0.00     0.074 A 
ATOM     65  C   UNL A   1      46.123  29.820  26.249  1.00  0.00     0.029 A 
ATOM     66  N   UNL A   1      46.435  30.165  28.405  1.00  0.00    -0.354 N 
ATOM     67  N   UNL A   1      47.449  26.993  31.252  1.00  0.00    -0.248 NA
ATOM     68  C   UNL A   1      45.863  28.360  32.281  1.00  0.00     0.031 C 
ATOM     69  C   UNL A   1      47.126  28.937  26.740  1.00  0.00     0.029 A 
ATOM     70  C   UNL A   1      47.145  29.027  28.135  1.00  0.00     0.049 A 
ATOM     71  H   UNL A   1      46.541  30.737  29.199  1.00  0.00     0.167 HD
ATOM     72  C   UNL A   1      47.287  28.126  30.463  1.00  0.00     0.074 A 
ATOM     73  C   UNL A   1      46.372  28.983  31.214  1.00  0.00     0.031 C 
ATOM     74  C   UNL A   1      47.666  28.133  29.150  1.00  0.00     0.034 A 
BRANCH  61  75
ATOM     75  C   UNL A   1      43.946  32.088  28.442  1.00  0.00     0.023 A 
ATOM     76  C   UNL A   1      43.587  32.017  29.806  1.00  0.00     0.012 A 
ATOM     77  C   UNL A   1      43.770  33.338  27.802  1.00  0.00     0.148 A 
ATOM     78  C   UNL A   1      43.022  33.107  30.475  1.00  0.00     0.002 A 
ATOM     79  C   UNL A   1      43.286  34.441  28.492  1.00  0.00     0.091 A 
ATOM     80  F   UNL A   1      43.936  33.455  26.483  1.00  0.00    -0.205 F 
ATOM     81  C   UNL A   1      42.877  34.323  29.820  1.00  0.00     0.022 A 
BRANCH  79  82
ATOM     82  S   UNL A   1      43.128  36.048  27.700  1.00  0.00     0.127 S 
ATOM     83  O   UNL A   1      42.094  36.676  28.514  1.00  0.00    -0.237 OA
ATOM     84  O   UNL A   1      44.474  36.598  27.871  1.00  0.00    -0.237 OA
ATOM     85  O   UNL A   1      42.773  35.768  26.314  1.00  0.00    -0.744 OA
ENDBRANCH  79  82
ENDBRANCH  61  75
BRANCH  62  86
ATOM     86  C   UNL A   1      45.441  25.574  33.980  1.00  0.00     0.023 A 
ATOM     87  C   UNL A   1      46.534  25.298  34.825  1.00  0.00     0.012 A 
ATOM     88  C   UNL A   1      44.194  25.866  34.577  1.00  0.00     0.148 A 
ATOM     89  C   UNL A   1      46.401  25.355  36.218  1.00  0.00     0.002 A 
ATOM     90  C   UNL A   1      44.066  25.919  35.961  1.00  0.00     0.091 A 
ATOM     91  F   UNL A   1      43.158  26.190  33.792  1.00  0.00    -0.205 F 
ATOM     92  C   UNL A   1      45.171  25.677  36.786  1.00  0.00     0.022 A 
BRANCH  90  93
ATOM     93  S   UNL A   1      42.520  26.372  36.763  1.00  0.00     0.127 S 
ATOM     94  O   UNL A   1      42.272  27.705  36.211  1.00  0.00    -0.237 OA
ATOM     95  O   UNL A   1      41.617  25.331  36.281  1.00  0.00    -0.237 OA
ATOM     96  O   UNL A   1      42.794  26.359  38.194  1.00  0.00    -0.744 OA
ENDBRANCH  90  93
ENDBRANCH  62  86
BRANCH  74  97
ATOM     97  C   UNL A   1      48.480  26.967  28.640  1.00  0.00     0.023 A 
ATOM     98  C   UNL A   1      47.881  25.765  28.204  1.00  0.00     0.012 A 
ATOM     99  C   UNL A   1      49.848  27.170  28.393  1.00  0.00     0.148 A 
ATOM    100  C   UNL A   1      48.633  24.787  27.545  1.00  0.00     0.002 A 
ATOM    101  C   UNL A   1      50.578  26.221  27.689  1.00  0.00     0.091 A 
ATOM    102  F   UNL A   1      50.402  28.317  28.814  1.00  0.00    -0.205 F 
ATOM    103  C   UNL A   1      49.978  25.023  27.271  1.00  0.00     0.022 A 
BRANCH 101 104
ATOM    104  S   UNL A   1      52.268  26.534  27.171  1.00  0.00     0.127 S 
ATOM    105  O   UNL A   1      52.096  27.618  26.206  1.00  0.00    -0.237 OA
ATOM    106  O   UNL A   1      52.913  26.928  28.424  1.00  0.00    -0.237 OA
ATOM    107  O   UNL A   1      52.757  25.275  26.622  1.00  0.00    -0.744 OA
ENDBRANCH 101 104
ENDBRANCH  74  97
ENDBRANCH  48  49
ENDBRANCH  41  43
ENDBRANCH  40  41
ENDBRANCH  39  40
ENDBRANCH  38  39
ENDBRANCH  37  38
ENDBRANCH  36  37
ENDBRANCH  35  36
ENDBRANCH  34  35
ENDBRANCH   1  34
TORSDOF 29
ENDMDL
MODEL 3
REMARK VINA RESULT:      -9.2      3.639      8.325
REMARK SMILES O=C(CCn1cc(/C=C\C(=O)c2ccc(F)cc2)c(-c2cccc(Cl)c2)n1)OCCOCCOCCOCCOC(=O)c1ccc(-c2c3nc(c(-c4cccc(S(=O)(=O)[O-])c4F)c4ccc([nH]4)c(-c4cccc(S(=O)(=O)[O-])c4F)c4nc(c(-c5cccc(S(=O)(=O)[O-])c5F)c5ccc2[nH]5)C=C4)C=C3)cc1
REMARK SMILES IDX 33 1 32 2 31 3 30 4 29 5 28 6 2 7 1 8 3 9 4 10 5 11 6 12
REMARK SMILES IDX 27 13 7 14 19 15 8 16 9 17 10 18 11 19 12 20 13 21 18 22
REMARK SMILES IDX 14 23 17 24 15 25 16 26 20 27 21 28 26 29 22 30 24 31 23 32
REMARK SMILES IDX 25 33 34 34 35 35 36 36 37 37 38 38 39 39 40 40 41 41 42 42
REMARK SMILES IDX 43 43 44 44 105 45 45 46 104 47 46 48 47 49 48 50 98 51
REMARK SMILES IDX 49 52 103 53 97 54 99 55 50 56 102 57 96 58 95 59 51 61
REMARK SMILES IDX 83 62 63 63 82 64 64 65 67 66 81 67 100 68 65 69 66 70 80 72
REMARK SMILES IDX 101 73 68 74 52 75 53 76 61 77 54 78 56 79 62 80 55 81 57 82
REMARK SMILES IDX 58 83 59 84 60 85 84 86 85 87 93 88 86 89 88 90 94 91 87 92
REMARK SMILES IDX 89 93 90 94 91 95 92 96 69 97 70 98 78 99 71 100 73 101
REMARK SMILES IDX 79 102 72 103 74 104 75 105 76 106 77 107
REMARK H PARENT 99 60 67 71
REMARK Flexibility Score: inf
ROOT
ATOM      1  C   UNL A   1      42.050  26.007  25.740  1.00  0.00     0.188 C 
ENDROOT
BRANCH   1   2
ATOM      2  C   UNL A   1      42.199  26.899  26.976  1.00  0.00     0.188 C 
BRANCH   2   3
ATOM      3  O   UNL A   1      41.135  27.801  27.260  1.00  0.00    -0.376 OA
BRANCH   3   4
ATOM      4  C   UNL A   1      40.366  27.595  28.443  1.00  0.00     0.202 C 
BRANCH   4   5
ATOM      5  C   UNL A   1      38.836  27.687  28.376  1.00  0.00     0.261 C 
BRANCH   5   6
ATOM      6  O   UNL A   1      38.171  28.903  28.746  1.00  0.00    -0.463 OA
BRANCH   6   7
ATOM      7  C   UNL A   1      37.229  29.576  28.072  1.00  0.00     0.307 C 
ATOM      8  O   UNL A   1      37.497  30.094  26.990  1.00  0.00    -0.252 OA
BRANCH   7   9
ATOM      9  C   UNL A   1      35.889  29.786  28.700  1.00  0.00     0.146 C 
BRANCH   9  10
ATOM     10  C   UNL A   1      34.868  30.479  27.815  1.00  0.00     0.156 C 
BRANCH  10  11
ATOM     11  N   UNL A   1      34.026  29.637  26.990  1.00  0.00    -0.271 N 
ATOM     12  C   UNL A   1      33.170  30.013  25.999  1.00  0.00     0.117 A 
ATOM     13  N   UNL A   1      34.090  28.312  27.136  1.00  0.00    -0.172 NA
ATOM     14  C   UNL A   1      32.512  28.866  25.579  1.00  0.00     0.021 A 
ATOM     15  C   UNL A   1      33.209  27.804  26.248  1.00  0.00     0.100 A 
BRANCH  14  16
ATOM     16  C   UNL A   1      31.487  28.959  24.586  1.00  0.00     0.016 C 
ATOM     17  C   UNL A   1      30.631  28.120  23.977  1.00  0.00     0.053 C 
BRANCH  17  18
ATOM     18  C   UNL A   1      30.250  26.679  23.963  1.00  0.00     0.185 C 
ATOM     19  O   UNL A   1      29.251  26.312  24.576  1.00  0.00    -0.289 OA
BRANCH  18  20
ATOM     20  C   UNL A   1      31.059  25.685  23.264  1.00  0.00     0.022 A 
ATOM     21  C   UNL A   1      30.722  24.333  23.300  1.00  0.00     0.015 A 
ATOM     22  C   UNL A   1      32.137  26.127  22.500  1.00  0.00     0.015 A 
ATOM     23  C   UNL A   1      31.583  23.407  22.708  1.00  0.00     0.040 A 
ATOM     24  C   UNL A   1      33.022  25.197  21.964  1.00  0.00     0.040 A 
ATOM     25  C   UNL A   1      32.764  23.844  22.119  1.00  0.00     0.123 A 
ATOM     26  F   UNL A   1      33.671  22.950  21.705  1.00  0.00    -0.207 F 
ENDBRANCH  18  20
ENDBRANCH  17  18
ENDBRANCH  14  16
BRANCH  15  27
ATOM     27  C   UNL A   1      33.144  26.350  26.099  1.00  0.00     0.004 A 
ATOM     28  C   UNL A   1      34.203  25.661  25.477  1.00  0.00     0.010 A 
ATOM     29  C   UNL A   1      32.039  25.620  26.547  1.00  0.00     0.031 A 
ATOM     30  C   UNL A   1      34.198  24.266  25.382  1.00  0.00     0.002 A 
ATOM     31  C   UNL A   1      32.042  24.226  26.455  1.00  0.00     0.041 A 
ATOM     32  C   UNL A   1      33.123  23.546  25.896  1.00  0.00     0.020 A 
ATOM     33  Cl  UNL A   1      30.715  23.334  27.092  1.00  0.00    -0.084 Cl
ENDBRANCH  15  27
ENDBRANCH  10  11
ENDBRANCH   9  10
ENDBRANCH   7   9
ENDBRANCH   6   7
ENDBRANCH   5   6
ENDBRANCH   4   5
ENDBRANCH   3   4
ENDBRANCH   2   3
ENDBRANCH   1   2
BRANCH   1  34
ATOM     34  O   UNL A   1      41.984  24.635  26.086  1.00  0.00    -0.377 OA
BRANCH  34  35
ATOM     35  C   UNL A   1      42.877  23.788  25.397  1.00  0.00     0.188 C 
BRANCH  35  36
ATOM     36  C   UNL A   1      44.251  24.368  24.990  1.00  0.00     0.188 C 
BRANCH  36  37
ATOM     37  O   UNL A   1      45.307  24.699  25.877  1.00  0.00    -0.376 OA
BRANCH  37  38
ATOM     38  C   UNL A   1      45.872  25.970  26.134  1.00  0.00     0.202 C 
BRANCH  38  39
ATOM     39  C   UNL A   1      45.905  27.123  25.139  1.00  0.00     0.261 C 
BRANCH  39  40
ATOM     40  O   UNL A   1      45.236  28.267  25.599  1.00  0.00    -0.460 OA
BRANCH  40  41
ATOM     41  C   UNL A   1      46.074  29.194  26.098  1.00  0.00     0.338 C 
ATOM     42  O   UNL A   1      47.297  29.186  26.064  1.00  0.00    -0.246 OA
BRANCH  41  43
ATOM     43  C   UNL A   1      45.270  30.250  26.703  1.00  0.00     0.060 A 
ATOM     44  C   UNL A   1      45.969  31.236  27.396  1.00  0.00     0.016 A 
ATOM     45  C   UNL A   1      43.878  30.085  26.798  1.00  0.00     0.016 A 
ATOM     46  C   UNL A   1      45.324  31.832  28.443  1.00  0.00     0.010 A 
ATOM     47  C   UNL A   1      43.233  30.683  27.839  1.00  0.00     0.010 A 
ATOM     48  C   UNL A   1      44.015  31.425  28.714  1.00  0.00    -0.014 A 
BRANCH  48  49
ATOM     49  C   UNL A   1      43.502  31.702  30.025  1.00  0.00     0.031 A 
ATOM     50  C   UNL A   1      43.399  30.501  30.861  1.00  0.00     0.074 A 
ATOM     51  C   UNL A   1      43.200  32.964  30.381  1.00  0.00     0.049 A 
ATOM     52  N   UNL A   1      42.323  29.871  31.188  1.00  0.00    -0.248 NA
ATOM     53  C   UNL A   1      44.646  29.791  31.173  1.00  0.00     0.031 C 
ATOM     54  C   UNL A   1      43.551  34.215  29.700  1.00  0.00     0.029 A 
ATOM     55  N   UNL A   1      42.626  33.391  31.530  1.00  0.00    -0.354 N 
ATOM     56  C   UNL A   1      42.760  28.807  31.964  1.00  0.00     0.074 A 
ATOM     57  C   UNL A   1      44.167  28.668  31.706  1.00  0.00     0.031 C 
ATOM     58  C   UNL A   1      43.425  35.240  30.575  1.00  0.00     0.029 A 
ATOM     59  C   UNL A   1      42.857  34.729  31.811  1.00  0.00     0.049 A 
ATOM     60  H   UNL A   1      42.092  32.805  32.113  1.00  0.00     0.167 HD
ATOM     61  C   UNL A   1      41.988  28.315  32.967  1.00  0.00     0.034 A 
ATOM     62  C   UNL A   1      42.698  35.310  33.025  1.00  0.00     0.034 A 
ATOM     63  C   UNL A   1      40.624  28.767  32.842  1.00  0.00     0.049 A 
ATOM     64  C   UNL A   1      41.803  34.422  33.814  1.00  0.00     0.074 A 
ATOM     65  C   UNL A   1      39.628  28.613  31.900  1.00  0.00     0.029 A 
ATOM     66  N   UNL A   1      40.256  29.838  33.622  1.00  0.00    -0.354 N 
ATOM     67  N   UNL A   1      40.552  34.208  33.515  1.00  0.00    -0.248 NA
ATOM     68  C   UNL A   1      42.420  33.420  34.670  1.00  0.00     0.031 C 
ATOM     69  C   UNL A   1      38.929  29.854  31.890  1.00  0.00     0.029 A 
ATOM     70  C   UNL A   1      39.502  30.686  32.856  1.00  0.00     0.049 A 
ATOM     71  H   UNL A   1      40.493  29.972  34.567  1.00  0.00     0.167 HD
ATOM     72  C   UNL A   1      40.362  32.853  33.760  1.00  0.00     0.074 A 
ATOM     73  C   UNL A   1      41.506  32.450  34.576  1.00  0.00     0.031 C 
ATOM     74  C   UNL A   1      39.463  32.124  33.033  1.00  0.00     0.034 A 
BRANCH  61  75
ATOM     75  C   UNL A   1      42.520  27.750  34.262  1.00  0.00     0.023 A 
ATOM     76  C   UNL A   1      41.911  26.566  34.733  1.00  0.00     0.012 A 
ATOM     77  C   UNL A   1      43.374  28.428  35.164  1.00  0.00     0.148 A 
ATOM     78  C   UNL A   1      42.089  26.118  36.044  1.00  0.00     0.002 A 
ATOM     79  C   UNL A   1      43.614  27.935  36.440  1.00  0.00     0.091 A 
ATOM     80  F   UNL A   1      43.867  29.630  34.860  1.00  0.00    -0.205 F 
ATOM     81  C   UNL A   1      42.947  26.800  36.898  1.00  0.00     0.022 A 
BRANCH  79  82
ATOM     82  S   UNL A   1      44.755  28.755  37.563  1.00  0.00     0.127 S 
ATOM     83  O   UNL A   1      44.013  29.962  37.905  1.00  0.00    -0.237 OA
ATOM     84  O   UNL A   1      44.872  27.771  38.640  1.00  0.00    -0.237 OA
ATOM     85  O   UNL A   1      45.983  28.949  36.801  1.00  0.00    -0.744 OA
ENDBRANCH  79  82
ENDBRANCH  61  75
BRANCH  62  86
ATOM     86  C   UNL A   1      43.531  36.350  33.671  1.00  0.00     0.023 A 
ATOM     87  C   UNL A   1      42.939  37.576  34.034  1.00  0.00     0.012 A 
ATOM     88  C   UNL A   1      44.805  36.043  34.201  1.00  0.00     0.148 A 
ATOM     89  C   UNL A   1      43.572  38.446  34.930  1.00  0.00     0.002 A 
ATOM     90  C   UNL A   1      45.431  36.912  35.090  1.00  0.00     0.091 A 
ATOM     91  F   UNL A   1      45.358  34.857  33.916  1.00  0.00    -0.205 F 
ATOM     92  C   UNL A   1      44.812  38.109  35.467  1.00  0.00     0.022 A 
BRANCH  90  93
ATOM     93  S   UNL A   1      47.012  36.521  35.856  1.00  0.00     0.127 S 
ATOM     94  O   UNL A   1      47.174  37.630  36.797  1.00  0.00    -0.237 OA
ATOM     95  O   UNL A   1      46.733  35.228  36.474  1.00  0.00    -0.237 OA
ATOM     96  O   UNL A   1      47.988  36.507  34.774  1.00  0.00    -0.744 OA
ENDBRANCH  90  93
ENDBRANCH  62  86
BRANCH  74  97
ATOM     97  C   UNL A   1      38.513  32.870  32.124  1.00  0.00     0.023 A 
ATOM     98  C   UNL A   1      38.758  33.019  30.742  1.00  0.00     0.012 A 
ATOM     99  C   UNL A   1      37.255  33.232  32.633  1.00  0.00     0.148 A 
ATOM    100  C   UNL A   1      37.771  33.526  29.890  1.00  0.00     0.002 A 
ATOM    101  C   UNL A   1      36.259  33.682  31.775  1.00  0.00     0.091 A 
ATOM    102  F   UNL A   1      37.039  33.084  33.949  1.00  0.00    -0.205 F 
ATOM    103  C   UNL A   1      36.515  33.841  30.404  1.00  0.00     0.022 A 
BRANCH 101 104
ATOM    104  S   UNL A   1      34.580  33.954  32.349  1.00  0.00     0.127 S 
ATOM    105  O   UNL A   1      34.112  34.998  31.440  1.00  0.00    -0.237 OA
ATOM    106  O   UNL A   1      33.964  32.642  32.144  1.00  0.00    -0.237 OA
ATOM    107  O   UNL A   1      34.694  34.344  33.749  1.00  0.00    -0.744 OA
ENDBRANCH 101 104
ENDBRANCH  74  97
ENDBRANCH  48  49
ENDBRANCH  41  43
ENDBRANCH  40  41
ENDBRANCH  39  40
ENDBRANCH  38  39
ENDBRANCH  37  38
ENDBRANCH  36  37
ENDBRANCH  35  36
ENDBRANCH  34  35
ENDBRANCH   1  34
TORSDOF 29
ENDMDL
