MODEL 1
REMARK VINA RESULT:     -10.1      0.000      0.000
REMARK SMILES Cc1ccc(S(=O)(=O)N(CC(=O)OCCOCCOCCOCCOC(=O)c2ccc(-c3c4nc(c(-c5cccc(S(=O)(=O)[O-])c5F)c5ccc([nH]5)c(-c5cccc(S(=O)(=O)[O-])c5F)c5nc(c(-c6cccc(S(=O)(=O)[O-])c6F)c6ccc3[nH]6)C=C5)C=C4)cc2)c2cc(Cl)cc(Cl)c2)cc1
REMARK SMILES IDX 19 1 18 2 17 3 16 4 15 5 14 6 13 7 11 8 12 9 10 10 9 11 6 12
REMARK SMILES IDX 7 13 8 14 5 15 1 16 2 17 3 18 100 19 4 20 99 21 91 22 92 23
REMARK SMILES IDX 98 24 93 25 96 26 94 27 95 28 97 29 20 30 21 31 22 32 23 33
REMARK SMILES IDX 24 34 25 35 26 36 27 37 28 38 29 39 90 40 30 41 89 42 31 43
REMARK SMILES IDX 32 44 33 45 83 46 34 47 88 48 82 49 84 50 35 51 87 52 81 53
REMARK SMILES IDX 80 54 36 56 68 57 48 58 67 59 49 60 52 61 66 62 85 63 50 64
REMARK SMILES IDX 51 65 65 67 86 68 53 69 37 70 38 71 46 72 39 73 41 74 47 75
REMARK SMILES IDX 40 76 42 77 43 78 44 79 45 80 69 81 70 82 78 83 71 84 73 85
REMARK SMILES IDX 79 86 72 87 74 88 75 89 76 90 77 91 54 92 55 93 63 94 56 95
REMARK SMILES IDX 58 96 64 97 57 98 59 99 60 100 61 101 62 102
REMARK H PARENT 84 55 52 66
REMARK Flexibility Score: inf
ROOT
ATOM      1  O   UNL A   1      35.280  21.837  27.060  1.00  0.00    -0.377 OA
ENDROOT
BRANCH   1   2
ATOM      2  C   UNL A   1      33.932  21.400  27.179  1.00  0.00     0.188 C 
BRANCH   2   3
ATOM      3  C   UNL A   1      32.898  22.456  26.758  1.00  0.00     0.188 C 
BRANCH   3   4
ATOM      4  O   UNL A   1      31.850  22.082  25.889  1.00  0.00    -0.376 OA
BRANCH   4   5
ATOM      5  C   UNL A   1      30.815  23.009  25.651  1.00  0.00     0.202 C 
BRANCH   5   6
ATOM      6  C   UNL A   1      30.619  24.052  26.756  1.00  0.00     0.261 C 
BRANCH   6   7
ATOM      7  O   UNL A   1      29.933  25.251  26.378  1.00  0.00    -0.462 OA
BRANCH   7   8
ATOM      8  C   UNL A   1      30.409  26.035  25.384  1.00  0.00     0.326 C 
ATOM      9  O   UNL A   1      29.900  26.312  24.327  1.00  0.00    -0.250 OA
BRANCH   8  10
ATOM     10  C   UNL A   1      31.713  26.655  25.776  1.00  0.00     0.258 C 
BRANCH  10  11
ATOM     11  N   UNL A   1      32.776  26.963  24.780  1.00  0.00    -0.255 N 
BRANCH  11  12
ATOM     12  S   UNL A   1      32.957  28.636  24.344  1.00  0.00     0.264 S 
ATOM     13  O   UNL A   1      33.873  28.741  23.224  1.00  0.00    -0.201 OA
ATOM     14  O   UNL A   1      33.284  29.344  25.570  1.00  0.00    -0.201 OA
BRANCH  12  15
ATOM     15  C   UNL A   1      31.412  29.422  23.798  1.00  0.00     0.088 A 
ATOM     16  C   UNL A   1      27.733  31.035  22.129  1.00  0.00     0.044 C 
ATOM     17  C   UNL A   1      28.999  30.468  22.699  1.00  0.00    -0.051 A 
ATOM     18  C   UNL A   1      29.792  29.583  21.964  1.00  0.00     0.005 A 
ATOM     19  C   UNL A   1      29.434  30.844  23.967  1.00  0.00     0.005 A 
ATOM     20  C   UNL A   1      30.974  29.055  22.513  1.00  0.00     0.022 A 
ATOM     21  C   UNL A   1      30.635  30.345  24.499  1.00  0.00     0.022 A 
ENDBRANCH  12  15
ENDBRANCH  11  12
BRANCH  11  22
ATOM     22  C   UNL A   1      33.042  25.919  23.740  1.00  0.00     0.055 A 
ATOM     23  C   UNL A   1      32.668  26.133  22.398  1.00  0.00     0.047 A 
ATOM     24  C   UNL A   1      33.469  24.615  24.018  1.00  0.00     0.047 A 
ATOM     25  C   UNL A   1      32.806  25.189  21.377  1.00  0.00     0.044 A 
ATOM     26  C   UNL A   1      33.568  23.643  22.994  1.00  0.00     0.044 A 
ATOM     27  Cl  UNL A   1      32.425  25.606  19.748  1.00  0.00    -0.084 Cl
ATOM     28  C   UNL A   1      33.246  23.925  21.672  1.00  0.00     0.041 A 
ATOM     29  Cl  UNL A   1      34.080  22.039  23.367  1.00  0.00    -0.084 Cl
ENDBRANCH  11  22
ENDBRANCH  10  11
ENDBRANCH   8  10
ENDBRANCH   7   8
ENDBRANCH   6   7
ENDBRANCH   5   6
ENDBRANCH   4   5
ENDBRANCH   3   4
ENDBRANCH   2   3
ENDBRANCH   1   2
BRANCH   1  30
ATOM     30  C   UNL A   1      35.708  22.841  26.131  1.00  0.00     0.188 C 
BRANCH  30  31
ATOM     31  C   UNL A   1      37.192  22.940  25.745  1.00  0.00     0.188 C 
BRANCH  31  32
ATOM     32  O   UNL A   1      37.836  21.720  26.038  1.00  0.00    -0.376 OA
BRANCH  32  33
ATOM     33  C   UNL A   1      37.834  20.758  24.996  1.00  0.00     0.202 C 
BRANCH  33  34
ATOM     34  C   UNL A   1      38.850  19.710  25.406  1.00  0.00     0.261 C 
BRANCH  34  35
ATOM     35  O   UNL A   1      39.652  20.300  26.458  1.00  0.00    -0.460 OA
BRANCH  35  36
ATOM     36  C   UNL A   1      40.998  20.282  26.208  1.00  0.00     0.338 C 
ATOM     37  O   UNL A   1      41.589  19.303  25.781  1.00  0.00    -0.246 OA
BRANCH  36  38
ATOM     38  C   UNL A   1      41.663  21.555  26.647  1.00  0.00     0.060 A 
ATOM     39  C   UNL A   1      41.322  22.137  27.879  1.00  0.00     0.016 A 
ATOM     40  C   UNL A   1      42.477  22.281  25.778  1.00  0.00     0.016 A 
ATOM     41  C   UNL A   1      41.718  23.453  28.206  1.00  0.00     0.010 A 
ATOM     42  C   UNL A   1      42.838  23.593  26.098  1.00  0.00     0.010 A 
ATOM     43  C   UNL A   1      42.439  24.223  27.297  1.00  0.00    -0.014 A 
BRANCH  43  44
ATOM     44  C   UNL A   1      42.636  25.700  27.384  1.00  0.00     0.031 A 
ATOM     45  C   UNL A   1      41.463  26.634  27.387  1.00  0.00     0.074 A 
ATOM     46  C   UNL A   1      43.749  26.193  27.993  1.00  0.00     0.049 A 
ATOM     47  N   UNL A   1      41.529  27.895  27.680  1.00  0.00    -0.248 NA
ATOM     48  C   UNL A   1      40.101  26.235  27.038  1.00  0.00     0.031 C 
ATOM     49  C   UNL A   1      43.679  27.222  29.038  1.00  0.00     0.029 A 
ATOM     50  N   UNL A   1      45.093  25.818  28.016  1.00  0.00    -0.354 N 
ATOM     51  C   UNL A   1      40.268  28.279  28.058  1.00  0.00     0.074 A 
ATOM     52  C   UNL A   1      39.408  27.320  27.409  1.00  0.00     0.031 C 
ATOM     53  C   UNL A   1      44.895  27.518  29.478  1.00  0.00     0.029 A 
ATOM     54  C   UNL A   1      45.842  26.781  28.677  1.00  0.00     0.049 A 
ATOM     55  H   UNL A   1      45.456  24.992  27.621  1.00  0.00     0.167 HD
ATOM     56  C   UNL A   1      40.100  29.234  29.022  1.00  0.00     0.034 A 
ATOM     57  C   UNL A   1      47.118  27.205  28.536  1.00  0.00     0.034 A 
ATOM     58  C   UNL A   1      41.384  29.857  29.478  1.00  0.00     0.049 A 
ATOM     59  C   UNL A   1      47.015  28.691  28.309  1.00  0.00     0.074 A 
ATOM     60  C   UNL A   1      41.958  30.107  30.717  1.00  0.00     0.029 A 
ATOM     61  N   UNL A   1      42.380  30.205  28.546  1.00  0.00    -0.354 N 
ATOM     62  N   UNL A   1      45.860  29.198  27.940  1.00  0.00    -0.248 NA
ATOM     63  C   UNL A   1      47.991  29.744  28.574  1.00  0.00     0.031 C 
ATOM     64  C   UNL A   1      43.300  30.567  30.515  1.00  0.00     0.029 A 
ATOM     65  C   UNL A   1      43.555  30.644  29.152  1.00  0.00     0.049 A 
ATOM     66  H   UNL A   1      42.259  30.145  27.570  1.00  0.00     0.167 HD
ATOM     67  C   UNL A   1      45.828  30.518  28.217  1.00  0.00     0.074 A 
ATOM     68  C   UNL A   1      47.223  30.854  28.468  1.00  0.00     0.031 C 
ATOM     69  C   UNL A   1      44.671  31.224  28.385  1.00  0.00     0.034 A 
BRANCH  56  70
ATOM     70  C   UNL A   1      38.737  29.561  29.659  1.00  0.00     0.023 A 
ATOM     71  C   UNL A   1      38.481  29.074  30.960  1.00  0.00     0.012 A 
ATOM     72  C   UNL A   1      37.681  30.320  29.078  1.00  0.00     0.148 A 
ATOM     73  C   UNL A   1      37.299  29.370  31.661  1.00  0.00     0.002 A 
ATOM     74  C   UNL A   1      36.555  30.710  29.818  1.00  0.00     0.091 A 
ATOM     75  F   UNL A   1      37.688  30.579  27.767  1.00  0.00    -0.205 F 
ATOM     76  C   UNL A   1      36.356  30.224  31.109  1.00  0.00     0.022 A 
BRANCH  74  77
ATOM     77  S   UNL A   1      35.339  31.897  29.201  1.00  0.00     0.127 S 
ATOM     78  O   UNL A   1      34.509  31.067  28.329  1.00  0.00    -0.237 OA
ATOM     79  O   UNL A   1      34.676  32.336  30.429  1.00  0.00    -0.237 OA
ATOM     80  O   UNL A   1      36.099  32.939  28.520  1.00  0.00    -0.744 OA
ENDBRANCH  74  77
ENDBRANCH  56  70
BRANCH  57  81
ATOM     81  C   UNL A   1      48.117  26.125  28.355  1.00  0.00     0.023 A 
ATOM     82  C   UNL A   1      48.927  26.222  27.188  1.00  0.00     0.012 A 
ATOM     83  C   UNL A   1      48.706  25.613  29.519  1.00  0.00     0.148 A 
ATOM     84  C   UNL A   1      50.314  26.004  27.246  1.00  0.00     0.002 A 
ATOM     85  C   UNL A   1      50.097  25.504  29.595  1.00  0.00     0.091 A 
ATOM     86  F   UNL A   1      47.928  25.470  30.600  1.00  0.00    -0.205 F 
ATOM     87  C   UNL A   1      50.906  25.711  28.468  1.00  0.00     0.022 A 
BRANCH  85  88
ATOM     88  S   UNL A   1      50.910  25.469  31.202  1.00  0.00     0.127 S 
ATOM     89  O   UNL A   1      50.445  26.712  31.806  1.00  0.00    -0.237 OA
ATOM     90  O   UNL A   1      50.374  24.247  31.799  1.00  0.00    -0.237 OA
ATOM     91  O   UNL A   1      52.330  25.395  30.883  1.00  0.00    -0.744 OA
ENDBRANCH  85  88
ENDBRANCH  57  81
BRANCH  69  92
ATOM     92  C   UNL A   1      44.469  32.467  27.553  1.00  0.00     0.023 A 
ATOM     93  C   UNL A   1      44.542  32.430  26.144  1.00  0.00     0.012 A 
ATOM     94  C   UNL A   1      43.985  33.656  28.145  1.00  0.00     0.148 A 
ATOM     95  C   UNL A   1      44.153  33.516  25.361  1.00  0.00     0.002 A 
ATOM     96  C   UNL A   1      43.499  34.691  27.359  1.00  0.00     0.091 A 
ATOM     97  F   UNL A   1      44.004  33.802  29.477  1.00  0.00    -0.205 F 
ATOM     98  C   UNL A   1      43.601  34.636  25.967  1.00  0.00     0.022 A 
BRANCH  96  99
ATOM     99  S   UNL A   1      42.595  36.061  28.087  1.00  0.00     0.127 S 
ATOM    100  O   UNL A   1      43.642  36.728  28.857  1.00  0.00    -0.237 OA
ATOM    101  O   UNL A   1      42.141  36.795  26.905  1.00  0.00    -0.237 OA
ATOM    102  O   UNL A   1      41.521  35.452  28.861  1.00  0.00    -0.744 OA
ENDBRANCH  96  99
ENDBRANCH  69  92
ENDBRANCH  43  44
ENDBRANCH  36  38
ENDBRANCH  35  36
ENDBRANCH  34  35
ENDBRANCH  33  34
ENDBRANCH  32  33
ENDBRANCH  31  32
ENDBRANCH  30  31
ENDBRANCH   1  30
TORSDOF 27
ENDMDL
MODEL 2
REMARK VINA RESULT:     -10.0      2.506      3.574
REMARK SMILES Cc1ccc(S(=O)(=O)N(CC(=O)OCCOCCOCCOCCOC(=O)c2ccc(-c3c4nc(c(-c5cccc(S(=O)(=O)[O-])c5F)c5ccc([nH]5)c(-c5cccc(S(=O)(=O)[O-])c5F)c5nc(c(-c6cccc(S(=O)(=O)[O-])c6F)c6ccc3[nH]6)C=C5)C=C4)cc2)c2cc(Cl)cc(Cl)c2)cc1
REMARK SMILES IDX 19 1 18 2 17 3 16 4 15 5 14 6 13 7 11 8 12 9 10 10 9 11 6 12
REMARK SMILES IDX 7 13 8 14 5 15 1 16 2 17 3 18 100 19 4 20 99 21 91 22 92 23
REMARK SMILES IDX 98 24 93 25 96 26 94 27 95 28 97 29 20 30 21 31 22 32 23 33
REMARK SMILES IDX 24 34 25 35 26 36 27 37 28 38 29 39 90 40 30 41 89 42 31 43
REMARK SMILES IDX 32 44 33 45 83 46 34 47 88 48 82 49 84 50 35 51 87 52 81 53
REMARK SMILES IDX 80 54 36 56 68 57 48 58 67 59 49 60 52 61 66 62 85 63 50 64
REMARK SMILES IDX 51 65 65 67 86 68 53 69 37 70 38 71 46 72 39 73 41 74 47 75
REMARK SMILES IDX 40 76 42 77 43 78 44 79 45 80 69 81 70 82 78 83 71 84 73 85
REMARK SMILES IDX 79 86 72 87 74 88 75 89 76 90 77 91 54 92 55 93 63 94 56 95
REMARK SMILES IDX 58 96 64 97 57 98 59 99 60 100 61 101 62 102
REMARK H PARENT 84 55 52 66
REMARK Flexibility Score: inf
ROOT
ATOM      1  O   UNL A   1      38.477  22.108  25.396  1.00  0.00    -0.377 OA
ENDROOT
BRANCH   1   2
ATOM      2  C   UNL A   1      37.113  21.960  25.771  1.00  0.00     0.188 C 
BRANCH   2   3
ATOM      3  C   UNL A   1      36.188  21.565  24.609  1.00  0.00     0.188 C 
BRANCH   3   4
ATOM      4  O   UNL A   1      34.791  21.586  24.807  1.00  0.00    -0.376 OA
BRANCH   4   5
ATOM      5  C   UNL A   1      34.290  22.194  25.977  1.00  0.00     0.202 C 
BRANCH   5   6
ATOM      6  C   UNL A   1      34.078  23.708  25.875  1.00  0.00     0.261 C 
BRANCH   6   7
ATOM      7  O   UNL A   1      33.312  24.164  24.754  1.00  0.00    -0.462 OA
BRANCH   7   8
ATOM      8  C   UNL A   1      33.906  24.824  23.735  1.00  0.00     0.326 C 
ATOM      9  O   UNL A   1      34.732  24.425  22.953  1.00  0.00    -0.250 OA
BRANCH   8  10
ATOM     10  C   UNL A   1      33.340  26.202  23.594  1.00  0.00     0.258 C 
BRANCH  10  11
ATOM     11  N   UNL A   1      32.335  26.748  24.545  1.00  0.00    -0.255 N 
BRANCH  11  12
ATOM     12  S   UNL A   1      30.667  26.511  24.118  1.00  0.00     0.264 S 
ATOM     13  O   UNL A   1      29.877  26.381  25.329  1.00  0.00    -0.201 OA
ATOM     14  O   UNL A   1      30.642  25.419  23.160  1.00  0.00    -0.201 OA
BRANCH  12  15
ATOM     15  C   UNL A   1      29.941  27.901  23.198  1.00  0.00     0.088 A 
ATOM     16  C   UNL A   1      27.816  31.135  21.211  1.00  0.00     0.044 C 
ATOM     17  C   UNL A   1      28.541  30.021  21.906  1.00  0.00    -0.051 A 
ATOM     18  C   UNL A   1      27.861  29.103  22.710  1.00  0.00     0.005 A 
ATOM     19  C   UNL A   1      29.913  29.853  21.732  1.00  0.00     0.005 A 
ATOM     20  C   UNL A   1      28.553  28.067  23.360  1.00  0.00     0.022 A 
ATOM     21  C   UNL A   1      30.597  28.794  22.353  1.00  0.00     0.022 A 
ENDBRANCH  12  15
ENDBRANCH  11  12
BRANCH  11  22
ATOM     22  C   UNL A   1      32.715  27.997  25.278  1.00  0.00     0.055 A 
ATOM     23  C   UNL A   1      33.887  28.042  26.060  1.00  0.00     0.047 A 
ATOM     24  C   UNL A   1      31.884  29.114  25.424  1.00  0.00     0.047 A 
ATOM     25  C   UNL A   1      34.281  29.134  26.837  1.00  0.00     0.044 A 
ATOM     26  C   UNL A   1      32.258  30.204  26.246  1.00  0.00     0.044 A 
ATOM     27  Cl  UNL A   1      35.797  29.119  27.657  1.00  0.00    -0.084 Cl
ATOM     28  C   UNL A   1      33.457  30.224  26.948  1.00  0.00     0.041 A 
ATOM     29  Cl  UNL A   1      31.206  31.559  26.423  1.00  0.00    -0.084 Cl
ENDBRANCH  11  22
ENDBRANCH  10  11
ENDBRANCH   8  10
ENDBRANCH   7   8
ENDBRANCH   6   7
ENDBRANCH   5   6
ENDBRANCH   4   5
ENDBRANCH   3   4
ENDBRANCH   2   3
ENDBRANCH   1   2
BRANCH   1  30
ATOM     30  C   UNL A   1      39.575  21.667  26.207  1.00  0.00     0.188 C 
BRANCH  30  31
ATOM     31  C   UNL A   1      39.954  20.179  26.231  1.00  0.00     0.188 C 
BRANCH  31  32
ATOM     32  O   UNL A   1      40.681  19.898  27.407  1.00  0.00    -0.376 OA
BRANCH  32  33
ATOM     33  C   UNL A   1      42.077  20.133  27.337  1.00  0.00     0.202 C 
BRANCH  33  34
ATOM     34  C   UNL A   1      42.540  19.458  26.060  1.00  0.00     0.261 C 
BRANCH  34  35
ATOM     35  O   UNL A   1      43.051  20.505  25.200  1.00  0.00    -0.460 OA
BRANCH  35  36
ATOM     36  C   UNL A   1      44.410  20.657  25.255  1.00  0.00     0.338 C 
ATOM     37  O   UNL A   1      45.196  19.728  25.153  1.00  0.00    -0.246 OA
BRANCH  36  38
ATOM     38  C   UNL A   1      44.799  22.070  25.586  1.00  0.00     0.060 A 
ATOM     39  C   UNL A   1      44.760  22.515  26.917  1.00  0.00     0.016 A 
ATOM     40  C   UNL A   1      45.022  23.012  24.582  1.00  0.00     0.016 A 
ATOM     41  C   UNL A   1      44.858  23.888  27.236  1.00  0.00     0.010 A 
ATOM     42  C   UNL A   1      45.088  24.370  24.906  1.00  0.00     0.010 A 
ATOM     43  C   UNL A   1      44.971  24.844  26.230  1.00  0.00    -0.014 A 
BRANCH  43  44
ATOM     44  C   UNL A   1      44.762  26.311  26.409  1.00  0.00     0.031 A 
ATOM     45  C   UNL A   1      43.387  26.874  26.611  1.00  0.00     0.074 A 
ATOM     46  C   UNL A   1      45.763  27.072  26.929  1.00  0.00     0.049 A 
ATOM     47  N   UNL A   1      43.139  28.089  26.990  1.00  0.00    -0.248 NA
ATOM     48  C   UNL A   1      42.156  26.122  26.382  1.00  0.00     0.031 C 
ATOM     49  C   UNL A   1      45.545  27.994  28.051  1.00  0.00     0.029 A 
ATOM     50  N   UNL A   1      47.151  27.092  26.776  1.00  0.00    -0.354 N 
ATOM     51  C   UNL A   1      41.880  28.084  27.532  1.00  0.00     0.074 A 
ATOM     52  C   UNL A   1      41.243  26.950  26.908  1.00  0.00     0.031 C 
ATOM     53  C   UNL A   1      46.678  28.602  28.377  1.00  0.00     0.029 A 
ATOM     54  C   UNL A   1      47.683  28.198  27.424  1.00  0.00     0.049 A 
ATOM     55  H   UNL A   1      47.674  26.420  26.282  1.00  0.00     0.167 HD
ATOM     56  C   UNL A   1      41.578  28.910  28.578  1.00  0.00     0.034 A 
ATOM     57  C   UNL A   1      48.764  28.971  27.178  1.00  0.00     0.034 A 
ATOM     58  C   UNL A   1      42.687  29.850  28.939  1.00  0.00     0.049 A 
ATOM     59  C   UNL A   1      48.227  30.376  27.078  1.00  0.00     0.074 A 
ATOM     60  C   UNL A   1      43.321  30.199  30.123  1.00  0.00     0.029 A 
ATOM     61  N   UNL A   1      43.423  30.506  27.933  1.00  0.00    -0.354 N 
ATOM     62  N   UNL A   1      46.941  30.551  26.876  1.00  0.00    -0.248 NA
ATOM     63  C   UNL A   1      48.901  31.650  27.315  1.00  0.00     0.031 C 
ATOM     64  C   UNL A   1      44.448  31.028  29.812  1.00  0.00     0.029 A 
ATOM     65  C   UNL A   1      44.498  31.232  28.439  1.00  0.00     0.049 A 
ATOM     66  H   UNL A   1      43.202  30.456  26.974  1.00  0.00     0.167 HD
ATOM     67  C   UNL A   1      46.581  31.795  27.256  1.00  0.00     0.074 A 
ATOM     68  C   UNL A   1      47.850  32.501  27.379  1.00  0.00     0.031 C 
ATOM     69  C   UNL A   1      45.305  32.137  27.602  1.00  0.00     0.034 A 
BRANCH  56  70
ATOM     70  C   UNL A   1      40.268  28.811  29.382  1.00  0.00     0.023 A 
ATOM     71  C   UNL A   1      39.871  27.536  29.843  1.00  0.00     0.012 A 
ATOM     72  C   UNL A   1      39.394  29.879  29.730  1.00  0.00     0.148 A 
ATOM     73  C   UNL A   1      38.731  27.340  30.642  1.00  0.00     0.002 A 
ATOM     74  C   UNL A   1      38.324  29.702  30.620  1.00  0.00     0.091 A 
ATOM     75  F   UNL A   1      39.507  31.061  29.114  1.00  0.00    -0.205 F 
ATOM     76  C   UNL A   1      37.982  28.428  31.068  1.00  0.00     0.022 A 
BRANCH  74  77
ATOM     77  S   UNL A   1      37.371  31.082  31.294  1.00  0.00     0.127 S 
ATOM     78  O   UNL A   1      36.175  31.075  30.453  1.00  0.00    -0.237 OA
ATOM     79  O   UNL A   1      37.142  30.661  32.677  1.00  0.00    -0.237 OA
ATOM     80  O   UNL A   1      38.214  32.264  31.156  1.00  0.00    -0.744 OA
ENDBRANCH  74  77
ENDBRANCH  56  70
BRANCH  57  81
ATOM     81  C   UNL A   1      49.990  28.227  26.807  1.00  0.00     0.023 A 
ATOM     82  C   UNL A   1      50.365  28.296  25.436  1.00  0.00     0.012 A 
ATOM     83  C   UNL A   1      51.015  28.189  27.763  1.00  0.00     0.148 A 
ATOM     84  C   UNL A   1      51.699  28.521  25.056  1.00  0.00     0.002 A 
ATOM     85  C   UNL A   1      52.320  28.519  27.387  1.00  0.00     0.091 A 
ATOM     86  F   UNL A   1      50.662  28.067  29.049  1.00  0.00    -0.205 F 
ATOM     87  C   UNL A   1      52.664  28.700  26.039  1.00  0.00     0.022 A 
BRANCH  85  88
ATOM     88  S   UNL A   1      53.495  29.091  28.625  1.00  0.00     0.127 S 
ATOM     89  O   UNL A   1      53.716  27.886  29.417  1.00  0.00    -0.237 OA
ATOM     90  O   UNL A   1      54.631  29.516  27.809  1.00  0.00    -0.237 OA
ATOM     91  O   UNL A   1      52.807  30.188  29.293  1.00  0.00    -0.744 OA
ENDBRANCH  85  88
ENDBRANCH  57  81
BRANCH  69  92
ATOM     92  C   UNL A   1      44.666  33.307  26.894  1.00  0.00     0.023 A 
ATOM     93  C   UNL A   1      44.283  33.227  25.538  1.00  0.00     0.012 A 
ATOM     94  C   UNL A   1      44.231  34.437  27.624  1.00  0.00     0.148 A 
ATOM     95  C   UNL A   1      43.507  34.218  24.936  1.00  0.00     0.002 A 
ATOM     96  C   UNL A   1      43.371  35.362  27.051  1.00  0.00     0.091 A 
ATOM     97  F   UNL A   1      44.659  34.633  28.879  1.00  0.00    -0.205 F 
ATOM     98  C   UNL A   1      43.024  35.270  25.701  1.00  0.00     0.022 A 
BRANCH  96  99
ATOM     99  S   UNL A   1      42.562  36.617  28.049  1.00  0.00     0.127 S 
ATOM    100  O   UNL A   1      41.799  37.347  27.039  1.00  0.00    -0.237 OA
ATOM    101  O   UNL A   1      41.752  35.810  28.963  1.00  0.00    -0.237 OA
ATOM    102  O   UNL A   1      43.637  37.354  28.696  1.00  0.00    -0.744 OA
ENDBRANCH  96  99
ENDBRANCH  69  92
ENDBRANCH  43  44
ENDBRANCH  36  38
ENDBRANCH  35  36
ENDBRANCH  34  35
ENDBRANCH  33  34
ENDBRANCH  32  33
ENDBRANCH  31  32
ENDBRANCH  30  31
ENDBRANCH   1  30
TORSDOF 27
ENDMDL
MODEL 3
REMARK VINA RESULT:      -9.8      1.761      2.372
REMARK SMILES Cc1ccc(S(=O)(=O)N(CC(=O)OCCOCCOCCOCCOC(=O)c2ccc(-c3c4nc(c(-c5cccc(S(=O)(=O)[O-])c5F)c5ccc([nH]5)c(-c5cccc(S(=O)(=O)[O-])c5F)c5nc(c(-c6cccc(S(=O)(=O)[O-])c6F)c6ccc3[nH]6)C=C5)C=C4)cc2)c2cc(Cl)cc(Cl)c2)cc1
REMARK SMILES IDX 19 1 18 2 17 3 16 4 15 5 14 6 13 7 11 8 12 9 10 10 9 11 6 12
REMARK SMILES IDX 7 13 8 14 5 15 1 16 2 17 3 18 100 19 4 20 99 21 91 22 92 23
REMARK SMILES IDX 98 24 93 25 96 26 94 27 95 28 97 29 20 30 21 31 22 32 23 33
REMARK SMILES IDX 24 34 25 35 26 36 27 37 28 38 29 39 90 40 30 41 89 42 31 43
REMARK SMILES IDX 32 44 33 45 83 46 34 47 88 48 82 49 84 50 35 51 87 52 81 53
REMARK SMILES IDX 80 54 36 56 68 57 48 58 67 59 49 60 52 61 66 62 85 63 50 64
REMARK SMILES IDX 51 65 65 67 86 68 53 69 37 70 38 71 46 72 39 73 41 74 47 75
REMARK SMILES IDX 40 76 42 77 43 78 44 79 45 80 69 81 70 82 78 83 71 84 73 85
REMARK SMILES IDX 79 86 72 87 74 88 75 89 76 90 77 91 54 92 55 93 63 94 56 95
REMARK SMILES IDX 58 96 64 97 57 98 59 99 60 100 61 101 62 102
REMARK H PARENT 84 55 52 66
REMARK Flexibility Score: inf
ROOT
ATOM      1  O   UNL A   1      35.268  22.161  26.897  1.00  0.00    -0.377 OA
ENDROOT
BRANCH   1   2
ATOM      2  C   UNL A   1      33.937  21.791  27.235  1.00  0.00     0.188 C 
BRANCH   2   3
ATOM      3  C   UNL A   1      32.865  22.719  26.643  1.00  0.00     0.188 C 
BRANCH   3   4
ATOM      4  O   UNL A   1      31.728  22.150  26.030  1.00  0.00    -0.376 OA
BRANCH   4   5
ATOM      5  C   UNL A   1      30.460  22.679  26.351  1.00  0.00     0.202 C 
BRANCH   5   6
ATOM      6  C   UNL A   1      30.482  24.098  26.928  1.00  0.00     0.261 C 
BRANCH   6   7
ATOM      7  O   UNL A   1      29.651  25.060  26.269  1.00  0.00    -0.462 OA
BRANCH   7   8
ATOM      8  C   UNL A   1      30.165  25.892  25.336  1.00  0.00     0.326 C 
ATOM      9  O   UNL A   1      29.649  26.318  24.333  1.00  0.00    -0.250 OA
BRANCH   8  10
ATOM     10  C   UNL A   1      31.536  26.348  25.727  1.00  0.00     0.258 C 
BRANCH  10  11
ATOM     11  N   UNL A   1      32.586  26.660  24.719  1.00  0.00    -0.255 N 
BRANCH  11  12
ATOM     12  S   UNL A   1      32.795  28.340  24.325  1.00  0.00     0.264 S 
ATOM     13  O   UNL A   1      31.512  28.907  23.953  1.00  0.00    -0.201 OA
ATOM     14  O   UNL A   1      33.879  28.401  23.360  1.00  0.00    -0.201 OA
BRANCH  12  15
ATOM     15  C   UNL A   1      33.401  29.349  25.710  1.00  0.00     0.088 A 
ATOM     16  C   UNL A   1      34.454  31.974  29.016  1.00  0.00     0.044 C 
ATOM     17  C   UNL A   1      34.079  31.069  27.879  1.00  0.00    -0.051 A 
ATOM     18  C   UNL A   1      32.898  31.262  27.159  1.00  0.00     0.005 A 
ATOM     19  C   UNL A   1      34.926  30.035  27.490  1.00  0.00     0.005 A 
ATOM     20  C   UNL A   1      32.556  30.403  26.099  1.00  0.00     0.022 A 
ATOM     21  C   UNL A   1      34.600  29.201  26.406  1.00  0.00     0.022 A 
ENDBRANCH  12  15
ENDBRANCH  11  12
BRANCH  11  22
ATOM     22  C   UNL A   1      32.809  25.640  23.647  1.00  0.00     0.055 A 
ATOM     23  C   UNL A   1      32.627  25.975  22.290  1.00  0.00     0.047 A 
ATOM     24  C   UNL A   1      33.002  24.274  23.881  1.00  0.00     0.047 A 
ATOM     25  C   UNL A   1      32.737  25.073  21.228  1.00  0.00     0.044 A 
ATOM     26  C   UNL A   1      33.070  23.349  22.812  1.00  0.00     0.044 A 
ATOM     27  Cl  UNL A   1      32.612  25.623  19.599  1.00  0.00    -0.084 Cl
ATOM     28  C   UNL A   1      32.946  23.742  21.484  1.00  0.00     0.041 A 
ATOM     29  Cl  UNL A   1      33.290  21.669  23.130  1.00  0.00    -0.084 Cl
ENDBRANCH  11  22
ENDBRANCH  10  11
ENDBRANCH   8  10
ENDBRANCH   7   8
ENDBRANCH   6   7
ENDBRANCH   5   6
ENDBRANCH   4   5
ENDBRANCH   3   4
ENDBRANCH   2   3
ENDBRANCH   1   2
BRANCH   1  30
ATOM     30  C   UNL A   1      35.612  22.874  25.701  1.00  0.00     0.188 C 
BRANCH  30  31
ATOM     31  C   UNL A   1      36.879  22.490  24.922  1.00  0.00     0.188 C 
BRANCH  31  32
ATOM     32  O   UNL A   1      37.564  21.469  25.613  1.00  0.00    -0.376 OA
BRANCH  32  33
ATOM     33  C   UNL A   1      37.723  20.250  24.907  1.00  0.00     0.202 C 
BRANCH  33  34
ATOM     34  C   UNL A   1      39.073  19.705  25.334  1.00  0.00     0.261 C 
BRANCH  34  35
ATOM     35  O   UNL A   1      39.727  20.759  26.082  1.00  0.00    -0.460 OA
BRANCH  35  36
ATOM     36  C   UNL A   1      41.071  20.567  26.253  1.00  0.00     0.338 C 
ATOM     37  O   UNL A   1      41.598  19.466  26.266  1.00  0.00    -0.246 OA
BRANCH  36  38
ATOM     38  C   UNL A   1      41.783  21.856  26.551  1.00  0.00     0.060 A 
ATOM     39  C   UNL A   1      41.762  22.385  27.852  1.00  0.00     0.016 A 
ATOM     40  C   UNL A   1      42.311  22.643  25.528  1.00  0.00     0.016 A 
ATOM     41  C   UNL A   1      42.184  23.708  28.115  1.00  0.00     0.010 A 
ATOM     42  C   UNL A   1      42.699  23.960  25.794  1.00  0.00     0.010 A 
ATOM     43  C   UNL A   1      42.610  24.535  27.080  1.00  0.00    -0.014 A 
BRANCH  43  44
ATOM     44  C   UNL A   1      42.771  26.017  27.171  1.00  0.00     0.031 A 
ATOM     45  C   UNL A   1      41.599  26.901  27.476  1.00  0.00     0.074 A 
ATOM     46  C   UNL A   1      43.976  26.540  27.526  1.00  0.00     0.049 A 
ATOM     47  N   UNL A   1      41.687  28.155  27.790  1.00  0.00    -0.248 NA
ATOM     48  C   UNL A   1      40.208  26.455  27.435  1.00  0.00     0.031 C 
ATOM     49  C   UNL A   1      44.114  27.537  28.594  1.00  0.00     0.029 A 
ATOM     50  N   UNL A   1      45.302  26.220  27.226  1.00  0.00    -0.354 N 
ATOM     51  C   UNL A   1      40.535  28.476  28.461  1.00  0.00     0.074 A 
ATOM     52  C   UNL A   1      39.582  27.500  27.992  1.00  0.00     0.031 C 
ATOM     53  C   UNL A   1      45.388  27.871  28.754  1.00  0.00     0.029 A 
ATOM     54  C   UNL A   1      46.150  27.195  27.732  1.00  0.00     0.049 A 
ATOM     55  H   UNL A   1      45.592  25.420  26.730  1.00  0.00     0.167 HD
ATOM     56  C   UNL A   1      40.561  29.398  29.470  1.00  0.00     0.034 A 
ATOM     57  C   UNL A   1      47.344  27.676  27.317  1.00  0.00     0.034 A 
ATOM     58  C   UNL A   1      41.893  30.062  29.641  1.00  0.00     0.049 A 
ATOM     59  C   UNL A   1      47.140  29.162  27.172  1.00  0.00     0.074 A 
ATOM     60  C   UNL A   1      42.728  30.303  30.724  1.00  0.00     0.029 A 
ATOM     61  N   UNL A   1      42.635  30.475  28.518  1.00  0.00    -0.354 N 
ATOM     62  N   UNL A   1      45.914  29.630  27.095  1.00  0.00    -0.248 NA
ATOM     63  C   UNL A   1      48.114  30.247  27.242  1.00  0.00     0.031 C 
ATOM     64  C   UNL A   1      43.971  30.823  30.235  1.00  0.00     0.029 A 
ATOM     65  C   UNL A   1      43.902  30.946  28.853  1.00  0.00     0.049 A 
ATOM     66  H   UNL A   1      42.295  30.436  27.594  1.00  0.00     0.167 HD
ATOM     67  C   UNL A   1      45.902  30.939  27.419  1.00  0.00     0.074 A 
ATOM     68  C   UNL A   1      47.305  31.326  27.355  1.00  0.00     0.031 C 
ATOM     69  C   UNL A   1      44.791  31.592  27.871  1.00  0.00     0.034 A 
BRANCH  56  70
ATOM     70  C   UNL A   1      39.371  29.652  30.413  1.00  0.00     0.023 A 
ATOM     71  C   UNL A   1      38.915  28.575  31.206  1.00  0.00     0.012 A 
ATOM     72  C   UNL A   1      38.663  30.875  30.588  1.00  0.00     0.148 A 
ATOM     73  C   UNL A   1      37.881  28.713  32.149  1.00  0.00     0.002 A 
ATOM     74  C   UNL A   1      37.713  31.042  31.607  1.00  0.00     0.091 A 
ATOM     75  F   UNL A   1      38.807  31.863  29.700  1.00  0.00    -0.205 F 
ATOM     76  C   UNL A   1      37.310  29.956  32.382  1.00  0.00     0.022 A 
BRANCH  74  77
ATOM     77  S   UNL A   1      37.003  32.649  32.032  1.00  0.00     0.127 S 
ATOM     78  O   UNL A   1      35.713  32.277  32.610  1.00  0.00    -0.237 OA
ATOM     79  O   UNL A   1      37.970  33.175  32.997  1.00  0.00    -0.237 OA
ATOM     80  O   UNL A   1      36.926  33.402  30.785  1.00  0.00    -0.744 OA
ENDBRANCH  74  77
ENDBRANCH  56  70
BRANCH  57  81
ATOM     81  C   UNL A   1      48.310  26.643  26.874  1.00  0.00     0.023 A 
ATOM     82  C   UNL A   1      48.248  26.289  25.496  1.00  0.00     0.012 A 
ATOM     83  C   UNL A   1      49.570  26.657  27.489  1.00  0.00     0.148 A 
ATOM     84  C   UNL A   1      49.416  26.153  24.727  1.00  0.00     0.002 A 
ATOM     85  C   UNL A   1      50.721  26.627  26.699  1.00  0.00     0.091 A 
ATOM     86  F   UNL A   1      49.619  26.935  28.798  1.00  0.00    -0.205 F 
ATOM     87  C   UNL A   1      50.651  26.391  25.318  1.00  0.00     0.022 A 
BRANCH  85  88
ATOM     88  S   UNL A   1      52.275  27.262  27.351  1.00  0.00     0.127 S 
ATOM     89  O   UNL A   1      52.564  26.320  28.425  1.00  0.00    -0.237 OA
ATOM     90  O   UNL A   1      53.162  27.177  26.192  1.00  0.00    -0.237 OA
ATOM     91  O   UNL A   1      51.963  28.628  27.753  1.00  0.00    -0.744 OA
ENDBRANCH  85  88
ENDBRANCH  57  81
BRANCH  69  92
ATOM     92  C   UNL A   1      44.360  32.847  27.152  1.00  0.00     0.023 A 
ATOM     93  C   UNL A   1      44.189  32.871  25.751  1.00  0.00     0.012 A 
ATOM     94  C   UNL A   1      43.904  33.971  27.879  1.00  0.00     0.148 A 
ATOM     95  C   UNL A   1      43.594  33.953  25.104  1.00  0.00     0.002 A 
ATOM     96  C   UNL A   1      43.217  34.994  27.243  1.00  0.00     0.091 A 
ATOM     97  F   UNL A   1      44.144  34.065  29.194  1.00  0.00    -0.205 F 
ATOM     98  C   UNL A   1      43.079  35.001  25.853  1.00  0.00     0.022 A 
BRANCH  96  99
ATOM     99  S   UNL A   1      42.358  36.259  28.185  1.00  0.00     0.127 S 
ATOM    100  O   UNL A   1      41.191  35.524  28.667  1.00  0.00    -0.237 OA
ATOM    101  O   UNL A   1      43.340  36.595  29.218  1.00  0.00    -0.237 OA
ATOM    102  O   UNL A   1      42.093  37.335  27.241  1.00  0.00    -0.744 OA
ENDBRANCH  96  99
ENDBRANCH  69  92
ENDBRANCH  43  44
ENDBRANCH  36  38
ENDBRANCH  35  36
ENDBRANCH  34  35
ENDBRANCH  33  34
ENDBRANCH  32  33
ENDBRANCH  31  32
ENDBRANCH  30  31
ENDBRANCH   1  30
TORSDOF 27
ENDMDL
