MODEL 1
REMARK VINA RESULT:      -7.9      0.000      0.000
REMARK SMILES C[C@H]1[C@H](C(=O)OCCOCCOCCOCCOC(=O)c2ccc(-c3c4nc(c(-c5cccc(S(=O)(=O)[O-])c5F)c5ccc([nH]5)c(-c5cccc(S(=O)(=O)[O-])c5F)c5nc(c(-c6cccc(S(=O)(=O)[O-])c6F)c6ccc3[nH]6)C=C5)C=C4)cc2)CCN1C(=O)NCc1ccncc1
REMARK SMILES IDX 12 1 11 2 10 3 9 4 8 5 7 6 6 7 4 8 5 9 3 10 1 11 2 12 86 13
REMARK SMILES IDX 84 14 85 15 87 16 88 17 89 18 90 20 91 21 92 22 96 23 93 24
REMARK SMILES IDX 95 25 94 26 13 27 14 28 15 29 16 30 17 31 18 32 19 33 20 34
REMARK SMILES IDX 21 35 22 36 83 37 23 38 82 39 24 40 25 41 26 42 76 43 27 44
REMARK SMILES IDX 81 45 75 46 77 47 28 48 80 49 74 50 73 51 29 53 61 54 41 55
REMARK SMILES IDX 60 56 42 57 45 58 59 59 78 60 43 61 44 62 58 64 79 65 46 66
REMARK SMILES IDX 30 67 31 68 39 69 32 70 34 71 40 72 33 73 35 74 36 75 37 76
REMARK SMILES IDX 38 77 62 78 63 79 71 80 64 81 66 82 72 83 65 84 67 85 68 86
REMARK SMILES IDX 69 87 70 88 47 89 48 90 56 91 49 92 51 93 57 94 50 95 52 96
REMARK SMILES IDX 53 97 54 98 55 99
REMARK H PARENT 89 19 77 52 45 63
REMARK Flexibility Score: inf
ROOT
ATOM      1  O   UNL A   1      40.017  26.903  27.954  1.00  0.00    -0.377 OA
ENDROOT
BRANCH   1   2
ATOM      2  C   UNL A   1      38.974  27.641  28.554  1.00  0.00     0.188 C 
BRANCH   2   3
ATOM      3  C   UNL A   1      38.923  29.136  28.202  1.00  0.00     0.188 C 
BRANCH   3   4
ATOM      4  O   UNL A   1      37.746  29.731  27.677  1.00  0.00    -0.376 OA
BRANCH   4   5
ATOM      5  C   UNL A   1      36.463  29.271  28.070  1.00  0.00     0.202 C 
BRANCH   5   6
ATOM      6  C   UNL A   1      35.226  29.519  27.187  1.00  0.00     0.261 C 
BRANCH   6   7
ATOM      7  O   UNL A   1      34.369  28.395  26.896  1.00  0.00    -0.463 OA
BRANCH   7   8
ATOM      8  C   UNL A   1      33.099  28.700  26.540  1.00  0.00     0.311 C 
ATOM      9  O   UNL A   1      32.285  29.239  27.283  1.00  0.00    -0.252 OA
BRANCH   8  10
ATOM     10  C   UNL A   1      32.696  28.230  25.156  1.00  0.00     0.123 C 
ATOM     11  C   UNL A   1      34.008  28.827  23.099  1.00  0.00     0.032 C 
ATOM     12  C   UNL A   1      33.745  27.719  24.134  1.00  0.00     0.098 C 
ATOM     13  N   UNL A   1      33.119  26.558  23.484  1.00  0.00    -0.321 N 
ATOM     14  C   UNL A   1      31.708  27.079  25.292  1.00  0.00     0.039 C 
ATOM     15  C   UNL A   1      31.740  26.435  23.925  1.00  0.00     0.122 C 
BRANCH  13  16
ATOM     16  C   UNL A   1      33.586  25.624  22.616  1.00  0.00     0.317 C 
ATOM     17  O   UNL A   1      33.472  25.781  21.395  1.00  0.00    -0.249 OA
ATOM     18  N   UNL A   1      34.205  24.494  22.974  1.00  0.00    -0.334 N 
ATOM     19  H   UNL A   1      34.465  23.972  22.180  1.00  0.00     0.165 HD
BRANCH  18  20
ATOM     20  C   UNL A   1      34.603  23.814  24.185  1.00  0.00     0.153 C 
BRANCH  20  21
ATOM     21  C   UNL A   1      33.409  23.453  25.021  1.00  0.00    -0.026 A 
ATOM     22  C   UNL A   1      33.239  23.955  26.315  1.00  0.00     0.025 A 
ATOM     23  C   UNL A   1      32.462  22.558  24.522  1.00  0.00     0.025 A 
ATOM     24  C   UNL A   1      32.133  23.547  27.043  1.00  0.00     0.111 A 
ATOM     25  C   UNL A   1      31.397  22.205  25.327  1.00  0.00     0.111 A 
ATOM     26  N   UNL A   1      31.204  22.695  26.569  1.00  0.00    -0.265 NA
ENDBRANCH  20  21
ENDBRANCH  18  20
ENDBRANCH  13  16
ENDBRANCH   8  10
ENDBRANCH   7   8
ENDBRANCH   6   7
ENDBRANCH   5   6
ENDBRANCH   4   5
ENDBRANCH   3   4
ENDBRANCH   2   3
ENDBRANCH   1   2
BRANCH   1  27
ATOM     27  C   UNL A   1      39.667  25.747  27.205  1.00  0.00     0.188 C 
BRANCH  27  28
ATOM     28  C   UNL A   1      40.776  24.746  26.851  1.00  0.00     0.188 C 
BRANCH  28  29
ATOM     29  O   UNL A   1      40.913  23.678  27.787  1.00  0.00    -0.376 OA
BRANCH  29  30
ATOM     30  C   UNL A   1      40.390  22.406  27.416  1.00  0.00     0.202 C 
BRANCH  30  31
ATOM     31  C   UNL A   1      41.430  21.348  27.018  1.00  0.00     0.261 C 
BRANCH  31  32
ATOM     32  O   UNL A   1      41.884  21.415  25.659  1.00  0.00    -0.460 OA
BRANCH  32  33
ATOM     33  C   UNL A   1      43.168  21.080  25.413  1.00  0.00     0.338 C 
ATOM     34  O   UNL A   1      43.583  20.033  24.951  1.00  0.00    -0.246 OA
BRANCH  33  35
ATOM     35  C   UNL A   1      43.986  22.280  25.645  1.00  0.00     0.060 A 
ATOM     36  C   UNL A   1      44.927  22.276  26.680  1.00  0.00     0.016 A 
ATOM     37  C   UNL A   1      43.817  23.402  24.835  1.00  0.00     0.016 A 
ATOM     38  C   UNL A   1      45.676  23.427  26.936  1.00  0.00     0.010 A 
ATOM     39  C   UNL A   1      44.573  24.546  25.091  1.00  0.00     0.010 A 
ATOM     40  C   UNL A   1      45.471  24.582  26.169  1.00  0.00    -0.014 A 
BRANCH  40  41
ATOM     41  C   UNL A   1      46.005  25.884  26.637  1.00  0.00     0.031 A 
ATOM     42  C   UNL A   1      47.418  26.242  26.254  1.00  0.00     0.074 A 
ATOM     43  C   UNL A   1      45.268  26.737  27.373  1.00  0.00     0.049 A 
ATOM     44  N   UNL A   1      48.093  27.335  26.496  1.00  0.00    -0.248 NA
ATOM     45  C   UNL A   1      48.177  25.223  25.507  1.00  0.00     0.031 C 
ATOM     46  C   UNL A   1      43.909  26.494  27.853  1.00  0.00     0.029 A 
ATOM     47  N   UNL A   1      45.576  27.985  27.856  1.00  0.00    -0.354 N 
ATOM     48  C   UNL A   1      49.357  27.120  25.960  1.00  0.00     0.074 A 
ATOM     49  C   UNL A   1      49.372  25.781  25.419  1.00  0.00     0.031 C 
ATOM     50  C   UNL A   1      43.502  27.559  28.568  1.00  0.00     0.029 A 
ATOM     51  C   UNL A   1      44.571  28.557  28.599  1.00  0.00     0.049 A 
ATOM     52  H   UNL A   1      46.439  28.429  27.686  1.00  0.00     0.167 HD
ATOM     53  C   UNL A   1      50.406  27.972  25.885  1.00  0.00     0.034 A 
ATOM     54  C   UNL A   1      44.523  29.751  29.224  1.00  0.00     0.034 A 
ATOM     55  C   UNL A   1      50.385  29.316  26.383  1.00  0.00     0.049 A 
ATOM     56  C   UNL A   1      45.696  30.695  29.102  1.00  0.00     0.074 A 
ATOM     57  C   UNL A   1      51.372  30.280  26.300  1.00  0.00     0.029 A 
ATOM     58  N   UNL A   1      49.321  29.885  27.064  1.00  0.00    -0.354 N 
ATOM     59  N   UNL A   1      46.824  30.539  28.450  1.00  0.00    -0.248 NA
ATOM     60  C   UNL A   1      45.569  32.002  29.766  1.00  0.00     0.031 C 
ATOM     61  C   UNL A   1      50.909  31.431  26.945  1.00  0.00     0.029 A 
ATOM     62  C   UNL A   1      49.625  31.189  27.408  1.00  0.00     0.049 A 
ATOM     63  H   UNL A   1      48.474  29.429  27.271  1.00  0.00     0.167 HD
ATOM     64  C   UNL A   1      47.516  31.739  28.587  1.00  0.00     0.074 A 
ATOM     65  C   UNL A   1      46.673  32.620  29.366  1.00  0.00     0.031 C 
ATOM     66  C   UNL A   1      48.745  32.078  28.122  1.00  0.00     0.034 A 
BRANCH  53  67
ATOM     67  C   UNL A   1      51.643  27.474  25.189  1.00  0.00     0.023 A 
ATOM     68  C   UNL A   1      52.682  26.896  25.947  1.00  0.00     0.012 A 
ATOM     69  C   UNL A   1      51.775  27.567  23.791  1.00  0.00     0.148 A 
ATOM     70  C   UNL A   1      53.853  26.458  25.332  1.00  0.00     0.002 A 
ATOM     71  C   UNL A   1      52.925  27.084  23.178  1.00  0.00     0.091 A 
ATOM     72  F   UNL A   1      50.789  28.145  23.091  1.00  0.00    -0.205 F 
ATOM     73  C   UNL A   1      53.969  26.542  23.947  1.00  0.00     0.022 A 
BRANCH  71  74
ATOM     74  S   UNL A   1      53.142  27.077  21.396  1.00  0.00     0.127 S 
ATOM     75  O   UNL A   1      52.039  26.216  20.968  1.00  0.00    -0.237 OA
ATOM     76  O   UNL A   1      52.976  28.492  21.061  1.00  0.00    -0.237 OA
ATOM     77  O   UNL A   1      54.477  26.549  21.155  1.00  0.00    -0.744 OA
ENDBRANCH  71  74
ENDBRANCH  53  67
BRANCH  54  78
ATOM     78  C   UNL A   1      43.295  30.173  29.958  1.00  0.00     0.023 A 
ATOM     79  C   UNL A   1      42.380  31.042  29.331  1.00  0.00     0.012 A 
ATOM     80  C   UNL A   1      43.037  29.740  31.273  1.00  0.00     0.148 A 
ATOM     81  C   UNL A   1      41.255  31.508  30.014  1.00  0.00     0.002 A 
ATOM     82  C   UNL A   1      41.889  30.167  31.930  1.00  0.00     0.091 A 
ATOM     83  F   UNL A   1      43.924  28.923  31.857  1.00  0.00    -0.205 F 
ATOM     84  C   UNL A   1      41.007  31.067  31.310  1.00  0.00     0.022 A 
BRANCH  82  85
ATOM     85  S   UNL A   1      41.424  29.572  33.559  1.00  0.00     0.127 S 
ATOM     86  O   UNL A   1      42.329  30.326  34.424  1.00  0.00    -0.237 OA
ATOM     87  O   UNL A   1      40.019  29.974  33.636  1.00  0.00    -0.237 OA
ATOM     88  O   UNL A   1      41.637  28.132  33.527  1.00  0.00    -0.744 OA
ENDBRANCH  82  85
ENDBRANCH  54  78
BRANCH  66  89
ATOM     89  C   UNL A   1      49.242  33.475  28.391  1.00  0.00     0.023 A 
ATOM     90  C   UNL A   1      49.961  33.752  29.570  1.00  0.00     0.012 A 
ATOM     91  C   UNL A   1      49.070  34.493  27.433  1.00  0.00     0.148 A 
ATOM     92  C   UNL A   1      50.470  35.028  29.808  1.00  0.00     0.002 A 
ATOM     93  C   UNL A   1      49.623  35.749  27.653  1.00  0.00     0.091 A 
ATOM     94  F   UNL A   1      48.368  34.219  26.324  1.00  0.00    -0.205 F 
ATOM     95  C   UNL A   1      50.313  36.023  28.845  1.00  0.00     0.022 A 
BRANCH  93  96
ATOM     96  S   UNL A   1      49.558  37.053  26.418  1.00  0.00     0.127 S 
ATOM     97  O   UNL A   1      48.119  37.267  26.284  1.00  0.00    -0.237 OA
ATOM     98  O   UNL A   1      50.279  38.145  27.075  1.00  0.00    -0.237 OA
ATOM     99  O   UNL A   1      50.228  36.517  25.239  1.00  0.00    -0.744 OA
ENDBRANCH  93  96
ENDBRANCH  66  89
ENDBRANCH  40  41
ENDBRANCH  33  35
ENDBRANCH  32  33
ENDBRANCH  31  32
ENDBRANCH  30  31
ENDBRANCH  29  30
ENDBRANCH  28  29
ENDBRANCH  27  28
ENDBRANCH   1  27
TORSDOF 26
ENDMDL
MODEL 2
REMARK VINA RESULT:      -7.4      8.375     16.306
REMARK SMILES C[C@H]1[C@H](C(=O)OCCOCCOCCOCCOC(=O)c2ccc(-c3c4nc(c(-c5cccc(S(=O)(=O)[O-])c5F)c5ccc([nH]5)c(-c5cccc(S(=O)(=O)[O-])c5F)c5nc(c(-c6cccc(S(=O)(=O)[O-])c6F)c6ccc3[nH]6)C=C5)C=C4)cc2)CCN1C(=O)NCc1ccncc1
REMARK SMILES IDX 12 1 11 2 10 3 9 4 8 5 7 6 6 7 4 8 5 9 3 10 1 11 2 12 86 13
REMARK SMILES IDX 84 14 85 15 87 16 88 17 89 18 90 20 91 21 92 22 96 23 93 24
REMARK SMILES IDX 95 25 94 26 13 27 14 28 15 29 16 30 17 31 18 32 19 33 20 34
REMARK SMILES IDX 21 35 22 36 83 37 23 38 82 39 24 40 25 41 26 42 76 43 27 44
REMARK SMILES IDX 81 45 75 46 77 47 28 48 80 49 74 50 73 51 29 53 61 54 41 55
REMARK SMILES IDX 60 56 42 57 45 58 59 59 78 60 43 61 44 62 58 64 79 65 46 66
REMARK SMILES IDX 30 67 31 68 39 69 32 70 34 71 40 72 33 73 35 74 36 75 37 76
REMARK SMILES IDX 38 77 62 78 63 79 71 80 64 81 66 82 72 83 65 84 67 85 68 86
REMARK SMILES IDX 69 87 70 88 47 89 48 90 56 91 49 92 51 93 57 94 50 95 52 96
REMARK SMILES IDX 53 97 54 98 55 99
REMARK H PARENT 89 19 77 52 45 63
REMARK Flexibility Score: inf
ROOT
ATOM      1  O   UNL A   1      44.542  43.865  25.581  1.00  0.00    -0.377 OA
ENDROOT
BRANCH   1   2
ATOM      2  C   UNL A   1      44.145  42.739  24.828  1.00  0.00     0.188 C 
BRANCH   2   3
ATOM      3  C   UNL A   1      43.242  43.028  23.619  1.00  0.00     0.188 C 
BRANCH   3   4
ATOM      4  O   UNL A   1      42.573  41.982  22.930  1.00  0.00    -0.376 OA
BRANCH   4   5
ATOM      5  C   UNL A   1      41.643  42.272  21.898  1.00  0.00     0.202 C 
BRANCH   5   6
ATOM      6  C   UNL A   1      41.878  43.441  20.925  1.00  0.00     0.261 C 
BRANCH   6   7
ATOM      7  O   UNL A   1      41.666  43.201  19.518  1.00  0.00    -0.463 OA
BRANCH   7   8
ATOM      8  C   UNL A   1      41.080  44.209  18.830  1.00  0.00     0.311 C 
ATOM      9  O   UNL A   1      39.906  44.543  18.961  1.00  0.00    -0.252 OA
BRANCH   8  10
ATOM     10  C   UNL A   1      41.960  44.860  17.781  1.00  0.00     0.123 C 
ATOM     11  C   UNL A   1      41.684  47.262  17.097  1.00  0.00     0.032 C 
ATOM     12  C   UNL A   1      42.514  46.298  17.964  1.00  0.00     0.098 C 
ATOM     13  N   UNL A   1      43.900  46.244  17.475  1.00  0.00    -0.321 N 
ATOM     14  C   UNL A   1      43.200  44.001  17.573  1.00  0.00     0.039 C 
ATOM     15  C   UNL A   1      44.160  44.943  16.883  1.00  0.00     0.122 C 
BRANCH  13  16
ATOM     16  C   UNL A   1      44.923  47.136  17.504  1.00  0.00     0.317 C 
ATOM     17  O   UNL A   1      45.217  47.795  16.500  1.00  0.00    -0.249 OA
ATOM     18  N   UNL A   1      45.678  47.396  18.577  1.00  0.00    -0.334 N 
ATOM     19  H   UNL A   1      46.353  48.082  18.371  1.00  0.00     0.165 HD
BRANCH  18  20
ATOM     20  C   UNL A   1      45.792  46.963  19.951  1.00  0.00     0.153 C 
BRANCH  20  21
ATOM     21  C   UNL A   1      46.110  45.497  20.033  1.00  0.00    -0.026 A 
ATOM     22  C   UNL A   1      47.230  44.951  19.396  1.00  0.00     0.025 A 
ATOM     23  C   UNL A   1      45.249  44.641  20.719  1.00  0.00     0.025 A 
ATOM     24  C   UNL A   1      47.438  43.584  19.481  1.00  0.00     0.111 A 
ATOM     25  C   UNL A   1      45.538  43.291  20.741  1.00  0.00     0.111 A 
ATOM     26  N   UNL A   1      46.624  42.748  20.153  1.00  0.00    -0.265 NA
ENDBRANCH  20  21
ENDBRANCH  18  20
ENDBRANCH  13  16
ENDBRANCH   8  10
ENDBRANCH   7   8
ENDBRANCH   6   7
ENDBRANCH   5   6
ENDBRANCH   4   5
ENDBRANCH   3   4
ENDBRANCH   2   3
ENDBRANCH   1   2
BRANCH   1  27
ATOM     27  C   UNL A   1      45.078  43.641  26.878  1.00  0.00     0.188 C 
BRANCH  27  28
ATOM     28  C   UNL A   1      45.223  42.193  27.366  1.00  0.00     0.188 C 
BRANCH  28  29
ATOM     29  O   UNL A   1      44.021  41.638  27.898  1.00  0.00    -0.376 OA
BRANCH  29  30
ATOM     30  C   UNL A   1      44.056  41.154  29.237  1.00  0.00     0.202 C 
BRANCH  30  31
ATOM     31  C   UNL A   1      44.467  39.684  29.404  1.00  0.00     0.261 C 
BRANCH  31  32
ATOM     32  O   UNL A   1      43.400  38.780  29.721  1.00  0.00    -0.460 OA
BRANCH  32  33
ATOM     33  C   UNL A   1      42.952  37.974  28.736  1.00  0.00     0.338 C 
ATOM     34  O   UNL A   1      42.449  38.308  27.678  1.00  0.00    -0.246 OA
BRANCH  33  35
ATOM     35  C   UNL A   1      43.334  36.598  29.088  1.00  0.00     0.060 A 
ATOM     36  C   UNL A   1      42.461  35.547  28.786  1.00  0.00     0.016 A 
ATOM     37  C   UNL A   1      44.556  36.356  29.715  1.00  0.00     0.016 A 
ATOM     38  C   UNL A   1      42.795  34.244  29.158  1.00  0.00     0.010 A 
ATOM     39  C   UNL A   1      44.888  35.050  30.077  1.00  0.00     0.010 A 
ATOM     40  C   UNL A   1      43.992  33.995  29.845  1.00  0.00    -0.014 A 
BRANCH  40  41
ATOM     41  C   UNL A   1      44.196  32.694  30.528  1.00  0.00     0.031 A 
ATOM     42  C   UNL A   1      43.554  32.501  31.877  1.00  0.00     0.074 A 
ATOM     43  C   UNL A   1      44.921  31.702  29.976  1.00  0.00     0.049 A 
ATOM     44  N   UNL A   1      43.543  31.446  32.648  1.00  0.00    -0.248 NA
ATOM     45  C   UNL A   1      42.837  33.660  32.438  1.00  0.00     0.031 C 
ATOM     46  C   UNL A   1      45.635  31.775  28.703  1.00  0.00     0.029 A 
ATOM     47  N   UNL A   1      45.182  30.436  30.435  1.00  0.00    -0.354 N 
ATOM     48  C   UNL A   1      42.848  31.825  33.791  1.00  0.00     0.074 A 
ATOM     49  C   UNL A   1      42.491  33.216  33.634  1.00  0.00     0.031 C 
ATOM     50  C   UNL A   1      46.259  30.603  28.485  1.00  0.00     0.029 A 
ATOM     51  C   UNL A   1      45.991  29.699  29.604  1.00  0.00     0.049 A 
ATOM     52  H   UNL A   1      44.822  30.086  31.284  1.00  0.00     0.167 HD
ATOM     53  C   UNL A   1      42.499  31.077  34.863  1.00  0.00     0.034 A 
ATOM     54  C   UNL A   1      46.455  28.439  29.733  1.00  0.00     0.034 A 
ATOM     55  C   UNL A   1      42.814  29.686  35.007  1.00  0.00     0.049 A 
ATOM     56  C   UNL A   1      46.029  27.615  30.925  1.00  0.00     0.074 A 
ATOM     57  C   UNL A   1      42.453  28.822  36.023  1.00  0.00     0.029 A 
ATOM     58  N   UNL A   1      43.573  28.955  34.107  1.00  0.00    -0.354 N 
ATOM     59  N   UNL A   1      45.235  27.939  31.918  1.00  0.00    -0.248 NA
ATOM     60  C   UNL A   1      46.528  26.232  30.990  1.00  0.00     0.031 C 
ATOM     61  C   UNL A   1      43.007  27.569  35.745  1.00  0.00     0.029 A 
ATOM     62  C   UNL A   1      43.692  27.648  34.543  1.00  0.00     0.049 A 
ATOM     63  H   UNL A   1      43.968  29.313  33.279  1.00  0.00     0.167 HD
ATOM     64  C   UNL A   1      45.104  26.792  32.696  1.00  0.00     0.074 A 
ATOM     65  C   UNL A   1      45.883  25.758  32.048  1.00  0.00     0.031 C 
ATOM     66  C   UNL A   1      44.412  26.612  33.849  1.00  0.00     0.034 A 
BRANCH  53  67
ATOM     67  C   UNL A   1      41.689  31.753  35.936  1.00  0.00     0.023 A 
ATOM     68  C   UNL A   1      42.339  32.563  36.890  1.00  0.00     0.012 A 
ATOM     69  C   UNL A   1      40.292  31.598  35.994  1.00  0.00     0.148 A 
ATOM     70  C   UNL A   1      41.617  33.173  37.913  1.00  0.00     0.002 A 
ATOM     71  C   UNL A   1      39.573  32.249  36.989  1.00  0.00     0.091 A 
ATOM     72  F   UNL A   1      39.697  30.802  35.096  1.00  0.00    -0.205 F 
ATOM     73  C   UNL A   1      40.234  33.025  37.956  1.00  0.00     0.022 A 
BRANCH  71  74
ATOM     74  S   UNL A   1      37.781  32.184  37.087  1.00  0.00     0.127 S 
ATOM     75  O   UNL A   1      37.397  32.562  35.728  1.00  0.00    -0.237 OA
ATOM     76  O   UNL A   1      37.543  30.779  37.420  1.00  0.00    -0.237 OA
ATOM     77  O   UNL A   1      37.401  33.126  38.130  1.00  0.00    -0.744 OA
ENDBRANCH  71  74
ENDBRANCH  53  67
BRANCH  54  78
ATOM     78  C   UNL A   1      47.311  27.834  28.671  1.00  0.00     0.023 A 
ATOM     79  C   UNL A   1      48.713  27.889  28.800  1.00  0.00     0.012 A 
ATOM     80  C   UNL A   1      46.751  27.228  27.530  1.00  0.00     0.148 A 
ATOM     81  C   UNL A   1      49.543  27.392  27.794  1.00  0.00     0.002 A 
ATOM     82  C   UNL A   1      47.583  26.689  26.555  1.00  0.00     0.091 A 
ATOM     83  F   UNL A   1      45.416  27.196  27.419  1.00  0.00    -0.205 F 
ATOM     84  C   UNL A   1      48.978  26.788  26.674  1.00  0.00     0.022 A 
BRANCH  82  85
ATOM     85  S   UNL A   1      46.954  25.796  25.130  1.00  0.00     0.127 S 
ATOM     86  O   UNL A   1      46.186  26.831  24.441  1.00  0.00    -0.237 OA
ATOM     87  O   UNL A   1      48.191  25.396  24.457  1.00  0.00    -0.237 OA
ATOM     88  O   UNL A   1      46.178  24.689  25.670  1.00  0.00    -0.744 OA
ENDBRANCH  82  85
ENDBRANCH  54  78
BRANCH  66  89
ATOM     89  C   UNL A   1      44.416  25.238  34.468  1.00  0.00     0.023 A 
ATOM     90  C   UNL A   1      43.489  24.269  34.036  1.00  0.00     0.012 A 
ATOM     91  C   UNL A   1      45.394  24.882  35.417  1.00  0.00     0.148 A 
ATOM     92  C   UNL A   1      43.514  22.978  34.564  1.00  0.00     0.002 A 
ATOM     93  C   UNL A   1      45.446  23.581  35.901  1.00  0.00     0.091 A 
ATOM     94  F   UNL A   1      46.258  25.821  35.831  1.00  0.00    -0.205 F 
ATOM     95  C   UNL A   1      44.499  22.631  35.487  1.00  0.00     0.022 A 
BRANCH  93  96
ATOM     96  S   UNL A   1      46.746  23.022  37.010  1.00  0.00     0.127 S 
ATOM     97  O   UNL A   1      46.163  21.802  37.564  1.00  0.00    -0.237 OA
ATOM     98  O   UNL A   1      47.867  22.802  36.094  1.00  0.00    -0.237 OA
ATOM     99  O   UNL A   1      46.951  24.109  37.959  1.00  0.00    -0.744 OA
ENDBRANCH  93  96
ENDBRANCH  66  89
ENDBRANCH  40  41
ENDBRANCH  33  35
ENDBRANCH  32  33
ENDBRANCH  31  32
ENDBRANCH  30  31
ENDBRANCH  29  30
ENDBRANCH  28  29
ENDBRANCH  27  28
ENDBRANCH   1  27
TORSDOF 26
ENDMDL
MODEL 3
REMARK VINA RESULT:      -7.4      6.078     10.566
REMARK SMILES C[C@H]1[C@H](C(=O)OCCOCCOCCOCCOC(=O)c2ccc(-c3c4nc(c(-c5cccc(S(=O)(=O)[O-])c5F)c5ccc([nH]5)c(-c5cccc(S(=O)(=O)[O-])c5F)c5nc(c(-c6cccc(S(=O)(=O)[O-])c6F)c6ccc3[nH]6)C=C5)C=C4)cc2)CCN1C(=O)NCc1ccncc1
REMARK SMILES IDX 12 1 11 2 10 3 9 4 8 5 7 6 6 7 4 8 5 9 3 10 1 11 2 12 86 13
REMARK SMILES IDX 84 14 85 15 87 16 88 17 89 18 90 20 91 21 92 22 96 23 93 24
REMARK SMILES IDX 95 25 94 26 13 27 14 28 15 29 16 30 17 31 18 32 19 33 20 34
REMARK SMILES IDX 21 35 22 36 83 37 23 38 82 39 24 40 25 41 26 42 76 43 27 44
REMARK SMILES IDX 81 45 75 46 77 47 28 48 80 49 74 50 73 51 29 53 61 54 41 55
REMARK SMILES IDX 60 56 42 57 45 58 59 59 78 60 43 61 44 62 58 64 79 65 46 66
REMARK SMILES IDX 30 67 31 68 39 69 32 70 34 71 40 72 33 73 35 74 36 75 37 76
REMARK SMILES IDX 38 77 62 78 63 79 71 80 64 81 66 82 72 83 65 84 67 85 68 86
REMARK SMILES IDX 69 87 70 88 47 89 48 90 56 91 49 92 51 93 57 94 50 95 52 96
REMARK SMILES IDX 53 97 54 98 55 99
REMARK H PARENT 89 19 77 52 45 63
REMARK Flexibility Score: inf
ROOT
ATOM      1  O   UNL A   1      35.809  31.088  28.572  1.00  0.00    -0.377 OA
ENDROOT
BRANCH   1   2
ATOM      2  C   UNL A   1      35.608  30.121  27.563  1.00  0.00     0.188 C 
BRANCH   2   3
ATOM      3  C   UNL A   1      34.144  29.772  27.252  1.00  0.00     0.188 C 
BRANCH   3   4
ATOM      4  O   UNL A   1      33.805  28.631  26.478  1.00  0.00    -0.376 OA
BRANCH   4   5
ATOM      5  C   UNL A   1      34.006  28.623  25.073  1.00  0.00     0.202 C 
BRANCH   5   6
ATOM      6  C   UNL A   1      33.373  27.534  24.188  1.00  0.00     0.261 C 
BRANCH   6   7
ATOM      7  O   UNL A   1      33.901  26.194  24.287  1.00  0.00    -0.463 OA
BRANCH   7   8
ATOM      8  C   UNL A   1      33.973  25.503  23.124  1.00  0.00     0.311 C 
ATOM      9  O   UNL A   1      33.784  25.995  22.016  1.00  0.00    -0.252 OA
BRANCH   8  10
ATOM     10  C   UNL A   1      34.211  24.014  23.283  1.00  0.00     0.123 C 
ATOM     11  C   UNL A   1      36.005  23.092  24.781  1.00  0.00     0.032 C 
ATOM     12  C   UNL A   1      34.497  23.381  24.670  1.00  0.00     0.098 C 
ATOM     13  N   UNL A   1      33.739  22.121  24.684  1.00  0.00    -0.321 N 
ATOM     14  C   UNL A   1      32.993  23.260  22.767  1.00  0.00     0.039 C 
ATOM     15  C   UNL A   1      33.156  21.886  23.374  1.00  0.00     0.122 C 
BRANCH  13  16
ATOM     16  C   UNL A   1      33.483  21.209  25.657  1.00  0.00     0.317 C 
ATOM     17  O   UNL A   1      33.531  21.528  26.851  1.00  0.00    -0.249 OA
ATOM     18  N   UNL A   1      33.151  19.933  25.438  1.00  0.00    -0.334 N 
ATOM     19  H   UNL A   1      33.003  19.459  26.288  1.00  0.00     0.165 HD
BRANCH  18  20
ATOM     20  C   UNL A   1      32.947  19.045  24.316  1.00  0.00     0.153 C 
BRANCH  20  21
ATOM     21  C   UNL A   1      33.330  17.635  24.665  1.00  0.00    -0.026 A 
ATOM     22  C   UNL A   1      32.398  16.723  25.170  1.00  0.00     0.025 A 
ATOM     23  C   UNL A   1      34.658  17.227  24.530  1.00  0.00     0.025 A 
ATOM     24  C   UNL A   1      32.832  15.451  25.507  1.00  0.00     0.111 A 
ATOM     25  C   UNL A   1      34.994  15.940  24.900  1.00  0.00     0.111 A 
ATOM     26  N   UNL A   1      34.106  15.039  25.368  1.00  0.00    -0.265 NA
ENDBRANCH  20  21
ENDBRANCH  18  20
ENDBRANCH  13  16
ENDBRANCH   8  10
ENDBRANCH   7   8
ENDBRANCH   6   7
ENDBRANCH   5   6
ENDBRANCH   4   5
ENDBRANCH   3   4
ENDBRANCH   2   3
ENDBRANCH   1   2
BRANCH   1  27
ATOM     27  C   UNL A   1      35.289  32.393  28.354  1.00  0.00     0.188 C 
BRANCH  27  28
ATOM     28  C   UNL A   1      33.939  32.753  28.990  1.00  0.00     0.188 C 
BRANCH  28  29
ATOM     29  O   UNL A   1      34.051  33.466  30.221  1.00  0.00    -0.376 OA
BRANCH  29  30
ATOM     30  C   UNL A   1      35.060  33.047  31.135  1.00  0.00     0.202 C 
BRANCH  30  31
ATOM     31  C   UNL A   1      36.220  34.033  31.345  1.00  0.00     0.261 C 
BRANCH  31  32
ATOM     32  O   UNL A   1      36.905  33.915  32.599  1.00  0.00    -0.460 OA
BRANCH  32  33
ATOM     33  C   UNL A   1      36.847  32.725  33.233  1.00  0.00     0.338 C 
ATOM     34  O   UNL A   1      35.935  32.297  33.917  1.00  0.00    -0.246 OA
BRANCH  33  35
ATOM     35  C   UNL A   1      38.021  31.946  32.813  1.00  0.00     0.060 A 
ATOM     36  C   UNL A   1      38.158  30.625  33.252  1.00  0.00     0.016 A 
ATOM     37  C   UNL A   1      38.981  32.528  31.986  1.00  0.00     0.016 A 
ATOM     38  C   UNL A   1      39.293  29.893  32.897  1.00  0.00     0.010 A 
ATOM     39  C   UNL A   1      40.109  31.789  31.626  1.00  0.00     0.010 A 
ATOM     40  C   UNL A   1      40.295  30.487  32.117  1.00  0.00    -0.014 A 
BRANCH  40  41
ATOM     41  C   UNL A   1      41.629  29.848  32.016  1.00  0.00     0.031 A 
ATOM     42  C   UNL A   1      42.628  30.131  33.108  1.00  0.00     0.074 A 
ATOM     43  C   UNL A   1      41.957  29.033  30.995  1.00  0.00     0.049 A 
ATOM     44  N   UNL A   1      43.835  29.658  33.273  1.00  0.00    -0.248 NA
ATOM     45  C   UNL A   1      42.212  31.087  34.150  1.00  0.00     0.031 C 
ATOM     46  C   UNL A   1      41.105  28.715  29.851  1.00  0.00     0.029 A 
ATOM     47  N   UNL A   1      43.113  28.332  30.758  1.00  0.00    -0.354 N 
ATOM     48  C   UNL A   1      44.329  30.280  34.413  1.00  0.00     0.074 A 
ATOM     49  C   UNL A   1      43.312  31.196  34.876  1.00  0.00     0.031 C 
ATOM     50  C   UNL A   1      41.771  27.884  29.028  1.00  0.00     0.029 A 
ATOM     51  C   UNL A   1      43.096  27.614  29.586  1.00  0.00     0.049 A 
ATOM     52  H   UNL A   1      43.884  28.342  31.371  1.00  0.00     0.167 HD
ATOM     53  C   UNL A   1      45.507  30.084  35.048  1.00  0.00     0.034 A 
ATOM     54  C   UNL A   1      44.042  26.826  29.034  1.00  0.00     0.034 A 
ATOM     55  C   UNL A   1      46.503  29.147  34.618  1.00  0.00     0.049 A 
ATOM     56  C   UNL A   1      45.338  26.602  29.776  1.00  0.00     0.074 A 
ATOM     57  C   UNL A   1      47.703  28.827  35.225  1.00  0.00     0.029 A 
ATOM     58  N   UNL A   1      46.418  28.383  33.466  1.00  0.00    -0.354 N 
ATOM     59  N   UNL A   1      45.723  27.072  30.939  1.00  0.00    -0.248 NA
ATOM     60  C   UNL A   1      46.314  25.696  29.150  1.00  0.00     0.031 C 
ATOM     61  C   UNL A   1      48.352  27.876  34.431  1.00  0.00     0.029 A 
ATOM     62  C   UNL A   1      47.543  27.590  33.342  1.00  0.00     0.049 A 
ATOM     63  H   UNL A   1      45.667  28.402  32.830  1.00  0.00     0.167 HD
ATOM     64  C   UNL A   1      46.958  26.487  31.201  1.00  0.00     0.074 A 
ATOM     65  C   UNL A   1      47.249  25.611  30.087  1.00  0.00     0.031 C 
ATOM     66  C   UNL A   1      47.785  26.668  32.262  1.00  0.00     0.034 A 
BRANCH  53  67
ATOM     67  C   UNL A   1      45.745  30.871  36.309  1.00  0.00     0.023 A 
ATOM     68  C   UNL A   1      46.352  32.141  36.229  1.00  0.00     0.012 A 
ATOM     69  C   UNL A   1      45.362  30.362  37.564  1.00  0.00     0.148 A 
ATOM     70  C   UNL A   1      46.615  32.876  37.383  1.00  0.00     0.002 A 
ATOM     71  C   UNL A   1      45.583  31.122  38.706  1.00  0.00     0.091 A 
ATOM     72  F   UNL A   1      44.812  29.142  37.620  1.00  0.00    -0.205 F 
ATOM     73  C   UNL A   1      46.221  32.371  38.619  1.00  0.00     0.022 A 
BRANCH  71  74
ATOM     74  S   UNL A   1      45.045  30.596  40.336  1.00  0.00     0.127 S 
ATOM     75  O   UNL A   1      45.018  29.142  40.182  1.00  0.00    -0.237 OA
ATOM     76  O   UNL A   1      46.121  31.098  41.191  1.00  0.00    -0.237 OA
ATOM     77  O   UNL A   1      43.752  31.226  40.556  1.00  0.00    -0.744 OA
ENDBRANCH  71  74
ENDBRANCH  53  67
BRANCH  54  78
ATOM     78  C   UNL A   1      43.782  26.118  27.748  1.00  0.00     0.023 A 
ATOM     79  C   UNL A   1      44.176  26.720  26.536  1.00  0.00     0.012 A 
ATOM     80  C   UNL A   1      43.132  24.869  27.712  1.00  0.00     0.148 A 
ATOM     81  C   UNL A   1      43.888  26.116  25.311  1.00  0.00     0.002 A 
ATOM     82  C   UNL A   1      42.894  24.248  26.491  1.00  0.00     0.091 A 
ATOM     83  F   UNL A   1      42.755  24.317  28.873  1.00  0.00    -0.205 F 
ATOM     84  C   UNL A   1      43.253  24.878  25.289  1.00  0.00     0.022 A 
BRANCH  82  85
ATOM     85  S   UNL A   1      42.180  22.605  26.362  1.00  0.00     0.127 S 
ATOM     86  O   UNL A   1      42.791  21.922  27.500  1.00  0.00    -0.237 OA
ATOM     87  O   UNL A   1      40.751  22.887  26.508  1.00  0.00    -0.237 OA
ATOM     88  O   UNL A   1      42.565  22.111  25.048  1.00  0.00    -0.744 OA
ENDBRANCH  82  85
ENDBRANCH  54  78
BRANCH  66  89
ATOM     89  C   UNL A   1      49.063  25.869  32.306  1.00  0.00     0.023 A 
ATOM     90  C   UNL A   1      50.229  26.372  31.695  1.00  0.00     0.012 A 
ATOM     91  C   UNL A   1      49.128  24.662  33.029  1.00  0.00     0.148 A 
ATOM     92  C   UNL A   1      51.430  25.668  31.772  1.00  0.00     0.002 A 
ATOM     93  C   UNL A   1      50.340  23.991  33.145  1.00  0.00     0.091 A 
ATOM     94  F   UNL A   1      48.006  24.189  33.590  1.00  0.00    -0.205 F 
ATOM     95  C   UNL A   1      51.489  24.485  32.507  1.00  0.00     0.022 A 
BRANCH  93  96
ATOM     96  S   UNL A   1      50.526  22.519  34.160  1.00  0.00     0.127 S 
ATOM     97  O   UNL A   1      50.198  21.458  33.210  1.00  0.00    -0.237 OA
ATOM     98  O   UNL A   1      51.937  22.579  34.545  1.00  0.00    -0.237 OA
ATOM     99  O   UNL A   1      49.594  22.682  35.269  1.00  0.00    -0.744 OA
ENDBRANCH  93  96
ENDBRANCH  66  89
ENDBRANCH  40  41
ENDBRANCH  33  35
ENDBRANCH  32  33
ENDBRANCH  31  32
ENDBRANCH  30  31
ENDBRANCH  29  30
ENDBRANCH  28  29
ENDBRANCH  27  28
ENDBRANCH   1  27
TORSDOF 26
ENDMDL
