MODEL 1
REMARK VINA RESULT:      -5.7      0.000      0.000
REMARK SMILES COc1ccc([C@@H]2[NH2+][C@H](C(=O)OCCOCCOCCOCCOC(=O)c3ccc(-c4c5nc(c(-c6cccc(S(=O)(=O)[O-])c6F)c6ccc([nH]6)c(-c6cccc(S(=O)(=O)[O-])c6F)c6nc(c(-c7cccc(S(=O)(=O)[O-])c7F)c7ccc4[nH]7)C=C6)C=C5)cc3)CS2)cc1Cn1nc(C)c(Br)c1C
REMARK SMILES IDX 18 1 17 2 16 3 15 4 14 5 13 6 12 7 10 8 11 9 9 10 7 11 8 12
REMARK SMILES IDX 91 13 90 16 6 17 3 18 4 19 93 20 5 21 92 22 2 23 1 24 94 25
REMARK SMILES IDX 95 26 96 27 101 28 97 29 99 30 102 31 98 32 100 33 19 34
REMARK SMILES IDX 20 35 21 36 22 37 23 38 24 39 25 40 26 41 27 42 28 43 89 44
REMARK SMILES IDX 29 45 88 46 30 47 31 48 32 49 82 50 33 51 87 52 81 53 83 54
REMARK SMILES IDX 34 55 86 56 80 57 79 58 35 60 67 61 47 62 66 63 48 64 51 65
REMARK SMILES IDX 65 66 84 67 49 68 50 69 64 71 85 72 52 73 36 74 37 75 45 76
REMARK SMILES IDX 38 77 40 78 46 79 39 80 41 81 42 82 43 83 44 84 68 85 69 86
REMARK SMILES IDX 77 87 70 88 72 89 78 90 71 91 73 92 74 93 75 94 76 95 53 96
REMARK SMILES IDX 54 97 62 98 55 99 57 100 63 101 56 102 58 103 59 104 60 105
REMARK SMILES IDX 61 106
REMARK H PARENT 8 14 8 15 83 59 51 70
REMARK Flexibility Score: inf
ROOT
ATOM      1  O   UNL A   1      51.196  19.981  34.006  1.00  0.00    -0.377 OA
ENDROOT
BRANCH   1   2
ATOM      2  C   UNL A   1      51.568  21.347  33.971  1.00  0.00     0.188 C 
BRANCH   2   3
ATOM      3  C   UNL A   1      50.451  22.312  33.507  1.00  0.00     0.188 C 
BRANCH   3   4
ATOM      4  O   UNL A   1      50.737  23.352  32.582  1.00  0.00    -0.376 OA
BRANCH   4   5
ATOM      5  C   UNL A   1      49.847  24.452  32.510  1.00  0.00     0.202 C 
BRANCH   5   6
ATOM      6  C   UNL A   1      49.933  25.449  31.358  1.00  0.00     0.261 C 
BRANCH   6   7
ATOM      7  O   UNL A   1      49.487  26.784  31.553  1.00  0.00    -0.459 OA
BRANCH   7   8
ATOM      8  C   UNL A   1      49.349  27.576  30.474  1.00  0.00     0.365 C 
ATOM      9  O   UNL A   1      50.254  28.227  29.959  1.00  0.00    -0.245 OA
BRANCH   8  10
ATOM     10  C   UNL A   1      47.915  27.608  29.947  1.00  0.00     0.304 C 
ATOM     11  C   UNL A   1      46.703  29.691  30.193  1.00  0.00     0.274 C 
ATOM     12  N   UNL A   1      46.956  28.376  30.786  1.00  0.00    -0.319 N 
ATOM     13  S   UNL A   1      46.785  29.480  28.405  1.00  0.00    -0.087 SA
ATOM     14  H   UNL A   1      46.079  27.862  30.850  1.00  0.00     0.348 HD
ATOM     15  H   UNL A   1      47.357  28.504  31.715  1.00  0.00     0.348 HD
ATOM     16  C   UNL A   1      47.950  28.111  28.506  1.00  0.00     0.153 C 
BRANCH  11  17
ATOM     17  C   UNL A   1      47.539  30.831  30.757  1.00  0.00     0.021 A 
ATOM     18  C   UNL A   1      48.892  33.065  31.790  1.00  0.00     0.123 A 
ATOM     19  C   UNL A   1      47.738  32.596  32.420  1.00  0.00     0.047 A 
ATOM     20  C   UNL A   1      49.470  32.391  30.704  1.00  0.00     0.016 A 
ATOM     21  C   UNL A   1      47.073  31.483  31.913  1.00  0.00     0.015 A 
ATOM     22  C   UNL A   1      48.744  31.301  30.178  1.00  0.00     0.020 A 
BRANCH  18  23
ATOM     23  O   UNL A   1      49.421  34.241  32.256  1.00  0.00    -0.496 OA
ATOM     24  C   UNL A   1      48.391  35.244  32.303  1.00  0.00     0.278 C 
ENDBRANCH  18  23
BRANCH  20  25
ATOM     25  C   UNL A   1      50.731  32.937  30.058  1.00  0.00     0.184 C 
BRANCH  25  26
ATOM     26  N   UNL A   1      50.665  33.253  28.623  1.00  0.00    -0.264 N 
ATOM     27  N   UNL A   1      51.250  32.405  27.734  1.00  0.00    -0.177 NA
ATOM     28  C   UNL A   1      50.184  34.399  28.018  1.00  0.00     0.050 A 
ATOM     29  C   UNL A   1      51.119  33.002  26.543  1.00  0.00     0.074 A 
ATOM     30  C   UNL A   1      50.500  34.259  26.683  1.00  0.00     0.061 A 
ATOM     31  C   UNL A   1      49.383  35.435  28.713  1.00  0.00     0.067 C 
ATOM     32  C   UNL A   1      51.542  32.299  25.304  1.00  0.00     0.070 C 
ATOM     33  Br  UNL A   1      50.039  35.400  25.267  1.00  0.00    -0.047 Br
ENDBRANCH  25  26
ENDBRANCH  20  25
ENDBRANCH  11  17
ENDBRANCH   8  10
ENDBRANCH   7   8
ENDBRANCH   6   7
ENDBRANCH   5   6
ENDBRANCH   4   5
ENDBRANCH   3   4
ENDBRANCH   2   3
ENDBRANCH   1   2
BRANCH   1  34
ATOM     34  C   UNL A   1      50.645  19.470  35.210  1.00  0.00     0.188 C 
BRANCH  34  35
ATOM     35  C   UNL A   1      50.726  20.361  36.467  1.00  0.00     0.188 C 
BRANCH  35  36
ATOM     36  O   UNL A   1      49.464  20.823  36.925  1.00  0.00    -0.376 OA
BRANCH  36  37
ATOM     37  C   UNL A   1      48.559  19.900  37.506  1.00  0.00     0.202 C 
BRANCH  37  38
ATOM     38  C   UNL A   1      47.060  20.245  37.561  1.00  0.00     0.261 C 
BRANCH  38  39
ATOM     39  O   UNL A   1      46.236  19.809  36.469  1.00  0.00    -0.460 OA
BRANCH  39  40
ATOM     40  C   UNL A   1      46.571  20.201  35.219  1.00  0.00     0.338 C 
ATOM     41  O   UNL A   1      46.969  19.493  34.320  1.00  0.00    -0.246 OA
BRANCH  40  42
ATOM     42  C   UNL A   1      46.174  21.625  35.067  1.00  0.00     0.060 A 
ATOM     43  C   UNL A   1      44.814  21.961  35.140  1.00  0.00     0.016 A 
ATOM     44  C   UNL A   1      47.130  22.618  34.844  1.00  0.00     0.016 A 
ATOM     45  C   UNL A   1      44.401  23.277  34.923  1.00  0.00     0.010 A 
ATOM     46  C   UNL A   1      46.713  23.931  34.602  1.00  0.00     0.010 A 
ATOM     47  C   UNL A   1      45.344  24.256  34.588  1.00  0.00    -0.014 A 
BRANCH  47  48
ATOM     48  C   UNL A   1      44.895  25.534  33.979  1.00  0.00     0.031 A 
ATOM     49  C   UNL A   1      44.521  25.530  32.521  1.00  0.00     0.074 A 
ATOM     50  C   UNL A   1      44.801  26.675  34.683  1.00  0.00     0.049 A 
ATOM     51  N   UNL A   1      44.165  26.524  31.753  1.00  0.00    -0.248 NA
ATOM     52  C   UNL A   1      44.556  24.224  31.840  1.00  0.00     0.031 C 
ATOM     53  C   UNL A   1      45.073  26.811  36.109  1.00  0.00     0.029 A 
ATOM     54  N   UNL A   1      44.467  27.947  34.277  1.00  0.00    -0.354 N 
ATOM     55  C   UNL A   1      43.966  25.974  30.493  1.00  0.00     0.074 A 
ATOM     56  C   UNL A   1      44.253  24.560  30.596  1.00  0.00     0.031 C 
ATOM     57  C   UNL A   1      44.924  28.102  36.450  1.00  0.00     0.029 A 
ATOM     58  C   UNL A   1      44.601  28.890  35.268  1.00  0.00     0.049 A 
ATOM     59  H   UNL A   1      44.162  28.160  33.366  1.00  0.00     0.167 HD
ATOM     60  C   UNL A   1      43.572  26.587  29.353  1.00  0.00     0.034 A 
ATOM     61  C   UNL A   1      44.510  30.235  35.226  1.00  0.00     0.034 A 
ATOM     62  C   UNL A   1      43.272  27.989  29.251  1.00  0.00     0.049 A 
ATOM     63  C   UNL A   1      44.129  30.904  33.932  1.00  0.00     0.074 A 
ATOM     64  C   UNL A   1      42.822  28.691  28.146  1.00  0.00     0.029 A 
ATOM     65  N   UNL A   1      43.412  28.907  30.279  1.00  0.00    -0.354 N 
ATOM     66  N   UNL A   1      43.852  30.360  32.772  1.00  0.00    -0.248 NA
ATOM     67  C   UNL A   1      44.007  32.370  33.948  1.00  0.00     0.031 C 
ATOM     68  C   UNL A   1      42.734  30.042  28.495  1.00  0.00     0.029 A 
ATOM     69  C   UNL A   1      43.078  30.174  29.831  1.00  0.00     0.049 A 
ATOM     70  H   UNL A   1      43.704  28.690  31.194  1.00  0.00     0.167 HD
ATOM     71  C   UNL A   1      43.477  31.408  31.938  1.00  0.00     0.074 A 
ATOM     72  C   UNL A   1      43.551  32.618  32.729  1.00  0.00     0.031 C 
ATOM     73  C   UNL A   1      43.109  31.368  30.634  1.00  0.00     0.034 A 
BRANCH  60  74
ATOM     74  C   UNL A   1      43.448  25.739  28.116  1.00  0.00     0.023 A 
ATOM     75  C   UNL A   1      42.187  25.255  27.714  1.00  0.00     0.012 A 
ATOM     76  C   UNL A   1      44.582  25.461  27.328  1.00  0.00     0.148 A 
ATOM     77  C   UNL A   1      42.062  24.477  26.563  1.00  0.00     0.002 A 
ATOM     78  C   UNL A   1      44.441  24.729  26.157  1.00  0.00     0.091 A 
ATOM     79  F   UNL A   1      45.775  25.910  27.743  1.00  0.00    -0.205 F 
ATOM     80  C   UNL A   1      43.186  24.224  25.780  1.00  0.00     0.022 A 
BRANCH  78  81
ATOM     81  S   UNL A   1      45.812  24.422  25.039  1.00  0.00     0.127 S 
ATOM     82  O   UNL A   1      45.178  23.591  24.015  1.00  0.00    -0.237 OA
ATOM     83  O   UNL A   1      46.156  25.774  24.599  1.00  0.00    -0.237 OA
ATOM     84  O   UNL A   1      46.838  23.758  25.829  1.00  0.00    -0.744 OA
ENDBRANCH  78  81
ENDBRANCH  60  74
BRANCH  61  85
ATOM     85  C   UNL A   1      44.775  31.050  36.448  1.00  0.00     0.023 A 
ATOM     86  C   UNL A   1      46.093  31.440  36.759  1.00  0.00     0.012 A 
ATOM     87  C   UNL A   1      43.729  31.431  37.310  1.00  0.00     0.148 A 
ATOM     88  C   UNL A   1      46.367  32.162  37.922  1.00  0.00     0.002 A 
ATOM     89  C   UNL A   1      44.000  32.203  38.434  1.00  0.00     0.091 A 
ATOM     90  F   UNL A   1      42.481  31.046  37.004  1.00  0.00    -0.205 F 
ATOM     91  C   UNL A   1      45.321  32.551  38.755  1.00  0.00     0.022 A 
BRANCH  89  92
ATOM     92  S   UNL A   1      42.706  32.893  39.471  1.00  0.00     0.127 S 
ATOM     93  O   UNL A   1      43.476  33.647  40.458  1.00  0.00    -0.237 OA
ATOM     94  O   UNL A   1      41.963  33.707  38.509  1.00  0.00    -0.237 OA
ATOM     95  O   UNL A   1      41.962  31.752  39.987  1.00  0.00    -0.744 OA
ENDBRANCH  89  92
ENDBRANCH  61  85
BRANCH  73  96
ATOM     96  C   UNL A   1      42.702  32.663  29.979  1.00  0.00     0.023 A 
ATOM     97  C   UNL A   1      41.424  33.207  30.215  1.00  0.00     0.012 A 
ATOM     98  C   UNL A   1      43.620  33.375  29.182  1.00  0.00     0.148 A 
ATOM     99  C   UNL A   1      41.053  34.421  29.637  1.00  0.00     0.002 A 
ATOM    100  C   UNL A   1      43.264  34.610  28.655  1.00  0.00     0.091 A 
ATOM    101  F   UNL A   1      44.825  32.833  28.955  1.00  0.00    -0.205 F 
ATOM    102  C   UNL A   1      41.976  35.128  28.868  1.00  0.00     0.022 A 
BRANCH 100 103
ATOM    103  S   UNL A   1      44.418  35.637  27.737  1.00  0.00     0.127 S 
ATOM    104  O   UNL A   1      44.662  34.821  26.549  1.00  0.00    -0.237 OA
ATOM    105  O   UNL A   1      43.630  36.845  27.496  1.00  0.00    -0.237 OA
ATOM    106  O   UNL A   1      45.569  35.829  28.609  1.00  0.00    -0.744 OA
ENDBRANCH 100 103
ENDBRANCH  73  96
ENDBRANCH  47  48
ENDBRANCH  40  42
ENDBRANCH  39  40
ENDBRANCH  38  39
ENDBRANCH  37  38
ENDBRANCH  36  37
ENDBRANCH  35  36
ENDBRANCH  34  35
ENDBRANCH   1  34
TORSDOF 27
ENDMDL
MODEL 2
REMARK VINA RESULT:      -5.3      1.375      2.162
REMARK SMILES COc1ccc([C@@H]2[NH2+][C@H](C(=O)OCCOCCOCCOCCOC(=O)c3ccc(-c4c5nc(c(-c6cccc(S(=O)(=O)[O-])c6F)c6ccc([nH]6)c(-c6cccc(S(=O)(=O)[O-])c6F)c6nc(c(-c7cccc(S(=O)(=O)[O-])c7F)c7ccc4[nH]7)C=C6)C=C5)cc3)CS2)cc1Cn1nc(C)c(Br)c1C
REMARK SMILES IDX 18 1 17 2 16 3 15 4 14 5 13 6 12 7 10 8 11 9 9 10 7 11 8 12
REMARK SMILES IDX 91 13 90 16 6 17 3 18 4 19 93 20 5 21 92 22 2 23 1 24 94 25
REMARK SMILES IDX 95 26 96 27 101 28 97 29 99 30 102 31 98 32 100 33 19 34
REMARK SMILES IDX 20 35 21 36 22 37 23 38 24 39 25 40 26 41 27 42 28 43 89 44
REMARK SMILES IDX 29 45 88 46 30 47 31 48 32 49 82 50 33 51 87 52 81 53 83 54
REMARK SMILES IDX 34 55 86 56 80 57 79 58 35 60 67 61 47 62 66 63 48 64 51 65
REMARK SMILES IDX 65 66 84 67 49 68 50 69 64 71 85 72 52 73 36 74 37 75 45 76
REMARK SMILES IDX 38 77 40 78 46 79 39 80 41 81 42 82 43 83 44 84 68 85 69 86
REMARK SMILES IDX 77 87 70 88 72 89 78 90 71 91 73 92 74 93 75 94 76 95 53 96
REMARK SMILES IDX 54 97 62 98 55 99 57 100 63 101 56 102 58 103 59 104 60 105
REMARK SMILES IDX 61 106
REMARK H PARENT 8 14 8 15 83 59 51 70
REMARK Flexibility Score: inf
ROOT
ATOM      1  O   UNL A   1      50.605  20.764  32.987  1.00  0.00    -0.377 OA
ENDROOT
BRANCH   1   2
ATOM      2  C   UNL A   1      51.729  21.439  33.524  1.00  0.00     0.188 C 
BRANCH   2   3
ATOM      3  C   UNL A   1      51.944  22.872  32.984  1.00  0.00     0.188 C 
BRANCH   3   4
ATOM      4  O   UNL A   1      51.156  23.362  31.908  1.00  0.00    -0.376 OA
BRANCH   4   5
ATOM      5  C   UNL A   1      50.275  24.444  32.155  1.00  0.00     0.202 C 
BRANCH   5   6
ATOM      6  C   UNL A   1      50.617  25.851  31.677  1.00  0.00     0.261 C 
BRANCH   6   7
ATOM      7  O   UNL A   1      50.387  26.958  32.538  1.00  0.00    -0.459 OA
BRANCH   7   8
ATOM      8  C   UNL A   1      50.370  28.192  32.001  1.00  0.00     0.365 C 
ATOM      9  O   UNL A   1      51.150  28.598  31.144  1.00  0.00    -0.245 OA
BRANCH   8  10
ATOM     10  C   UNL A   1      49.270  29.075  32.589  1.00  0.00     0.304 C 
ATOM     11  C   UNL A   1      47.907  30.319  31.020  1.00  0.00     0.274 C 
ATOM     12  N   UNL A   1      49.077  30.379  31.899  1.00  0.00    -0.319 N 
ATOM     13  S   UNL A   1      46.713  29.230  31.817  1.00  0.00    -0.087 SA
ATOM     14  H   UNL A   1      48.939  31.111  32.595  1.00  0.00     0.348 HD
ATOM     15  H   UNL A   1      49.903  30.581  31.336  1.00  0.00     0.348 HD
ATOM     16  C   UNL A   1      47.982  28.257  32.644  1.00  0.00     0.153 C 
BRANCH  11  17
ATOM     17  C   UNL A   1      48.204  30.010  29.560  1.00  0.00     0.021 A 
ATOM     18  C   UNL A   1      48.800  29.226  26.929  1.00  0.00     0.123 A 
ATOM     19  C   UNL A   1      47.840  28.528  27.665  1.00  0.00     0.047 A 
ATOM     20  C   UNL A   1      49.415  30.385  27.425  1.00  0.00     0.016 A 
ATOM     21  C   UNL A   1      47.538  28.924  28.965  1.00  0.00     0.015 A 
ATOM     22  C   UNL A   1      49.132  30.728  28.764  1.00  0.00     0.020 A 
BRANCH  18  23
ATOM     23  O   UNL A   1      49.148  28.705  25.710  1.00  0.00    -0.496 OA
ATOM     24  C   UNL A   1      48.311  27.574  25.415  1.00  0.00     0.278 C 
ENDBRANCH  18  23
BRANCH  20  25
ATOM     25  C   UNL A   1      50.449  31.112  26.583  1.00  0.00     0.184 C 
BRANCH  25  26
ATOM     26  N   UNL A   1      50.317  32.573  26.475  1.00  0.00    -0.264 N 
ATOM     27  N   UNL A   1      49.200  33.092  25.898  1.00  0.00    -0.177 NA
ATOM     28  C   UNL A   1      51.256  33.543  26.770  1.00  0.00     0.050 A 
ATOM     29  C   UNL A   1      49.414  34.413  25.848  1.00  0.00     0.074 A 
ATOM     30  C   UNL A   1      50.694  34.727  26.342  1.00  0.00     0.061 A 
ATOM     31  C   UNL A   1      52.508  33.289  27.522  1.00  0.00     0.067 C 
ATOM     32  C   UNL A   1      48.339  35.327  25.382  1.00  0.00     0.070 C 
ATOM     33  Br  UNL A   1      51.381  36.462  26.540  1.00  0.00    -0.047 Br
ENDBRANCH  25  26
ENDBRANCH  20  25
ENDBRANCH  11  17
ENDBRANCH   8  10
ENDBRANCH   7   8
ENDBRANCH   6   7
ENDBRANCH   5   6
ENDBRANCH   4   5
ENDBRANCH   3   4
ENDBRANCH   2   3
ENDBRANCH   1   2
BRANCH   1  34
ATOM     34  C   UNL A   1      49.787  20.018  33.875  1.00  0.00     0.188 C 
BRANCH  34  35
ATOM     35  C   UNL A   1      50.307  19.799  35.310  1.00  0.00     0.188 C 
BRANCH  35  36
ATOM     36  O   UNL A   1      49.659  20.602  36.285  1.00  0.00    -0.376 OA
BRANCH  36  37
ATOM     37  C   UNL A   1      48.887  19.976  37.296  1.00  0.00     0.202 C 
BRANCH  37  38
ATOM     38  C   UNL A   1      47.429  20.419  37.516  1.00  0.00     0.261 C 
BRANCH  38  39
ATOM     39  O   UNL A   1      46.413  19.781  36.727  1.00  0.00    -0.460 OA
BRANCH  39  40
ATOM     40  C   UNL A   1      46.373  20.043  35.401  1.00  0.00     0.338 C 
ATOM     41  O   UNL A   1      46.464  19.240  34.500  1.00  0.00    -0.246 OA
BRANCH  40  42
ATOM     42  C   UNL A   1      45.992  21.470  35.232  1.00  0.00     0.060 A 
ATOM     43  C   UNL A   1      44.642  21.830  35.353  1.00  0.00     0.016 A 
ATOM     44  C   UNL A   1      46.954  22.442  34.946  1.00  0.00     0.016 A 
ATOM     45  C   UNL A   1      44.242  23.148  35.122  1.00  0.00     0.010 A 
ATOM     46  C   UNL A   1      46.548  23.756  34.690  1.00  0.00     0.010 A 
ATOM     47  C   UNL A   1      45.185  24.103  34.725  1.00  0.00    -0.014 A 
BRANCH  47  48
ATOM     48  C   UNL A   1      44.730  25.374  34.105  1.00  0.00     0.031 A 
ATOM     49  C   UNL A   1      44.477  25.386  32.622  1.00  0.00     0.074 A 
ATOM     50  C   UNL A   1      44.530  26.494  34.820  1.00  0.00     0.049 A 
ATOM     51  N   UNL A   1      44.141  26.381  31.845  1.00  0.00    -0.248 NA
ATOM     52  C   UNL A   1      44.624  24.098  31.922  1.00  0.00     0.031 C 
ATOM     53  C   UNL A   1      44.679  26.610  36.266  1.00  0.00     0.029 A 
ATOM     54  N   UNL A   1      44.175  27.759  34.412  1.00  0.00    -0.354 N 
ATOM     55  C   UNL A   1      44.070  25.851  30.563  1.00  0.00     0.074 A 
ATOM     56  C   UNL A   1      44.409  24.448  30.664  1.00  0.00     0.031 C 
ATOM     57  C   UNL A   1      44.446  27.886  36.617  1.00  0.00     0.029 A 
ATOM     58  C   UNL A   1      44.187  28.685  35.428  1.00  0.00     0.049 A 
ATOM     59  H   UNL A   1      43.935  27.980  33.482  1.00  0.00     0.167 HD
ATOM     60  C   UNL A   1      43.743  26.471  29.407  1.00  0.00     0.034 A 
ATOM     61  C   UNL A   1      44.040  30.026  35.402  1.00  0.00     0.034 A 
ATOM     62  C   UNL A   1      43.391  27.861  29.306  1.00  0.00     0.049 A 
ATOM     63  C   UNL A   1      43.737  30.706  34.094  1.00  0.00     0.074 A 
ATOM     64  C   UNL A   1      43.002  28.567  28.181  1.00  0.00     0.029 A 
ATOM     65  N   UNL A   1      43.406  28.762  30.359  1.00  0.00    -0.354 N 
ATOM     66  N   UNL A   1      43.578  30.177  32.906  1.00  0.00    -0.248 NA
ATOM     67  C   UNL A   1      43.549  32.165  34.128  1.00  0.00     0.031 C 
ATOM     68  C   UNL A   1      42.826  29.906  28.546  1.00  0.00     0.029 A 
ATOM     69  C   UNL A   1      43.055  30.023  29.908  1.00  0.00     0.049 A 
ATOM     70  H   UNL A   1      43.632  28.537  31.290  1.00  0.00     0.167 HD
ATOM     71  C   UNL A   1      43.227  31.226  32.063  1.00  0.00     0.074 A 
ATOM     72  C   UNL A   1      43.183  32.420  32.879  1.00  0.00     0.031 C 
ATOM     73  C   UNL A   1      42.968  31.199  30.733  1.00  0.00     0.034 A 
BRANCH  60  74
ATOM     74  C   UNL A   1      43.757  25.646  28.148  1.00  0.00     0.023 A 
ATOM     75  C   UNL A   1      42.549  25.340  27.489  1.00  0.00     0.012 A 
ATOM     76  C   UNL A   1      44.978  25.213  27.595  1.00  0.00     0.148 A 
ATOM     77  C   UNL A   1      42.554  24.584  26.318  1.00  0.00     0.002 A 
ATOM     78  C   UNL A   1      44.978  24.505  26.401  1.00  0.00     0.091 A 
ATOM     79  F   UNL A   1      46.112  25.494  28.252  1.00  0.00    -0.205 F 
ATOM     80  C   UNL A   1      43.768  24.177  25.768  1.00  0.00     0.022 A 
BRANCH  78  81
ATOM     81  S   UNL A   1      46.491  24.010  25.572  1.00  0.00     0.127 S 
ATOM     82  O   UNL A   1      46.320  22.559  25.487  1.00  0.00    -0.237 OA
ATOM     83  O   UNL A   1      46.382  24.712  24.293  1.00  0.00    -0.237 OA
ATOM     84  O   UNL A   1      47.584  24.458  26.422  1.00  0.00    -0.744 OA
ENDBRANCH  78  81
ENDBRANCH  60  74
BRANCH  61  85
ATOM     85  C   UNL A   1      44.170  30.824  36.657  1.00  0.00     0.023 A 
ATOM     86  C   UNL A   1      45.445  31.203  37.119  1.00  0.00     0.012 A 
ATOM     87  C   UNL A   1      43.034  31.201  37.400  1.00  0.00     0.148 A 
ATOM     88  C   UNL A   1      45.590  31.910  38.315  1.00  0.00     0.002 A 
ATOM     89  C   UNL A   1      43.181  31.958  38.558  1.00  0.00     0.091 A 
ATOM     90  F   UNL A   1      41.827  30.827  36.951  1.00  0.00    -0.205 F 
ATOM     91  C   UNL A   1      44.458  32.294  39.030  1.00  0.00     0.022 A 
BRANCH  89  92
ATOM     92  S   UNL A   1      41.781  32.642  39.451  1.00  0.00     0.127 S 
ATOM     93  O   UNL A   1      41.700  31.762  40.614  1.00  0.00    -0.237 OA
ATOM     94  O   UNL A   1      42.248  34.001  39.731  1.00  0.00    -0.237 OA
ATOM     95  O   UNL A   1      40.654  32.579  38.530  1.00  0.00    -0.744 OA
ENDBRANCH  89  92
ENDBRANCH  61  85
BRANCH  73  96
ATOM     96  C   UNL A   1      42.559  32.490  30.071  1.00  0.00     0.023 A 
ATOM     97  C   UNL A   1      41.250  32.988  30.232  1.00  0.00     0.012 A 
ATOM     98  C   UNL A   1      43.501  33.245  29.343  1.00  0.00     0.148 A 
ATOM     99  C   UNL A   1      40.876  34.198  29.648  1.00  0.00     0.002 A 
ATOM    100  C   UNL A   1      43.136  34.475  28.811  1.00  0.00     0.091 A 
ATOM    101  F   UNL A   1      44.735  32.746  29.186  1.00  0.00    -0.205 F 
ATOM    102  C   UNL A   1      41.820  34.946  28.949  1.00  0.00     0.022 A 
BRANCH 100 103
ATOM    103  S   UNL A   1      44.310  35.553  27.982  1.00  0.00     0.127 S 
ATOM    104  O   UNL A   1      45.042  34.607  27.142  1.00  0.00    -0.237 OA
ATOM    105  O   UNL A   1      43.429  36.463  27.250  1.00  0.00    -0.237 OA
ATOM    106  O   UNL A   1      45.092  36.185  29.037  1.00  0.00    -0.744 OA
ENDBRANCH 100 103
ENDBRANCH  73  96
ENDBRANCH  47  48
ENDBRANCH  40  42
ENDBRANCH  39  40
ENDBRANCH  38  39
ENDBRANCH  37  38
ENDBRANCH  36  37
ENDBRANCH  35  36
ENDBRANCH  34  35
ENDBRANCH   1  34
TORSDOF 27
ENDMDL
MODEL 3
REMARK VINA RESULT:      -5.2      4.157     11.822
REMARK SMILES COc1ccc([C@@H]2[NH2+][C@H](C(=O)OCCOCCOCCOCCOC(=O)c3ccc(-c4c5nc(c(-c6cccc(S(=O)(=O)[O-])c6F)c6ccc([nH]6)c(-c6cccc(S(=O)(=O)[O-])c6F)c6nc(c(-c7cccc(S(=O)(=O)[O-])c7F)c7ccc4[nH]7)C=C6)C=C5)cc3)CS2)cc1Cn1nc(C)c(Br)c1C
REMARK SMILES IDX 18 1 17 2 16 3 15 4 14 5 13 6 12 7 10 8 11 9 9 10 7 11 8 12
REMARK SMILES IDX 91 13 90 16 6 17 3 18 4 19 93 20 5 21 92 22 2 23 1 24 94 25
REMARK SMILES IDX 95 26 96 27 101 28 97 29 99 30 102 31 98 32 100 33 19 34
REMARK SMILES IDX 20 35 21 36 22 37 23 38 24 39 25 40 26 41 27 42 28 43 89 44
REMARK SMILES IDX 29 45 88 46 30 47 31 48 32 49 82 50 33 51 87 52 81 53 83 54
REMARK SMILES IDX 34 55 86 56 80 57 79 58 35 60 67 61 47 62 66 63 48 64 51 65
REMARK SMILES IDX 65 66 84 67 49 68 50 69 64 71 85 72 52 73 36 74 37 75 45 76
REMARK SMILES IDX 38 77 40 78 46 79 39 80 41 81 42 82 43 83 44 84 68 85 69 86
REMARK SMILES IDX 77 87 70 88 72 89 78 90 71 91 73 92 74 93 75 94 76 95 53 96
REMARK SMILES IDX 54 97 62 98 55 99 57 100 63 101 56 102 58 103 59 104 60 105
REMARK SMILES IDX 61 106
REMARK H PARENT 8 14 8 15 83 59 51 70
REMARK Flexibility Score: inf
ROOT
ATOM      1  O   UNL A   1      39.319  33.749  33.985  1.00  0.00    -0.377 OA
ENDROOT
BRANCH   1   2
ATOM      2  C   UNL A   1      40.380  34.476  33.391  1.00  0.00     0.188 C 
BRANCH   2   3
ATOM      3  C   UNL A   1      41.641  34.622  34.275  1.00  0.00     0.188 C 
BRANCH   3   4
ATOM      4  O   UNL A   1      42.194  35.905  34.532  1.00  0.00    -0.376 OA
BRANCH   4   5
ATOM      5  C   UNL A   1      43.068  36.467  33.568  1.00  0.00     0.202 C 
BRANCH   5   6
ATOM      6  C   UNL A   1      43.696  35.596  32.485  1.00  0.00     0.261 C 
BRANCH   6   7
ATOM      7  O   UNL A   1      42.976  35.340  31.286  1.00  0.00    -0.459 OA
BRANCH   7   8
ATOM      8  C   UNL A   1      43.594  35.555  30.111  1.00  0.00     0.365 C 
ATOM      9  O   UNL A   1      44.653  36.162  29.974  1.00  0.00    -0.245 OA
BRANCH   8  10
ATOM     10  C   UNL A   1      42.823  34.978  28.925  1.00  0.00     0.304 C 
ATOM     11  C   UNL A   1      42.294  36.500  27.116  1.00  0.00     0.274 C 
ATOM     12  N   UNL A   1      41.793  35.884  28.347  1.00  0.00    -0.319 N 
ATOM     13  S   UNL A   1      43.362  35.285  26.322  1.00  0.00    -0.087 SA
ATOM     14  H   UNL A   1      40.953  35.346  28.137  1.00  0.00     0.348 HD
ATOM     15  H   UNL A   1      41.581  36.618  29.022  1.00  0.00     0.348 HD
ATOM     16  C   UNL A   1      43.835  34.516  27.880  1.00  0.00     0.153 C 
BRANCH  11  17
ATOM     17  C   UNL A   1      42.891  37.890  27.281  1.00  0.00     0.021 A 
ATOM     18  C   UNL A   1      43.790  40.540  27.526  1.00  0.00     0.123 A 
ATOM     19  C   UNL A   1      42.663  40.118  28.233  1.00  0.00     0.047 A 
ATOM     20  C   UNL A   1      44.564  39.652  26.766  1.00  0.00     0.016 A 
ATOM     21  C   UNL A   1      42.224  38.802  28.119  1.00  0.00     0.015 A 
ATOM     22  C   UNL A   1      44.063  38.339  26.623  1.00  0.00     0.020 A 
BRANCH  18  23
ATOM     23  O   UNL A   1      44.089  41.878  27.575  1.00  0.00    -0.496 OA
ATOM     24  C   UNL A   1      44.414  42.248  28.926  1.00  0.00     0.278 C 
ENDBRANCH  18  23
BRANCH  20  25
ATOM     25  C   UNL A   1      45.786  40.158  26.020  1.00  0.00     0.184 C 
BRANCH  25  26
ATOM     26  N   UNL A   1      47.098  39.903  26.632  1.00  0.00    -0.264 N 
ATOM     27  N   UNL A   1      47.550  38.622  26.711  1.00  0.00    -0.177 NA
ATOM     28  C   UNL A   1      47.927  40.795  27.286  1.00  0.00     0.050 A 
ATOM     29  C   UNL A   1      48.696  38.697  27.399  1.00  0.00     0.074 A 
ATOM     30  C   UNL A   1      48.943  40.022  27.808  1.00  0.00     0.061 A 
ATOM     31  C   UNL A   1      47.760  42.267  27.253  1.00  0.00     0.067 C 
ATOM     32  C   UNL A   1      49.541  37.489  27.577  1.00  0.00     0.070 C 
ATOM     33  Br  UNL A   1      50.476  40.603  28.720  1.00  0.00    -0.047 Br
ENDBRANCH  25  26
ENDBRANCH  20  25
ENDBRANCH  11  17
ENDBRANCH   8  10
ENDBRANCH   7   8
ENDBRANCH   6   7
ENDBRANCH   5   6
ENDBRANCH   4   5
ENDBRANCH   3   4
ENDBRANCH   2   3
ENDBRANCH   1   2
BRANCH   1  34
ATOM     34  C   UNL A   1      38.368  34.467  34.757  1.00  0.00     0.188 C 
BRANCH  34  35
ATOM     35  C   UNL A   1      36.876  34.258  34.424  1.00  0.00     0.188 C 
BRANCH  35  36
ATOM     36  O   UNL A   1      36.435  34.983  33.285  1.00  0.00    -0.376 OA
BRANCH  36  37
ATOM     37  C   UNL A   1      35.550  34.361  32.369  1.00  0.00     0.202 C 
BRANCH  37  38
ATOM     38  C   UNL A   1      34.646  33.213  32.853  1.00  0.00     0.261 C 
BRANCH  38  39
ATOM     39  O   UNL A   1      34.939  31.889  32.381  1.00  0.00    -0.460 OA
BRANCH  39  40
ATOM     40  C   UNL A   1      35.677  31.761  31.255  1.00  0.00     0.338 C 
ATOM     41  O   UNL A   1      35.368  32.119  30.141  1.00  0.00    -0.246 OA
BRANCH  40  42
ATOM     42  C   UNL A   1      37.029  31.286  31.650  1.00  0.00     0.060 A 
ATOM     43  C   UNL A   1      38.154  31.994  31.203  1.00  0.00     0.016 A 
ATOM     44  C   UNL A   1      37.188  30.148  32.444  1.00  0.00     0.016 A 
ATOM     45  C   UNL A   1      39.439  31.530  31.490  1.00  0.00     0.010 A 
ATOM     46  C   UNL A   1      38.475  29.669  32.709  1.00  0.00     0.010 A 
ATOM     47  C   UNL A   1      39.605  30.329  32.190  1.00  0.00    -0.014 A 
BRANCH  47  48
ATOM     48  C   UNL A   1      40.917  29.633  32.158  1.00  0.00     0.031 A 
ATOM     49  C   UNL A   1      41.914  29.955  33.238  1.00  0.00     0.074 A 
ATOM     50  C   UNL A   1      41.231  28.729  31.215  1.00  0.00     0.049 A 
ATOM     51  N   UNL A   1      43.141  29.531  33.388  1.00  0.00    -0.248 NA
ATOM     52  C   UNL A   1      41.464  30.881  34.291  1.00  0.00     0.031 C 
ATOM     53  C   UNL A   1      40.344  28.280  30.148  1.00  0.00     0.029 A 
ATOM     54  N   UNL A   1      42.403  28.041  30.996  1.00  0.00    -0.354 N 
ATOM     55  C   UNL A   1      43.621  30.163  34.528  1.00  0.00     0.074 A 
ATOM     56  C   UNL A   1      42.557  31.007  35.026  1.00  0.00     0.031 C 
ATOM     57  C   UNL A   1      41.016  27.414  29.372  1.00  0.00     0.029 A 
ATOM     58  C   UNL A   1      42.388  27.287  29.847  1.00  0.00     0.049 A 
ATOM     59  H   UNL A   1      43.176  28.084  31.604  1.00  0.00     0.167 HD
ATOM     60  C   UNL A   1      44.833  30.045  35.116  1.00  0.00     0.034 A 
ATOM     61  C   UNL A   1      43.370  26.600  29.228  1.00  0.00     0.034 A 
ATOM     62  C   UNL A   1      45.887  29.194  34.633  1.00  0.00     0.049 A 
ATOM     63  C   UNL A   1      44.732  26.531  29.867  1.00  0.00     0.074 A 
ATOM     64  C   UNL A   1      47.135  28.977  35.188  1.00  0.00     0.029 A 
ATOM     65  N   UNL A   1      45.828  28.441  33.471  1.00  0.00    -0.354 N 
ATOM     66  N   UNL A   1      45.141  27.056  30.996  1.00  0.00    -0.248 NA
ATOM     67  C   UNL A   1      45.757  25.739  29.170  1.00  0.00     0.031 C 
ATOM     68  C   UNL A   1      47.848  28.126  34.338  1.00  0.00     0.029 A 
ATOM     69  C   UNL A   1      47.026  27.773  33.280  1.00  0.00     0.049 A 
ATOM     70  H   UNL A   1      45.049  28.387  32.872  1.00  0.00     0.167 HD
ATOM     71  C   UNL A   1      46.451  26.622  31.167  1.00  0.00     0.074 A 
ATOM     72  C   UNL A   1      46.762  25.778  30.033  1.00  0.00     0.031 C 
ATOM     73  C   UNL A   1      47.315  26.899  32.173  1.00  0.00     0.034 A 
BRANCH  60  74
ATOM     74  C   UNL A   1      45.089  30.865  36.352  1.00  0.00     0.023 A 
ATOM     75  C   UNL A   1      44.831  30.322  37.627  1.00  0.00     0.012 A 
ATOM     76  C   UNL A   1      45.629  32.161  36.245  1.00  0.00     0.148 A 
ATOM     77  C   UNL A   1      45.074  31.072  38.777  1.00  0.00     0.002 A 
ATOM     78  C   UNL A   1      45.916  32.882  37.397  1.00  0.00     0.091 A 
ATOM     79  F   UNL A   1      45.842  32.666  35.022  1.00  0.00    -0.205 F 
ATOM     80  C   UNL A   1      45.627  32.345  38.662  1.00  0.00     0.022 A 
BRANCH  78  81
ATOM     81  S   UNL A   1      46.705  34.494  37.356  1.00  0.00     0.127 S 
ATOM     82  O   UNL A   1      46.272  35.002  36.054  1.00  0.00    -0.237 OA
ATOM     83  O   UNL A   1      46.092  35.162  38.505  1.00  0.00    -0.237 OA
ATOM     84  O   UNL A   1      48.134  34.249  37.484  1.00  0.00    -0.744 OA
ENDBRANCH  78  81
ENDBRANCH  60  74
BRANCH  61  85
ATOM     85  C   UNL A   1      43.109  25.912  27.929  1.00  0.00     0.023 A 
ATOM     86  C   UNL A   1      43.398  26.568  26.717  1.00  0.00     0.012 A 
ATOM     87  C   UNL A   1      42.566  24.613  27.891  1.00  0.00     0.148 A 
ATOM     88  C   UNL A   1      43.116  25.959  25.491  1.00  0.00     0.002 A 
ATOM     89  C   UNL A   1      42.346  23.988  26.668  1.00  0.00     0.091 A 
ATOM     90  F   UNL A   1      42.290  24.005  29.054  1.00  0.00    -0.205 F 
ATOM     91  C   UNL A   1      42.599  24.667  25.467  1.00  0.00     0.022 A 
BRANCH  89  92
ATOM     92  S   UNL A   1      41.843  22.268  26.536  1.00  0.00     0.127 S 
ATOM     93  O   UNL A   1      40.389  22.379  26.480  1.00  0.00    -0.237 OA
ATOM     94  O   UNL A   1      42.486  21.871  25.282  1.00  0.00    -0.237 OA
ATOM     95  O   UNL A   1      42.383  21.607  27.716  1.00  0.00    -0.744 OA
ENDBRANCH  89  92
ENDBRANCH  61  85
BRANCH  73  96
ATOM     96  C   UNL A   1      48.674  26.247  32.133  1.00  0.00     0.023 A 
ATOM     97  C   UNL A   1      49.727  26.843  31.410  1.00  0.00     0.012 A 
ATOM     98  C   UNL A   1      48.921  25.074  32.874  1.00  0.00     0.148 A 
ATOM     99  C   UNL A   1      50.994  26.260  31.396  1.00  0.00     0.002 A 
ATOM    100  C   UNL A   1      50.198  24.530  32.900  1.00  0.00     0.091 A 
ATOM    101  F   UNL A   1      47.902  24.513  33.541  1.00  0.00    -0.205 F 
ATOM    102  C   UNL A   1      51.233  25.113  32.149  1.00  0.00     0.022 A 
BRANCH 100 103
ATOM    103  S   UNL A   1      50.624  23.114  33.920  1.00  0.00     0.127 S 
ATOM    104  O   UNL A   1      50.096  23.517  35.223  1.00  0.00    -0.237 OA
ATOM    105  O   UNL A   1      49.883  22.033  33.270  1.00  0.00    -0.237 OA
ATOM    106  O   UNL A   1      52.073  22.984  33.848  1.00  0.00    -0.744 OA
ENDBRANCH 100 103
ENDBRANCH  73  96
ENDBRANCH  47  48
ENDBRANCH  40  42
ENDBRANCH  39  40
ENDBRANCH  38  39
ENDBRANCH  37  38
ENDBRANCH  36  37
ENDBRANCH  35  36
ENDBRANCH  34  35
ENDBRANCH   1  34
TORSDOF 27
ENDMDL
