MODEL 1
REMARK VINA RESULT:     -10.1      0.000      0.000
REMARK SMILES C[C@@H]1[NH2+]CC[C@H]1C(=O)NCc1cccc(C(=O)OCCOCCOCCOCCOC(=O)c2ccc(-c3c4nc(c(-c5cccc(S(=O)(=O)[O-])c5F)c5ccc([nH]5)c(-c5cccc(S(=O)(=O)[O-])c5F)c5nc(c(-c6cccc(S(=O)(=O)[O-])c6F)c6ccc3[nH]6)C=C5)C=C4)cc2)c1
REMARK SMILES IDX 24 1 23 2 22 3 21 4 20 5 19 6 18 7 16 8 17 9 15 10 11 11
REMARK SMILES IDX 12 12 96 13 13 14 14 15 10 16 9 17 7 18 8 19 6 21 1 22 2 23
REMARK SMILES IDX 3 24 4 25 5 28 25 29 26 30 27 31 28 32 29 33 30 34 31 35
REMARK SMILES IDX 32 36 33 37 34 38 95 39 35 40 94 41 36 42 37 43 38 44 88 45
REMARK SMILES IDX 39 46 93 47 87 48 89 49 40 50 92 51 86 52 85 53 41 55 73 56
REMARK SMILES IDX 53 57 72 58 54 59 57 60 71 61 90 62 55 63 56 64 70 66 91 67
REMARK SMILES IDX 58 68 42 69 43 70 51 71 44 72 46 73 52 74 45 75 47 76 48 77
REMARK SMILES IDX 49 78 50 79 74 80 75 81 83 82 76 83 78 84 84 85 77 86 79 87
REMARK SMILES IDX 80 88 81 89 82 90 59 91 60 92 68 93 61 94 63 95 69 96 62 97
REMARK SMILES IDX 64 98 65 99 66 100 67 101
REMARK H PARENT 9 20 3 26 3 27 89 54 57 65
REMARK Flexibility Score: inf
ROOT
ATOM      1  O   UNL A   1      36.975  23.717  24.660  1.00  0.00    -0.377 OA
ENDROOT
BRANCH   1   2
ATOM      2  C   UNL A   1      35.856  24.305  25.304  1.00  0.00     0.188 C 
BRANCH   2   3
ATOM      3  C   UNL A   1      34.590  23.464  25.580  1.00  0.00     0.188 C 
BRANCH   3   4
ATOM      4  O   UNL A   1      34.776  22.422  26.521  1.00  0.00    -0.376 OA
BRANCH   4   5
ATOM      5  C   UNL A   1      34.121  22.509  27.774  1.00  0.00     0.202 C 
BRANCH   5   6
ATOM      6  C   UNL A   1      32.604  22.281  27.817  1.00  0.00     0.261 C 
BRANCH   6   7
ATOM      7  O   UNL A   1      31.801  23.455  27.669  1.00  0.00    -0.460 OA
BRANCH   7   8
ATOM      8  C   UNL A   1      30.598  23.335  27.065  1.00  0.00     0.338 C 
ATOM      9  O   UNL A   1      29.536  23.064  27.596  1.00  0.00    -0.246 OA
BRANCH   8  10
ATOM     10  C   UNL A   1      30.756  23.852  25.681  1.00  0.00     0.060 A 
ATOM     11  C   UNL A   1      30.479  25.643  24.049  1.00  0.00    -0.028 A 
ATOM     12  C   UNL A   1      30.714  24.709  23.026  1.00  0.00     0.005 A 
ATOM     13  C   UNL A   1      30.495  25.197  25.380  1.00  0.00     0.021 A 
ATOM     14  C   UNL A   1      30.986  23.372  23.324  1.00  0.00     0.001 A 
ATOM     15  C   UNL A   1      31.016  22.943  24.651  1.00  0.00     0.016 A 
BRANCH  11  16
ATOM     16  C   UNL A   1      30.144  27.073  23.686  1.00  0.00     0.151 C 
BRANCH  16  17
ATOM     17  N   UNL A   1      31.257  27.801  23.120  1.00  0.00    -0.352 N 
ATOM     18  C   UNL A   1      32.134  28.684  23.660  1.00  0.00     0.229 C 
ATOM     19  O   UNL A   1      32.866  29.294  22.880  1.00  0.00    -0.275 OA
ATOM     20  H   UNL A   1      31.408  27.623  22.163  1.00  0.00     0.163 HD
BRANCH  18  21
ATOM     21  C   UNL A   1      32.242  28.947  25.150  1.00  0.00     0.142 C 
ATOM     22  C   UNL A   1      33.928  27.735  26.602  1.00  0.00     0.076 C 
ATOM     23  C   UNL A   1      33.676  28.927  25.677  1.00  0.00     0.192 C 
ATOM     24  N   UNL A   1      33.885  30.188  26.418  1.00  0.00    -0.343 N 
ATOM     25  C   UNL A   1      32.559  30.742  26.701  1.00  0.00     0.261 C 
ATOM     26  H   UNL A   1      34.425  30.842  25.850  1.00  0.00     0.346 HD
ATOM     27  H   UNL A   1      34.403  30.023  27.281  1.00  0.00     0.346 HD
ATOM     28  C   UNL A   1      31.633  30.263  25.602  1.00  0.00     0.081 C 
ENDBRANCH  18  21
ENDBRANCH  16  17
ENDBRANCH  11  16
ENDBRANCH   8  10
ENDBRANCH   7   8
ENDBRANCH   6   7
ENDBRANCH   5   6
ENDBRANCH   4   5
ENDBRANCH   3   4
ENDBRANCH   2   3
ENDBRANCH   1   2
BRANCH   1  29
ATOM     29  C   UNL A   1      36.792  22.605  23.790  1.00  0.00     0.188 C 
BRANCH  29  30
ATOM     30  C   UNL A   1      36.902  21.156  24.323  1.00  0.00     0.188 C 
BRANCH  30  31
ATOM     31  O   UNL A   1      37.977  20.935  25.224  1.00  0.00    -0.376 OA
BRANCH  31  32
ATOM     32  C   UNL A   1      38.636  19.683  25.142  1.00  0.00     0.202 C 
BRANCH  32  33
ATOM     33  C   UNL A   1      39.885  19.505  26.015  1.00  0.00     0.261 C 
BRANCH  33  34
ATOM     34  O   UNL A   1      41.111  19.239  25.316  1.00  0.00    -0.460 OA
BRANCH  34  35
ATOM     35  C   UNL A   1      42.237  19.112  26.051  1.00  0.00     0.338 C 
ATOM     36  O   UNL A   1      42.830  18.079  26.317  1.00  0.00    -0.246 OA
BRANCH  35  37
ATOM     37  C   UNL A   1      42.743  20.473  26.318  1.00  0.00     0.060 A 
ATOM     38  C   UNL A   1      42.652  21.001  27.613  1.00  0.00     0.016 A 
ATOM     39  C   UNL A   1      43.340  21.212  25.294  1.00  0.00     0.016 A 
ATOM     40  C   UNL A   1      43.142  22.280  27.883  1.00  0.00     0.010 A 
ATOM     41  C   UNL A   1      43.809  22.500  25.560  1.00  0.00     0.010 A 
ATOM     42  C   UNL A   1      43.688  23.050  26.848  1.00  0.00    -0.014 A 
BRANCH  42  43
ATOM     43  C   UNL A   1      43.971  24.489  27.060  1.00  0.00     0.031 A 
ATOM     44  C   UNL A   1      45.381  24.974  26.867  1.00  0.00     0.074 A 
ATOM     45  C   UNL A   1      43.006  25.347  27.437  1.00  0.00     0.049 A 
ATOM     46  N   UNL A   1      45.884  26.164  27.062  1.00  0.00    -0.248 NA
ATOM     47  C   UNL A   1      46.357  23.977  26.397  1.00  0.00     0.031 C 
ATOM     48  C   UNL A   1      41.601  25.002  27.645  1.00  0.00     0.029 A 
ATOM     49  N   UNL A   1      43.077  26.683  27.743  1.00  0.00    -0.354 N 
ATOM     50  C   UNL A   1      47.238  26.054  26.770  1.00  0.00     0.074 A 
ATOM     51  C   UNL A   1      47.481  24.679  26.394  1.00  0.00     0.031 C 
ATOM     52  C   UNL A   1      40.945  26.094  28.077  1.00  0.00     0.029 A 
ATOM     53  C   UNL A   1      41.890  27.203  28.206  1.00  0.00     0.049 A 
ATOM     54  H   UNL A   1      43.897  27.217  27.642  1.00  0.00     0.167 HD
ATOM     55  C   UNL A   1      48.192  27.013  26.803  1.00  0.00     0.034 A 
ATOM     56  C   UNL A   1      41.611  28.424  28.705  1.00  0.00     0.034 A 
ATOM     57  C   UNL A   1      47.949  28.381  27.173  1.00  0.00     0.049 A 
ATOM     58  C   UNL A   1      42.703  29.461  28.779  1.00  0.00     0.074 A 
ATOM     59  C   UNL A   1      48.841  29.438  27.191  1.00  0.00     0.029 A 
ATOM     60  N   UNL A   1      46.731  28.877  27.610  1.00  0.00    -0.354 N 
ATOM     61  N   UNL A   1      43.952  29.377  28.391  1.00  0.00    -0.248 NA
ATOM     62  C   UNL A   1      42.338  30.772  29.340  1.00  0.00     0.031 C 
ATOM     63  C   UNL A   1      48.173  30.565  27.680  1.00  0.00     0.029 A 
ATOM     64  C   UNL A   1      46.852  30.220  27.925  1.00  0.00     0.049 A 
ATOM     65  H   UNL A   1      45.902  28.352  27.687  1.00  0.00     0.167 HD
ATOM     66  C   UNL A   1      44.513  30.629  28.629  1.00  0.00     0.074 A 
ATOM     67  C   UNL A   1      43.458  31.460  29.172  1.00  0.00     0.031 C 
ATOM     68  C   UNL A   1      45.786  31.049  28.425  1.00  0.00     0.034 A 
BRANCH  55  69
ATOM     69  C   UNL A   1      49.594  26.611  26.423  1.00  0.00     0.023 A 
ATOM     70  C   UNL A   1      50.346  25.789  27.287  1.00  0.00     0.012 A 
ATOM     71  C   UNL A   1      50.150  27.017  25.195  1.00  0.00     0.148 A 
ATOM     72  C   UNL A   1      51.645  25.407  26.950  1.00  0.00     0.002 A 
ATOM     73  C   UNL A   1      51.426  26.593  24.844  1.00  0.00     0.091 A 
ATOM     74  F   UNL A   1      49.427  27.818  24.399  1.00  0.00    -0.205 F 
ATOM     75  C   UNL A   1      52.180  25.800  25.726  1.00  0.00     0.022 A 
BRANCH  73  76
ATOM     76  S   UNL A   1      52.173  26.980  23.258  1.00  0.00     0.127 S 
ATOM     77  O   UNL A   1      52.579  28.370  23.455  1.00  0.00    -0.237 OA
ATOM     78  O   UNL A   1      53.278  26.023  23.199  1.00  0.00    -0.237 OA
ATOM     79  O   UNL A   1      51.133  26.769  22.260  1.00  0.00    -0.744 OA
ENDBRANCH  73  76
ENDBRANCH  55  69
BRANCH  56  80
ATOM     80  C   UNL A   1      40.231  28.745  29.169  1.00  0.00     0.023 A 
ATOM     81  C   UNL A   1      39.251  29.123  28.231  1.00  0.00     0.012 A 
ATOM     82  C   UNL A   1      39.888  28.680  30.533  1.00  0.00     0.148 A 
ATOM     83  C   UNL A   1      37.962  29.458  28.646  1.00  0.00     0.002 A 
ATOM     84  C   UNL A   1      38.589  28.964  30.934  1.00  0.00     0.091 A 
ATOM     85  F   UNL A   1      40.842  28.335  31.410  1.00  0.00    -0.205 F 
ATOM     86  C   UNL A   1      37.628  29.369  29.995  1.00  0.00     0.022 A 
BRANCH  84  87
ATOM     87  S   UNL A   1      38.035  28.767  32.630  1.00  0.00     0.127 S 
ATOM     88  O   UNL A   1      36.673  29.288  32.561  1.00  0.00    -0.237 OA
ATOM     89  O   UNL A   1      38.134  27.318  32.804  1.00  0.00    -0.237 OA
ATOM     90  O   UNL A   1      38.965  29.545  33.438  1.00  0.00    -0.744 OA
ENDBRANCH  84  87
ENDBRANCH  56  80
BRANCH  68  91
ATOM     91  C   UNL A   1      46.114  32.484  28.758  1.00  0.00     0.023 A 
ATOM     92  C   UNL A   1      46.633  32.812  30.026  1.00  0.00     0.012 A 
ATOM     93  C   UNL A   1      45.978  33.496  27.785  1.00  0.00     0.148 A 
ATOM     94  C   UNL A   1      46.976  34.129  30.334  1.00  0.00     0.002 A 
ATOM     95  C   UNL A   1      46.370  34.795  28.081  1.00  0.00     0.091 A 
ATOM     96  F   UNL A   1      45.470  33.167  26.589  1.00  0.00    -0.205 F 
ATOM     97  C   UNL A   1      46.857  35.117  29.359  1.00  0.00     0.022 A 
BRANCH  95  98
ATOM     98  S   UNL A   1      46.346  36.113  26.861  1.00  0.00     0.127 S 
ATOM     99  O   UNL A   1      44.937  36.132  26.470  1.00  0.00    -0.237 OA
ATOM    100  O   UNL A   1      46.776  37.270  27.647  1.00  0.00    -0.237 OA
ATOM    101  O   UNL A   1      47.277  35.713  25.815  1.00  0.00    -0.744 OA
ENDBRANCH  95  98
ENDBRANCH  68  91
ENDBRANCH  42  43
ENDBRANCH  35  37
ENDBRANCH  34  35
ENDBRANCH  33  34
ENDBRANCH  32  33
ENDBRANCH  31  32
ENDBRANCH  30  31
ENDBRANCH  29  30
ENDBRANCH   1  29
TORSDOF 26
ENDMDL
MODEL 2
REMARK VINA RESULT:      -9.6      4.515      6.900
REMARK SMILES C[C@@H]1[NH2+]CC[C@H]1C(=O)NCc1cccc(C(=O)OCCOCCOCCOCCOC(=O)c2ccc(-c3c4nc(c(-c5cccc(S(=O)(=O)[O-])c5F)c5ccc([nH]5)c(-c5cccc(S(=O)(=O)[O-])c5F)c5nc(c(-c6cccc(S(=O)(=O)[O-])c6F)c6ccc3[nH]6)C=C5)C=C4)cc2)c1
REMARK SMILES IDX 24 1 23 2 22 3 21 4 20 5 19 6 18 7 16 8 17 9 15 10 11 11
REMARK SMILES IDX 12 12 96 13 13 14 14 15 10 16 9 17 7 18 8 19 6 21 1 22 2 23
REMARK SMILES IDX 3 24 4 25 5 28 25 29 26 30 27 31 28 32 29 33 30 34 31 35
REMARK SMILES IDX 32 36 33 37 34 38 95 39 35 40 94 41 36 42 37 43 38 44 88 45
REMARK SMILES IDX 39 46 93 47 87 48 89 49 40 50 92 51 86 52 85 53 41 55 73 56
REMARK SMILES IDX 53 57 72 58 54 59 57 60 71 61 90 62 55 63 56 64 70 66 91 67
REMARK SMILES IDX 58 68 42 69 43 70 51 71 44 72 46 73 52 74 45 75 47 76 48 77
REMARK SMILES IDX 49 78 50 79 74 80 75 81 83 82 76 83 78 84 84 85 77 86 79 87
REMARK SMILES IDX 80 88 81 89 82 90 59 91 60 92 68 93 61 94 63 95 69 96 62 97
REMARK SMILES IDX 64 98 65 99 66 100 67 101
REMARK H PARENT 9 20 3 26 3 27 89 54 57 65
REMARK Flexibility Score: inf
ROOT
ATOM      1  O   UNL A   1      34.309  27.179  26.235  1.00  0.00    -0.377 OA
ENDROOT
BRANCH   1   2
ATOM      2  C   UNL A   1      33.404  28.264  26.366  1.00  0.00     0.188 C 
BRANCH   2   3
ATOM      3  C   UNL A   1      33.012  29.101  25.128  1.00  0.00     0.188 C 
BRANCH   3   4
ATOM      4  O   UNL A   1      31.792  29.806  25.263  1.00  0.00    -0.376 OA
BRANCH   4   5
ATOM      5  C   UNL A   1      30.760  29.572  24.321  1.00  0.00     0.202 C 
BRANCH   5   6
ATOM      6  C   UNL A   1      30.806  28.274  23.503  1.00  0.00     0.261 C 
BRANCH   6   7
ATOM      7  O   UNL A   1      30.753  27.065  24.265  1.00  0.00    -0.460 OA
BRANCH   7   8
ATOM      8  C   UNL A   1      30.007  26.043  23.791  1.00  0.00     0.338 C 
ATOM      9  O   UNL A   1      28.800  26.032  23.626  1.00  0.00    -0.246 OA
BRANCH   8  10
ATOM     10  C   UNL A   1      30.952  25.029  23.256  1.00  0.00     0.060 A 
ATOM     11  C   UNL A   1      32.062  22.866  23.444  1.00  0.00    -0.028 A 
ATOM     12  C   UNL A   1      32.977  23.281  22.463  1.00  0.00     0.005 A 
ATOM     13  C   UNL A   1      31.053  23.759  23.840  1.00  0.00     0.021 A 
ATOM     14  C   UNL A   1      32.872  24.543  21.871  1.00  0.00     0.001 A 
ATOM     15  C   UNL A   1      31.855  25.415  22.260  1.00  0.00     0.016 A 
BRANCH  11  16
ATOM     16  C   UNL A   1      32.235  21.511  24.094  1.00  0.00     0.151 C 
BRANCH  16  17
ATOM     17  N   UNL A   1      33.617  21.161  24.338  1.00  0.00    -0.352 N 
ATOM     18  C   UNL A   1      34.218  19.978  24.620  1.00  0.00     0.229 C 
ATOM     19  O   UNL A   1      35.398  20.018  24.970  1.00  0.00    -0.275 OA
ATOM     20  H   UNL A   1      34.239  21.923  24.290  1.00  0.00     0.163 HD
BRANCH  18  21
ATOM     21  C   UNL A   1      33.509  18.639  24.529  1.00  0.00     0.142 C 
ATOM     22  C   UNL A   1      34.300  16.813  22.962  1.00  0.00     0.076 C 
ATOM     23  C   UNL A   1      34.453  17.453  24.342  1.00  0.00     0.192 C 
ATOM     24  N   UNL A   1      34.125  16.465  25.391  1.00  0.00    -0.343 N 
ATOM     25  C   UNL A   1      32.799  16.816  25.907  1.00  0.00     0.261 C 
ATOM     26  H   UNL A   1      34.815  16.509  26.140  1.00  0.00     0.346 HD
ATOM     27  H   UNL A   1      34.131  15.518  25.015  1.00  0.00     0.346 HD
ATOM     28  C   UNL A   1      32.631  18.309  25.724  1.00  0.00     0.081 C 
ENDBRANCH  18  21
ENDBRANCH  16  17
ENDBRANCH  11  16
ENDBRANCH   8  10
ENDBRANCH   7   8
ENDBRANCH   6   7
ENDBRANCH   5   6
ENDBRANCH   4   5
ENDBRANCH   3   4
ENDBRANCH   2   3
ENDBRANCH   1   2
BRANCH   1  29
ATOM     29  C   UNL A   1      33.946  26.040  25.461  1.00  0.00     0.188 C 
BRANCH  29  30
ATOM     30  C   UNL A   1      33.527  24.718  26.147  1.00  0.00     0.188 C 
BRANCH  30  31
ATOM     31  O   UNL A   1      34.431  23.639  25.959  1.00  0.00    -0.376 OA
BRANCH  31  32
ATOM     32  C   UNL A   1      35.751  23.969  25.562  1.00  0.00     0.202 C 
BRANCH  32  33
ATOM     33  C   UNL A   1      36.860  22.993  25.979  1.00  0.00     0.261 C 
BRANCH  33  34
ATOM     34  O   UNL A   1      38.193  23.346  25.580  1.00  0.00    -0.460 OA
BRANCH  34  35
ATOM     35  C   UNL A   1      39.181  23.189  26.488  1.00  0.00     0.338 C 
ATOM     36  O   UNL A   1      39.861  22.192  26.670  1.00  0.00    -0.246 OA
BRANCH  35  37
ATOM     37  C   UNL A   1      39.432  24.510  27.098  1.00  0.00     0.060 A 
ATOM     38  C   UNL A   1      40.097  25.495  26.356  1.00  0.00     0.016 A 
ATOM     39  C   UNL A   1      38.977  24.783  28.390  1.00  0.00     0.016 A 
ATOM     40  C   UNL A   1      40.325  26.755  26.914  1.00  0.00     0.010 A 
ATOM     41  C   UNL A   1      39.227  26.035  28.955  1.00  0.00     0.010 A 
ATOM     42  C   UNL A   1      39.925  27.017  28.231  1.00  0.00    -0.014 A 
BRANCH  42  43
ATOM     43  C   UNL A   1      40.387  28.245  28.920  1.00  0.00     0.031 A 
ATOM     44  C   UNL A   1      41.773  28.258  29.502  1.00  0.00     0.074 A 
ATOM     45  C   UNL A   1      39.589  29.320  29.048  1.00  0.00     0.049 A 
ATOM     46  N   UNL A   1      42.369  29.184  30.205  1.00  0.00    -0.248 NA
ATOM     47  C   UNL A   1      42.594  27.060  29.261  1.00  0.00     0.031 C 
ATOM     48  C   UNL A   1      38.231  29.435  28.519  1.00  0.00     0.029 A 
ATOM     49  N   UNL A   1      39.802  30.511  29.697  1.00  0.00    -0.354 N 
ATOM     50  C   UNL A   1      43.622  28.670  30.520  1.00  0.00     0.074 A 
ATOM     51  C   UNL A   1      43.697  27.348  29.938  1.00  0.00     0.031 C 
ATOM     52  C   UNL A   1      37.718  30.622  28.892  1.00  0.00     0.029 A 
ATOM     53  C   UNL A   1      38.699  31.333  29.711  1.00  0.00     0.049 A 
ATOM     54  H   UNL A   1      40.661  30.753  30.111  1.00  0.00     0.167 HD
ATOM     55  C   UNL A   1      44.623  29.249  31.221  1.00  0.00     0.034 A 
ATOM     56  C   UNL A   1      38.497  32.507  30.342  1.00  0.00     0.034 A 
ATOM     57  C   UNL A   1      44.550  30.566  31.795  1.00  0.00     0.049 A 
ATOM     58  C   UNL A   1      39.611  33.110  31.160  1.00  0.00     0.074 A 
ATOM     59  C   UNL A   1      45.529  31.259  32.483  1.00  0.00     0.029 A 
ATOM     60  N   UNL A   1      43.427  31.379  31.768  1.00  0.00    -0.354 N 
ATOM     61  N   UNL A   1      40.830  32.667  31.353  1.00  0.00    -0.248 NA
ATOM     62  C   UNL A   1      39.327  34.389  31.829  1.00  0.00     0.031 C 
ATOM     63  C   UNL A   1      44.985  32.475  32.909  1.00  0.00     0.029 A 
ATOM     64  C   UNL A   1      43.680  32.558  32.448  1.00  0.00     0.049 A 
ATOM     65  H   UNL A   1      42.576  31.151  31.331  1.00  0.00     0.167 HD
ATOM     66  C   UNL A   1      41.467  33.626  32.134  1.00  0.00     0.074 A 
ATOM     67  C   UNL A   1      40.505  34.685  32.359  1.00  0.00     0.031 C 
ATOM     68  C   UNL A   1      42.730  33.624  32.630  1.00  0.00     0.034 A 
BRANCH  55  69
ATOM     69  C   UNL A   1      45.892  28.458  31.403  1.00  0.00     0.023 A 
ATOM     70  C   UNL A   1      46.052  27.641  32.541  1.00  0.00     0.012 A 
ATOM     71  C   UNL A   1      46.908  28.494  30.429  1.00  0.00     0.148 A 
ATOM     72  C   UNL A   1      47.221  26.901  32.725  1.00  0.00     0.002 A 
ATOM     73  C   UNL A   1      48.048  27.717  30.595  1.00  0.00     0.091 A 
ATOM     74  F   UNL A   1      46.747  29.296  29.366  1.00  0.00    -0.205 F 
ATOM     75  C   UNL A   1      48.212  26.931  31.748  1.00  0.00     0.022 A 
BRANCH  73  76
ATOM     76  S   UNL A   1      49.346  27.626  29.358  1.00  0.00     0.127 S 
ATOM     77  O   UNL A   1      49.159  28.887  28.641  1.00  0.00    -0.237 OA
ATOM     78  O   UNL A   1      50.553  27.568  30.184  1.00  0.00    -0.237 OA
ATOM     79  O   UNL A   1      49.081  26.422  28.582  1.00  0.00    -0.744 OA
ENDBRANCH  73  76
ENDBRANCH  55  69
BRANCH  56  80
ATOM     80  C   UNL A   1      37.186  33.206  30.220  1.00  0.00     0.023 A 
ATOM     81  C   UNL A   1      36.770  33.696  28.967  1.00  0.00     0.012 A 
ATOM     82  C   UNL A   1      36.352  33.389  31.340  1.00  0.00     0.148 A 
ATOM     83  C   UNL A   1      35.562  34.381  28.836  1.00  0.00     0.002 A 
ATOM     84  C   UNL A   1      35.126  34.025  31.192  1.00  0.00     0.091 A 
ATOM     85  F   UNL A   1      36.775  32.931  32.526  1.00  0.00    -0.205 F 
ATOM     86  C   UNL A   1      34.735  34.536  29.945  1.00  0.00     0.022 A 
BRANCH  84  87
ATOM     87  S   UNL A   1      33.945  34.172  32.536  1.00  0.00     0.127 S 
ATOM     88  O   UNL A   1      33.648  32.771  32.826  1.00  0.00    -0.237 OA
ATOM     89  O   UNL A   1      34.742  34.857  33.554  1.00  0.00    -0.237 OA
ATOM     90  O   UNL A   1      32.836  34.950  32.000  1.00  0.00    -0.744 OA
ENDBRANCH  84  87
ENDBRANCH  56  80
BRANCH  68  91
ATOM     91  C   UNL A   1      43.168  34.820  33.441  1.00  0.00     0.023 A 
ATOM     92  C   UNL A   1      43.778  35.918  32.804  1.00  0.00     0.012 A 
ATOM     93  C   UNL A   1      42.905  34.883  34.825  1.00  0.00     0.148 A 
ATOM     94  C   UNL A   1      44.154  37.045  33.535  1.00  0.00     0.002 A 
ATOM     95  C   UNL A   1      43.234  36.030  35.537  1.00  0.00     0.091 A 
ATOM     96  F   UNL A   1      42.336  33.823  35.416  1.00  0.00    -0.205 F 
ATOM     97  C   UNL A   1      43.870  37.106  34.898  1.00  0.00     0.022 A 
BRANCH  95  98
ATOM     98  S   UNL A   1      42.821  36.240  37.273  1.00  0.00     0.127 S 
ATOM     99  O   UNL A   1      43.359  37.572  37.548  1.00  0.00    -0.237 OA
ATOM    100  O   UNL A   1      41.359  36.165  37.255  1.00  0.00    -0.237 OA
ATOM    101  O   UNL A   1      43.474  35.147  37.979  1.00  0.00    -0.744 OA
ENDBRANCH  95  98
ENDBRANCH  68  91
ENDBRANCH  42  43
ENDBRANCH  35  37
ENDBRANCH  34  35
ENDBRANCH  33  34
ENDBRANCH  32  33
ENDBRANCH  31  32
ENDBRANCH  30  31
ENDBRANCH  29  30
ENDBRANCH   1  29
TORSDOF 26
ENDMDL
MODEL 3
REMARK VINA RESULT:      -9.6      3.617      5.981
REMARK SMILES C[C@@H]1[NH2+]CC[C@H]1C(=O)NCc1cccc(C(=O)OCCOCCOCCOCCOC(=O)c2ccc(-c3c4nc(c(-c5cccc(S(=O)(=O)[O-])c5F)c5ccc([nH]5)c(-c5cccc(S(=O)(=O)[O-])c5F)c5nc(c(-c6cccc(S(=O)(=O)[O-])c6F)c6ccc3[nH]6)C=C5)C=C4)cc2)c1
REMARK SMILES IDX 24 1 23 2 22 3 21 4 20 5 19 6 18 7 16 8 17 9 15 10 11 11
REMARK SMILES IDX 12 12 96 13 13 14 14 15 10 16 9 17 7 18 8 19 6 21 1 22 2 23
REMARK SMILES IDX 3 24 4 25 5 28 25 29 26 30 27 31 28 32 29 33 30 34 31 35
REMARK SMILES IDX 32 36 33 37 34 38 95 39 35 40 94 41 36 42 37 43 38 44 88 45
REMARK SMILES IDX 39 46 93 47 87 48 89 49 40 50 92 51 86 52 85 53 41 55 73 56
REMARK SMILES IDX 53 57 72 58 54 59 57 60 71 61 90 62 55 63 56 64 70 66 91 67
REMARK SMILES IDX 58 68 42 69 43 70 51 71 44 72 46 73 52 74 45 75 47 76 48 77
REMARK SMILES IDX 49 78 50 79 74 80 75 81 83 82 76 83 78 84 84 85 77 86 79 87
REMARK SMILES IDX 80 88 81 89 82 90 59 91 60 92 68 93 61 94 63 95 69 96 62 97
REMARK SMILES IDX 64 98 65 99 66 100 67 101
REMARK H PARENT 9 20 3 26 3 27 89 54 57 65
REMARK Flexibility Score: inf
ROOT
ATOM      1  O   UNL A   1      34.388  27.169  26.130  1.00  0.00    -0.377 OA
ENDROOT
BRANCH   1   2
ATOM      2  C   UNL A   1      33.425  28.197  26.296  1.00  0.00     0.188 C 
BRANCH   2   3
ATOM      3  C   UNL A   1      33.020  29.082  25.096  1.00  0.00     0.188 C 
BRANCH   3   4
ATOM      4  O   UNL A   1      31.803  29.785  25.273  1.00  0.00    -0.376 OA
BRANCH   4   5
ATOM      5  C   UNL A   1      30.751  29.571  24.350  1.00  0.00     0.202 C 
BRANCH   5   6
ATOM      6  C   UNL A   1      30.779  28.293  23.500  1.00  0.00     0.261 C 
BRANCH   6   7
ATOM      7  O   UNL A   1      30.824  27.067  24.236  1.00  0.00    -0.460 OA
BRANCH   7   8
ATOM      8  C   UNL A   1      30.061  26.037  23.808  1.00  0.00     0.338 C 
ATOM      9  O   UNL A   1      28.850  26.027  23.680  1.00  0.00    -0.246 OA
BRANCH   8  10
ATOM     10  C   UNL A   1      30.987  25.008  23.269  1.00  0.00     0.060 A 
ATOM     11  C   UNL A   1      32.045  22.818  23.439  1.00  0.00    -0.028 A 
ATOM     12  C   UNL A   1      32.977  23.224  22.470  1.00  0.00     0.005 A 
ATOM     13  C   UNL A   1      31.054  23.729  23.838  1.00  0.00     0.021 A 
ATOM     14  C   UNL A   1      32.906  24.494  21.893  1.00  0.00     0.001 A 
ATOM     15  C   UNL A   1      31.906  25.385  22.284  1.00  0.00     0.016 A 
BRANCH  11  16
ATOM     16  C   UNL A   1      32.182  21.452  24.073  1.00  0.00     0.151 C 
BRANCH  16  17
ATOM     17  N   UNL A   1      33.551  21.078  24.349  1.00  0.00    -0.352 N 
ATOM     18  C   UNL A   1      34.127  19.883  24.635  1.00  0.00     0.229 C 
ATOM     19  O   UNL A   1      35.298  19.902  25.016  1.00  0.00    -0.275 OA
ATOM     20  H   UNL A   1      34.185  21.831  24.324  1.00  0.00     0.163 HD
BRANCH  18  21
ATOM     21  C   UNL A   1      33.401  18.557  24.514  1.00  0.00     0.142 C 
ATOM     22  C   UNL A   1      34.029  16.846  22.755  1.00  0.00     0.076 C 
ATOM     23  C   UNL A   1      34.313  17.385  24.157  1.00  0.00     0.192 C 
ATOM     24  N   UNL A   1      34.072  16.325  25.159  1.00  0.00    -0.343 N 
ATOM     25  C   UNL A   1      32.802  16.641  25.817  1.00  0.00     0.261 C 
ATOM     26  H   UNL A   1      34.829  16.312  25.843  1.00  0.00     0.346 HD
ATOM     27  H   UNL A   1      34.036  15.407  24.717  1.00  0.00     0.346 HD
ATOM     28  C   UNL A   1      32.632  18.144  25.757  1.00  0.00     0.081 C 
ENDBRANCH  18  21
ENDBRANCH  16  17
ENDBRANCH  11  16
ENDBRANCH   8  10
ENDBRANCH   7   8
ENDBRANCH   6   7
ENDBRANCH   5   6
ENDBRANCH   4   5
ENDBRANCH   3   4
ENDBRANCH   2   3
ENDBRANCH   1   2
BRANCH   1  29
ATOM     29  C   UNL A   1      34.063  26.004  25.377  1.00  0.00     0.188 C 
BRANCH  29  30
ATOM     30  C   UNL A   1      33.539  24.729  26.080  1.00  0.00     0.188 C 
BRANCH  30  31
ATOM     31  O   UNL A   1      34.374  23.589  25.943  1.00  0.00    -0.376 OA
BRANCH  31  32
ATOM     32  C   UNL A   1      35.741  23.827  25.651  1.00  0.00     0.202 C 
BRANCH  32  33
ATOM     33  C   UNL A   1      36.741  22.764  26.128  1.00  0.00     0.261 C 
BRANCH  33  34
ATOM     34  O   UNL A   1      38.098  22.935  25.691  1.00  0.00    -0.460 OA
BRANCH  34  35
ATOM     35  C   UNL A   1      39.069  22.878  26.628  1.00  0.00     0.338 C 
ATOM     36  O   UNL A   1      39.704  21.893  26.971  1.00  0.00    -0.246 OA
BRANCH  35  37
ATOM     37  C   UNL A   1      39.372  24.265  27.033  1.00  0.00     0.060 A 
ATOM     38  C   UNL A   1      40.023  25.119  26.132  1.00  0.00     0.016 A 
ATOM     39  C   UNL A   1      38.980  24.730  28.290  1.00  0.00     0.016 A 
ATOM     40  C   UNL A   1      40.300  26.438  26.495  1.00  0.00     0.010 A 
ATOM     41  C   UNL A   1      39.278  26.042  28.661  1.00  0.00     0.010 A 
ATOM     42  C   UNL A   1      39.963  26.894  27.777  1.00  0.00    -0.014 A 
BRANCH  42  43
ATOM     43  C   UNL A   1      40.478  28.196  28.263  1.00  0.00     0.031 A 
ATOM     44  C   UNL A   1      41.957  28.337  28.493  1.00  0.00     0.074 A 
ATOM     45  C   UNL A   1      39.652  29.226  28.520  1.00  0.00     0.049 A 
ATOM     46  N   UNL A   1      42.629  29.346  28.979  1.00  0.00    -0.248 NA
ATOM     47  C   UNL A   1      42.788  27.176  28.129  1.00  0.00     0.031 C 
ATOM     48  C   UNL A   1      38.203  29.218  28.328  1.00  0.00     0.029 A 
ATOM     49  N   UNL A   1      39.919  30.471  29.030  1.00  0.00    -0.354 N 
ATOM     50  C   UNL A   1      43.956  28.935  29.010  1.00  0.00     0.074 A 
ATOM     51  C   UNL A   1      43.994  27.581  28.503  1.00  0.00     0.031 C 
ATOM     52  C   UNL A   1      37.703  30.394  28.746  1.00  0.00     0.029 A 
ATOM     53  C   UNL A   1      38.791  31.223  29.264  1.00  0.00     0.049 A 
ATOM     54  H   UNL A   1      40.831  30.796  29.211  1.00  0.00     0.167 HD
ATOM     55  C   UNL A   1      45.047  29.624  29.416  1.00  0.00     0.034 A 
ATOM     56  C   UNL A   1      38.654  32.425  29.858  1.00  0.00     0.034 A 
ATOM     57  C   UNL A   1      45.010  30.972  29.916  1.00  0.00     0.049 A 
ATOM     58  C   UNL A   1      39.880  33.153  30.348  1.00  0.00     0.074 A 
ATOM     59  C   UNL A   1      46.067  31.773  30.308  1.00  0.00     0.029 A 
ATOM     60  N   UNL A   1      43.853  31.710  30.115  1.00  0.00    -0.354 N 
ATOM     61  N   UNL A   1      41.140  32.802  30.266  1.00  0.00    -0.248 NA
ATOM     62  C   UNL A   1      39.664  34.458  30.994  1.00  0.00     0.031 C 
ATOM     63  C   UNL A   1      45.547  32.981  30.783  1.00  0.00     0.029 A 
ATOM     64  C   UNL A   1      44.168  32.949  30.646  1.00  0.00     0.049 A 
ATOM     65  H   UNL A   1      42.943  31.399  29.909  1.00  0.00     0.167 HD
ATOM     66  C   UNL A   1      41.868  33.853  30.816  1.00  0.00     0.074 A 
ATOM     67  C   UNL A   1      40.908  34.864  31.207  1.00  0.00     0.031 C 
ATOM     68  C   UNL A   1      43.208  33.965  30.992  1.00  0.00     0.034 A 
BRANCH  55  69
ATOM     69  C   UNL A   1      46.381  28.928  29.331  1.00  0.00     0.023 A 
ATOM     70  C   UNL A   1      46.901  28.268  30.464  1.00  0.00     0.012 A 
ATOM     71  C   UNL A   1      47.099  28.895  28.121  1.00  0.00     0.148 A 
ATOM     72  C   UNL A   1      48.134  27.618  30.402  1.00  0.00     0.002 A 
ATOM     73  C   UNL A   1      48.303  28.204  28.053  1.00  0.00     0.091 A 
ATOM     74  F   UNL A   1      46.598  29.548  27.062  1.00  0.00    -0.205 F 
ATOM     75  C   UNL A   1      48.828  27.577  29.195  1.00  0.00     0.022 A 
BRANCH  73  76
ATOM     76  S   UNL A   1      49.233  28.027  26.528  1.00  0.00     0.127 S 
ATOM     77  O   UNL A   1      48.290  27.285  25.692  1.00  0.00    -0.237 OA
ATOM     78  O   UNL A   1      49.436  29.420  26.130  1.00  0.00    -0.237 OA
ATOM     79  O   UNL A   1      50.452  27.312  26.880  1.00  0.00    -0.744 OA
ENDBRANCH  73  76
ENDBRANCH  55  69
BRANCH  56  80
ATOM     80  C   UNL A   1      37.301  33.031  30.017  1.00  0.00     0.023 A 
ATOM     81  C   UNL A   1      36.559  33.389  28.875  1.00  0.00     0.012 A 
ATOM     82  C   UNL A   1      36.749  33.256  31.293  1.00  0.00     0.148 A 
ATOM     83  C   UNL A   1      35.304  33.986  29.000  1.00  0.00     0.002 A 
ATOM     84  C   UNL A   1      35.478  33.802  31.410  1.00  0.00     0.091 A 
ATOM     85  F   UNL A   1      37.481  32.924  32.366  1.00  0.00    -0.205 F 
ATOM     86  C   UNL A   1      34.759  34.184  30.266  1.00  0.00     0.022 A 
BRANCH  84  87
ATOM     87  S   UNL A   1      34.647  33.989  32.990  1.00  0.00     0.127 S 
ATOM     88  O   UNL A   1      33.259  34.177  32.576  1.00  0.00    -0.237 OA
ATOM     89  O   UNL A   1      34.933  32.702  33.625  1.00  0.00    -0.237 OA
ATOM     90  O   UNL A   1      35.274  35.138  33.629  1.00  0.00    -0.744 OA
ENDBRANCH  84  87
ENDBRANCH  56  80
BRANCH  68  91
ATOM     91  C   UNL A   1      43.732  35.241  31.605  1.00  0.00     0.023 A 
ATOM     92  C   UNL A   1      44.053  35.284  32.976  1.00  0.00     0.012 A 
ATOM     93  C   UNL A   1      43.975  36.375  30.804  1.00  0.00     0.148 A 
ATOM     94  C   UNL A   1      44.573  36.446  33.548  1.00  0.00     0.002 A 
ATOM     95  C   UNL A   1      44.542  37.511  31.368  1.00  0.00     0.091 A 
ATOM     96  F   UNL A   1      43.650  36.320  29.504  1.00  0.00    -0.205 F 
ATOM     97  C   UNL A   1      44.829  37.553  32.743  1.00  0.00     0.022 A 
BRANCH  95  98
ATOM     98  S   UNL A   1      44.998  38.950  30.395  1.00  0.00     0.127 S 
ATOM     99  O   UNL A   1      43.690  39.468  29.998  1.00  0.00    -0.237 OA
ATOM    100  O   UNL A   1      45.709  39.773  31.374  1.00  0.00    -0.237 OA
ATOM    101  O   UNL A   1      45.827  38.454  29.305  1.00  0.00    -0.744 OA
ENDBRANCH  95  98
ENDBRANCH  68  91
ENDBRANCH  42  43
ENDBRANCH  35  37
ENDBRANCH  34  35
ENDBRANCH  33  34
ENDBRANCH  32  33
ENDBRANCH  31  32
ENDBRANCH  30  31
ENDBRANCH  29  30
ENDBRANCH   1  29
TORSDOF 26
ENDMDL
