MODEL 1
REMARK VINA RESULT:      -9.8      0.000      0.000
REMARK SMILES Cc1nc(NC(=O)[C@H]2[C@@H]3CC[C@@H](C3)[C@@H]2C(=O)OCCOCCOCCOCCOC(=O)c2ccc(-c3c4nc(c(-c5cccc(S(=O)(=O)[O-])c5F)c5ccc([nH]5)c(-c5cccc(S(=O)(=O)[O-])c5F)c5nc(c(-c6cccc(S(=O)(=O)[O-])c6F)c6ccc3[nH]6)C=C5)C=C4)cc2)sc1-c1ccccc1
REMARK SMILES IDX 23 1 22 2 21 3 20 4 19 5 18 6 17 7 15 8 16 9 14 10 8 11 9 12
REMARK SMILES IDX 10 13 13 14 12 15 11 16 6 17 5 18 7 20 4 21 1 22 2 23 3 24
REMARK SMILES IDX 96 25 95 26 97 27 98 28 102 29 99 30 101 31 100 32 24 33
REMARK SMILES IDX 25 34 26 35 27 36 28 37 29 38 30 39 31 40 32 41 33 42 94 43
REMARK SMILES IDX 34 44 93 45 35 46 36 47 37 48 87 49 38 50 92 51 86 52 88 53
REMARK SMILES IDX 39 54 91 55 85 56 84 57 40 59 72 60 52 61 71 62 53 63 56 64
REMARK SMILES IDX 70 65 89 66 54 67 55 68 69 70 90 71 57 72 41 73 42 74 50 75
REMARK SMILES IDX 43 76 45 77 51 78 44 79 46 80 47 81 48 82 49 83 73 84 74 85
REMARK SMILES IDX 82 86 75 87 77 88 83 89 76 90 78 91 79 92 80 93 81 94 58 95
REMARK SMILES IDX 59 96 67 97 60 98 62 99 68 100 61 101 63 102 64 103 65 104
REMARK SMILES IDX 66 105
REMARK H PARENT 5 19 88 58 56 69
REMARK Flexibility Score: inf
ROOT
ATOM      1  O   UNL A   1      35.711  32.277  28.905  1.00  0.00    -0.377 OA
ENDROOT
BRANCH   1   2
ATOM      2  C   UNL A   1      36.598  31.306  28.363  1.00  0.00     0.188 C 
BRANCH   2   3
ATOM      3  C   UNL A   1      35.866  30.042  27.912  1.00  0.00     0.188 C 
BRANCH   3   4
ATOM      4  O   UNL A   1      34.469  30.204  27.656  1.00  0.00    -0.376 OA
BRANCH   4   5
ATOM      5  C   UNL A   1      33.720  29.052  27.265  1.00  0.00     0.202 C 
BRANCH   5   6
ATOM      6  C   UNL A   1      34.478  27.995  26.454  1.00  0.00     0.261 C 
BRANCH   6   7
ATOM      7  O   UNL A   1      33.573  27.195  25.689  1.00  0.00    -0.463 OA
BRANCH   7   8
ATOM      8  C   UNL A   1      33.432  27.504  24.369  1.00  0.00     0.310 C 
ATOM      9  O   UNL A   1      34.217  28.161  23.700  1.00  0.00    -0.252 OA
BRANCH   8  10
ATOM     10  C   UNL A   1      32.213  26.778  23.841  1.00  0.00     0.115 C 
ATOM     11  C   UNL A   1      31.928  26.974  22.353  1.00  0.00     0.096 C 
ATOM     12  C   UNL A   1      30.551  27.683  22.376  1.00  0.00     0.003 C 
ATOM     13  C   UNL A   1      30.681  29.057  23.077  1.00  0.00     0.005 C 
ATOM     14  C   UNL A   1      29.826  26.862  23.437  1.00  0.00     0.009 C 
ATOM     15  C   UNL A   1      30.878  27.160  24.517  1.00  0.00     0.004 C 
ATOM     16  C   UNL A   1      30.750  28.688  24.569  1.00  0.00     0.005 C 
BRANCH  11  17
ATOM     17  C   UNL A   1      31.875  25.759  21.407  1.00  0.00     0.230 C 
ATOM     18  N   UNL A   1      31.977  24.436  21.683  1.00  0.00    -0.302 N 
ATOM     19  H   UNL A   1      31.838  23.867  20.892  1.00  0.00     0.172 HD
ATOM     20  O   UNL A   1      31.688  26.009  20.200  1.00  0.00    -0.274 OA
BRANCH  18  21
ATOM     21  C   UNL A   1      32.229  23.720  22.820  1.00  0.00     0.190 A 
ATOM     22  C   UNL A   1      31.593  22.751  26.209  1.00  0.00     0.068 C 
ATOM     23  C   UNL A   1      32.291  23.036  24.934  1.00  0.00     0.058 A 
ATOM     24  N   UNL A   1      31.494  23.407  23.848  1.00  0.00    -0.225 NA
ATOM     25  C   UNL A   1      33.647  22.977  24.666  1.00  0.00     0.059 A 
ATOM     26  S   UNL A   1      33.810  23.117  22.921  1.00  0.00    -0.096 S 
BRANCH  25  27
ATOM     27  C   UNL A   1      34.843  22.562  25.440  1.00  0.00    -0.006 A 
ATOM     28  C   UNL A   1      36.151  23.713  26.031  1.00  0.00     0.009 A 
ATOM     29  C   UNL A   1      35.327  20.873  25.011  1.00  0.00     0.009 A 
ATOM     30  C   UNL A   1      37.919  23.221  26.014  1.00  0.00     0.001 A 
ATOM     31  C   UNL A   1      37.053  20.382  24.997  1.00  0.00     0.001 A 
ATOM     32  C   UNL A   1      38.361  21.552  25.422  1.00  0.00     0.000 A 
ENDBRANCH  25  27
ENDBRANCH  18  21
ENDBRANCH  11  17
ENDBRANCH   8  10
ENDBRANCH   7   8
ENDBRANCH   6   7
ENDBRANCH   5   6
ENDBRANCH   4   5
ENDBRANCH   3   4
ENDBRANCH   2   3
ENDBRANCH   1   2
BRANCH   1  33
ATOM     33  C   UNL A   1      35.724  33.517  28.203  1.00  0.00     0.188 C 
BRANCH  33  34
ATOM     34  C   UNL A   1      34.366  34.285  28.157  1.00  0.00     0.188 C 
BRANCH  34  35
ATOM     35  O   UNL A   1      34.281  35.694  28.448  1.00  0.00    -0.376 OA
BRANCH  35  36
ATOM     36  C   UNL A   1      33.007  36.237  28.817  1.00  0.00     0.202 C 
BRANCH  36  37
ATOM     37  C   UNL A   1      32.929  36.818  30.306  1.00  0.00     0.261 C 
BRANCH  37  38
ATOM     38  O   UNL A   1      33.166  35.710  31.615  1.00  0.00    -0.460 OA
BRANCH  38  39
ATOM     39  C   UNL A   1      33.946  34.205  32.413  1.00  0.00     0.338 C 
ATOM     40  O   UNL A   1      33.408  33.431  33.269  1.00  0.00    -0.246 OA
BRANCH  39  41
ATOM     41  C   UNL A   1      35.293  33.464  32.120  1.00  0.00     0.060 A 
ATOM     42  C   UNL A   1      35.682  32.338  32.898  1.00  0.00     0.016 A 
ATOM     43  C   UNL A   1      36.298  34.282  31.596  1.00  0.00     0.016 A 
ATOM     44  C   UNL A   1      37.008  32.097  33.232  1.00  0.00     0.010 A 
ATOM     45  C   UNL A   1      37.626  34.050  31.941  1.00  0.00     0.010 A 
ATOM     46  C   UNL A   1      37.969  33.001  32.810  1.00  0.00    -0.014 A 
BRANCH  46  47
ATOM     47  C   UNL A   1      39.345  32.969  33.331  1.00  0.00     0.031 A 
ATOM     48  C   UNL A   1      40.341  32.095  32.634  1.00  0.00     0.074 A 
ATOM     49  C   UNL A   1      39.575  33.526  34.528  1.00  0.00     0.049 A 
ATOM     50  N   UNL A   1      41.385  31.488  33.121  1.00  0.00    -0.248 NA
ATOM     51  C   UNL A   1      40.097  31.837  31.203  1.00  0.00     0.031 C 
ATOM     52  C   UNL A   1      38.655  34.419  35.231  1.00  0.00     0.029 A 
ATOM     53  N   UNL A   1      40.597  33.312  35.412  1.00  0.00    -0.354 N 
ATOM     54  C   UNL A   1      41.875  30.700  32.085  1.00  0.00     0.074 A 
ATOM     55  C   UNL A   1      41.039  30.942  30.930  1.00  0.00     0.031 C 
ATOM     56  C   UNL A   1      39.092  34.585  36.488  1.00  0.00     0.029 A 
ATOM     57  C   UNL A   1      40.283  33.763  36.673  1.00  0.00     0.049 A 
ATOM     58  H   UNL A   1      41.453  32.887  35.175  1.00  0.00     0.167 HD
ATOM     59  C   UNL A   1      42.918  29.836  32.126  1.00  0.00     0.034 A 
ATOM     60  C   UNL A   1      40.841  33.464  37.860  1.00  0.00     0.034 A 
ATOM     61  C   UNL A   1      43.732  29.659  33.301  1.00  0.00     0.049 A 
ATOM     62  C   UNL A   1      42.018  32.533  37.879  1.00  0.00     0.074 A 
ATOM     63  C   UNL A   1      44.863  28.883  33.463  1.00  0.00     0.029 A 
ATOM     64  N   UNL A   1      43.490  30.279  34.521  1.00  0.00    -0.354 N 
ATOM     65  N   UNL A   1      42.536  31.844  36.889  1.00  0.00    -0.248 NA
ATOM     66  C   UNL A   1      42.712  32.367  39.160  1.00  0.00     0.031 C 
ATOM     67  C   UNL A   1      45.297  29.022  34.786  1.00  0.00     0.029 A 
ATOM     68  C   UNL A   1      44.454  29.909  35.440  1.00  0.00     0.049 A 
ATOM     69  H   UNL A   1      42.742  30.893  34.704  1.00  0.00     0.167 HD
ATOM     70  C   UNL A   1      43.648  31.202  37.413  1.00  0.00     0.074 A 
ATOM     71  C   UNL A   1      43.725  31.585  38.811  1.00  0.00     0.031 C 
ATOM     72  C   UNL A   1      44.528  30.369  36.804  1.00  0.00     0.034 A 
BRANCH  59  73
ATOM     73  C   UNL A   1      43.247  29.041  30.888  1.00  0.00     0.023 A 
ATOM     74  C   UNL A   1      42.784  27.716  30.760  1.00  0.00     0.012 A 
ATOM     75  C   UNL A   1      43.958  29.624  29.817  1.00  0.00     0.148 A 
ATOM     76  C   UNL A   1      43.048  26.975  29.607  1.00  0.00     0.002 A 
ATOM     77  C   UNL A   1      44.179  28.894  28.652  1.00  0.00     0.091 A 
ATOM     78  F   UNL A   1      44.410  30.879  29.956  1.00  0.00    -0.205 F 
ATOM     79  C   UNL A   1      43.735  27.567  28.551  1.00  0.00     0.022 A 
BRANCH  77  80
ATOM     80  S   UNL A   1      44.981  29.592  27.202  1.00  0.00     0.127 S 
ATOM     81  O   UNL A   1      44.297  30.879  27.074  1.00  0.00    -0.237 OA
ATOM     82  O   UNL A   1      46.376  29.685  27.636  1.00  0.00    -0.237 OA
ATOM     83  O   UNL A   1      44.745  28.649  26.118  1.00  0.00    -0.744 OA
ENDBRANCH  77  80
ENDBRANCH  59  73
BRANCH  60  84
ATOM     84  C   UNL A   1      40.303  34.100  39.092  1.00  0.00     0.023 A 
ATOM     85  C   UNL A   1      40.733  35.397  39.422  1.00  0.00     0.012 A 
ATOM     86  C   UNL A   1      39.291  33.490  39.862  1.00  0.00     0.148 A 
ATOM     87  C   UNL A   1      40.180  36.072  40.510  1.00  0.00     0.002 A 
ATOM     88  C   UNL A   1      38.709  34.189  40.913  1.00  0.00     0.091 A 
ATOM     89  F   UNL A   1      38.894  32.254  39.527  1.00  0.00    -0.205 F 
ATOM     90  C   UNL A   1      39.160  35.475  41.246  1.00  0.00     0.022 A 
BRANCH  88  91
ATOM     91  S   UNL A   1      37.290  33.562  41.822  1.00  0.00     0.127 S 
ATOM     92  O   UNL A   1      37.876  32.447  42.560  1.00  0.00    -0.237 OA
ATOM     93  O   UNL A   1      36.919  34.717  42.641  1.00  0.00    -0.237 OA
ATOM     94  O   UNL A   1      36.302  33.207  40.811  1.00  0.00    -0.744 OA
ENDBRANCH  88  91
ENDBRANCH  60  84
BRANCH  72  95
ATOM     95  C   UNL A   1      45.689  29.874  37.620  1.00  0.00     0.023 A 
ATOM     96  C   UNL A   1      46.843  30.668  37.756  1.00  0.00     0.012 A 
ATOM     97  C   UNL A   1      45.583  28.664  38.333  1.00  0.00     0.148 A 
ATOM     98  C   UNL A   1      47.888  30.252  38.580  1.00  0.00     0.002 A 
ATOM     99  C   UNL A   1      46.607  28.281  39.187  1.00  0.00     0.091 A 
ATOM    100  F   UNL A   1      44.480  27.920  38.169  1.00  0.00    -0.205 F 
ATOM    101  C   UNL A   1      47.764  29.068  39.305  1.00  0.00     0.022 A 
BRANCH  99 102
ATOM    102  S   UNL A   1      46.494  26.823  40.230  1.00  0.00     0.127 S 
ATOM    103  O   UNL A   1      46.888  25.763  39.304  1.00  0.00    -0.237 OA
ATOM    104  O   UNL A   1      47.475  27.116  41.276  1.00  0.00    -0.237 OA
ATOM    105  O   UNL A   1      45.114  26.764  40.694  1.00  0.00    -0.744 OA
ENDBRANCH  99 102
ENDBRANCH  72  95
ENDBRANCH  46  47
ENDBRANCH  39  41
ENDBRANCH  38  39
ENDBRANCH  37  38
ENDBRANCH  36  37
ENDBRANCH  35  36
ENDBRANCH  34  35
ENDBRANCH  33  34
ENDBRANCH   1  33
TORSDOF 26
ENDMDL
MODEL 2
REMARK VINA RESULT:      -9.7      4.611      7.960
REMARK SMILES Cc1nc(NC(=O)[C@H]2[C@@H]3CC[C@@H](C3)[C@@H]2C(=O)OCCOCCOCCOCCOC(=O)c2ccc(-c3c4nc(c(-c5cccc(S(=O)(=O)[O-])c5F)c5ccc([nH]5)c(-c5cccc(S(=O)(=O)[O-])c5F)c5nc(c(-c6cccc(S(=O)(=O)[O-])c6F)c6ccc3[nH]6)C=C5)C=C4)cc2)sc1-c1ccccc1
REMARK SMILES IDX 23 1 22 2 21 3 20 4 19 5 18 6 17 7 15 8 16 9 14 10 8 11 9 12
REMARK SMILES IDX 10 13 13 14 12 15 11 16 6 17 5 18 7 20 4 21 1 22 2 23 3 24
REMARK SMILES IDX 96 25 95 26 97 27 98 28 102 29 99 30 101 31 100 32 24 33
REMARK SMILES IDX 25 34 26 35 27 36 28 37 29 38 30 39 31 40 32 41 33 42 94 43
REMARK SMILES IDX 34 44 93 45 35 46 36 47 37 48 87 49 38 50 92 51 86 52 88 53
REMARK SMILES IDX 39 54 91 55 85 56 84 57 40 59 72 60 52 61 71 62 53 63 56 64
REMARK SMILES IDX 70 65 89 66 54 67 55 68 69 70 90 71 57 72 41 73 42 74 50 75
REMARK SMILES IDX 43 76 45 77 51 78 44 79 46 80 47 81 48 82 49 83 73 84 74 85
REMARK SMILES IDX 82 86 75 87 77 88 83 89 76 90 78 91 79 92 80 93 81 94 58 95
REMARK SMILES IDX 59 96 67 97 60 98 62 99 68 100 61 101 63 102 64 103 65 104
REMARK SMILES IDX 66 105
REMARK H PARENT 5 19 88 58 56 69
REMARK Flexibility Score: inf
ROOT
ATOM      1  O   UNL A   1      35.464  32.714  29.435  1.00  0.00    -0.377 OA
ENDROOT
BRANCH   1   2
ATOM      2  C   UNL A   1      36.388  31.744  28.958  1.00  0.00     0.188 C 
BRANCH   2   3
ATOM      3  C   UNL A   1      35.706  30.424  28.598  1.00  0.00     0.188 C 
BRANCH   3   4
ATOM      4  O   UNL A   1      34.443  30.549  27.942  1.00  0.00    -0.376 OA
BRANCH   4   5
ATOM      5  C   UNL A   1      33.852  29.370  27.392  1.00  0.00     0.202 C 
BRANCH   5   6
ATOM      6  C   UNL A   1      34.614  28.704  26.240  1.00  0.00     0.261 C 
BRANCH   6   7
ATOM      7  O   UNL A   1      33.822  27.684  25.629  1.00  0.00    -0.463 OA
BRANCH   7   8
ATOM      8  C   UNL A   1      33.623  27.771  24.283  1.00  0.00     0.310 C 
ATOM      9  O   UNL A   1      34.367  28.323  23.485  1.00  0.00    -0.252 OA
BRANCH   8  10
ATOM     10  C   UNL A   1      32.403  26.948  23.930  1.00  0.00     0.115 C 
ATOM     11  C   UNL A   1      31.886  27.123  22.504  1.00  0.00     0.096 C 
ATOM     12  C   UNL A   1      30.475  27.716  22.739  1.00  0.00     0.003 C 
ATOM     13  C   UNL A   1      30.595  29.095  23.432  1.00  0.00     0.005 C 
ATOM     14  C   UNL A   1      29.983  26.837  23.884  1.00  0.00     0.009 C 
ATOM     15  C   UNL A   1      31.156  27.219  24.801  1.00  0.00     0.004 C 
ATOM     16  C   UNL A   1      30.914  28.731  24.892  1.00  0.00     0.005 C 
BRANCH  11  17
ATOM     17  C   UNL A   1      31.792  25.909  21.559  1.00  0.00     0.230 C 
ATOM     18  N   UNL A   1      31.892  24.585  21.831  1.00  0.00    -0.302 N 
ATOM     19  H   UNL A   1      31.722  24.017  21.045  1.00  0.00     0.172 HD
ATOM     20  O   UNL A   1      31.567  26.161  20.359  1.00  0.00    -0.274 OA
BRANCH  18  21
ATOM     21  C   UNL A   1      32.176  23.866  22.959  1.00  0.00     0.190 A 
ATOM     22  C   UNL A   1      31.603  22.850  26.345  1.00  0.00     0.068 C 
ATOM     23  C   UNL A   1      32.279  23.165  25.066  1.00  0.00     0.058 A 
ATOM     24  N   UNL A   1      31.461  23.524  23.991  1.00  0.00    -0.225 NA
ATOM     25  C   UNL A   1      33.633  23.145  24.782  1.00  0.00     0.059 A 
ATOM     26  S   UNL A   1      33.773  23.304  23.037  1.00  0.00    -0.096 S 
BRANCH  25  27
ATOM     27  C   UNL A   1      34.848  22.755  25.540  1.00  0.00    -0.006 A 
ATOM     28  C   UNL A   1      36.188  23.917  26.026  1.00  0.00     0.009 A 
ATOM     29  C   UNL A   1      35.297  21.039  25.187  1.00  0.00     0.009 A 
ATOM     30  C   UNL A   1      37.949  23.401  25.980  1.00  0.00     0.001 A 
ATOM     31  C   UNL A   1      37.017  20.524  25.145  1.00  0.00     0.001 A 
ATOM     32  C   UNL A   1      38.351  21.697  25.465  1.00  0.00     0.000 A 
ENDBRANCH  25  27
ENDBRANCH  18  21
ENDBRANCH  11  17
ENDBRANCH   8  10
ENDBRANCH   7   8
ENDBRANCH   6   7
ENDBRANCH   5   6
ENDBRANCH   4   5
ENDBRANCH   3   4
ENDBRANCH   2   3
ENDBRANCH   1   2
BRANCH   1  33
ATOM     33  C   UNL A   1      35.692  34.023  28.917  1.00  0.00     0.188 C 
BRANCH  33  34
ATOM     34  C   UNL A   1      34.427  34.780  28.406  1.00  0.00     0.188 C 
BRANCH  34  35
ATOM     35  O   UNL A   1      34.085  36.095  28.886  1.00  0.00    -0.376 OA
BRANCH  35  36
ATOM     36  C   UNL A   1      32.832  36.268  29.562  1.00  0.00     0.202 C 
BRANCH  36  37
ATOM     37  C   UNL A   1      32.949  36.619  31.118  1.00  0.00     0.261 C 
BRANCH  37  38
ATOM     38  O   UNL A   1      33.316  35.325  32.209  1.00  0.00    -0.460 OA
BRANCH  38  39
ATOM     39  C   UNL A   1      34.300  33.828  32.759  1.00  0.00     0.338 C 
ATOM     40  O   UNL A   1      33.835  32.692  33.097  1.00  0.00    -0.246 OA
BRANCH  39  41
ATOM     41  C   UNL A   1      35.841  33.556  32.772  1.00  0.00     0.060 A 
ATOM     42  C   UNL A   1      36.363  32.390  33.398  1.00  0.00     0.016 A 
ATOM     43  C   UNL A   1      36.630  34.710  32.766  1.00  0.00     0.016 A 
ATOM     44  C   UNL A   1      37.571  32.400  34.084  1.00  0.00     0.010 A 
ATOM     45  C   UNL A   1      37.834  34.725  33.464  1.00  0.00     0.010 A 
ATOM     46  C   UNL A   1      38.266  33.594  34.176  1.00  0.00    -0.014 A 
BRANCH  46  47
ATOM     47  C   UNL A   1      39.407  33.758  35.091  1.00  0.00     0.031 A 
ATOM     48  C   UNL A   1      39.171  33.552  36.554  1.00  0.00     0.074 A 
ATOM     49  C   UNL A   1      40.528  34.309  34.603  1.00  0.00     0.049 A 
ATOM     50  N   UNL A   1      39.777  34.096  37.570  1.00  0.00    -0.248 NA
ATOM     51  C   UNL A   1      38.070  32.641  36.918  1.00  0.00     0.031 C 
ATOM     52  C   UNL A   1      40.825  34.494  33.184  1.00  0.00     0.029 A 
ATOM     53  N   UNL A   1      41.555  34.931  35.259  1.00  0.00    -0.354 N 
ATOM     54  C   UNL A   1      39.077  33.672  38.694  1.00  0.00     0.074 A 
ATOM     55  C   UNL A   1      38.028  32.788  38.237  1.00  0.00     0.031 C 
ATOM     56  C   UNL A   1      41.899  35.288  33.069  1.00  0.00     0.029 A 
ATOM     57  C   UNL A   1      42.312  35.700  34.406  1.00  0.00     0.049 A 
ATOM     58  H   UNL A   1      41.730  34.840  36.223  1.00  0.00     0.167 HD
ATOM     59  C   UNL A   1      39.293  34.025  39.984  1.00  0.00     0.034 A 
ATOM     60  C   UNL A   1      43.175  36.695  34.678  1.00  0.00     0.034 A 
ATOM     61  C   UNL A   1      40.374  34.890  40.380  1.00  0.00     0.049 A 
ATOM     62  C   UNL A   1      43.426  37.046  36.115  1.00  0.00     0.074 A 
ATOM     63  C   UNL A   1      40.761  35.268  41.652  1.00  0.00     0.029 A 
ATOM     64  N   UNL A   1      41.245  35.512  39.493  1.00  0.00    -0.354 N 
ATOM     65  N   UNL A   1      42.822  36.592  37.189  1.00  0.00    -0.248 NA
ATOM     66  C   UNL A   1      44.498  38.009  36.385  1.00  0.00     0.031 C 
ATOM     67  C   UNL A   1      41.857  36.129  41.532  1.00  0.00     0.029 A 
ATOM     68  C   UNL A   1      42.171  36.265  40.188  1.00  0.00     0.049 A 
ATOM     69  H   UNL A   1      41.206  35.427  38.512  1.00  0.00     0.167 HD
ATOM     70  C   UNL A   1      43.474  37.175  38.267  1.00  0.00     0.074 A 
ATOM     71  C   UNL A   1      44.519  38.016  37.712  1.00  0.00     0.031 C 
ATOM     72  C   UNL A   1      43.236  37.034  39.595  1.00  0.00     0.034 A 
BRANCH  59  73
ATOM     73  C   UNL A   1      38.374  33.478  41.047  1.00  0.00     0.023 A 
ATOM     74  C   UNL A   1      37.141  34.111  41.304  1.00  0.00     0.012 A 
ATOM     75  C   UNL A   1      38.696  32.296  41.749  1.00  0.00     0.148 A 
ATOM     76  C   UNL A   1      36.261  33.600  42.258  1.00  0.00     0.002 A 
ATOM     77  C   UNL A   1      37.793  31.768  42.667  1.00  0.00     0.091 A 
ATOM     78  F   UNL A   1      39.879  31.712  41.511  1.00  0.00    -0.205 F 
ATOM     79  C   UNL A   1      36.581  32.425  42.931  1.00  0.00     0.022 A 
BRANCH  77  80
ATOM     80  S   UNL A   1      38.074  30.213  43.527  1.00  0.00     0.127 S 
ATOM     81  O   UNL A   1      36.833  30.065  44.287  1.00  0.00    -0.237 OA
ATOM     82  O   UNL A   1      38.224  29.271  42.417  1.00  0.00    -0.237 OA
ATOM     83  O   UNL A   1      39.277  30.406  44.324  1.00  0.00    -0.744 OA
ENDBRANCH  77  80
ENDBRANCH  59  73
BRANCH  60  84
ATOM     84  C   UNL A   1      43.874  37.373  33.554  1.00  0.00     0.023 A 
ATOM     85  C   UNL A   1      44.764  36.622  32.765  1.00  0.00     0.012 A 
ATOM     86  C   UNL A   1      43.578  38.702  33.188  1.00  0.00     0.148 A 
ATOM     87  C   UNL A   1      45.363  37.187  31.640  1.00  0.00     0.002 A 
ATOM     88  C   UNL A   1      44.141  39.241  32.036  1.00  0.00     0.091 A 
ATOM     89  F   UNL A   1      42.725  39.399  33.952  1.00  0.00    -0.205 F 
ATOM     90  C   UNL A   1      45.042  38.489  31.268  1.00  0.00     0.022 A 
BRANCH  88  91
ATOM     91  S   UNL A   1      43.672  40.855  31.397  1.00  0.00     0.127 S 
ATOM     92  O   UNL A   1      44.374  40.886  30.117  1.00  0.00    -0.237 OA
ATOM     93  O   UNL A   1      42.217  40.732  31.299  1.00  0.00    -0.237 OA
ATOM     94  O   UNL A   1      44.124  41.818  32.393  1.00  0.00    -0.744 OA
ENDBRANCH  88  91
ENDBRANCH  60  84
BRANCH  72  95
ATOM     95  C   UNL A   1      44.162  37.746  40.541  1.00  0.00     0.023 A 
ATOM     96  C   UNL A   1      43.840  39.034  41.006  1.00  0.00     0.012 A 
ATOM     97  C   UNL A   1      45.298  37.083  41.046  1.00  0.00     0.148 A 
ATOM     98  C   UNL A   1      44.651  39.663  41.949  1.00  0.00     0.002 A 
ATOM     99  C   UNL A   1      46.073  37.697  42.018  1.00  0.00     0.091 A 
ATOM    100  F   UNL A   1      45.589  35.863  40.571  1.00  0.00    -0.205 F 
ATOM    101  C   UNL A   1      45.757  38.990  42.465  1.00  0.00     0.022 A 
BRANCH  99 102
ATOM    102  S   UNL A   1      47.458  36.870  42.808  1.00  0.00     0.127 S 
ATOM    103  O   UNL A   1      48.507  37.017  41.800  1.00  0.00    -0.237 OA
ATOM    104  O   UNL A   1      47.653  37.676  44.013  1.00  0.00    -0.237 OA
ATOM    105  O   UNL A   1      47.024  35.502  43.058  1.00  0.00    -0.744 OA
ENDBRANCH  99 102
ENDBRANCH  72  95
ENDBRANCH  46  47
ENDBRANCH  39  41
ENDBRANCH  38  39
ENDBRANCH  37  38
ENDBRANCH  36  37
ENDBRANCH  35  36
ENDBRANCH  34  35
ENDBRANCH  33  34
ENDBRANCH   1  33
TORSDOF 26
ENDMDL
MODEL 3
REMARK VINA RESULT:      -9.7      2.315      2.966
REMARK SMILES Cc1nc(NC(=O)[C@H]2[C@@H]3CC[C@@H](C3)[C@@H]2C(=O)OCCOCCOCCOCCOC(=O)c2ccc(-c3c4nc(c(-c5cccc(S(=O)(=O)[O-])c5F)c5ccc([nH]5)c(-c5cccc(S(=O)(=O)[O-])c5F)c5nc(c(-c6cccc(S(=O)(=O)[O-])c6F)c6ccc3[nH]6)C=C5)C=C4)cc2)sc1-c1ccccc1
REMARK SMILES IDX 23 1 22 2 21 3 20 4 19 5 18 6 17 7 15 8 16 9 14 10 8 11 9 12
REMARK SMILES IDX 10 13 13 14 12 15 11 16 6 17 5 18 7 20 4 21 1 22 2 23 3 24
REMARK SMILES IDX 96 25 95 26 97 27 98 28 102 29 99 30 101 31 100 32 24 33
REMARK SMILES IDX 25 34 26 35 27 36 28 37 29 38 30 39 31 40 32 41 33 42 94 43
REMARK SMILES IDX 34 44 93 45 35 46 36 47 37 48 87 49 38 50 92 51 86 52 88 53
REMARK SMILES IDX 39 54 91 55 85 56 84 57 40 59 72 60 52 61 71 62 53 63 56 64
REMARK SMILES IDX 70 65 89 66 54 67 55 68 69 70 90 71 57 72 41 73 42 74 50 75
REMARK SMILES IDX 43 76 45 77 51 78 44 79 46 80 47 81 48 82 49 83 73 84 74 85
REMARK SMILES IDX 82 86 75 87 77 88 83 89 76 90 78 91 79 92 80 93 81 94 58 95
REMARK SMILES IDX 59 96 67 97 60 98 62 99 68 100 61 101 63 102 64 103 65 104
REMARK SMILES IDX 66 105
REMARK H PARENT 5 19 88 58 56 69
REMARK Flexibility Score: inf
ROOT
ATOM      1  O   UNL A   1      35.051  32.716  28.962  1.00  0.00    -0.377 OA
ENDROOT
BRANCH   1   2
ATOM      2  C   UNL A   1      36.076  31.990  28.296  1.00  0.00     0.188 C 
BRANCH   2   3
ATOM      3  C   UNL A   1      35.552  30.707  27.652  1.00  0.00     0.188 C 
BRANCH   3   4
ATOM      4  O   UNL A   1      34.178  30.738  27.260  1.00  0.00    -0.376 OA
BRANCH   4   5
ATOM      5  C   UNL A   1      33.511  29.493  27.050  1.00  0.00     0.202 C 
BRANCH   5   6
ATOM      6  C   UNL A   1      34.367  28.352  26.489  1.00  0.00     0.261 C 
BRANCH   6   7
ATOM      7  O   UNL A   1      33.567  27.438  25.735  1.00  0.00    -0.463 OA
BRANCH   7   8
ATOM      8  C   UNL A   1      33.434  27.681  24.400  1.00  0.00     0.310 C 
ATOM      9  O   UNL A   1      34.232  28.290  23.701  1.00  0.00    -0.252 OA
BRANCH   8  10
ATOM     10  C   UNL A   1      32.206  26.948  23.906  1.00  0.00     0.115 C 
ATOM     11  C   UNL A   1      31.915  27.090  22.413  1.00  0.00     0.096 C 
ATOM     12  C   UNL A   1      30.546  27.813  22.415  1.00  0.00     0.003 C 
ATOM     13  C   UNL A   1      30.694  29.213  23.062  1.00  0.00     0.005 C 
ATOM     14  C   UNL A   1      29.817  27.042  23.510  1.00  0.00     0.009 C 
ATOM     15  C   UNL A   1      30.878  27.370  24.573  1.00  0.00     0.004 C 
ATOM     16  C   UNL A   1      30.766  28.900  24.567  1.00  0.00     0.005 C 
BRANCH  11  17
ATOM     17  C   UNL A   1      31.845  25.840  21.514  1.00  0.00     0.230 C 
ATOM     18  N   UNL A   1      31.957  24.529  21.837  1.00  0.00    -0.302 N 
ATOM     19  H   UNL A   1      31.803  23.929  21.072  1.00  0.00     0.172 HD
ATOM     20  O   UNL A   1      31.630  26.044  20.303  1.00  0.00    -0.274 OA
BRANCH  18  21
ATOM     21  C   UNL A   1      32.238  23.857  22.995  1.00  0.00     0.190 A 
ATOM     22  C   UNL A   1      31.685  23.016  26.432  1.00  0.00     0.068 C 
ATOM     23  C   UNL A   1      32.351  23.253  25.131  1.00  0.00     0.058 A 
ATOM     24  N   UNL A   1      31.528  23.582  24.050  1.00  0.00    -0.225 NA
ATOM     25  C   UNL A   1      33.701  23.185  24.833  1.00  0.00     0.059 A 
ATOM     26  S   UNL A   1      33.822  23.259  23.081  1.00  0.00    -0.096 S 
BRANCH  25  27
ATOM     27  C   UNL A   1      34.915  22.800  25.594  1.00  0.00    -0.006 A 
ATOM     28  C   UNL A   1      36.271  23.960  26.044  1.00  0.00     0.009 A 
ATOM     29  C   UNL A   1      35.344  21.072  25.282  1.00  0.00     0.009 A 
ATOM     30  C   UNL A   1      38.025  23.423  26.002  1.00  0.00     0.001 A 
ATOM     31  C   UNL A   1      37.057  20.537  25.243  1.00  0.00     0.001 A 
ATOM     32  C   UNL A   1      38.406  21.702  25.527  1.00  0.00     0.000 A 
ENDBRANCH  25  27
ENDBRANCH  18  21
ENDBRANCH  11  17
ENDBRANCH   8  10
ENDBRANCH   7   8
ENDBRANCH   6   7
ENDBRANCH   5   6
ENDBRANCH   4   5
ENDBRANCH   3   4
ENDBRANCH   2   3
ENDBRANCH   1   2
BRANCH   1  33
ATOM     33  C   UNL A   1      34.890  34.049  28.482  1.00  0.00     0.188 C 
BRANCH  33  34
ATOM     34  C   UNL A   1      33.535  34.738  28.834  1.00  0.00     0.188 C 
BRANCH  34  35
ATOM     35  O   UNL A   1      33.456  36.146  29.130  1.00  0.00    -0.376 OA
BRANCH  35  36
ATOM     36  C   UNL A   1      32.588  36.571  30.189  1.00  0.00     0.202 C 
BRANCH  36  37
ATOM     37  C   UNL A   1      33.333  37.194  31.461  1.00  0.00     0.261 C 
BRANCH  37  38
ATOM     38  O   UNL A   1      34.089  36.099  32.567  1.00  0.00    -0.460 OA
BRANCH  38  39
ATOM     39  C   UNL A   1      34.862  34.456  33.031  1.00  0.00     0.338 C 
ATOM     40  O   UNL A   1      34.543  33.713  34.014  1.00  0.00    -0.246 OA
BRANCH  39  41
ATOM     41  C   UNL A   1      35.899  33.557  32.279  1.00  0.00     0.060 A 
ATOM     42  C   UNL A   1      36.249  32.276  32.791  1.00  0.00     0.016 A 
ATOM     43  C   UNL A   1      36.868  34.267  31.565  1.00  0.00     0.016 A 
ATOM     44  C   UNL A   1      37.538  31.770  32.692  1.00  0.00     0.010 A 
ATOM     45  C   UNL A   1      38.163  33.768  31.476  1.00  0.00     0.010 A 
ATOM     46  C   UNL A   1      38.511  32.557  32.096  1.00  0.00    -0.014 A 
BRANCH  46  47
ATOM     47  C   UNL A   1      39.940  32.217  32.180  1.00  0.00     0.031 A 
ATOM     48  C   UNL A   1      40.453  31.112  31.310  1.00  0.00     0.074 A 
ATOM     49  C   UNL A   1      40.651  32.743  33.187  1.00  0.00     0.049 A 
ATOM     50  N   UNL A   1      41.443  30.292  31.521  1.00  0.00    -0.248 NA
ATOM     51  C   UNL A   1      39.720  30.874  30.053  1.00  0.00     0.031 C 
ATOM     52  C   UNL A   1      40.214  33.848  34.037  1.00  0.00     0.029 A 
ATOM     53  N   UNL A   1      41.829  32.322  33.741  1.00  0.00    -0.354 N 
ATOM     54  C   UNL A   1      41.399  29.378  30.474  1.00  0.00     0.074 A 
ATOM     55  C   UNL A   1      40.312  29.773  29.605  1.00  0.00     0.031 C 
ATOM     56  C   UNL A   1      41.051  33.947  35.080  1.00  0.00     0.029 A 
ATOM     57  C   UNL A   1      42.034  32.874  34.984  1.00  0.00     0.049 A 
ATOM     58  H   UNL A   1      42.454  31.699  33.303  1.00  0.00     0.167 HD
ATOM     59  C   UNL A   1      42.191  28.294  30.289  1.00  0.00     0.034 A 
ATOM     60  C   UNL A   1      42.862  32.490  35.972  1.00  0.00     0.034 A 
ATOM     61  C   UNL A   1      43.277  27.968  31.177  1.00  0.00     0.049 A 
ATOM     62  C   UNL A   1      43.756  31.309  35.733  1.00  0.00     0.074 A 
ATOM     63  C   UNL A   1      44.208  26.952  31.071  1.00  0.00     0.029 A 
ATOM     64  N   UNL A   1      43.573  28.666  32.342  1.00  0.00    -0.354 N 
ATOM     65  N   UNL A   1      43.774  30.486  34.711  1.00  0.00    -0.248 NA
ATOM     66  C   UNL A   1      44.767  31.025  36.756  1.00  0.00     0.031 C 
ATOM     67  C   UNL A   1      45.058  27.028  32.180  1.00  0.00     0.029 A 
ATOM     68  C   UNL A   1      44.674  28.108  32.961  1.00  0.00     0.049 A 
ATOM     69  H   UNL A   1      43.070  29.444  32.676  1.00  0.00     0.167 HD
ATOM     70  C   UNL A   1      44.831  29.616  34.940  1.00  0.00     0.074 A 
ATOM     71  C   UNL A   1      45.426  30.015  36.203  1.00  0.00     0.031 C 
ATOM     72  C   UNL A   1      45.273  28.581  34.184  1.00  0.00     0.034 A 
BRANCH  59  73
ATOM     73  C   UNL A   1      41.934  27.405  29.098  1.00  0.00     0.023 A 
ATOM     74  C   UNL A   1      40.832  26.526  29.103  1.00  0.00     0.012 A 
ATOM     75  C   UNL A   1      42.741  27.484  27.943  1.00  0.00     0.148 A 
ATOM     76  C   UNL A   1      40.556  25.721  27.998  1.00  0.00     0.002 A 
ATOM     77  C   UNL A   1      42.433  26.710  26.828  1.00  0.00     0.091 A 
ATOM     78  F   UNL A   1      43.798  28.309  27.957  1.00  0.00    -0.205 F 
ATOM     79  C   UNL A   1      41.349  25.820  26.858  1.00  0.00     0.022 A 
BRANCH  77  80
ATOM     80  S   UNL A   1      43.343  26.825  25.281  1.00  0.00     0.127 S 
ATOM     81  O   UNL A   1      42.495  27.728  24.503  1.00  0.00    -0.237 OA
ATOM     82  O   UNL A   1      44.615  27.408  25.714  1.00  0.00    -0.237 OA
ATOM     83  O   UNL A   1      43.443  25.466  24.770  1.00  0.00    -0.744 OA
ENDBRANCH  77  80
ENDBRANCH  59  73
BRANCH  60  84
ATOM     84  C   UNL A   1      42.890  33.273  37.236  1.00  0.00     0.023 A 
ATOM     85  C   UNL A   1      43.723  34.404  37.308  1.00  0.00     0.012 A 
ATOM     86  C   UNL A   1      42.021  32.985  38.309  1.00  0.00     0.148 A 
ATOM     87  C   UNL A   1      43.706  35.227  38.434  1.00  0.00     0.002 A 
ATOM     88  C   UNL A   1      41.973  33.839  39.405  1.00  0.00     0.091 A 
ATOM     89  F   UNL A   1      41.233  31.904  38.218  1.00  0.00    -0.205 F 
ATOM     90  C   UNL A   1      42.823  34.953  39.474  1.00  0.00     0.022 A 
BRANCH  88  91
ATOM     91  S   UNL A   1      40.765  33.651  40.724  1.00  0.00     0.127 S 
ATOM     92  O   UNL A   1      40.351  32.261  40.555  1.00  0.00    -0.237 OA
ATOM     93  O   UNL A   1      41.573  33.913  41.916  1.00  0.00    -0.237 OA
ATOM     94  O   UNL A   1      39.742  34.656  40.465  1.00  0.00    -0.744 OA
ENDBRANCH  88  91
ENDBRANCH  60  84
BRANCH  72  95
ATOM     95  C   UNL A   1      46.499  27.852  34.660  1.00  0.00     0.023 A 
ATOM     96  C   UNL A   1      46.368  26.719  35.485  1.00  0.00     0.012 A 
ATOM     97  C   UNL A   1      47.772  28.238  34.197  1.00  0.00     0.148 A 
ATOM     98  C   UNL A   1      47.496  25.990  35.859  1.00  0.00     0.002 A 
ATOM     99  C   UNL A   1      48.882  27.480  34.536  1.00  0.00     0.091 A 
ATOM    100  F   UNL A   1      47.866  29.332  33.427  1.00  0.00    -0.205 F 
ATOM    101  C   UNL A   1      48.748  26.361  35.374  1.00  0.00     0.022 A 
BRANCH  99 102
ATOM    102  S   UNL A   1      50.519  27.826  33.882  1.00  0.00     0.127 S 
ATOM    103  O   UNL A   1      50.310  27.643  32.446  1.00  0.00    -0.237 OA
ATOM    104  O   UNL A   1      50.730  29.213  34.296  1.00  0.00    -0.237 OA
ATOM    105  O   UNL A   1      51.416  26.863  34.507  1.00  0.00    -0.744 OA
ENDBRANCH  99 102
ENDBRANCH  72  95
ENDBRANCH  46  47
ENDBRANCH  39  41
ENDBRANCH  38  39
ENDBRANCH  37  38
ENDBRANCH  36  37
ENDBRANCH  35  36
ENDBRANCH  34  35
ENDBRANCH  33  34
ENDBRANCH   1  33
TORSDOF 26
ENDMDL
