MODEL 1
REMARK VINA RESULT:      -9.7      0.000      0.000
REMARK SMILES Cc1cc(S(F)(F)(F)(F)F)cc2c1O[C@H](C(F)(F)F)C(C(=O)OCCOCCOCCOCCOC(=O)c1ccc(-c3c4nc(c(-c5cccc(S(=O)(=O)[O-])c5F)c5ccc([nH]5)c(-c5cccc(S(=O)(=O)[O-])c5F)c5nc(c(-c6cccc(S(=O)(=O)[O-])c6F)c6ccc3[nH]6)C=C5)C=C4)cc1)=C2
REMARK SMILES IDX 30 1 29 2 28 3 27 4 26 5 25 6 24 7 23 8 21 9 22 10 20 11
REMARK SMILES IDX 1 12 2 13 3 14 13 15 4 16 12 17 14 18 11 19 101 20 15 21
REMARK SMILES IDX 5 22 6 23 7 24 8 25 9 26 10 27 16 28 17 29 18 30 19 31 31 32
REMARK SMILES IDX 32 33 33 34 34 35 35 36 36 37 37 38 38 39 39 40 100 41 40 42
REMARK SMILES IDX 99 43 41 44 42 45 43 46 93 47 44 48 98 49 92 50 94 51 45 52
REMARK SMILES IDX 97 53 91 54 90 55 46 57 78 58 58 59 77 60 59 61 62 62 76 63
REMARK SMILES IDX 95 64 60 65 61 66 75 68 96 69 63 70 47 71 48 72 56 73 49 74
REMARK SMILES IDX 51 75 57 76 50 77 52 78 53 79 54 80 55 81 79 82 80 83 88 84
REMARK SMILES IDX 81 85 83 86 89 87 82 88 84 89 85 90 86 91 87 92 64 93 65 94
REMARK SMILES IDX 73 95 66 96 68 97 74 98 67 99 69 100 70 101 71 102 72 103
REMARK H PARENT 94 56 62 67
REMARK Flexibility Score: inf
ROOT
ATOM      1  C   UNL A   1      34.267  34.121  31.502  1.00  0.00     0.188 C 
ENDROOT
BRANCH   1   2
ATOM      2  O   UNL A   1      34.042  34.697  30.223  1.00  0.00    -0.377 OA
BRANCH   2   3
ATOM      3  C   UNL A   1      34.789  33.985  29.247  1.00  0.00     0.188 C 
BRANCH   3   4
ATOM      4  C   UNL A   1      33.939  33.785  28.003  1.00  0.00     0.188 C 
BRANCH   4   5
ATOM      5  O   UNL A   1      33.492  32.438  27.947  1.00  0.00    -0.376 OA
BRANCH   5   6
ATOM      6  C   UNL A   1      34.607  31.565  28.052  1.00  0.00     0.202 C 
BRANCH   6   7
ATOM      7  C   UNL A   1      34.484  30.458  27.018  1.00  0.00     0.261 C 
BRANCH   7   8
ATOM      8  O   UNL A   1      33.957  29.291  27.634  1.00  0.00    -0.460 OA
BRANCH   8   9
ATOM      9  C   UNL A   1      32.786  28.680  27.112  1.00  0.00     0.338 C 
ATOM     10  O   UNL A   1      31.647  28.984  27.584  1.00  0.00    -0.246 OA
BRANCH   9  11
ATOM     11  C   UNL A   1      32.898  27.663  25.988  1.00  0.00     0.087 C 
ATOM     12  C   UNL A   1      32.401  24.981  21.568  1.00  0.00     0.048 C 
ATOM     13  C   UNL A   1      33.173  24.880  22.874  1.00  0.00    -0.007 A 
ATOM     14  C   UNL A   1      34.139  23.901  22.949  1.00  0.00     0.031 A 
ATOM     15  C   UNL A   1      33.067  25.816  23.903  1.00  0.00     0.130 A 
ATOM     16  C   UNL A   1      35.001  23.837  24.035  1.00  0.00     0.108 A 
ATOM     17  C   UNL A   1      33.949  25.750  25.004  1.00  0.00     0.019 A 
ATOM     18  O   UNL A   1      32.058  26.883  23.882  1.00  0.00    -0.475 OA
ATOM     19  C   UNL A   1      34.920  24.748  25.051  1.00  0.00     0.036 A 
ATOM     20  C   UNL A   1      33.815  26.744  26.068  1.00  0.00     0.027 C 
ATOM     21  C   UNL A   1      32.013  27.753  24.914  1.00  0.00     0.316 C 
BRANCH  16  22
ATOM     22  S   UNL A   1      36.251  22.529  24.108  1.00  0.00     0.310 S 
ATOM     23  F   UNL A   1      36.915  23.211  25.376  1.00  0.00    -0.094 F 
ATOM     24  F   UNL A   1      37.146  23.471  23.218  1.00  0.00    -0.094 F 
ATOM     25  F   UNL A   1      37.381  21.463  24.166  1.00  0.00    -0.094 F 
ATOM     26  F   UNL A   1      35.393  21.663  25.114  1.00  0.00    -0.094 F 
ATOM     27  F   UNL A   1      35.139  23.652  24.151  1.00  0.00    -0.094 F 
ENDBRANCH  16  22
BRANCH  21  28
ATOM     28  C   UNL A   1      32.437  29.056  24.255  1.00  0.00     0.430 C 
ATOM     29  F   UNL A   1      31.977  30.082  24.966  1.00  0.00    -0.167 F 
ATOM     30  F   UNL A   1      33.765  29.114  24.201  1.00  0.00    -0.167 F 
ATOM     31  F   UNL A   1      31.940  29.112  23.023  1.00  0.00    -0.167 F 
ENDBRANCH  21  28
ENDBRANCH   9  11
ENDBRANCH   8   9
ENDBRANCH   7   8
ENDBRANCH   6   7
ENDBRANCH   5   6
ENDBRANCH   4   5
ENDBRANCH   3   4
ENDBRANCH   2   3
ENDBRANCH   1   2
BRANCH   1  32
ATOM     32  C   UNL A   1      35.738  34.249  31.863  1.00  0.00     0.188 C 
BRANCH  32  33
ATOM     33  O   UNL A   1      36.031  33.407  32.967  1.00  0.00    -0.376 OA
BRANCH  33  34
ATOM     34  C   UNL A   1      37.333  32.861  32.813  1.00  0.00     0.202 C 
BRANCH  34  35
ATOM     35  C   UNL A   1      37.419  32.119  31.490  1.00  0.00     0.261 C 
BRANCH  35  36
ATOM     36  O   UNL A   1      36.899  30.807  31.649  1.00  0.00    -0.460 OA
BRANCH  36  37
ATOM     37  C   UNL A   1      37.389  29.747  30.842  1.00  0.00     0.338 C 
ATOM     38  O   UNL A   1      36.614  29.162  30.021  1.00  0.00    -0.246 OA
BRANCH  37  39
ATOM     39  C   UNL A   1      38.841  29.312  30.958  1.00  0.00     0.060 A 
ATOM     40  C   UNL A   1      39.865  29.936  30.253  1.00  0.00     0.016 A 
ATOM     41  C   UNL A   1      39.147  28.297  31.737  1.00  0.00     0.016 A 
ATOM     42  C   UNL A   1      41.169  29.796  30.778  1.00  0.00     0.010 A 
ATOM     43  C   UNL A   1      40.469  27.850  31.845  1.00  0.00     0.010 A 
ATOM     44  C   UNL A   1      41.464  28.575  31.382  1.00  0.00    -0.014 A 
BRANCH  44  45
ATOM     45  C   UNL A   1      42.901  28.093  31.501  1.00  0.00     0.031 A 
ATOM     46  C   UNL A   1      43.485  27.491  30.386  1.00  0.00     0.074 A 
ATOM     47  C   UNL A   1      43.550  28.276  32.710  1.00  0.00     0.049 A 
ATOM     48  N   UNL A   1      44.732  27.032  30.268  1.00  0.00    -0.248 NA
ATOM     49  C   UNL A   1      42.787  27.264  29.112  1.00  0.00     0.031 C 
ATOM     50  C   UNL A   1      42.970  28.890  33.838  1.00  0.00     0.029 A 
ATOM     51  N   UNL A   1      44.836  27.912  33.043  1.00  0.00    -0.354 N 
ATOM     52  C   UNL A   1      44.929  26.541  29.043  1.00  0.00     0.074 A 
ATOM     53  C   UNL A   1      43.679  26.678  28.283  1.00  0.00     0.031 C 
ATOM     54  C   UNL A   1      43.890  28.886  34.839  1.00  0.00     0.029 A 
ATOM     55  C   UNL A   1      45.059  28.270  34.354  1.00  0.00     0.049 A 
ATOM     56  H   UNL A   1      45.484  27.472  32.447  1.00  0.00     0.167 HD
ATOM     57  C   UNL A   1      46.103  25.989  28.528  1.00  0.00     0.034 A 
ATOM     58  C   UNL A   1      46.209  28.077  35.103  1.00  0.00     0.034 A 
ATOM     59  C   UNL A   1      47.267  25.835  29.264  1.00  0.00     0.049 A 
ATOM     60  C   UNL A   1      47.364  27.470  34.606  1.00  0.00     0.074 A 
ATOM     61  C   UNL A   1      48.461  25.286  28.758  1.00  0.00     0.029 A 
ATOM     62  N   UNL A   1      47.481  26.170  30.582  1.00  0.00    -0.354 N 
ATOM     63  N   UNL A   1      47.575  27.016  33.369  1.00  0.00    -0.248 NA
ATOM     64  C   UNL A   1      48.577  27.231  35.399  1.00  0.00     0.031 C 
ATOM     65  C   UNL A   1      49.380  25.281  29.760  1.00  0.00     0.029 A 
ATOM     66  C   UNL A   1      48.775  25.827  30.909  1.00  0.00     0.049 A 
ATOM     67  H   UNL A   1      46.824  26.583  31.187  1.00  0.00     0.167 HD
ATOM     68  C   UNL A   1      48.808  26.519  33.265  1.00  0.00     0.074 A 
ATOM     69  C   UNL A   1      49.469  26.644  34.571  1.00  0.00     0.031 C 
ATOM     70  C   UNL A   1      49.412  25.971  32.132  1.00  0.00     0.034 A 
BRANCH  57  71
ATOM     71  C   UNL A   1      46.104  25.528  27.080  1.00  0.00     0.023 A 
ATOM     72  C   UNL A   1      46.653  26.325  26.081  1.00  0.00     0.012 A 
ATOM     73  C   UNL A   1      45.587  24.367  26.740  1.00  0.00     0.148 A 
ATOM     74  C   UNL A   1      47.075  25.663  24.906  1.00  0.00     0.002 A 
ATOM     75  C   UNL A   1      45.582  23.949  25.404  1.00  0.00     0.091 A 
ATOM     76  F   UNL A   1      45.064  23.581  27.676  1.00  0.00    -0.205 F 
ATOM     77  C   UNL A   1      46.306  24.574  24.500  1.00  0.00     0.022 A 
BRANCH  75  78
ATOM     78  S   UNL A   1      44.565  22.533  24.913  1.00  0.00     0.127 S 
ATOM     79  O   UNL A   1      43.125  22.752  25.383  1.00  0.00    -0.237 OA
ATOM     80  O   UNL A   1      44.590  22.392  23.390  1.00  0.00    -0.237 OA
ATOM     81  O   UNL A   1      45.188  21.110  25.628  1.00  0.00    -0.744 OA
ENDBRANCH  75  78
ENDBRANCH  57  71
BRANCH  58  82
ATOM     82  C   UNL A   1      46.213  28.553  36.547  1.00  0.00     0.023 A 
ATOM     83  C   UNL A   1      46.567  29.859  36.865  1.00  0.00     0.012 A 
ATOM     84  C   UNL A   1      45.882  27.738  37.527  1.00  0.00     0.148 A 
ATOM     85  C   UNL A   1      46.078  30.366  38.089  1.00  0.00     0.002 A 
ATOM     86  C   UNL A   1      45.896  28.177  38.856  1.00  0.00     0.091 A 
ATOM     87  F   UNL A   1      45.529  26.486  37.251  1.00  0.00    -0.205 F 
ATOM     88  C   UNL A   1      45.989  29.457  39.142  1.00  0.00     0.022 A 
BRANCH  86  89
ATOM     89  S   UNL A   1      45.783  26.966  40.197  1.00  0.00     0.127 S 
ATOM     90  O   UNL A   1      46.569  25.709  39.817  1.00  0.00    -0.237 OA
ATOM     91  O   UNL A   1      46.371  27.566  41.476  1.00  0.00    -0.237 OA
ATOM     92  O   UNL A   1      44.144  26.557  40.460  1.00  0.00    -0.744 OA
ENDBRANCH  86  89
ENDBRANCH  58  82
BRANCH  70  93
ATOM     93  C   UNL A   1      50.853  25.503  32.246  1.00  0.00     0.023 A 
ATOM     94  C   UNL A   1      51.926  26.309  31.882  1.00  0.00     0.012 A 
ATOM     95  C   UNL A   1      51.105  24.289  32.686  1.00  0.00     0.148 A 
ATOM     96  C   UNL A   1      53.176  25.996  32.461  1.00  0.00     0.002 A 
ATOM     97  C   UNL A   1      52.420  23.818  32.775  1.00  0.00     0.091 A 
ATOM     98  F   UNL A   1      50.097  23.500  33.049  1.00  0.00    -0.205 F 
ATOM     99  C   UNL A   1      53.438  24.643  32.669  1.00  0.00     0.022 A 
BRANCH  97 100
ATOM    100  S   UNL A   1      52.720  22.053  33.039  1.00  0.00     0.127 S 
ATOM    101  O   UNL A   1      51.926  21.241  32.014  1.00  0.00    -0.237 OA
ATOM    102  O   UNL A   1      54.214  21.760  32.876  1.00  0.00    -0.237 OA
ATOM    103  O   UNL A   1      52.225  21.620  34.618  1.00  0.00    -0.744 OA
ENDBRANCH  97 100
ENDBRANCH  70  93
ENDBRANCH  44  45
ENDBRANCH  37  39
ENDBRANCH  36  37
ENDBRANCH  35  36
ENDBRANCH  34  35
ENDBRANCH  33  34
ENDBRANCH  32  33
ENDBRANCH   1  32
TORSDOF 25
ENDMDL
MODEL 2
REMARK VINA RESULT:      -9.4      5.190      6.405
REMARK SMILES Cc1cc(S(F)(F)(F)(F)F)cc2c1O[C@H](C(F)(F)F)C(C(=O)OCCOCCOCCOCCOC(=O)c1ccc(-c3c4nc(c(-c5cccc(S(=O)(=O)[O-])c5F)c5ccc([nH]5)c(-c5cccc(S(=O)(=O)[O-])c5F)c5nc(c(-c6cccc(S(=O)(=O)[O-])c6F)c6ccc3[nH]6)C=C5)C=C4)cc1)=C2
REMARK SMILES IDX 30 1 29 2 28 3 27 4 26 5 25 6 24 7 23 8 21 9 22 10 20 11
REMARK SMILES IDX 1 12 2 13 3 14 13 15 4 16 12 17 14 18 11 19 101 20 15 21
REMARK SMILES IDX 5 22 6 23 7 24 8 25 9 26 10 27 16 28 17 29 18 30 19 31 31 32
REMARK SMILES IDX 32 33 33 34 34 35 35 36 36 37 37 38 38 39 39 40 100 41 40 42
REMARK SMILES IDX 99 43 41 44 42 45 43 46 93 47 44 48 98 49 92 50 94 51 45 52
REMARK SMILES IDX 97 53 91 54 90 55 46 57 78 58 58 59 77 60 59 61 62 62 76 63
REMARK SMILES IDX 95 64 60 65 61 66 75 68 96 69 63 70 47 71 48 72 56 73 49 74
REMARK SMILES IDX 51 75 57 76 50 77 52 78 53 79 54 80 55 81 79 82 80 83 88 84
REMARK SMILES IDX 81 85 83 86 89 87 82 88 84 89 85 90 86 91 87 92 64 93 65 94
REMARK SMILES IDX 73 95 66 96 68 97 74 98 67 99 69 100 70 101 71 102 72 103
REMARK H PARENT 94 56 62 67
REMARK Flexibility Score: inf
ROOT
ATOM      1  C   UNL A   1      33.742  34.121  29.027  1.00  0.00     0.188 C 
ENDROOT
BRANCH   1   2
ATOM      2  O   UNL A   1      33.997  33.419  27.818  1.00  0.00    -0.377 OA
BRANCH   2   3
ATOM      3  C   UNL A   1      34.929  32.376  28.066  1.00  0.00     0.188 C 
BRANCH   3   4
ATOM      4  C   UNL A   1      34.467  31.108  27.368  1.00  0.00     0.188 C 
BRANCH   4   5
ATOM      5  O   UNL A   1      33.262  30.650  27.964  1.00  0.00    -0.376 OA
BRANCH   5   6
ATOM      6  C   UNL A   1      32.760  29.545  27.227  1.00  0.00     0.202 C 
BRANCH   6   7
ATOM      7  C   UNL A   1      32.194  30.033  25.903  1.00  0.00     0.261 C 
BRANCH   7   8
ATOM      8  O   UNL A   1      31.867  28.916  25.089  1.00  0.00    -0.460 OA
BRANCH   8   9
ATOM      9  C   UNL A   1      32.853  28.338  24.247  1.00  0.00     0.338 C 
ATOM     10  O   UNL A   1      33.690  29.081  23.646  1.00  0.00    -0.246 OA
BRANCH   9  11
ATOM     11  C   UNL A   1      32.908  26.829  24.066  1.00  0.00     0.087 C 
ATOM     12  C   UNL A   1      31.983  21.886  22.770  1.00  0.00     0.048 C 
ATOM     13  C   UNL A   1      33.020  22.678  23.550  1.00  0.00    -0.007 A 
ATOM     14  C   UNL A   1      34.143  21.993  23.960  1.00  0.00     0.031 A 
ATOM     15  C   UNL A   1      32.965  24.062  23.714  1.00  0.00     0.130 A 
ATOM     16  C   UNL A   1      35.213  22.665  24.535  1.00  0.00     0.108 A 
ATOM     17  C   UNL A   1      34.059  24.742  24.294  1.00  0.00     0.019 A 
ATOM     18  O   UNL A   1      31.797  24.848  23.299  1.00  0.00    -0.475 OA
ATOM     19  C   UNL A   1      35.184  24.022  24.699  1.00  0.00     0.036 A 
ATOM     20  C   UNL A   1      33.973  26.194  24.455  1.00  0.00     0.027 C 
ATOM     21  C   UNL A   1      31.814  26.185  23.489  1.00  0.00     0.316 C 
BRANCH  16  22
ATOM     22  S   UNL A   1      36.668  21.733  25.075  1.00  0.00     0.310 S 
ATOM     23  F   UNL A   1      36.022  20.385  24.543  1.00  0.00    -0.094 F 
ATOM     24  F   UNL A   1      35.890  21.491  26.424  1.00  0.00    -0.094 F 
ATOM     25  F   UNL A   1      37.868  20.884  25.583  1.00  0.00    -0.094 F 
ATOM     26  F   UNL A   1      37.369  21.868  23.666  1.00  0.00    -0.094 F 
ATOM     27  F   UNL A   1      35.409  22.500  24.505  1.00  0.00    -0.094 F 
ENDBRANCH  16  22
BRANCH  21  28
ATOM     28  C   UNL A   1      31.842  26.714  22.064  1.00  0.00     0.430 C 
ATOM     29  F   UNL A   1      31.269  25.829  21.252  1.00  0.00    -0.167 F 
ATOM     30  F   UNL A   1      31.179  27.865  22.005  1.00  0.00    -0.167 F 
ATOM     31  F   UNL A   1      33.103  26.908  21.688  1.00  0.00    -0.167 F 
ENDBRANCH  21  28
ENDBRANCH   9  11
ENDBRANCH   8   9
ENDBRANCH   7   8
ENDBRANCH   6   7
ENDBRANCH   5   6
ENDBRANCH   4   5
ENDBRANCH   3   4
ENDBRANCH   2   3
ENDBRANCH   1   2
BRANCH   1  32
ATOM     32  C   UNL A   1      34.975  34.065  29.914  1.00  0.00     0.188 C 
BRANCH  32  33
ATOM     33  O   UNL A   1      34.582  33.822  31.256  1.00  0.00    -0.376 OA
BRANCH  33  34
ATOM     34  C   UNL A   1      35.712  33.405  32.011  1.00  0.00     0.202 C 
BRANCH  34  35
ATOM     35  C   UNL A   1      35.871  31.899  31.894  1.00  0.00     0.261 C 
BRANCH  35  36
ATOM     36  O   UNL A   1      36.596  31.412  33.015  1.00  0.00    -0.460 OA
BRANCH  36  37
ATOM     37  C   UNL A   1      37.886  31.929  33.305  1.00  0.00     0.338 C 
ATOM     38  O   UNL A   1      38.039  32.762  34.252  1.00  0.00    -0.246 OA
BRANCH  37  39
ATOM     39  C   UNL A   1      39.085  31.484  32.483  1.00  0.00     0.060 A 
ATOM     40  C   UNL A   1      38.998  31.220  31.120  1.00  0.00     0.016 A 
ATOM     41  C   UNL A   1      40.247  31.322  33.077  1.00  0.00     0.016 A 
ATOM     42  C   UNL A   1      40.202  31.293  30.385  1.00  0.00     0.010 A 
ATOM     43  C   UNL A   1      41.365  30.885  32.358  1.00  0.00     0.010 A 
ATOM     44  C   UNL A   1      41.355  30.868  31.043  1.00  0.00    -0.014 A 
BRANCH  44  45
ATOM     45  C   UNL A   1      42.569  30.397  30.260  1.00  0.00     0.031 A 
ATOM     46  C   UNL A   1      42.681  29.035  29.980  1.00  0.00     0.074 A 
ATOM     47  C   UNL A   1      43.498  31.346  29.868  1.00  0.00     0.049 A 
ATOM     48  N   UNL A   1      43.641  28.421  29.286  1.00  0.00    -0.248 NA
ATOM     49  C   UNL A   1      41.713  28.020  30.426  1.00  0.00     0.031 C 
ATOM     50  C   UNL A   1      43.389  32.724  30.138  1.00  0.00     0.029 A 
ATOM     51  N   UNL A   1      44.666  31.146  29.166  1.00  0.00    -0.354 N 
ATOM     52  C   UNL A   1      43.394  27.112  29.215  1.00  0.00     0.074 A 
ATOM     53  C   UNL A   1      42.154  26.834  29.952  1.00  0.00     0.031 C 
ATOM     54  C   UNL A   1      44.481  33.344  29.617  1.00  0.00     0.029 A 
ATOM     55  C   UNL A   1      45.290  32.364  29.012  1.00  0.00     0.049 A 
ATOM     56  H   UNL A   1      44.998  30.281  28.832  1.00  0.00     0.167 HD
ATOM     57  C   UNL A   1      44.153  26.139  28.563  1.00  0.00     0.034 A 
ATOM     58  C   UNL A   1      46.498  32.625  28.384  1.00  0.00     0.034 A 
ATOM     59  C   UNL A   1      45.339  26.407  27.898  1.00  0.00     0.049 A 
ATOM     60  C   UNL A   1      47.287  31.643  27.782  1.00  0.00     0.074 A 
ATOM     61  C   UNL A   1      46.112  25.439  27.229  1.00  0.00     0.029 A 
ATOM     62  N   UNL A   1      45.974  27.622  27.765  1.00  0.00    -0.354 N 
ATOM     63  N   UNL A   1      47.021  30.340  27.677  1.00  0.00    -0.248 NA
ATOM     64  C   UNL A   1      48.583  31.904  27.142  1.00  0.00     0.031 C 
ATOM     65  C   UNL A   1      47.205  26.060  26.708  1.00  0.00     0.029 A 
ATOM     66  C   UNL A   1      47.131  27.425  27.043  1.00  0.00     0.049 A 
ATOM     67  H   UNL A   1      45.657  28.482  28.124  1.00  0.00     0.167 HD
ATOM     68  C   UNL A   1      48.002  29.722  27.018  1.00  0.00     0.074 A 
ATOM     69  C   UNL A   1      49.025  30.717  26.671  1.00  0.00     0.031 C 
ATOM     70  C   UNL A   1      48.084  28.368  26.688  1.00  0.00     0.034 A 
BRANCH  57  71
ATOM     71  C   UNL A   1      43.651  24.705  28.583  1.00  0.00     0.023 A 
ATOM     72  C   UNL A   1      43.865  23.893  29.691  1.00  0.00     0.012 A 
ATOM     73  C   UNL A   1      43.003  24.201  27.555  1.00  0.00     0.148 A 
ATOM     74  C   UNL A   1      42.977  22.806  29.860  1.00  0.00     0.002 A 
ATOM     75  C   UNL A   1      42.549  22.877  27.574  1.00  0.00     0.091 A 
ATOM     76  F   UNL A   1      42.776  24.958  26.486  1.00  0.00    -0.205 F 
ATOM     77  C   UNL A   1      42.531  22.187  28.694  1.00  0.00     0.022 A 
BRANCH  75  78
ATOM     78  S   UNL A   1      41.982  22.104  26.037  1.00  0.00     0.127 S 
ATOM     79  O   UNL A   1      40.510  22.449  25.805  1.00  0.00    -0.237 OA
ATOM     80  O   UNL A   1      42.820  22.624  24.867  1.00  0.00    -0.237 OA
ATOM     81  O   UNL A   1      42.158  20.407  26.155  1.00  0.00    -0.744 OA
ENDBRANCH  75  78
ENDBRANCH  57  71
BRANCH  58  82
ATOM     82  C   UNL A   1      46.991  34.063  28.349  1.00  0.00     0.023 A 
ATOM     83  C   UNL A   1      46.629  34.914  27.311  1.00  0.00     0.012 A 
ATOM     84  C   UNL A   1      47.771  34.532  29.300  1.00  0.00     0.148 A 
ATOM     85  C   UNL A   1      46.681  36.299  27.583  1.00  0.00     0.002 A 
ATOM     86  C   UNL A   1      48.231  35.854  29.260  1.00  0.00     0.091 A 
ATOM     87  F   UNL A   1      48.124  33.743  30.310  1.00  0.00    -0.205 F 
ATOM     88  C   UNL A   1      47.705  36.725  28.427  1.00  0.00     0.022 A 
BRANCH  86  89
ATOM     89  S   UNL A   1      49.566  36.368  30.369  1.00  0.00     0.127 S 
ATOM     90  O   UNL A   1      50.855  35.636  29.990  1.00  0.00    -0.237 OA
ATOM     91  O   UNL A   1      49.782  37.878  30.240  1.00  0.00    -0.237 OA
ATOM     92  O   UNL A   1      49.147  35.988  31.982  1.00  0.00    -0.744 OA
ENDBRANCH  86  89
ENDBRANCH  58  82
BRANCH  70  93
ATOM     93  C   UNL A   1      49.290  27.899  25.891  1.00  0.00     0.023 A 
ATOM     94  C   UNL A   1      50.540  27.718  26.473  1.00  0.00     0.012 A 
ATOM     95  C   UNL A   1      49.163  27.670  24.602  1.00  0.00     0.148 A 
ATOM     96  C   UNL A   1      51.429  26.848  25.803  1.00  0.00     0.002 A 
ATOM     97  C   UNL A   1      50.260  27.265  23.835  1.00  0.00     0.091 A 
ATOM     98  F   UNL A   1      47.976  27.826  24.022  1.00  0.00    -0.205 F 
ATOM     99  C   UNL A   1      51.371  26.859  24.411  1.00  0.00     0.022 A 
BRANCH  97 100
ATOM    100  S   UNL A   1      50.149  27.298  22.029  1.00  0.00     0.127 S 
ATOM    101  O   UNL A   1      48.994  26.404  21.572  1.00  0.00    -0.237 OA
ATOM    102  O   UNL A   1      49.899  28.734  21.559  1.00  0.00    -0.237 OA
ATOM    103  O   UNL A   1      51.614  26.727  21.355  1.00  0.00    -0.744 OA
ENDBRANCH  97 100
ENDBRANCH  70  93
ENDBRANCH  44  45
ENDBRANCH  37  39
ENDBRANCH  36  37
ENDBRANCH  35  36
ENDBRANCH  34  35
ENDBRANCH  33  34
ENDBRANCH  32  33
ENDBRANCH   1  32
TORSDOF 25
ENDMDL
MODEL 3
REMARK VINA RESULT:      -9.4      5.456     10.740
REMARK SMILES Cc1cc(S(F)(F)(F)(F)F)cc2c1O[C@H](C(F)(F)F)C(C(=O)OCCOCCOCCOCCOC(=O)c1ccc(-c3c4nc(c(-c5cccc(S(=O)(=O)[O-])c5F)c5ccc([nH]5)c(-c5cccc(S(=O)(=O)[O-])c5F)c5nc(c(-c6cccc(S(=O)(=O)[O-])c6F)c6ccc3[nH]6)C=C5)C=C4)cc1)=C2
REMARK SMILES IDX 30 1 29 2 28 3 27 4 26 5 25 6 24 7 23 8 21 9 22 10 20 11
REMARK SMILES IDX 1 12 2 13 3 14 13 15 4 16 12 17 14 18 11 19 101 20 15 21
REMARK SMILES IDX 5 22 6 23 7 24 8 25 9 26 10 27 16 28 17 29 18 30 19 31 31 32
REMARK SMILES IDX 32 33 33 34 34 35 35 36 36 37 37 38 38 39 39 40 100 41 40 42
REMARK SMILES IDX 99 43 41 44 42 45 43 46 93 47 44 48 98 49 92 50 94 51 45 52
REMARK SMILES IDX 97 53 91 54 90 55 46 57 78 58 58 59 77 60 59 61 62 62 76 63
REMARK SMILES IDX 95 64 60 65 61 66 75 68 96 69 63 70 47 71 48 72 56 73 49 74
REMARK SMILES IDX 51 75 57 76 50 77 52 78 53 79 54 80 55 81 79 82 80 83 88 84
REMARK SMILES IDX 81 85 83 86 89 87 82 88 84 89 85 90 86 91 87 92 64 93 65 94
REMARK SMILES IDX 73 95 66 96 68 97 74 98 67 99 69 100 70 101 71 102 72 103
REMARK H PARENT 94 56 62 67
REMARK Flexibility Score: inf
ROOT
ATOM      1  C   UNL A   1      42.008  19.258  26.272  1.00  0.00     0.188 C 
ENDROOT
BRANCH   1   2
ATOM      2  O   UNL A   1      42.247  20.208  27.301  1.00  0.00    -0.377 OA
BRANCH   2   3
ATOM      3  C   UNL A   1      41.058  20.943  27.551  1.00  0.00     0.188 C 
BRANCH   3   4
ATOM      4  C   UNL A   1      40.703  21.767  26.325  1.00  0.00     0.188 C 
BRANCH   4   5
ATOM      5  O   UNL A   1      39.390  22.289  26.469  1.00  0.00    -0.376 OA
BRANCH   5   6
ATOM      6  C   UNL A   1      38.481  21.494  25.722  1.00  0.00     0.202 C 
BRANCH   6   7
ATOM      7  C   UNL A   1      37.201  22.277  25.480  1.00  0.00     0.261 C 
BRANCH   7   8
ATOM      8  O   UNL A   1      36.082  21.419  25.651  1.00  0.00    -0.460 OA
BRANCH   8   9
ATOM      9  C   UNL A   1      34.841  21.951  26.090  1.00  0.00     0.338 C 
ATOM     10  O   UNL A   1      34.237  21.424  27.076  1.00  0.00    -0.246 OA
BRANCH   9  11
ATOM     11  C   UNL A   1      34.237  23.153  25.381  1.00  0.00     0.087 C 
ATOM     12  C   UNL A   1      32.107  26.414  21.946  1.00  0.00     0.048 C 
ATOM     13  C   UNL A   1      32.574  26.438  23.393  1.00  0.00    -0.007 A 
ATOM     14  C   UNL A   1      32.269  27.566  24.123  1.00  0.00     0.031 A 
ATOM     15  C   UNL A   1      33.129  25.334  24.038  1.00  0.00     0.130 A 
ATOM     16  C   UNL A   1      32.510  27.612  25.490  1.00  0.00     0.108 A 
ATOM     17  C   UNL A   1      33.368  25.383  25.430  1.00  0.00     0.019 A 
ATOM     18  O   UNL A   1      33.477  24.104  23.315  1.00  0.00    -0.475 OA
ATOM     19  C   UNL A   1      33.046  26.538  26.145  1.00  0.00     0.036 A 
ATOM     20  C   UNL A   1      33.951  24.210  26.081  1.00  0.00     0.027 C 
ATOM     21  C   UNL A   1      34.011  23.074  24.007  1.00  0.00     0.316 C 
BRANCH  16  22
ATOM     22  S   UNL A   1      32.109  29.113  26.417  1.00  0.00     0.310 S 
ATOM     23  F   UNL A   1      33.270  29.901  25.677  1.00  0.00    -0.094 F 
ATOM     24  F   UNL A   1      33.191  28.640  27.460  1.00  0.00    -0.094 F 
ATOM     25  F   UNL A   1      31.842  30.406  27.240  1.00  0.00    -0.094 F 
ATOM     26  F   UNL A   1      31.134  29.638  25.291  1.00  0.00    -0.094 F 
ATOM     27  F   UNL A   1      32.454  27.862  25.516  1.00  0.00    -0.094 F 
ENDBRANCH  16  22
BRANCH  21  28
ATOM     28  C   UNL A   1      32.917  22.024  23.918  1.00  0.00     0.430 C 
ATOM     29  F   UNL A   1      33.437  20.822  24.152  1.00  0.00    -0.167 F 
ATOM     30  F   UNL A   1      31.978  22.284  24.823  1.00  0.00    -0.167 F 
ATOM     31  F   UNL A   1      32.379  22.045  22.702  1.00  0.00    -0.167 F 
ENDBRANCH  21  28
ENDBRANCH   9  11
ENDBRANCH   8   9
ENDBRANCH   7   8
ENDBRANCH   6   7
ENDBRANCH   5   6
ENDBRANCH   4   5
ENDBRANCH   3   4
ENDBRANCH   2   3
ENDBRANCH   1   2
BRANCH   1  32
ATOM     32  C   UNL A   1      43.271  18.447  26.029  1.00  0.00     0.188 C 
BRANCH  32  33
ATOM     33  O   UNL A   1      43.866  18.852  24.806  1.00  0.00    -0.376 OA
BRANCH  33  34
ATOM     34  C   UNL A   1      45.196  19.287  25.049  1.00  0.00     0.202 C 
BRANCH  34  35
ATOM     35  C   UNL A   1      45.368  20.706  24.537  1.00  0.00     0.261 C 
BRANCH  35  36
ATOM     36  O   UNL A   1      44.853  21.620  25.495  1.00  0.00    -0.460 OA
BRANCH  36  37
ATOM     37  C   UNL A   1      44.009  22.684  25.079  1.00  0.00     0.338 C 
ATOM     38  O   UNL A   1      43.231  22.528  24.087  1.00  0.00    -0.246 OA
BRANCH  37  39
ATOM     39  C   UNL A   1      44.036  24.009  25.823  1.00  0.00     0.060 A 
ATOM     40  C   UNL A   1      43.732  24.111  27.177  1.00  0.00     0.016 A 
ATOM     41  C   UNL A   1      44.336  25.109  25.167  1.00  0.00     0.016 A 
ATOM     42  C   UNL A   1      44.241  25.241  27.855  1.00  0.00     0.010 A 
ATOM     43  C   UNL A   1      44.341  26.351  25.812  1.00  0.00     0.010 A 
ATOM     44  C   UNL A   1      44.296  26.427  27.125  1.00  0.00    -0.014 A 
BRANCH  44  45
ATOM     45  C   UNL A   1      44.304  27.774  27.828  1.00  0.00     0.031 A 
ATOM     46  C   UNL A   1      43.096  28.260  28.327  1.00  0.00     0.074 A 
ATOM     47  C   UNL A   1      45.511  28.445  27.934  1.00  0.00     0.049 A 
ATOM     48  N   UNL A   1      42.889  29.394  28.999  1.00  0.00    -0.248 NA
ATOM     49  C   UNL A   1      41.807  27.566  28.185  1.00  0.00     0.031 C 
ATOM     50  C   UNL A   1      46.737  27.957  27.440  1.00  0.00     0.029 A 
ATOM     51  N   UNL A   1      45.749  29.671  28.516  1.00  0.00    -0.354 N 
ATOM     52  C   UNL A   1      41.600  29.507  29.327  1.00  0.00     0.074 A 
ATOM     53  C   UNL A   1      40.885  28.336  28.803  1.00  0.00     0.031 C 
ATOM     54  C   UNL A   1      47.697  28.881  27.711  1.00  0.00     0.029 A 
ATOM     55  C   UNL A   1      47.088  29.960  28.378  1.00  0.00     0.049 A 
ATOM     56  H   UNL A   1      45.077  30.241  28.954  1.00  0.00     0.167 HD
ATOM     57  C   UNL A   1      40.995  30.539  30.045  1.00  0.00     0.034 A 
ATOM     58  C   UNL A   1      47.758  31.097  28.801  1.00  0.00     0.034 A 
ATOM     59  C   UNL A   1      41.674  31.656  30.507  1.00  0.00     0.049 A 
ATOM     60  C   UNL A   1      47.141  32.157  29.468  1.00  0.00     0.074 A 
ATOM     61  C   UNL A   1      41.080  32.703  31.238  1.00  0.00     0.029 A 
ATOM     62  N   UNL A   1      43.008  31.957  30.347  1.00  0.00    -0.354 N 
ATOM     63  N   UNL A   1      45.861  32.252  29.832  1.00  0.00    -0.248 NA
ATOM     64  C   UNL A   1      47.835  33.380  29.893  1.00  0.00     0.031 C 
ATOM     65  C   UNL A   1      42.041  33.626  31.508  1.00  0.00     0.029 A 
ATOM     66  C   UNL A   1      43.251  33.172  30.949  1.00  0.00     0.049 A 
ATOM     67  H   UNL A   1      43.674  31.400  29.883  1.00  0.00     0.167 HD
ATOM     68  C   UNL A   1      45.648  33.406  30.467  1.00  0.00     0.074 A 
ATOM     69  C   UNL A   1      46.913  34.151  30.509  1.00  0.00     0.031 C 
ATOM     70  C   UNL A   1      44.450  33.865  31.017  1.00  0.00     0.034 A 
BRANCH  57  71
ATOM     71  C   UNL A   1      39.507  30.434  30.337  1.00  0.00     0.023 A 
ATOM     72  C   UNL A   1      39.039  29.610  31.354  1.00  0.00     0.012 A 
ATOM     73  C   UNL A   1      38.631  31.119  29.634  1.00  0.00     0.148 A 
ATOM     74  C   UNL A   1      37.772  29.931  31.894  1.00  0.00     0.002 A 
ATOM     75  C   UNL A   1      37.260  31.014  29.899  1.00  0.00     0.091 A 
ATOM     76  F   UNL A   1      39.052  31.922  28.661  1.00  0.00    -0.205 F 
ATOM     77  C   UNL A   1      36.830  30.437  31.001  1.00  0.00     0.022 A 
BRANCH  75  78
ATOM     78  S   UNL A   1      36.066  31.678  28.711  1.00  0.00     0.127 S 
ATOM     79  O   UNL A   1      36.604  32.984  28.122  1.00  0.00    -0.237 OA
ATOM     80  O   UNL A   1      35.847  30.663  27.588  1.00  0.00    -0.237 OA
ATOM     81  O   UNL A   1      34.582  31.979  29.504  1.00  0.00    -0.744 OA
ENDBRANCH  75  78
ENDBRANCH  57  71
BRANCH  58  82
ATOM     82  C   UNL A   1      49.250  31.194  28.524  1.00  0.00     0.023 A 
ATOM     83  C   UNL A   1      50.177  30.700  29.435  1.00  0.00     0.012 A 
ATOM     84  C   UNL A   1      49.696  31.749  27.417  1.00  0.00     0.148 A 
ATOM     85  C   UNL A   1      51.449  30.364  28.922  1.00  0.00     0.002 A 
ATOM     86  C   UNL A   1      51.070  31.846  27.169  1.00  0.00     0.091 A 
ATOM     87  F   UNL A   1      48.832  32.221  26.523  1.00  0.00    -0.205 F 
ATOM     88  C   UNL A   1      51.935  31.173  27.896  1.00  0.00     0.022 A 
BRANCH  86  89
ATOM     89  S   UNL A   1      51.663  32.911  25.831  1.00  0.00     0.127 S 
ATOM     90  O   UNL A   1      53.153  33.197  26.028  1.00  0.00    -0.237 OA
ATOM     91  O   UNL A   1      51.454  32.207  24.488  1.00  0.00    -0.237 OA
ATOM     92  O   UNL A   1      50.793  34.383  25.845  1.00  0.00    -0.744 OA
ENDBRANCH  86  89
ENDBRANCH  58  82
BRANCH  70  93
ATOM     93  C   UNL A   1      44.460  35.205  31.734  1.00  0.00     0.023 A 
ATOM     94  C   UNL A   1      44.339  36.412  31.055  1.00  0.00     0.012 A 
ATOM     95  C   UNL A   1      44.607  35.236  33.041  1.00  0.00     0.148 A 
ATOM     96  C   UNL A   1      43.880  37.517  31.806  1.00  0.00     0.002 A 
ATOM     97  C   UNL A   1      44.650  36.454  33.728  1.00  0.00     0.091 A 
ATOM     98  F   UNL A   1      44.717  34.095  33.717  1.00  0.00    -0.205 F 
ATOM     99  C   UNL A   1      44.295  37.574  33.135  1.00  0.00     0.022 A 
BRANCH  97 100
ATOM    100  S   UNL A   1      45.199  36.489  35.452  1.00  0.00     0.127 S 
ATOM    101  O   UNL A   1      44.064  36.009  36.359  1.00  0.00    -0.237 OA
ATOM    102  O   UNL A   1      46.410  35.568  35.620  1.00  0.00    -0.237 OA
ATOM    103  O   UNL A   1      45.636  38.086  35.880  1.00  0.00    -0.744 OA
ENDBRANCH  97 100
ENDBRANCH  70  93
ENDBRANCH  44  45
ENDBRANCH  37  39
ENDBRANCH  36  37
ENDBRANCH  35  36
ENDBRANCH  34  35
ENDBRANCH  33  34
ENDBRANCH  32  33
ENDBRANCH   1  32
TORSDOF 25
ENDMDL
