MODEL 1
REMARK VINA RESULT:      -8.7      0.000      0.000
REMARK SMILES CC1(C)Cc2c(-c3ccccc3)c(-c3ccc(Cl)cc3)c(CC(=O)OCCOCCOCCOCCOC(=O)c3ccc(-c4c5nc(c(-c6cccc(S(=O)(=O)[O-])c6F)c6ccc([nH]6)c(-c6cccc(S(=O)(=O)[O-])c6F)c6nc(c(-c7cccc(S(=O)(=O)[O-])c7F)c7ccc4[nH]7)C=C6)C=C5)cc3)n2C1
REMARK SMILES IDX 32 1 31 2 30 3 29 4 28 5 27 6 26 7 25 8 23 9 24 10 22 11
REMARK SMILES IDX 21 12 1 13 2 14 3 15 4 16 104 17 5 18 103 19 6 20 13 21 7 22
REMARK SMILES IDX 8 23 12 24 9 25 11 26 10 27 14 28 15 29 20 30 16 31 19 32
REMARK SMILES IDX 17 33 18 34 33 35 34 36 35 37 36 38 37 39 38 40 39 41 40 42
REMARK SMILES IDX 41 43 102 44 42 45 101 46 43 47 44 48 45 49 95 50 46 51
REMARK SMILES IDX 100 52 94 53 96 54 47 55 99 56 93 57 92 58 48 60 80 61 60 62
REMARK SMILES IDX 79 63 61 64 64 65 78 66 97 67 62 68 63 69 77 71 98 72 65 73
REMARK SMILES IDX 49 74 50 75 58 76 51 77 53 78 59 79 52 80 54 81 55 82 56 83
REMARK SMILES IDX 57 84 81 85 82 86 90 87 83 88 85 89 91 90 84 91 86 92 87 93
REMARK SMILES IDX 88 94 89 95 66 96 67 97 75 98 68 99 70 100 76 101 69 102
REMARK SMILES IDX 71 103 72 104 73 105 74 106
REMARK H PARENT 96 59 64 70
REMARK Flexibility Score: inf
ROOT
ATOM      1  C   UNL A   1      37.753  23.538  25.766  1.00  0.00     0.188 C 
ENDROOT
BRANCH   1   2
ATOM      2  O   UNL A   1      36.365  23.545  26.034  1.00  0.00    -0.377 OA
BRANCH   2   3
ATOM      3  C   UNL A   1      35.560  24.067  25.003  1.00  0.00     0.188 C 
BRANCH   3   4
ATOM      4  C   UNL A   1      34.187  24.602  25.437  1.00  0.00     0.188 C 
BRANCH   4   5
ATOM      5  O   UNL A   1      34.036  25.978  25.739  1.00  0.00    -0.376 OA
BRANCH   5   6
ATOM      6  C   UNL A   1      33.639  26.824  24.672  1.00  0.00     0.202 C 
BRANCH   6   7
ATOM      7  C   UNL A   1      33.782  28.358  24.855  1.00  0.00     0.261 C 
BRANCH   7   8
ATOM      8  O   UNL A   1      33.155  28.956  26.037  1.00  0.00    -0.463 OA
BRANCH   8   9
ATOM      9  C   UNL A   1      33.955  29.431  27.023  1.00  0.00     0.311 C 
ATOM     10  O   UNL A   1      34.213  28.753  28.021  1.00  0.00    -0.252 OA
BRANCH   9  11
ATOM     11  C   UNL A   1      34.609  30.827  26.892  1.00  0.00     0.177 C 
BRANCH  11  12
ATOM     12  C   UNL A   1      35.458  31.528  27.954  1.00  0.00     0.037 A 
ATOM     13  C   UNL A   1      32.929  35.152  30.151  1.00  0.00     0.013 C 
ATOM     14  C   UNL A   1      34.113  34.767  29.257  1.00  0.00    -0.012 C 
ATOM     15  C   UNL A   1      34.470  35.946  28.341  1.00  0.00     0.013 C 
ATOM     16  C   UNL A   1      35.343  34.392  30.135  1.00  0.00     0.063 C 
ATOM     17  C   UNL A   1      33.800  33.499  28.403  1.00  0.00     0.129 C 
ATOM     18  C   UNL A   1      35.819  33.141  29.512  1.00  0.00     0.027 A 
ATOM     19  N   UNL A   1      35.004  32.688  28.530  1.00  0.00    -0.346 N 
ATOM     20  C   UNL A   1      36.867  32.282  29.653  1.00  0.00     0.011 A 
ATOM     21  C   UNL A   1      36.611  31.173  28.731  1.00  0.00     0.011 A 
BRANCH  20  22
ATOM     22  C   UNL A   1      37.970  32.623  30.544  1.00  0.00    -0.016 A 
ATOM     23  C   UNL A   1      39.018  33.468  30.154  1.00  0.00     0.009 A 
ATOM     24  C   UNL A   1      38.028  32.018  31.801  1.00  0.00     0.009 A 
ATOM     25  C   UNL A   1      40.102  33.693  31.013  1.00  0.00     0.001 A 
ATOM     26  C   UNL A   1      39.099  32.265  32.664  1.00  0.00     0.001 A 
ATOM     27  C   UNL A   1      40.144  33.087  32.266  1.00  0.00     0.000 A 
ENDBRANCH  20  22
BRANCH  21  28
ATOM     28  C   UNL A   1      37.473  29.964  28.630  1.00  0.00    -0.016 A 
ATOM     29  C   UNL A   1      37.535  29.042  29.695  1.00  0.00     0.010 A 
ATOM     30  C   UNL A   1      38.354  29.741  27.574  1.00  0.00     0.010 A 
ATOM     31  C   UNL A   1      38.533  28.060  29.777  1.00  0.00     0.021 A 
ATOM     32  C   UNL A   1      39.375  28.778  27.650  1.00  0.00     0.021 A 
ATOM     33  C   UNL A   1      39.478  27.960  28.768  1.00  0.00     0.041 A 
ATOM     34  Cl  UNL A   1      40.796  26.866  28.921  1.00  0.00    -0.084 Cl
ENDBRANCH  21  28
ENDBRANCH  11  12
ENDBRANCH   9  11
ENDBRANCH   8   9
ENDBRANCH   7   8
ENDBRANCH   6   7
ENDBRANCH   5   6
ENDBRANCH   4   5
ENDBRANCH   3   4
ENDBRANCH   2   3
ENDBRANCH   1   2
BRANCH   1  35
ATOM     35  C   UNL A   1      38.421  22.178  25.992  1.00  0.00     0.188 C 
BRANCH  35  36
ATOM     36  O   UNL A   1      39.707  22.126  26.618  1.00  0.00    -0.376 OA
BRANCH  36  37
ATOM     37  C   UNL A   1      40.375  20.895  26.880  1.00  0.00     0.202 C 
BRANCH  37  38
ATOM     38  C   UNL A   1      41.764  20.707  26.330  1.00  0.00     0.261 C 
BRANCH  38  39
ATOM     39  O   UNL A   1      42.047  21.870  25.570  1.00  0.00    -0.460 OA
BRANCH  39  40
ATOM     40  C   UNL A   1      43.299  22.340  25.627  1.00  0.00     0.338 C 
ATOM     41  O   UNL A   1      44.342  21.707  25.484  1.00  0.00    -0.246 OA
BRANCH  40  42
ATOM     42  C   UNL A   1      43.203  23.714  26.111  1.00  0.00     0.060 A 
ATOM     43  C   UNL A   1      43.276  24.647  25.092  1.00  0.00     0.016 A 
ATOM     44  C   UNL A   1      43.575  24.011  27.434  1.00  0.00     0.016 A 
ATOM     45  C   UNL A   1      44.069  25.738  25.318  1.00  0.00     0.010 A 
ATOM     46  C   UNL A   1      44.397  25.088  27.653  1.00  0.00     0.010 A 
ATOM     47  C   UNL A   1      44.703  25.890  26.565  1.00  0.00    -0.014 A 
BRANCH  47  48
ATOM     48  C   UNL A   1      45.387  27.141  26.769  1.00  0.00     0.031 A 
ATOM     49  C   UNL A   1      46.828  26.921  26.546  1.00  0.00     0.074 A 
ATOM     50  C   UNL A   1      44.834  28.299  27.160  1.00  0.00     0.049 A 
ATOM     51  N   UNL A   1      47.686  26.654  27.473  1.00  0.00    -0.248 NA
ATOM     52  C   UNL A   1      47.296  26.634  25.182  1.00  0.00     0.031 C 
ATOM     53  C   UNL A   1      43.428  28.694  27.176  1.00  0.00     0.029 A 
ATOM     54  N   UNL A   1      45.479  29.430  27.549  1.00  0.00    -0.354 N 
ATOM     55  C   UNL A   1      48.877  26.467  26.800  1.00  0.00     0.074 A 
ATOM     56  C   UNL A   1      48.533  26.198  25.428  1.00  0.00     0.031 C 
ATOM     57  C   UNL A   1      43.355  30.040  27.318  1.00  0.00     0.029 A 
ATOM     58  C   UNL A   1      44.690  30.573  27.539  1.00  0.00     0.049 A 
ATOM     59  H   UNL A   1      46.426  29.439  27.817  1.00  0.00     0.167 HD
ATOM     60  C   UNL A   1      50.026  26.929  27.355  1.00  0.00     0.034 A 
ATOM     61  C   UNL A   1      45.143  31.851  27.625  1.00  0.00     0.034 A 
ATOM     62  C   UNL A   1      49.884  27.106  28.782  1.00  0.00     0.049 A 
ATOM     63  C   UNL A   1      46.479  31.800  28.270  1.00  0.00     0.074 A 
ATOM     64  C   UNL A   1      49.468  26.295  29.822  1.00  0.00     0.029 A 
ATOM     65  N   UNL A   1      49.765  28.397  29.240  1.00  0.00    -0.354 N 
ATOM     66  N   UNL A   1      46.658  31.459  29.515  1.00  0.00    -0.248 NA
ATOM     67  C   UNL A   1      47.648  31.683  27.413  1.00  0.00     0.031 C 
ATOM     68  C   UNL A   1      48.682  27.141  30.660  1.00  0.00     0.029 A 
ATOM     69  C   UNL A   1      48.734  28.435  30.140  1.00  0.00     0.049 A 
ATOM     70  H   UNL A   1      50.324  29.161  28.969  1.00  0.00     0.167 HD
ATOM     71  C   UNL A   1      47.774  30.633  29.480  1.00  0.00     0.074 A 
ATOM     72  C   UNL A   1      48.400  30.892  28.184  1.00  0.00     0.031 C 
ATOM     73  C   UNL A   1      47.916  29.606  30.368  1.00  0.00     0.034 A 
BRANCH  60  74
ATOM     74  C   UNL A   1      51.072  27.654  26.548  1.00  0.00     0.023 A 
ATOM     75  C   UNL A   1      50.756  28.952  26.106  1.00  0.00     0.012 A 
ATOM     76  C   UNL A   1      52.208  27.037  25.970  1.00  0.00     0.148 A 
ATOM     77  C   UNL A   1      51.509  29.584  25.112  1.00  0.00     0.002 A 
ATOM     78  C   UNL A   1      53.013  27.706  25.064  1.00  0.00     0.091 A 
ATOM     79  F   UNL A   1      52.449  25.739  26.163  1.00  0.00    -0.205 F 
ATOM     80  C   UNL A   1      52.647  28.968  24.602  1.00  0.00     0.022 A 
BRANCH  78  81
ATOM     81  S   UNL A   1      54.525  26.966  24.435  1.00  0.00     0.127 S 
ATOM     82  O   UNL A   1      55.252  26.692  25.670  1.00  0.00    -0.237 OA
ATOM     83  O   UNL A   1      54.007  25.787  23.739  1.00  0.00    -0.237 OA
ATOM     84  O   UNL A   1      55.116  27.964  23.551  1.00  0.00    -0.744 OA
ENDBRANCH  78  81
ENDBRANCH  60  74
BRANCH  61  85
ATOM     85  C   UNL A   1      44.663  33.080  26.946  1.00  0.00     0.023 A 
ATOM     86  C   UNL A   1      44.576  33.109  25.537  1.00  0.00     0.012 A 
ATOM     87  C   UNL A   1      44.008  34.101  27.670  1.00  0.00     0.148 A 
ATOM     88  C   UNL A   1      43.828  34.092  24.877  1.00  0.00     0.002 A 
ATOM     89  C   UNL A   1      43.272  35.079  27.009  1.00  0.00     0.091 A 
ATOM     90  F   UNL A   1      44.024  34.058  29.007  1.00  0.00    -0.205 F 
ATOM     91  C   UNL A   1      43.167  35.071  25.613  1.00  0.00     0.022 A 
BRANCH  89  92
ATOM     92  S   UNL A   1      42.373  36.357  27.899  1.00  0.00     0.127 S 
ATOM     93  O   UNL A   1      43.352  36.772  28.904  1.00  0.00    -0.237 OA
ATOM     94  O   UNL A   1      42.121  37.340  26.848  1.00  0.00    -0.237 OA
ATOM     95  O   UNL A   1      41.191  35.705  28.450  1.00  0.00    -0.744 OA
ENDBRANCH  89  92
ENDBRANCH  61  85
BRANCH  73  96
ATOM     96  C   UNL A   1      47.008  29.564  31.571  1.00  0.00     0.023 A 
ATOM     97  C   UNL A   1      47.275  30.263  32.767  1.00  0.00     0.012 A 
ATOM     98  C   UNL A   1      45.766  28.924  31.422  1.00  0.00     0.148 A 
ATOM     99  C   UNL A   1      46.330  30.301  33.798  1.00  0.00     0.002 A 
ATOM    100  C   UNL A   1      44.810  29.007  32.425  1.00  0.00     0.091 A 
ATOM    101  F   UNL A   1      45.530  28.261  30.280  1.00  0.00    -0.205 F 
ATOM    102  C   UNL A   1      45.091  29.686  33.621  1.00  0.00     0.022 A 
BRANCH 100 103
ATOM    103  S   UNL A   1      43.162  28.339  32.199  1.00  0.00     0.127 S 
ATOM    104  O   UNL A   1      42.366  29.184  33.086  1.00  0.00    -0.237 OA
ATOM    105  O   UNL A   1      42.927  28.559  30.771  1.00  0.00    -0.237 OA
ATOM    106  O   UNL A   1      43.242  26.934  32.577  1.00  0.00    -0.744 OA
ENDBRANCH 100 103
ENDBRANCH  73  96
ENDBRANCH  47  48
ENDBRANCH  40  42
ENDBRANCH  39  40
ENDBRANCH  38  39
ENDBRANCH  37  38
ENDBRANCH  36  37
ENDBRANCH  35  36
ENDBRANCH   1  35
TORSDOF 26
ENDMDL
MODEL 2
REMARK VINA RESULT:      -8.6      2.351      3.728
REMARK SMILES CC1(C)Cc2c(-c3ccccc3)c(-c3ccc(Cl)cc3)c(CC(=O)OCCOCCOCCOCCOC(=O)c3ccc(-c4c5nc(c(-c6cccc(S(=O)(=O)[O-])c6F)c6ccc([nH]6)c(-c6cccc(S(=O)(=O)[O-])c6F)c6nc(c(-c7cccc(S(=O)(=O)[O-])c7F)c7ccc4[nH]7)C=C6)C=C5)cc3)n2C1
REMARK SMILES IDX 32 1 31 2 30 3 29 4 28 5 27 6 26 7 25 8 23 9 24 10 22 11
REMARK SMILES IDX 21 12 1 13 2 14 3 15 4 16 104 17 5 18 103 19 6 20 13 21 7 22
REMARK SMILES IDX 8 23 12 24 9 25 11 26 10 27 14 28 15 29 20 30 16 31 19 32
REMARK SMILES IDX 17 33 18 34 33 35 34 36 35 37 36 38 37 39 38 40 39 41 40 42
REMARK SMILES IDX 41 43 102 44 42 45 101 46 43 47 44 48 45 49 95 50 46 51
REMARK SMILES IDX 100 52 94 53 96 54 47 55 99 56 93 57 92 58 48 60 80 61 60 62
REMARK SMILES IDX 79 63 61 64 64 65 78 66 97 67 62 68 63 69 77 71 98 72 65 73
REMARK SMILES IDX 49 74 50 75 58 76 51 77 53 78 59 79 52 80 54 81 55 82 56 83
REMARK SMILES IDX 57 84 81 85 82 86 90 87 83 88 85 89 91 90 84 91 86 92 87 93
REMARK SMILES IDX 88 94 89 95 66 96 67 97 75 98 68 99 70 100 76 101 69 102
REMARK SMILES IDX 71 103 72 104 73 105 74 106
REMARK H PARENT 96 59 64 70
REMARK Flexibility Score: inf
ROOT
ATOM      1  C   UNL A   1      36.895  22.352  24.834  1.00  0.00     0.188 C 
ENDROOT
BRANCH   1   2
ATOM      2  O   UNL A   1      36.004  23.007  25.714  1.00  0.00    -0.377 OA
BRANCH   2   3
ATOM      3  C   UNL A   1      34.662  23.040  25.292  1.00  0.00     0.188 C 
BRANCH   3   4
ATOM      4  C   UNL A   1      33.847  24.255  25.759  1.00  0.00     0.188 C 
BRANCH   4   5
ATOM      5  O   UNL A   1      34.417  25.550  25.684  1.00  0.00    -0.376 OA
BRANCH   5   6
ATOM      6  C   UNL A   1      33.522  26.629  25.468  1.00  0.00     0.202 C 
BRANCH   6   7
ATOM      7  C   UNL A   1      33.407  27.721  26.563  1.00  0.00     0.261 C 
BRANCH   7   8
ATOM      8  O   UNL A   1      33.829  29.079  26.209  1.00  0.00    -0.463 OA
BRANCH   8   9
ATOM      9  C   UNL A   1      34.264  29.900  27.196  1.00  0.00     0.311 C 
ATOM     10  O   UNL A   1      33.478  30.591  27.849  1.00  0.00    -0.252 OA
BRANCH   9  11
ATOM     11  C   UNL A   1      35.766  29.948  27.563  1.00  0.00     0.177 C 
BRANCH  11  12
ATOM     12  C   UNL A   1      36.362  30.517  28.852  1.00  0.00     0.037 A 
ATOM     13  C   UNL A   1      40.606  28.275  29.998  1.00  0.00     0.013 C 
ATOM     14  C   UNL A   1      39.149  28.546  30.385  1.00  0.00    -0.012 C 
ATOM     15  C   UNL A   1      38.625  27.396  31.257  1.00  0.00     0.013 C 
ATOM     16  C   UNL A   1      39.047  29.888  31.169  1.00  0.00     0.063 C 
ATOM     17  C   UNL A   1      38.243  28.722  29.126  1.00  0.00     0.129 C 
ATOM     18  C   UNL A   1      37.901  30.558  30.522  1.00  0.00     0.027 A 
ATOM     19  N   UNL A   1      37.430  29.889  29.443  1.00  0.00    -0.346 N 
ATOM     20  C   UNL A   1      37.168  31.692  30.699  1.00  0.00     0.011 A 
ATOM     21  C   UNL A   1      36.230  31.750  29.575  1.00  0.00     0.011 A 
BRANCH  20  22
ATOM     22  C   UNL A   1      37.377  32.515  31.885  1.00  0.00    -0.016 A 
ATOM     23  C   UNL A   1      36.785  32.216  33.120  1.00  0.00     0.009 A 
ATOM     24  C   UNL A   1      38.124  33.687  31.765  1.00  0.00     0.009 A 
ATOM     25  C   UNL A   1      36.941  33.086  34.208  1.00  0.00     0.001 A 
ATOM     26  C   UNL A   1      38.298  34.539  32.859  1.00  0.00     0.001 A 
ATOM     27  C   UNL A   1      37.694  34.250  34.075  1.00  0.00     0.000 A 
ENDBRANCH  20  22
BRANCH  21  28
ATOM     28  C   UNL A   1      35.295  32.882  29.333  1.00  0.00    -0.016 A 
ATOM     29  C   UNL A   1      35.307  33.565  28.100  1.00  0.00     0.010 A 
ATOM     30  C   UNL A   1      34.474  33.418  30.323  1.00  0.00     0.010 A 
ATOM     31  C   UNL A   1      34.669  34.802  27.924  1.00  0.00     0.021 A 
ATOM     32  C   UNL A   1      33.847  34.667  30.171  1.00  0.00     0.021 A 
ATOM     33  C   UNL A   1      33.974  35.369  28.979  1.00  0.00     0.041 A 
ATOM     34  Cl  UNL A   1      33.313  36.950  28.833  1.00  0.00    -0.084 Cl
ENDBRANCH  21  28
ENDBRANCH  11  12
ENDBRANCH   9  11
ENDBRANCH   8   9
ENDBRANCH   7   8
ENDBRANCH   6   7
ENDBRANCH   5   6
ENDBRANCH   4   5
ENDBRANCH   3   4
ENDBRANCH   2   3
ENDBRANCH   1   2
BRANCH   1  35
ATOM     35  C   UNL A   1      37.881  21.412  25.533  1.00  0.00     0.188 C 
BRANCH  35  36
ATOM     36  O   UNL A   1      39.233  21.837  25.730  1.00  0.00    -0.376 OA
BRANCH  36  37
ATOM     37  C   UNL A   1      40.073  21.261  26.726  1.00  0.00     0.202 C 
BRANCH  37  38
ATOM     38  C   UNL A   1      41.414  20.723  26.303  1.00  0.00     0.261 C 
BRANCH  38  39
ATOM     39  O   UNL A   1      41.913  21.627  25.331  1.00  0.00    -0.460 OA
BRANCH  39  40
ATOM     40  C   UNL A   1      43.134  22.132  25.545  1.00  0.00     0.338 C 
ATOM     41  O   UNL A   1      44.210  21.548  25.454  1.00  0.00    -0.246 OA
BRANCH  40  42
ATOM     42  C   UNL A   1      42.937  23.458  26.125  1.00  0.00     0.060 A 
ATOM     43  C   UNL A   1      43.183  24.478  25.224  1.00  0.00     0.016 A 
ATOM     44  C   UNL A   1      43.059  23.632  27.514  1.00  0.00     0.016 A 
ATOM     45  C   UNL A   1      43.911  25.539  25.688  1.00  0.00     0.010 A 
ATOM     46  C   UNL A   1      43.815  24.680  27.976  1.00  0.00     0.010 A 
ATOM     47  C   UNL A   1      44.306  25.575  27.037  1.00  0.00    -0.014 A 
BRANCH  47  48
ATOM     48  C   UNL A   1      44.928  26.799  27.474  1.00  0.00     0.031 A 
ATOM     49  C   UNL A   1      46.351  26.522  27.745  1.00  0.00     0.074 A 
ATOM     50  C   UNL A   1      44.319  27.978  27.670  1.00  0.00     0.049 A 
ATOM     51  N   UNL A   1      46.837  26.222  28.902  1.00  0.00    -0.248 NA
ATOM     52  C   UNL A   1      47.238  26.215  26.613  1.00  0.00     0.031 C 
ATOM     53  C   UNL A   1      43.006  28.427  27.218  1.00  0.00     0.029 A 
ATOM     54  N   UNL A   1      44.838  29.083  28.266  1.00  0.00    -0.354 N 
ATOM     55  C   UNL A   1      48.177  25.988  28.666  1.00  0.00     0.074 A 
ATOM     56  C   UNL A   1      48.303  25.731  27.255  1.00  0.00     0.031 C 
ATOM     57  C   UNL A   1      42.939  29.776  27.343  1.00  0.00     0.029 A 
ATOM     58  C   UNL A   1      44.141  30.256  28.006  1.00  0.00     0.049 A 
ATOM     59  H   UNL A   1      45.640  29.055  28.837  1.00  0.00     0.167 HD
ATOM     60  C   UNL A   1      49.089  26.406  29.580  1.00  0.00     0.034 A 
ATOM     61  C   UNL A   1      44.587  31.515  28.254  1.00  0.00     0.034 A 
ATOM     62  C   UNL A   1      48.483  26.591  30.879  1.00  0.00     0.049 A 
ATOM     63  C   UNL A   1      45.625  31.413  29.309  1.00  0.00     0.074 A 
ATOM     64  C   UNL A   1      47.712  25.798  31.709  1.00  0.00     0.029 A 
ATOM     65  N   UNL A   1      48.266  27.886  31.285  1.00  0.00    -0.354 N 
ATOM     66  N   UNL A   1      45.363  31.067  30.538  1.00  0.00    -0.248 NA
ATOM     67  C   UNL A   1      47.009  31.249  28.892  1.00  0.00     0.031 C 
ATOM     68  C   UNL A   1      46.723  26.675  32.244  1.00  0.00     0.029 A 
ATOM     69  C   UNL A   1      46.995  27.965  31.787  1.00  0.00     0.049 A 
ATOM     70  H   UNL A   1      48.912  28.626  31.226  1.00  0.00     0.167 HD
ATOM     71  C   UNL A   1      46.395  30.199  30.869  1.00  0.00     0.074 A 
ATOM     72  C   UNL A   1      47.429  30.431  29.862  1.00  0.00     0.031 C 
ATOM     73  C   UNL A   1      46.192  29.167  31.741  1.00  0.00     0.034 A 
BRANCH  60  74
ATOM     74  C   UNL A   1      50.372  27.088  29.178  1.00  0.00     0.023 A 
ATOM     75  C   UNL A   1      51.532  26.748  29.898  1.00  0.00     0.012 A 
ATOM     76  C   UNL A   1      50.445  28.228  28.342  1.00  0.00     0.148 A 
ATOM     77  C   UNL A   1      52.690  27.528  29.819  1.00  0.00     0.002 A 
ATOM     78  C   UNL A   1      51.624  28.936  28.185  1.00  0.00     0.091 A 
ATOM     79  F   UNL A   1      49.341  28.747  27.802  1.00  0.00    -0.205 F 
ATOM     80  C   UNL A   1      52.742  28.613  28.951  1.00  0.00     0.022 A 
BRANCH  78  81
ATOM     81  S   UNL A   1      51.745  30.302  27.024  1.00  0.00     0.127 S 
ATOM     82  O   UNL A   1      51.425  31.441  27.878  1.00  0.00    -0.237 OA
ATOM     83  O   UNL A   1      53.144  30.208  26.605  1.00  0.00    -0.237 OA
ATOM     84  O   UNL A   1      50.787  30.007  25.964  1.00  0.00    -0.744 OA
ENDBRANCH  78  81
ENDBRANCH  60  74
BRANCH  61  85
ATOM     85  C   UNL A   1      44.408  32.762  27.468  1.00  0.00     0.023 A 
ATOM     86  C   UNL A   1      44.615  32.740  26.071  1.00  0.00     0.012 A 
ATOM     87  C   UNL A   1      43.750  33.881  28.021  1.00  0.00     0.148 A 
ATOM     88  C   UNL A   1      44.142  33.773  25.252  1.00  0.00     0.002 A 
ATOM     89  C   UNL A   1      43.288  34.909  27.204  1.00  0.00     0.091 A 
ATOM     90  F   UNL A   1      43.488  33.895  29.333  1.00  0.00    -0.205 F 
ATOM     91  C   UNL A   1      43.470  34.853  25.817  1.00  0.00     0.022 A 
BRANCH  89  92
ATOM     92  S   UNL A   1      42.389  36.319  27.864  1.00  0.00     0.127 S 
ATOM     93  O   UNL A   1      42.436  37.260  26.744  1.00  0.00    -0.237 OA
ATOM     94  O   UNL A   1      41.073  35.746  28.127  1.00  0.00    -0.237 OA
ATOM     95  O   UNL A   1      43.135  36.754  29.039  1.00  0.00    -0.744 OA
ENDBRANCH  89  92
ENDBRANCH  61  85
BRANCH  73  96
ATOM     96  C   UNL A   1      44.932  29.163  32.569  1.00  0.00     0.023 A 
ATOM     97  C   UNL A   1      43.706  28.633  32.112  1.00  0.00     0.012 A 
ATOM     98  C   UNL A   1      45.038  29.565  33.912  1.00  0.00     0.148 A 
ATOM     99  C   UNL A   1      42.609  28.529  32.973  1.00  0.00     0.002 A 
ATOM    100  C   UNL A   1      43.963  29.412  34.776  1.00  0.00     0.091 A 
ATOM    101  F   UNL A   1      46.209  30.070  34.328  1.00  0.00    -0.205 F 
ATOM    102  C   UNL A   1      42.741  28.904  34.309  1.00  0.00     0.022 A 
BRANCH 100 103
ATOM    103  S   UNL A   1      44.119  29.764  36.527  1.00  0.00     0.127 S 
ATOM    104  O   UNL A   1      44.931  30.979  36.522  1.00  0.00    -0.237 OA
ATOM    105  O   UNL A   1      42.727  29.959  36.934  1.00  0.00    -0.237 OA
ATOM    106  O   UNL A   1      44.751  28.591  37.118  1.00  0.00    -0.744 OA
ENDBRANCH 100 103
ENDBRANCH  73  96
ENDBRANCH  47  48
ENDBRANCH  40  42
ENDBRANCH  39  40
ENDBRANCH  38  39
ENDBRANCH  37  38
ENDBRANCH  36  37
ENDBRANCH  35  36
ENDBRANCH   1  35
TORSDOF 26
ENDMDL
MODEL 3
REMARK VINA RESULT:      -8.1      2.176      3.495
REMARK SMILES CC1(C)Cc2c(-c3ccccc3)c(-c3ccc(Cl)cc3)c(CC(=O)OCCOCCOCCOCCOC(=O)c3ccc(-c4c5nc(c(-c6cccc(S(=O)(=O)[O-])c6F)c6ccc([nH]6)c(-c6cccc(S(=O)(=O)[O-])c6F)c6nc(c(-c7cccc(S(=O)(=O)[O-])c7F)c7ccc4[nH]7)C=C6)C=C5)cc3)n2C1
REMARK SMILES IDX 32 1 31 2 30 3 29 4 28 5 27 6 26 7 25 8 23 9 24 10 22 11
REMARK SMILES IDX 21 12 1 13 2 14 3 15 4 16 104 17 5 18 103 19 6 20 13 21 7 22
REMARK SMILES IDX 8 23 12 24 9 25 11 26 10 27 14 28 15 29 20 30 16 31 19 32
REMARK SMILES IDX 17 33 18 34 33 35 34 36 35 37 36 38 37 39 38 40 39 41 40 42
REMARK SMILES IDX 41 43 102 44 42 45 101 46 43 47 44 48 45 49 95 50 46 51
REMARK SMILES IDX 100 52 94 53 96 54 47 55 99 56 93 57 92 58 48 60 80 61 60 62
REMARK SMILES IDX 79 63 61 64 64 65 78 66 97 67 62 68 63 69 77 71 98 72 65 73
REMARK SMILES IDX 49 74 50 75 58 76 51 77 53 78 59 79 52 80 54 81 55 82 56 83
REMARK SMILES IDX 57 84 81 85 82 86 90 87 83 88 85 89 91 90 84 91 86 92 87 93
REMARK SMILES IDX 88 94 89 95 66 96 67 97 75 98 68 99 70 100 76 101 69 102
REMARK SMILES IDX 71 103 72 104 73 105 74 106
REMARK H PARENT 96 59 64 70
REMARK Flexibility Score: inf
ROOT
ATOM      1  C   UNL A   1      35.986  22.937  24.511  1.00  0.00     0.188 C 
ENDROOT
BRANCH   1   2
ATOM      2  O   UNL A   1      35.530  24.241  24.811  1.00  0.00    -0.377 OA
BRANCH   2   3
ATOM      3  C   UNL A   1      34.164  24.470  24.558  1.00  0.00     0.188 C 
BRANCH   3   4
ATOM      4  C   UNL A   1      33.470  25.463  25.503  1.00  0.00     0.188 C 
BRANCH   4   5
ATOM      5  O   UNL A   1      33.921  26.805  25.560  1.00  0.00    -0.376 OA
BRANCH   5   6
ATOM      6  C   UNL A   1      33.033  27.752  26.132  1.00  0.00     0.202 C 
BRANCH   6   7
ATOM      7  C   UNL A   1      33.569  28.681  27.252  1.00  0.00     0.261 C 
BRANCH   7   8
ATOM      8  O   UNL A   1      34.269  29.901  26.838  1.00  0.00    -0.463 OA
BRANCH   8   9
ATOM      9  C   UNL A   1      35.121  30.487  27.715  1.00  0.00     0.311 C 
ATOM     10  O   UNL A   1      35.190  31.714  27.819  1.00  0.00    -0.252 OA
BRANCH   9  11
ATOM     11  C   UNL A   1      35.995  29.618  28.651  1.00  0.00     0.177 C 
BRANCH  11  12
ATOM     12  C   UNL A   1      37.326  30.032  29.282  1.00  0.00     0.037 A 
ATOM     13  C   UNL A   1      41.128  28.843  26.369  1.00  0.00     0.013 C 
ATOM     14  C   UNL A   1      40.406  28.613  27.701  1.00  0.00    -0.012 C 
ATOM     15  C   UNL A   1      40.717  27.201  28.217  1.00  0.00     0.013 C 
ATOM     16  C   UNL A   1      40.869  29.670  28.746  1.00  0.00     0.063 C 
ATOM     17  C   UNL A   1      38.863  28.806  27.559  1.00  0.00     0.129 C 
ATOM     18  C   UNL A   1      39.595  30.125  29.337  1.00  0.00     0.027 A 
ATOM     19  N   UNL A   1      38.505  29.607  28.723  1.00  0.00    -0.346 N 
ATOM     20  C   UNL A   1      39.190  30.948  30.344  1.00  0.00     0.011 A 
ATOM     21  C   UNL A   1      37.727  30.991  30.271  1.00  0.00     0.011 A 
BRANCH  20  22
ATOM     22  C   UNL A   1      40.174  31.515  31.259  1.00  0.00    -0.016 A 
ATOM     23  C   UNL A   1      41.224  32.332  30.821  1.00  0.00     0.009 A 
ATOM     24  C   UNL A   1      40.116  31.162  32.608  1.00  0.00     0.009 A 
ATOM     25  C   UNL A   1      42.198  32.778  31.725  1.00  0.00     0.001 A 
ATOM     26  C   UNL A   1      41.075  31.630  33.511  1.00  0.00     0.001 A 
ATOM     27  C   UNL A   1      42.125  32.423  33.069  1.00  0.00     0.000 A 
ENDBRANCH  20  22
BRANCH  21  28
ATOM     28  C   UNL A   1      36.880  31.849  31.142  1.00  0.00    -0.016 A 
ATOM     29  C   UNL A   1      36.528  33.152  30.735  1.00  0.00     0.010 A 
ATOM     30  C   UNL A   1      36.507  31.490  32.436  1.00  0.00     0.010 A 
ATOM     31  C   UNL A   1      35.989  34.095  31.624  1.00  0.00     0.021 A 
ATOM     32  C   UNL A   1      35.989  32.428  33.346  1.00  0.00     0.021 A 
ATOM     33  C   UNL A   1      35.761  33.737  32.943  1.00  0.00     0.041 A 
ATOM     34  Cl  UNL A   1      35.245  34.916  34.083  1.00  0.00    -0.084 Cl
ENDBRANCH  21  28
ENDBRANCH  11  12
ENDBRANCH   9  11
ENDBRANCH   8   9
ENDBRANCH   7   8
ENDBRANCH   6   7
ENDBRANCH   5   6
ENDBRANCH   4   5
ENDBRANCH   3   4
ENDBRANCH   2   3
ENDBRANCH   1   2
BRANCH   1  35
ATOM     35  C   UNL A   1      37.095  22.438  25.441  1.00  0.00     0.188 C 
BRANCH  35  36
ATOM     36  O   UNL A   1      38.296  23.204  25.573  1.00  0.00    -0.376 OA
BRANCH  36  37
ATOM     37  C   UNL A   1      38.752  23.692  26.832  1.00  0.00     0.202 C 
BRANCH  37  38
ATOM     38  C   UNL A   1      40.155  23.354  27.262  1.00  0.00     0.261 C 
BRANCH  38  39
ATOM     39  O   UNL A   1      40.847  22.971  26.084  1.00  0.00    -0.460 OA
BRANCH  39  40
ATOM     40  C   UNL A   1      42.184  23.005  26.130  1.00  0.00     0.338 C 
ATOM     41  O   UNL A   1      42.962  22.074  25.945  1.00  0.00    -0.246 OA
BRANCH  40  42
ATOM     42  C   UNL A   1      42.545  24.316  26.663  1.00  0.00     0.060 A 
ATOM     43  C   UNL A   1      42.695  25.272  25.674  1.00  0.00     0.016 A 
ATOM     44  C   UNL A   1      43.200  24.404  27.903  1.00  0.00     0.016 A 
ATOM     45  C   UNL A   1      43.780  26.098  25.782  1.00  0.00     0.010 A 
ATOM     46  C   UNL A   1      44.307  25.210  27.999  1.00  0.00     0.010 A 
ATOM     47  C   UNL A   1      44.631  25.984  26.896  1.00  0.00    -0.014 A 
BRANCH  47  48
ATOM     48  C   UNL A   1      45.652  26.995  27.007  1.00  0.00     0.031 A 
ATOM     49  C   UNL A   1      46.899  26.455  26.436  1.00  0.00     0.074 A 
ATOM     50  C   UNL A   1      45.525  28.198  27.588  1.00  0.00     0.049 A 
ATOM     51  N   UNL A   1      47.832  25.875  27.115  1.00  0.00    -0.248 NA
ATOM     52  C   UNL A   1      46.971  26.228  24.985  1.00  0.00     0.031 C 
ATOM     53  C   UNL A   1      44.313  28.922  27.961  1.00  0.00     0.029 A 
ATOM     54  N   UNL A   1      46.517  29.079  27.880  1.00  0.00    -0.354 N 
ATOM     55  C   UNL A   1      48.758  25.483  26.168  1.00  0.00     0.074 A 
ATOM     56  C   UNL A   1      48.070  25.474  24.904  1.00  0.00     0.031 C 
ATOM     57  C   UNL A   1      44.635  30.217  28.198  1.00  0.00     0.029 A 
ATOM     58  C   UNL A   1      46.079  30.374  28.127  1.00  0.00     0.049 A 
ATOM     59  H   UNL A   1      47.466  28.822  27.916  1.00  0.00     0.167 HD
ATOM     60  C   UNL A   1      50.079  25.577  26.462  1.00  0.00     0.034 A 
ATOM     61  C   UNL A   1      46.864  31.481  28.180  1.00  0.00     0.034 A 
ATOM     62  C   UNL A   1      50.298  25.611  27.890  1.00  0.00     0.049 A 
ATOM     63  C   UNL A   1      48.244  31.025  28.486  1.00  0.00     0.074 A 
ATOM     64  C   UNL A   1      49.912  24.809  28.948  1.00  0.00     0.029 A 
ATOM     65  N   UNL A   1      50.629  26.827  28.440  1.00  0.00    -0.354 N 
ATOM     66  N   UNL A   1      48.586  30.504  29.630  1.00  0.00    -0.248 NA
ATOM     67  C   UNL A   1      49.128  30.728  27.370  1.00  0.00     0.031 C 
ATOM     68  C   UNL A   1      49.578  25.715  29.998  1.00  0.00     0.029 A 
ATOM     69  C   UNL A   1      49.862  27.009  29.559  1.00  0.00     0.049 A 
ATOM     70  H   UNL A   1      51.301  27.456  28.091  1.00  0.00     0.167 HD
ATOM     71  C   UNL A   1      49.407  29.439  29.281  1.00  0.00     0.074 A 
ATOM     72  C   UNL A   1      49.788  29.690  27.892  1.00  0.00     0.031 C 
ATOM     73  C   UNL A   1      49.455  28.309  30.046  1.00  0.00     0.034 A 
BRANCH  60  74
ATOM     74  C   UNL A   1      51.083  26.114  25.475  1.00  0.00     0.023 A 
ATOM     75  C   UNL A   1      52.335  25.474  25.420  1.00  0.00     0.012 A 
ATOM     76  C   UNL A   1      50.970  27.362  24.815  1.00  0.00     0.148 A 
ATOM     77  C   UNL A   1      53.427  26.067  24.777  1.00  0.00     0.002 A 
ATOM     78  C   UNL A   1      52.021  27.895  24.089  1.00  0.00     0.091 A 
ATOM     79  F   UNL A   1      49.898  28.135  25.000  1.00  0.00    -0.205 F 
ATOM     80  C   UNL A   1      53.266  27.270  24.098  1.00  0.00     0.022 A 
BRANCH  78  81
ATOM     81  S   UNL A   1      51.830  29.413  23.147  1.00  0.00     0.127 S 
ATOM     82  O   UNL A   1      51.725  30.406  24.211  1.00  0.00    -0.237 OA
ATOM     83  O   UNL A   1      53.079  29.444  22.384  1.00  0.00    -0.237 OA
ATOM     84  O   UNL A   1      50.639  29.223  22.328  1.00  0.00    -0.744 OA
ENDBRANCH  78  81
ENDBRANCH  60  74
BRANCH  61  85
ATOM     85  C   UNL A   1      46.597  32.863  27.710  1.00  0.00     0.023 A 
ATOM     86  C   UNL A   1      46.989  33.245  26.409  1.00  0.00     0.012 A 
ATOM     87  C   UNL A   1      45.701  33.705  28.404  1.00  0.00     0.148 A 
ATOM     88  C   UNL A   1      46.472  34.398  25.805  1.00  0.00     0.002 A 
ATOM     89  C   UNL A   1      45.195  34.854  27.802  1.00  0.00     0.091 A 
ATOM     90  F   UNL A   1      45.267  33.333  29.614  1.00  0.00    -0.205 F 
ATOM     91  C   UNL A   1      45.567  35.197  26.497  1.00  0.00     0.022 A 
BRANCH  89  92
ATOM     92  S   UNL A   1      44.004  35.917  28.630  1.00  0.00     0.127 S 
ATOM     93  O   UNL A   1      43.881  37.027  27.684  1.00  0.00    -0.237 OA
ATOM     94  O   UNL A   1      42.831  35.051  28.713  1.00  0.00    -0.237 OA
ATOM     95  O   UNL A   1      44.611  36.282  29.903  1.00  0.00    -0.744 OA
ENDBRANCH  89  92
ENDBRANCH  61  85
BRANCH  73  96
ATOM     96  C   UNL A   1      48.847  28.348  31.425  1.00  0.00     0.023 A 
ATOM     97  C   UNL A   1      49.533  28.830  32.560  1.00  0.00     0.012 A 
ATOM     98  C   UNL A   1      47.482  28.035  31.540  1.00  0.00     0.148 A 
ATOM     99  C   UNL A   1      48.873  28.973  33.785  1.00  0.00     0.002 A 
ATOM    100  C   UNL A   1      46.818  28.227  32.743  1.00  0.00     0.091 A 
ATOM    101  F   UNL A   1      46.846  27.575  30.452  1.00  0.00    -0.205 F 
ATOM    102  C   UNL A   1      47.512  28.686  33.873  1.00  0.00     0.022 A 
BRANCH 100 103
ATOM    103  S   UNL A   1      45.046  27.991  32.877  1.00  0.00     0.127 S 
ATOM    104  O   UNL A   1      44.857  27.917  34.324  1.00  0.00    -0.237 OA
ATOM    105  O   UNL A   1      44.519  29.204  32.251  1.00  0.00    -0.237 OA
ATOM    106  O   UNL A   1      44.747  26.768  32.142  1.00  0.00    -0.744 OA
ENDBRANCH 100 103
ENDBRANCH  73  96
ENDBRANCH  47  48
ENDBRANCH  40  42
ENDBRANCH  39  40
ENDBRANCH  38  39
ENDBRANCH  37  38
ENDBRANCH  36  37
ENDBRANCH  35  36
ENDBRANCH   1  35
TORSDOF 26
ENDMDL
