MODEL 1
REMARK VINA RESULT:     -10.6      0.000      0.000
REMARK SMILES C[C@H]1C[N@H+]2CCCC[C@@H]2CN1c1ccc(C(=O)OCCOCCOCCOCCOC(=O)c2ccc(-c3c4nc(c(-c5cccc(S(=O)(=O)[O-])c5F)c5ccc([nH]5)c(-c5cccc(S(=O)(=O)[O-])c5F)c5nc(c(-c6cccc(S(=O)(=O)[O-])c6F)c6ccc3[nH]6)C=C5)C=C4)cc2)cc1Cl
REMARK SMILES IDX 25 1 24 2 23 3 22 4 21 5 20 6 19 7 18 8 16 9 17 10 15 11
REMARK SMILES IDX 12 12 13 13 97 14 14 15 96 16 98 17 11 18 1 19 2 20 3 21
REMARK SMILES IDX 4 22 10 23 5 24 9 25 6 27 8 28 7 29 26 30 27 31 28 32 29 33
REMARK SMILES IDX 30 34 31 35 32 36 33 37 34 38 95 39 35 40 94 41 36 42 37 43
REMARK SMILES IDX 38 44 88 45 39 46 93 47 87 48 89 49 40 50 92 51 86 52 85 53
REMARK SMILES IDX 41 55 73 56 53 57 72 58 54 59 57 60 71 61 90 62 55 63 56 64
REMARK SMILES IDX 70 66 91 67 58 68 42 69 43 70 51 71 44 72 46 73 52 74 45 75
REMARK SMILES IDX 47 76 48 77 49 78 50 79 74 80 75 81 83 82 76 83 78 84 84 85
REMARK SMILES IDX 77 86 79 87 80 88 81 89 82 90 59 91 60 92 68 93 61 94 63 95
REMARK SMILES IDX 69 96 62 97 64 98 65 99 66 100 67 101
REMARK H PARENT 4 26 89 54 57 65
REMARK Flexibility Score: inf
ROOT
ATOM      1  C   UNL A   1      34.091  27.196  25.860  1.00  0.00     0.188 C 
ENDROOT
BRANCH   1   2
ATOM      2  O   UNL A   1      33.856  25.790  25.932  1.00  0.00    -0.377 OA
BRANCH   2   3
ATOM      3  C   UNL A   1      34.745  24.887  25.300  1.00  0.00     0.188 C 
BRANCH   3   4
ATOM      4  C   UNL A   1      35.450  23.855  26.203  1.00  0.00     0.188 C 
BRANCH   4   5
ATOM      5  O   UNL A   1      34.788  22.608  26.274  1.00  0.00    -0.376 OA
BRANCH   5   6
ATOM      6  C   UNL A   1      35.398  21.436  25.765  1.00  0.00     0.202 C 
BRANCH   6   7
ATOM      7  C   UNL A   1      34.619  20.361  24.987  1.00  0.00     0.261 C 
BRANCH   7   8
ATOM      8  O   UNL A   1      33.665  20.813  24.026  1.00  0.00    -0.460 OA
BRANCH   8   9
ATOM      9  C   UNL A   1      32.393  20.995  24.435  1.00  0.00     0.338 C 
ATOM     10  O   UNL A   1      31.704  20.210  25.063  1.00  0.00    -0.246 OA
BRANCH   9  11
ATOM     11  C   UNL A   1      32.042  22.414  24.186  1.00  0.00     0.061 A 
ATOM     12  C   UNL A   1      31.322  25.086  23.601  1.00  0.00     0.056 A 
ATOM     13  C   UNL A   1      31.879  24.257  22.617  1.00  0.00     0.028 A 
ATOM     14  C   UNL A   1      31.093  24.518  24.882  1.00  0.00     0.065 A 
ATOM     15  C   UNL A   1      32.244  22.937  22.904  1.00  0.00     0.018 A 
ATOM     16  C   UNL A   1      31.445  23.198  25.173  1.00  0.00     0.038 A 
ATOM     17  Cl  UNL A   1      30.328  25.425  26.148  1.00  0.00    -0.082 Cl
BRANCH  12  18
ATOM     18  N   UNL A   1      31.069  26.429  23.349  1.00  0.00    -0.356 N 
ATOM     19  C   UNL A   1      33.284  27.013  22.367  1.00  0.00     0.037 C 
ATOM     20  C   UNL A   1      32.102  27.477  23.228  1.00  0.00     0.134 C 
ATOM     21  C   UNL A   1      31.510  28.765  22.546  1.00  0.00     0.287 C 
ATOM     22  N   UNL A   1      30.125  29.178  22.891  1.00  0.00    -0.329 N 
ATOM     23  C   UNL A   1      29.784  26.911  23.884  1.00  0.00     0.182 C 
ATOM     24  C   UNL A   1      29.627  30.124  21.875  1.00  0.00     0.262 C 
ATOM     25  C   UNL A   1      29.232  27.991  22.935  1.00  0.00     0.203 C 
ATOM     26  H   UNL A   1      30.131  29.625  23.808  1.00  0.00     0.348 HD
ATOM     27  C   UNL A   1      28.204  30.594  22.182  1.00  0.00     0.062 C 
ATOM     28  C   UNL A   1      27.824  28.415  23.369  1.00  0.00     0.067 C 
ATOM     29  C   UNL A   1      27.246  29.425  22.384  1.00  0.00     0.012 C 
ENDBRANCH  12  18
ENDBRANCH   9  11
ENDBRANCH   8   9
ENDBRANCH   7   8
ENDBRANCH   6   7
ENDBRANCH   5   6
ENDBRANCH   4   5
ENDBRANCH   3   4
ENDBRANCH   2   3
ENDBRANCH   1   2
BRANCH   1  30
ATOM     30  C   UNL A   1      33.407  28.216  26.806  1.00  0.00     0.188 C 
BRANCH  30  31
ATOM     31  O   UNL A   1      33.120  29.479  26.227  1.00  0.00    -0.376 OA
BRANCH  31  32
ATOM     32  C   UNL A   1      31.878  30.085  26.536  1.00  0.00     0.202 C 
BRANCH  32  33
ATOM     33  C   UNL A   1      31.915  31.574  26.906  1.00  0.00     0.261 C 
BRANCH  33  34
ATOM     34  O   UNL A   1      33.208  32.194  26.867  1.00  0.00    -0.460 OA
BRANCH  34  35
ATOM     35  C   UNL A   1      33.425  33.199  27.739  1.00  0.00     0.338 C 
ATOM     36  O   UNL A   1      32.697  34.161  27.946  1.00  0.00    -0.246 OA
BRANCH  35  37
ATOM     37  C   UNL A   1      34.605  32.855  28.554  1.00  0.00     0.060 A 
ATOM     38  C   UNL A   1      35.880  33.107  28.032  1.00  0.00     0.016 A 
ATOM     39  C   UNL A   1      34.455  32.278  29.816  1.00  0.00     0.016 A 
ATOM     40  C   UNL A   1      37.012  32.724  28.749  1.00  0.00     0.010 A 
ATOM     41  C   UNL A   1      35.590  31.879  30.527  1.00  0.00     0.010 A 
ATOM     42  C   UNL A   1      36.870  32.055  29.972  1.00  0.00    -0.014 A 
BRANCH  42  43
ATOM     43  C   UNL A   1      38.042  31.351  30.544  1.00  0.00     0.031 A 
ATOM     44  C   UNL A   1      38.441  31.663  31.962  1.00  0.00     0.074 A 
ATOM     45  C   UNL A   1      38.718  30.427  29.840  1.00  0.00     0.049 A 
ATOM     46  N   UNL A   1      39.408  31.162  32.683  1.00  0.00    -0.248 NA
ATOM     47  C   UNL A   1      37.638  32.683  32.661  1.00  0.00     0.031 C 
ATOM     48  C   UNL A   1      38.429  30.033  28.463  1.00  0.00     0.029 A 
ATOM     49  N   UNL A   1      39.805  29.665  30.189  1.00  0.00    -0.354 N 
ATOM     50  C   UNL A   1      39.352  31.824  33.903  1.00  0.00     0.074 A 
ATOM     51  C   UNL A   1      38.266  32.774  33.823  1.00  0.00     0.031 C 
ATOM     52  C   UNL A   1      39.333  29.118  28.074  1.00  0.00     0.029 A 
ATOM     53  C   UNL A   1      40.276  28.879  29.166  1.00  0.00     0.049 A 
ATOM     54  H   UNL A   1      40.209  29.679  31.088  1.00  0.00     0.167 HD
ATOM     55  C   UNL A   1      40.128  31.651  35.000  1.00  0.00     0.034 A 
ATOM     56  C   UNL A   1      41.359  28.076  29.110  1.00  0.00     0.034 A 
ATOM     57  C   UNL A   1      41.199  30.696  35.082  1.00  0.00     0.049 A 
ATOM     58  C   UNL A   1      42.217  27.911  30.338  1.00  0.00     0.074 A 
ATOM     59  C   UNL A   1      42.008  30.405  36.166  1.00  0.00     0.029 A 
ATOM     60  N   UNL A   1      41.626  29.894  34.037  1.00  0.00    -0.354 N 
ATOM     61  N   UNL A   1      42.080  28.455  31.524  1.00  0.00    -0.248 NA
ATOM     62  C   UNL A   1      43.359  26.991  30.231  1.00  0.00     0.031 C 
ATOM     63  C   UNL A   1      42.956  29.459  35.761  1.00  0.00     0.029 A 
ATOM     64  C   UNL A   1      42.701  29.121  34.442  1.00  0.00     0.049 A 
ATOM     65  H   UNL A   1      41.225  29.876  33.138  1.00  0.00     0.167 HD
ATOM     66  C   UNL A   1      43.090  27.913  32.313  1.00  0.00     0.074 A 
ATOM     67  C   UNL A   1      43.820  26.984  31.474  1.00  0.00     0.031 C 
ATOM     68  C   UNL A   1      43.393  28.168  33.610  1.00  0.00     0.034 A 
BRANCH  55  69
ATOM     69  C   UNL A   1      39.843  32.514  36.200  1.00  0.00     0.023 A 
ATOM     70  C   UNL A   1      40.514  33.742  36.365  1.00  0.00     0.012 A 
ATOM     71  C   UNL A   1      38.875  32.124  37.147  1.00  0.00     0.148 A 
ATOM     72  C   UNL A   1      40.256  34.551  37.472  1.00  0.00     0.002 A 
ATOM     73  C   UNL A   1      38.586  32.958  38.220  1.00  0.00     0.091 A 
ATOM     74  F   UNL A   1      38.264  30.942  36.986  1.00  0.00    -0.205 F 
ATOM     75  C   UNL A   1      39.285  34.164  38.391  1.00  0.00     0.022 A 
BRANCH  73  76
ATOM     76  S   UNL A   1      37.294  32.589  39.410  1.00  0.00     0.127 S 
ATOM     77  O   UNL A   1      37.475  33.664  40.385  1.00  0.00    -0.237 OA
ATOM     78  O   UNL A   1      36.084  32.703  38.595  1.00  0.00    -0.237 OA
ATOM     79  O   UNL A   1      37.570  31.247  39.903  1.00  0.00    -0.744 OA
ENDBRANCH  73  76
ENDBRANCH  55  69
BRANCH  56  80
ATOM     80  C   UNL A   1      41.681  27.348  27.850  1.00  0.00     0.023 A 
ATOM     81  C   UNL A   1      42.165  28.056  26.733  1.00  0.00     0.012 A 
ATOM     82  C   UNL A   1      41.516  25.952  27.761  1.00  0.00     0.148 A 
ATOM     83  C   UNL A   1      42.448  27.391  25.539  1.00  0.00     0.002 A 
ATOM     84  C   UNL A   1      41.855  25.289  26.589  1.00  0.00     0.091 A 
ATOM     85  F   UNL A   1      41.039  25.301  28.830  1.00  0.00    -0.205 F 
ATOM     86  C   UNL A   1      42.303  26.008  25.469  1.00  0.00     0.022 A 
BRANCH  84  87
ATOM     87  S   UNL A   1      41.822  23.499  26.449  1.00  0.00     0.127 S 
ATOM     88  O   UNL A   1      40.387  23.227  26.429  1.00  0.00    -0.237 OA
ATOM     89  O   UNL A   1      42.506  23.287  25.173  1.00  0.00    -0.237 OA
ATOM     90  O   UNL A   1      42.542  22.998  27.611  1.00  0.00    -0.744 OA
ENDBRANCH  84  87
ENDBRANCH  56  80
BRANCH  68  91
ATOM     91  C   UNL A   1      44.530  27.395  34.231  1.00  0.00     0.023 A 
ATOM     92  C   UNL A   1      45.846  27.893  34.168  1.00  0.00     0.012 A 
ATOM     93  C   UNL A   1      44.279  26.199  34.935  1.00  0.00     0.148 A 
ATOM     94  C   UNL A   1      46.899  27.191  34.754  1.00  0.00     0.002 A 
ATOM     95  C   UNL A   1      45.324  25.535  35.565  1.00  0.00     0.091 A 
ATOM     96  F   UNL A   1      43.023  25.732  34.973  1.00  0.00    -0.205 F 
ATOM     97  C   UNL A   1      46.637  26.020  35.461  1.00  0.00     0.022 A 
BRANCH  95  98
ATOM     98  S   UNL A   1      45.064  24.077  36.581  1.00  0.00     0.127 S 
ATOM     99  O   UNL A   1      44.202  23.266  35.723  1.00  0.00    -0.237 OA
ATOM    100  O   UNL A   1      46.425  23.564  36.740  1.00  0.00    -0.237 OA
ATOM    101  O   UNL A   1      44.450  24.551  37.815  1.00  0.00    -0.744 OA
ENDBRANCH  95  98
ENDBRANCH  68  91
ENDBRANCH  42  43
ENDBRANCH  35  37
ENDBRANCH  34  35
ENDBRANCH  33  34
ENDBRANCH  32  33
ENDBRANCH  31  32
ENDBRANCH  30  31
ENDBRANCH   1  30
TORSDOF 24
ENDMDL
MODEL 2
REMARK VINA RESULT:     -10.4      2.136      2.868
REMARK SMILES C[C@H]1C[N@H+]2CCCC[C@@H]2CN1c1ccc(C(=O)OCCOCCOCCOCCOC(=O)c2ccc(-c3c4nc(c(-c5cccc(S(=O)(=O)[O-])c5F)c5ccc([nH]5)c(-c5cccc(S(=O)(=O)[O-])c5F)c5nc(c(-c6cccc(S(=O)(=O)[O-])c6F)c6ccc3[nH]6)C=C5)C=C4)cc2)cc1Cl
REMARK SMILES IDX 25 1 24 2 23 3 22 4 21 5 20 6 19 7 18 8 16 9 17 10 15 11
REMARK SMILES IDX 12 12 13 13 97 14 14 15 96 16 98 17 11 18 1 19 2 20 3 21
REMARK SMILES IDX 4 22 10 23 5 24 9 25 6 27 8 28 7 29 26 30 27 31 28 32 29 33
REMARK SMILES IDX 30 34 31 35 32 36 33 37 34 38 95 39 35 40 94 41 36 42 37 43
REMARK SMILES IDX 38 44 88 45 39 46 93 47 87 48 89 49 40 50 92 51 86 52 85 53
REMARK SMILES IDX 41 55 73 56 53 57 72 58 54 59 57 60 71 61 90 62 55 63 56 64
REMARK SMILES IDX 70 66 91 67 58 68 42 69 43 70 51 71 44 72 46 73 52 74 45 75
REMARK SMILES IDX 47 76 48 77 49 78 50 79 74 80 75 81 83 82 76 83 78 84 84 85
REMARK SMILES IDX 77 86 79 87 80 88 81 89 82 90 59 91 60 92 68 93 61 94 63 95
REMARK SMILES IDX 69 96 62 97 64 98 65 99 66 100 67 101
REMARK H PARENT 4 26 89 54 57 65
REMARK Flexibility Score: inf
ROOT
ATOM      1  C   UNL A   1      34.718  25.323  25.271  1.00  0.00     0.188 C 
ENDROOT
BRANCH   1   2
ATOM      2  O   UNL A   1      34.995  23.929  25.395  1.00  0.00    -0.377 OA
BRANCH   2   3
ATOM      3  C   UNL A   1      36.249  23.493  25.889  1.00  0.00     0.188 C 
BRANCH   3   4
ATOM      4  C   UNL A   1      36.957  22.372  25.103  1.00  0.00     0.188 C 
BRANCH   4   5
ATOM      5  O   UNL A   1      36.755  21.079  25.640  1.00  0.00    -0.376 OA
BRANCH   5   6
ATOM      6  C   UNL A   1      36.074  20.085  24.896  1.00  0.00     0.202 C 
BRANCH   6   7
ATOM      7  C   UNL A   1      34.540  19.967  24.868  1.00  0.00     0.261 C 
BRANCH   7   8
ATOM      8  O   UNL A   1      33.819  20.987  24.176  1.00  0.00    -0.460 OA
BRANCH   8   9
ATOM      9  C   UNL A   1      32.495  21.092  24.406  1.00  0.00     0.338 C 
ATOM     10  O   UNL A   1      31.765  20.247  24.895  1.00  0.00    -0.246 OA
BRANCH   9  11
ATOM     11  C   UNL A   1      32.110  22.504  24.169  1.00  0.00     0.061 A 
ATOM     12  C   UNL A   1      31.336  25.165  23.605  1.00  0.00     0.056 A 
ATOM     13  C   UNL A   1      31.996  24.387  22.643  1.00  0.00     0.028 A 
ATOM     14  C   UNL A   1      31.033  24.551  24.848  1.00  0.00     0.065 A 
ATOM     15  C   UNL A   1      32.389  23.073  22.921  1.00  0.00     0.018 A 
ATOM     16  C   UNL A   1      31.412  23.237  25.129  1.00  0.00     0.038 A 
ATOM     17  Cl  UNL A   1      30.142  25.393  26.076  1.00  0.00    -0.082 Cl
BRANCH  12  18
ATOM     18  N   UNL A   1      31.052  26.506  23.370  1.00  0.00    -0.356 N 
ATOM     19  C   UNL A   1      33.272  27.166  22.449  1.00  0.00     0.037 C 
ATOM     20  C   UNL A   1      32.059  27.583  23.291  1.00  0.00     0.134 C 
ATOM     21  C   UNL A   1      31.448  28.868  22.619  1.00  0.00     0.287 C 
ATOM     22  N   UNL A   1      30.045  29.236  22.940  1.00  0.00    -0.329 N 
ATOM     23  C   UNL A   1      29.744  26.944  23.884  1.00  0.00     0.182 C 
ATOM     24  C   UNL A   1      29.544  30.188  21.930  1.00  0.00     0.262 C 
ATOM     25  C   UNL A   1      29.184  28.026  22.943  1.00  0.00     0.203 C 
ATOM     26  H   UNL A   1      30.019  29.666  23.865  1.00  0.00     0.348 HD
ATOM     27  C   UNL A   1      28.102  30.614  22.213  1.00  0.00     0.062 C 
ATOM     28  C   UNL A   1      27.755  28.404  23.352  1.00  0.00     0.067 C 
ATOM     29  C   UNL A   1      27.172  29.415  22.372  1.00  0.00     0.012 C 
ENDBRANCH  12  18
ENDBRANCH   9  11
ENDBRANCH   8   9
ENDBRANCH   7   8
ENDBRANCH   6   7
ENDBRANCH   5   6
ENDBRANCH   4   5
ENDBRANCH   3   4
ENDBRANCH   2   3
ENDBRANCH   1   2
BRANCH   1  30
ATOM     30  C   UNL A   1      33.688  26.063  26.161  1.00  0.00     0.188 C 
BRANCH  30  31
ATOM     31  O   UNL A   1      33.877  27.465  26.267  1.00  0.00    -0.376 OA
BRANCH  31  32
ATOM     32  C   UNL A   1      32.845  28.233  26.859  1.00  0.00     0.202 C 
BRANCH  32  33
ATOM     33  C   UNL A   1      33.113  29.735  27.018  1.00  0.00     0.261 C 
BRANCH  33  34
ATOM     34  O   UNL A   1      34.493  30.118  27.095  1.00  0.00    -0.460 OA
BRANCH  34  35
ATOM     35  C   UNL A   1      34.799  31.114  27.951  1.00  0.00     0.338 C 
ATOM     36  O   UNL A   1      34.102  32.079  28.233  1.00  0.00    -0.246 OA
BRANCH  35  37
ATOM     37  C   UNL A   1      36.048  30.754  28.647  1.00  0.00     0.060 A 
ATOM     38  C   UNL A   1      37.201  31.509  28.395  1.00  0.00     0.016 A 
ATOM     39  C   UNL A   1      36.084  29.675  29.533  1.00  0.00     0.016 A 
ATOM     40  C   UNL A   1      38.411  31.145  28.983  1.00  0.00     0.010 A 
ATOM     41  C   UNL A   1      37.302  29.302  30.109  1.00  0.00     0.010 A 
ATOM     42  C   UNL A   1      38.478  30.005  29.794  1.00  0.00    -0.014 A 
BRANCH  42  43
ATOM     43  C   UNL A   1      39.806  29.434  30.120  1.00  0.00     0.031 A 
ATOM     44  C   UNL A   1      40.591  30.050  31.249  1.00  0.00     0.074 A 
ATOM     45  C   UNL A   1      40.295  28.371  29.459  1.00  0.00     0.049 A 
ATOM     46  N   UNL A   1      41.757  29.711  31.732  1.00  0.00    -0.248 NA
ATOM     47  C   UNL A   1      39.975  31.207  31.923  1.00  0.00     0.031 C 
ATOM     48  C   UNL A   1      39.632  27.684  28.353  1.00  0.00     0.029 A 
ATOM     49  N   UNL A   1      41.479  27.695  29.616  1.00  0.00    -0.354 N 
ATOM     50  C   UNL A   1      42.029  30.628  32.740  1.00  0.00     0.074 A 
ATOM     51  C   UNL A   1      40.914  31.546  32.792  1.00  0.00     0.031 C 
ATOM     52  C   UNL A   1      40.431  26.697  27.913  1.00  0.00     0.029 A 
ATOM     53  C   UNL A   1      41.669  26.697  28.691  1.00  0.00     0.049 A 
ATOM     54  H   UNL A   1      42.131  27.904  30.325  1.00  0.00     0.167 HD
ATOM     55  C   UNL A   1      43.105  30.694  33.559  1.00  0.00     0.034 A 
ATOM     56  C   UNL A   1      42.730  25.892  28.483  1.00  0.00     0.034 A 
ATOM     57  C   UNL A   1      44.206  29.772  33.515  1.00  0.00     0.049 A 
ATOM     58  C   UNL A   1      43.924  25.994  29.397  1.00  0.00     0.074 A 
ATOM     59  C   UNL A   1      45.317  29.720  34.338  1.00  0.00     0.029 A 
ATOM     60  N   UNL A   1      44.348  28.754  32.586  1.00  0.00    -0.354 N 
ATOM     61  N   UNL A   1      44.115  26.789  30.424  1.00  0.00    -0.248 NA
ATOM     62  C   UNL A   1      45.034  25.063  29.148  1.00  0.00     0.031 C 
ATOM     63  C   UNL A   1      46.154  28.700  33.876  1.00  0.00     0.029 A 
ATOM     64  C   UNL A   1      45.538  28.079  32.801  1.00  0.00     0.049 A 
ATOM     65  H   UNL A   1      43.699  28.540  31.877  1.00  0.00     0.167 HD
ATOM     66  C   UNL A   1      45.344  26.426  30.965  1.00  0.00     0.074 A 
ATOM     67  C   UNL A   1      45.844  25.328  30.164  1.00  0.00     0.031 C 
ATOM     68  C   UNL A   1      46.005  26.959  32.023  1.00  0.00     0.034 A 
BRANCH  55  69
ATOM     69  C   UNL A   1      43.141  31.806  34.575  1.00  0.00     0.023 A 
ATOM     70  C   UNL A   1      43.726  33.046  34.250  1.00  0.00     0.012 A 
ATOM     71  C   UNL A   1      42.555  31.631  35.845  1.00  0.00     0.148 A 
ATOM     72  C   UNL A   1      43.762  34.082  35.182  1.00  0.00     0.002 A 
ATOM     73  C   UNL A   1      42.550  32.684  36.751  1.00  0.00     0.091 A 
ATOM     74  F   UNL A   1      42.025  30.437  36.145  1.00  0.00    -0.205 F 
ATOM     75  C   UNL A   1      43.165  33.904  36.427  1.00  0.00     0.022 A 
BRANCH  73  76
ATOM     76  S   UNL A   1      41.733  32.582  38.347  1.00  0.00     0.127 S 
ATOM     77  O   UNL A   1      41.917  33.939  38.860  1.00  0.00    -0.237 OA
ATOM     78  O   UNL A   1      40.358  32.256  37.966  1.00  0.00    -0.237 OA
ATOM     79  O   UNL A   1      42.422  31.536  39.088  1.00  0.00    -0.744 OA
ENDBRANCH  73  76
ENDBRANCH  55  69
BRANCH  56  80
ATOM     80  C   UNL A   1      42.704  24.900  27.371  1.00  0.00     0.023 A 
ATOM     81  C   UNL A   1      43.279  25.223  26.126  1.00  0.00     0.012 A 
ATOM     82  C   UNL A   1      42.118  23.631  27.549  1.00  0.00     0.148 A 
ATOM     83  C   UNL A   1      43.240  24.313  25.068  1.00  0.00     0.002 A 
ATOM     84  C   UNL A   1      42.135  22.709  26.510  1.00  0.00     0.091 A 
ATOM     85  F   UNL A   1      41.563  23.351  28.736  1.00  0.00    -0.205 F 
ATOM     86  C   UNL A   1      42.678  23.054  25.263  1.00  0.00     0.022 A 
BRANCH  84  87
ATOM     87  S   UNL A   1      41.550  21.023  26.708  1.00  0.00     0.127 S 
ATOM     88  O   UNL A   1      42.107  20.664  28.011  1.00  0.00    -0.237 OA
ATOM     89  O   UNL A   1      40.099  21.206  26.688  1.00  0.00    -0.237 OA
ATOM     90  O   UNL A   1      42.082  20.284  25.571  1.00  0.00    -0.744 OA
ENDBRANCH  84  87
ENDBRANCH  56  80
BRANCH  68  91
ATOM     91  C   UNL A   1      47.318  26.332  32.420  1.00  0.00     0.023 A 
ATOM     92  C   UNL A   1      48.529  26.830  31.899  1.00  0.00     0.012 A 
ATOM     93  C   UNL A   1      47.352  25.284  33.363  1.00  0.00     0.148 A 
ATOM     94  C   UNL A   1      49.748  26.264  32.274  1.00  0.00     0.002 A 
ATOM     95  C   UNL A   1      48.573  24.765  33.775  1.00  0.00     0.091 A 
ATOM     96  F   UNL A   1      46.190  24.814  33.838  1.00  0.00    -0.205 F 
ATOM     97  C   UNL A   1      49.770  25.242  33.219  1.00  0.00     0.022 A 
BRANCH  95  98
ATOM     98  S   UNL A   1      48.703  23.518  35.061  1.00  0.00     0.127 S 
ATOM     99  O   UNL A   1      50.112  23.625  35.437  1.00  0.00    -0.237 OA
ATOM    100  O   UNL A   1      47.763  24.012  36.068  1.00  0.00    -0.237 OA
ATOM    101  O   UNL A   1      48.317  22.258  34.441  1.00  0.00    -0.744 OA
ENDBRANCH  95  98
ENDBRANCH  68  91
ENDBRANCH  42  43
ENDBRANCH  35  37
ENDBRANCH  34  35
ENDBRANCH  33  34
ENDBRANCH  32  33
ENDBRANCH  31  32
ENDBRANCH  30  31
ENDBRANCH   1  30
TORSDOF 24
ENDMDL
MODEL 3
REMARK VINA RESULT:      -9.0      6.009     10.848
REMARK SMILES C[C@H]1C[N@H+]2CCCC[C@@H]2CN1c1ccc(C(=O)OCCOCCOCCOCCOC(=O)c2ccc(-c3c4nc(c(-c5cccc(S(=O)(=O)[O-])c5F)c5ccc([nH]5)c(-c5cccc(S(=O)(=O)[O-])c5F)c5nc(c(-c6cccc(S(=O)(=O)[O-])c6F)c6ccc3[nH]6)C=C5)C=C4)cc2)cc1Cl
REMARK SMILES IDX 25 1 24 2 23 3 22 4 21 5 20 6 19 7 18 8 16 9 17 10 15 11
REMARK SMILES IDX 12 12 13 13 97 14 14 15 96 16 98 17 11 18 1 19 2 20 3 21
REMARK SMILES IDX 4 22 10 23 5 24 9 25 6 27 8 28 7 29 26 30 27 31 28 32 29 33
REMARK SMILES IDX 30 34 31 35 32 36 33 37 34 38 95 39 35 40 94 41 36 42 37 43
REMARK SMILES IDX 38 44 88 45 39 46 93 47 87 48 89 49 40 50 92 51 86 52 85 53
REMARK SMILES IDX 41 55 73 56 53 57 72 58 54 59 57 60 71 61 90 62 55 63 56 64
REMARK SMILES IDX 70 66 91 67 58 68 42 69 43 70 51 71 44 72 46 73 52 74 45 75
REMARK SMILES IDX 47 76 48 77 49 78 50 79 74 80 75 81 83 82 76 83 78 84 84 85
REMARK SMILES IDX 77 86 79 87 80 88 81 89 82 90 59 91 60 92 68 93 61 94 63 95
REMARK SMILES IDX 69 96 62 97 64 98 65 99 66 100 67 101
REMARK H PARENT 4 26 89 54 57 65
REMARK Flexibility Score: inf
ROOT
ATOM      1  C   UNL A   1      34.048  35.761  32.413  1.00  0.00     0.188 C 
ENDROOT
BRANCH   1   2
ATOM      2  O   UNL A   1      33.259  35.032  31.474  1.00  0.00    -0.377 OA
BRANCH   2   3
ATOM      3  C   UNL A   1      33.553  35.101  30.090  1.00  0.00     0.188 C 
BRANCH   3   4
ATOM      4  C   UNL A   1      33.979  33.790  29.401  1.00  0.00     0.188 C 
BRANCH   4   5
ATOM      5  O   UNL A   1      35.267  33.338  29.773  1.00  0.00    -0.376 OA
BRANCH   5   6
ATOM      6  C   UNL A   1      35.577  31.957  29.772  1.00  0.00     0.202 C 
BRANCH   6   7
ATOM      7  C   UNL A   1      36.437  31.293  30.861  1.00  0.00     0.261 C 
BRANCH   7   8
ATOM      8  O   UNL A   1      37.385  30.313  30.438  1.00  0.00    -0.460 OA
BRANCH   8   9
ATOM      9  C   UNL A   1      38.642  30.724  30.173  1.00  0.00     0.338 C 
ATOM     10  O   UNL A   1      39.140  31.799  30.458  1.00  0.00    -0.246 OA
BRANCH   9  11
ATOM     11  C   UNL A   1      39.398  29.552  29.668  1.00  0.00     0.061 A 
ATOM     12  C   UNL A   1      40.732  27.264  28.676  1.00  0.00     0.056 A 
ATOM     13  C   UNL A   1      39.572  27.141  29.454  1.00  0.00     0.028 A 
ATOM     14  C   UNL A   1      41.179  28.576  28.371  1.00  0.00     0.065 A 
ATOM     15  C   UNL A   1      38.914  28.270  29.954  1.00  0.00     0.018 A 
ATOM     16  C   UNL A   1      40.522  29.707  28.857  1.00  0.00     0.038 A 
ATOM     17  Cl  UNL A   1      42.552  28.845  27.343  1.00  0.00    -0.082 Cl
BRANCH  12  18
ATOM     18  N   UNL A   1      41.451  26.142  28.279  1.00  0.00    -0.356 N 
ATOM     19  C   UNL A   1      39.815  25.259  26.619  1.00  0.00     0.037 C 
ATOM     20  C   UNL A   1      40.862  24.924  27.689  1.00  0.00     0.134 C 
ATOM     21  C   UNL A   1      41.971  24.050  26.994  1.00  0.00     0.287 C 
ATOM     22  N   UNL A   1      43.302  23.945  27.644  1.00  0.00    -0.329 N 
ATOM     23  C   UNL A   1      42.671  25.898  29.068  1.00  0.00     0.182 C 
ATOM     24  C   UNL A   1      44.288  23.449  26.666  1.00  0.00     0.262 C 
ATOM     25  C   UNL A   1      43.734  25.275  28.145  1.00  0.00     0.203 C 
ATOM     26  H   UNL A   1      43.237  23.298  28.430  1.00  0.00     0.348 HD
ATOM     27  C   UNL A   1      45.682  23.310  27.282  1.00  0.00     0.062 C 
ATOM     28  C   UNL A   1      45.072  25.143  28.884  1.00  0.00     0.067 C 
ATOM     29  C   UNL A   1      46.146  24.602  27.947  1.00  0.00     0.012 C 
ENDBRANCH  12  18
ENDBRANCH   9  11
ENDBRANCH   8   9
ENDBRANCH   7   8
ENDBRANCH   6   7
ENDBRANCH   5   6
ENDBRANCH   4   5
ENDBRANCH   3   4
ENDBRANCH   2   3
ENDBRANCH   1   2
BRANCH   1  30
ATOM     30  C   UNL A   1      34.829  35.083  33.567  1.00  0.00     0.188 C 
BRANCH  30  31
ATOM     31  O   UNL A   1      34.665  33.677  33.665  1.00  0.00    -0.376 OA
BRANCH  31  32
ATOM     32  C   UNL A   1      35.818  32.885  33.881  1.00  0.00     0.202 C 
BRANCH  32  33
ATOM     33  C   UNL A   1      36.884  33.467  34.820  1.00  0.00     0.261 C 
BRANCH  33  34
ATOM     34  O   UNL A   1      38.245  33.183  34.469  1.00  0.00    -0.460 OA
BRANCH  34  35
ATOM     35  C   UNL A   1      39.021  32.649  35.434  1.00  0.00     0.338 C 
ATOM     36  O   UNL A   1      38.801  32.651  36.637  1.00  0.00    -0.246 OA
BRANCH  35  37
ATOM     37  C   UNL A   1      40.101  31.883  34.784  1.00  0.00     0.060 A 
ATOM     38  C   UNL A   1      41.429  32.175  35.118  1.00  0.00     0.016 A 
ATOM     39  C   UNL A   1      39.806  30.893  33.844  1.00  0.00     0.016 A 
ATOM     40  C   UNL A   1      42.470  31.519  34.465  1.00  0.00     0.010 A 
ATOM     41  C   UNL A   1      40.851  30.247  33.178  1.00  0.00     0.010 A 
ATOM     42  C   UNL A   1      42.185  30.595  33.451  1.00  0.00    -0.014 A 
BRANCH  42  43
ATOM     43  C   UNL A   1      43.275  30.174  32.538  1.00  0.00     0.031 A 
ATOM     44  C   UNL A   1      44.123  28.995  32.934  1.00  0.00     0.074 A 
ATOM     45  C   UNL A   1      43.488  30.796  31.366  1.00  0.00     0.049 A 
ATOM     46  N   UNL A   1      45.111  28.429  32.293  1.00  0.00    -0.248 NA
ATOM     47  C   UNL A   1      43.812  28.368  34.232  1.00  0.00     0.031 C 
ATOM     48  C   UNL A   1      42.734  31.945  30.868  1.00  0.00     0.029 A 
ATOM     49  N   UNL A   1      44.421  30.554  30.389  1.00  0.00    -0.354 N 
ATOM     50  C   UNL A   1      45.561  27.407  33.119  1.00  0.00     0.074 A 
ATOM     51  C   UNL A   1      44.749  27.436  34.314  1.00  0.00     0.031 C 
ATOM     52  C   UNL A   1      43.252  32.325  29.687  1.00  0.00     0.029 A 
ATOM     53  C   UNL A   1      44.384  31.461  29.357  1.00  0.00     0.049 A 
ATOM     54  H   UNL A   1      45.056  29.802  30.423  1.00  0.00     0.167 HD
ATOM     55  C   UNL A   1      46.555  26.513  32.900  1.00  0.00     0.034 A 
ATOM     56  C   UNL A   1      45.188  31.591  28.282  1.00  0.00     0.034 A 
ATOM     57  C   UNL A   1      47.352  26.477  31.705  1.00  0.00     0.049 A 
ATOM     58  C   UNL A   1      46.298  30.595  28.067  1.00  0.00     0.074 A 
ATOM     59  C   UNL A   1      48.346  25.577  31.362  1.00  0.00     0.029 A 
ATOM     60  N   UNL A   1      47.265  27.391  30.667  1.00  0.00    -0.354 N 
ATOM     61  N   UNL A   1      46.636  29.559  28.799  1.00  0.00    -0.248 NA
ATOM     62  C   UNL A   1      47.116  30.762  26.856  1.00  0.00     0.031 C 
ATOM     63  C   UNL A   1      48.892  25.976  30.138  1.00  0.00     0.029 A 
ATOM     64  C   UNL A   1      48.200  27.090  29.691  1.00  0.00     0.049 A 
ATOM     65  H   UNL A   1      46.632  28.143  30.629  1.00  0.00     0.167 HD
ATOM     66  C   UNL A   1      47.674  28.931  28.118  1.00  0.00     0.074 A 
ATOM     67  C   UNL A   1      47.897  29.692  26.906  1.00  0.00     0.031 C 
ATOM     68  C   UNL A   1      48.385  27.830  28.468  1.00  0.00     0.034 A 
BRANCH  55  69
ATOM     69  C   UNL A   1      46.833  25.500  33.979  1.00  0.00     0.023 A 
ATOM     70  C   UNL A   1      47.755  25.791  35.004  1.00  0.00     0.012 A 
ATOM     71  C   UNL A   1      46.146  24.269  33.997  1.00  0.00     0.148 A 
ATOM     72  C   UNL A   1      48.018  24.861  36.009  1.00  0.00     0.002 A 
ATOM     73  C   UNL A   1      46.376  23.369  35.029  1.00  0.00     0.091 A 
ATOM     74  F   UNL A   1      45.292  24.000  33.000  1.00  0.00    -0.205 F 
ATOM     75  C   UNL A   1      47.321  23.656  36.027  1.00  0.00     0.022 A 
BRANCH  73  76
ATOM     76  S   UNL A   1      45.467  21.828  35.187  1.00  0.00     0.127 S 
ATOM     77  O   UNL A   1      44.090  22.276  34.984  1.00  0.00    -0.237 OA
ATOM     78  O   UNL A   1      46.018  21.034  34.088  1.00  0.00    -0.237 OA
ATOM     79  O   UNL A   1      45.767  21.316  36.516  1.00  0.00    -0.744 OA
ENDBRANCH  73  76
ENDBRANCH  55  69
BRANCH  56  80
ATOM     80  C   UNL A   1      44.960  32.700  27.312  1.00  0.00     0.023 A 
ATOM     81  C   UNL A   1      44.256  32.454  26.118  1.00  0.00     0.012 A 
ATOM     82  C   UNL A   1      45.432  34.000  27.578  1.00  0.00     0.148 A 
ATOM     83  C   UNL A   1      44.055  33.477  25.188  1.00  0.00     0.002 A 
ATOM     84  C   UNL A   1      45.178  35.026  26.676  1.00  0.00     0.091 A 
ATOM     85  F   UNL A   1      46.113  34.207  28.713  1.00  0.00    -0.205 F 
ATOM     86  C   UNL A   1      44.507  34.764  25.472  1.00  0.00     0.022 A 
BRANCH  84  87
ATOM     87  S   UNL A   1      45.609  36.736  27.015  1.00  0.00     0.127 S 
ATOM     88  O   UNL A   1      44.347  37.265  27.528  1.00  0.00    -0.237 OA
ATOM     89  O   UNL A   1      46.666  36.585  28.015  1.00  0.00    -0.237 OA
ATOM     90  O   UNL A   1      46.054  37.291  25.744  1.00  0.00    -0.744 OA
ENDBRANCH  84  87
ENDBRANCH  56  80
BRANCH  68  91
ATOM     91  C   UNL A   1      49.439  27.340  27.508  1.00  0.00     0.023 A 
ATOM     92  C   UNL A   1      49.119  26.378  26.530  1.00  0.00     0.012 A 
ATOM     93  C   UNL A   1      50.740  27.885  27.538  1.00  0.00     0.148 A 
ATOM     94  C   UNL A   1      50.086  25.933  25.628  1.00  0.00     0.002 A 
ATOM     95  C   UNL A   1      51.682  27.480  26.601  1.00  0.00     0.091 A 
ATOM     96  F   UNL A   1      51.032  28.789  28.484  1.00  0.00    -0.205 F 
ATOM     97  C   UNL A   1      51.362  26.492  25.657  1.00  0.00     0.022 A 
BRANCH  95  98
ATOM     98  S   UNL A   1      53.316  28.217  26.497  1.00  0.00     0.127 S 
ATOM     99  O   UNL A   1      53.047  29.430  25.726  1.00  0.00    -0.237 OA
ATOM    100  O   UNL A   1      53.641  28.448  27.905  1.00  0.00    -0.237 OA
ATOM    101  O   UNL A   1      54.161  27.231  25.836  1.00  0.00    -0.744 OA
ENDBRANCH  95  98
ENDBRANCH  68  91
ENDBRANCH  42  43
ENDBRANCH  35  37
ENDBRANCH  34  35
ENDBRANCH  33  34
ENDBRANCH  32  33
ENDBRANCH  31  32
ENDBRANCH  30  31
ENDBRANCH   1  30
TORSDOF 24
ENDMDL
