MODEL 1
REMARK VINA RESULT:      -6.9      0.000      0.000
REMARK SMILES CC[C@@](C)(NC(=O)CCc1ccc(OC)c(Br)c1)C(=O)OCCOCCOCCOCCOC(=O)c1ccc(-c2c3nc(c(-c4cccc(S(=O)(=O)[O-])c4F)c4ccc([nH]4)c(-c4cccc(S(=O)(=O)[O-])c4F)c4nc(c(-c5cccc(S(=O)(=O)[O-])c5F)c5ccc2[nH]5)C=C4)C=C3)cc1
REMARK SMILES IDX 26 1 25 2 24 3 23 4 22 5 21 6 19 7 20 8 3 9 4 10 2 11 1 12
REMARK SMILES IDX 5 13 6 14 7 16 8 17 9 18 10 19 11 20 18 21 12 22 16 23 13 24
REMARK SMILES IDX 17 25 14 26 15 27 27 28 28 29 29 30 30 31 31 32 32 33 33 34
REMARK SMILES IDX 34 35 35 36 36 37 37 38 98 39 38 40 97 41 39 42 40 43 41 44
REMARK SMILES IDX 91 45 42 46 96 47 90 48 92 49 43 50 95 51 89 52 88 53 44 55
REMARK SMILES IDX 76 56 56 57 75 58 57 59 60 60 74 61 93 62 58 63 59 64 73 66
REMARK SMILES IDX 94 67 61 68 45 69 46 70 54 71 47 72 49 73 55 74 48 75 50 76
REMARK SMILES IDX 51 77 52 78 53 79 77 80 78 81 86 82 79 83 81 84 87 85 80 86
REMARK SMILES IDX 82 87 83 88 84 89 85 90 62 91 63 92 71 93 64 94 66 95 72 96
REMARK SMILES IDX 65 97 67 98 68 99 69 100 70 101
REMARK H PARENT 5 15 92 54 60 65
REMARK Flexibility Score: inf
ROOT
ATOM      1  C   UNL A   1      33.744  36.961  33.159  1.00  0.00     0.188 C 
ENDROOT
BRANCH   1   2
ATOM      2  C   UNL A   1      33.345  37.197  31.670  1.00  0.00     0.188 C 
BRANCH   2   3
ATOM      3  O   UNL A   1      32.899  36.330  30.604  1.00  0.00    -0.376 OA
BRANCH   3   4
ATOM      4  C   UNL A   1      33.222  36.066  29.213  1.00  0.00     0.202 C 
BRANCH   4   5
ATOM      5  C   UNL A   1      33.205  34.594  28.449  1.00  0.00     0.261 C 
BRANCH   5   6
ATOM      6  O   UNL A   1      33.926  33.467  29.130  1.00  0.00    -0.462 OA
BRANCH   6   7
ATOM      7  C   UNL A   1      35.090  33.528  29.882  1.00  0.00     0.331 C 
ATOM      8  O   UNL A   1      35.184  34.202  30.902  1.00  0.00    -0.249 OA
BRANCH   7   9
ATOM      9  C   UNL A   1      36.348  32.652  29.270  1.00  0.00     0.135 C 
ATOM     10  C   UNL A   1      35.736  31.923  28.056  1.00  0.00     0.047 C 
BRANCH   9  11
ATOM     11  C   UNL A   1      37.740  33.236  28.755  1.00  0.00     0.037 C 
ATOM     12  C   UNL A   1      38.821  33.904  29.597  1.00  0.00     0.007 C 
ENDBRANCH   9  11
BRANCH   9  13
ATOM     13  N   UNL A   1      36.828  31.636  30.242  1.00  0.00    -0.340 N 
ATOM     14  C   UNL A   1      36.627  30.297  30.028  1.00  0.00     0.221 C 
ATOM     15  H   UNL A   1      37.297  31.929  31.057  1.00  0.00     0.164 HD
ATOM     16  O   UNL A   1      36.027  29.633  30.870  1.00  0.00    -0.275 OA
BRANCH  14  17
ATOM     17  C   UNL A   1      37.220  29.673  28.804  1.00  0.00     0.105 C 
BRANCH  17  18
ATOM     18  C   UNL A   1      38.745  29.363  28.647  1.00  0.00     0.045 C 
BRANCH  18  19
ATOM     19  C   UNL A   1      39.684  28.152  28.483  1.00  0.00    -0.046 A 
ATOM     20  C   UNL A   1      39.287  27.030  27.788  1.00  0.00     0.007 A 
ATOM     21  C   UNL A   1      40.943  27.996  29.101  1.00  0.00     0.023 A 
ATOM     22  C   UNL A   1      40.217  26.045  27.391  1.00  0.00     0.048 A 
ATOM     23  C   UNL A   1      41.868  26.995  28.792  1.00  0.00     0.060 A 
ATOM     24  C   UNL A   1      41.535  26.075  27.833  1.00  0.00     0.133 A 
ATOM     25  Br  UNL A   1      43.548  26.960  29.680  1.00  0.00    -0.047 Br
BRANCH  24  26
ATOM     26  O   UNL A   1      42.526  25.329  27.273  1.00  0.00    -0.496 OA
ATOM     27  C   UNL A   1      42.400  23.943  27.516  1.00  0.00     0.278 C 
ENDBRANCH  24  26
ENDBRANCH  18  19
ENDBRANCH  17  18
ENDBRANCH  14  17
ENDBRANCH   9  13
ENDBRANCH   7   9
ENDBRANCH   6   7
ENDBRANCH   5   6
ENDBRANCH   4   5
ENDBRANCH   3   4
ENDBRANCH   2   3
ENDBRANCH   1   2
BRANCH   1  28
ATOM     28  O   UNL A   1      34.816  36.082  33.440  1.00  0.00    -0.377 OA
BRANCH  28  29
ATOM     29  C   UNL A   1      34.452  34.794  33.890  1.00  0.00     0.188 C 
BRANCH  29  30
ATOM     30  C   UNL A   1      35.640  33.988  34.414  1.00  0.00     0.188 C 
BRANCH  30  31
ATOM     31  O   UNL A   1      36.086  32.806  33.750  1.00  0.00    -0.376 OA
BRANCH  31  32
ATOM     32  C   UNL A   1      37.463  32.466  33.707  1.00  0.00     0.202 C 
BRANCH  32  33
ATOM     33  C   UNL A   1      37.790  30.965  33.712  1.00  0.00     0.261 C 
BRANCH  33  34
ATOM     34  O   UNL A   1      38.607  30.522  32.622  1.00  0.00    -0.460 OA
BRANCH  34  35
ATOM     35  C   UNL A   1      39.927  30.438  32.918  1.00  0.00     0.338 C 
ATOM     36  O   UNL A   1      40.471  29.639  33.655  1.00  0.00    -0.246 OA
BRANCH  35  37
ATOM     37  C   UNL A   1      40.681  31.421  32.121  1.00  0.00     0.060 A 
ATOM     38  C   UNL A   1      40.898  31.144  30.767  1.00  0.00     0.016 A 
ATOM     39  C   UNL A   1      41.305  32.508  32.737  1.00  0.00     0.016 A 
ATOM     40  C   UNL A   1      41.806  31.904  30.041  1.00  0.00     0.010 A 
ATOM     41  C   UNL A   1      42.235  33.259  32.012  1.00  0.00     0.010 A 
ATOM     42  C   UNL A   1      42.533  32.912  30.682  1.00  0.00    -0.014 A 
BRANCH  42  43
ATOM     43  C   UNL A   1      43.758  33.409  30.015  1.00  0.00     0.031 A 
ATOM     44  C   UNL A   1      44.865  32.431  29.723  1.00  0.00     0.074 A 
ATOM     45  C   UNL A   1      43.837  34.681  29.590  1.00  0.00     0.049 A 
ATOM     46  N   UNL A   1      45.993  32.622  29.091  1.00  0.00    -0.248 NA
ATOM     47  C   UNL A   1      44.672  31.051  30.203  1.00  0.00     0.031 C 
ATOM     48  C   UNL A   1      42.817  35.707  29.800  1.00  0.00     0.029 A 
ATOM     49  N   UNL A   1      44.829  35.324  28.896  1.00  0.00    -0.354 N 
ATOM     50  C   UNL A   1      46.648  31.396  29.108  1.00  0.00     0.074 A 
ATOM     51  C   UNL A   1      45.806  30.474  29.836  1.00  0.00     0.031 C 
ATOM     52  C   UNL A   1      43.250  36.864  29.268  1.00  0.00     0.029 A 
ATOM     53  C   UNL A   1      44.579  36.660  28.696  1.00  0.00     0.049 A 
ATOM     54  H   UNL A   1      45.642  34.872  28.572  1.00  0.00     0.167 HD
ATOM     55  C   UNL A   1      47.834  31.061  28.547  1.00  0.00     0.034 A 
ATOM     56  C   UNL A   1      45.349  37.611  28.132  1.00  0.00     0.034 A 
ATOM     57  C   UNL A   1      48.662  31.979  27.813  1.00  0.00     0.049 A 
ATOM     58  C   UNL A   1      46.675  37.218  27.537  1.00  0.00     0.074 A 
ATOM     59  C   UNL A   1      49.876  31.740  27.194  1.00  0.00     0.029 A 
ATOM     60  N   UNL A   1      48.364  33.317  27.606  1.00  0.00    -0.354 N 
ATOM     61  N   UNL A   1      47.238  36.035  27.478  1.00  0.00    -0.248 NA
ATOM     62  C   UNL A   1      47.452  38.284  26.889  1.00  0.00     0.031 C 
ATOM     63  C   UNL A   1      50.323  32.940  26.632  1.00  0.00     0.029 A 
ATOM     64  C   UNL A   1      49.372  33.920  26.873  1.00  0.00     0.049 A 
ATOM     65  H   UNL A   1      47.555  33.773  27.933  1.00  0.00     0.167 HD
ATOM     66  C   UNL A   1      48.421  36.208  26.765  1.00  0.00     0.074 A 
ATOM     67  C   UNL A   1      48.471  37.604  26.384  1.00  0.00     0.031 C 
ATOM     68  C   UNL A   1      49.386  35.302  26.469  1.00  0.00     0.034 A 
BRANCH  55  69
ATOM     69  C   UNL A   1      48.292  29.630  28.683  1.00  0.00     0.023 A 
ATOM     70  C   UNL A   1      49.016  29.236  29.827  1.00  0.00     0.012 A 
ATOM     71  C   UNL A   1      47.967  28.669  27.705  1.00  0.00     0.148 A 
ATOM     72  C   UNL A   1      49.434  27.914  29.983  1.00  0.00     0.002 A 
ATOM     73  C   UNL A   1      48.348  27.345  27.889  1.00  0.00     0.091 A 
ATOM     74  F   UNL A   1      47.299  29.069  26.614  1.00  0.00    -0.205 F 
ATOM     75  C   UNL A   1      49.091  26.969  29.020  1.00  0.00     0.022 A 
BRANCH  73  76
ATOM     76  S   UNL A   1      47.892  26.036  26.749  1.00  0.00     0.127 S 
ATOM     77  O   UNL A   1      46.474  26.318  26.525  1.00  0.00    -0.237 OA
ATOM     78  O   UNL A   1      48.756  26.313  25.602  1.00  0.00    -0.237 OA
ATOM     79  O   UNL A   1      48.175  24.783  27.437  1.00  0.00    -0.744 OA
ENDBRANCH  73  76
ENDBRANCH  55  69
BRANCH  56  80
ATOM     80  C   UNL A   1      44.875  39.023  28.092  1.00  0.00     0.023 A 
ATOM     81  C   UNL A   1      44.094  39.476  27.012  1.00  0.00     0.012 A 
ATOM     82  C   UNL A   1      45.189  39.916  29.136  1.00  0.00     0.148 A 
ATOM     83  C   UNL A   1      43.667  40.804  26.953  1.00  0.00     0.002 A 
ATOM     84  C   UNL A   1      44.707  41.218  29.103  1.00  0.00     0.091 A 
ATOM     85  F   UNL A   1      45.949  39.471  30.146  1.00  0.00    -0.205 F 
ATOM     86  C   UNL A   1      43.962  41.670  28.003  1.00  0.00     0.022 A 
BRANCH  84  87
ATOM     87  S   UNL A   1      44.923  42.354  30.476  1.00  0.00     0.127 S 
ATOM     88  O   UNL A   1      46.257  42.887  30.218  1.00  0.00    -0.237 OA
ATOM     89  O   UNL A   1      43.827  43.300  30.261  1.00  0.00    -0.237 OA
ATOM     90  O   UNL A   1      44.784  41.545  31.679  1.00  0.00    -0.744 OA
ENDBRANCH  84  87
ENDBRANCH  56  80
BRANCH  68  91
ATOM     91  C   UNL A   1      50.567  35.789  25.668  1.00  0.00     0.023 A 
ATOM     92  C   UNL A   1      50.578  35.632  24.267  1.00  0.00     0.012 A 
ATOM     93  C   UNL A   1      51.647  36.438  26.299  1.00  0.00     0.148 A 
ATOM     94  C   UNL A   1      51.668  36.066  23.513  1.00  0.00     0.002 A 
ATOM     95  C   UNL A   1      52.706  36.914  25.534  1.00  0.00     0.091 A 
ATOM     96  F   UNL A   1      51.628  36.564  27.634  1.00  0.00    -0.205 F 
ATOM     97  C   UNL A   1      52.726  36.715  24.145  1.00  0.00     0.022 A 
BRANCH  95  98
ATOM     98  S   UNL A   1      54.063  37.845  26.252  1.00  0.00     0.127 S 
ATOM     99  O   UNL A   1      54.885  38.129  25.077  1.00  0.00    -0.237 OA
ATOM    100  O   UNL A   1      53.380  39.011  26.814  1.00  0.00    -0.237 OA
ATOM    101  O   UNL A   1      54.669  36.968  27.245  1.00  0.00    -0.744 OA
ENDBRANCH  95  98
ENDBRANCH  68  91
ENDBRANCH  42  43
ENDBRANCH  35  37
ENDBRANCH  34  35
ENDBRANCH  33  34
ENDBRANCH  32  33
ENDBRANCH  31  32
ENDBRANCH  30  31
ENDBRANCH  29  30
ENDBRANCH  28  29
ENDBRANCH   1  28
TORSDOF 29
ENDMDL
MODEL 2
REMARK VINA RESULT:      -6.7      6.131     13.231
REMARK SMILES CC[C@@](C)(NC(=O)CCc1ccc(OC)c(Br)c1)C(=O)OCCOCCOCCOCCOC(=O)c1ccc(-c2c3nc(c(-c4cccc(S(=O)(=O)[O-])c4F)c4ccc([nH]4)c(-c4cccc(S(=O)(=O)[O-])c4F)c4nc(c(-c5cccc(S(=O)(=O)[O-])c5F)c5ccc2[nH]5)C=C4)C=C3)cc1
REMARK SMILES IDX 26 1 25 2 24 3 23 4 22 5 21 6 19 7 20 8 3 9 4 10 2 11 1 12
REMARK SMILES IDX 5 13 6 14 7 16 8 17 9 18 10 19 11 20 18 21 12 22 16 23 13 24
REMARK SMILES IDX 17 25 14 26 15 27 27 28 28 29 29 30 30 31 31 32 32 33 33 34
REMARK SMILES IDX 34 35 35 36 36 37 37 38 98 39 38 40 97 41 39 42 40 43 41 44
REMARK SMILES IDX 91 45 42 46 96 47 90 48 92 49 43 50 95 51 89 52 88 53 44 55
REMARK SMILES IDX 76 56 56 57 75 58 57 59 60 60 74 61 93 62 58 63 59 64 73 66
REMARK SMILES IDX 94 67 61 68 45 69 46 70 54 71 47 72 49 73 55 74 48 75 50 76
REMARK SMILES IDX 51 77 52 78 53 79 77 80 78 81 86 82 79 83 81 84 87 85 80 86
REMARK SMILES IDX 82 87 83 88 84 89 85 90 62 91 63 92 71 93 64 94 66 95 72 96
REMARK SMILES IDX 65 97 67 98 68 99 69 100 70 101
REMARK H PARENT 5 15 92 54 60 65
REMARK Flexibility Score: inf
ROOT
ATOM      1  C   UNL A   1      47.742  41.563  30.546  1.00  0.00     0.188 C 
ENDROOT
BRANCH   1   2
ATOM      2  C   UNL A   1      46.396  42.348  30.614  1.00  0.00     0.188 C 
BRANCH   2   3
ATOM      3  O   UNL A   1      45.200  42.356  29.803  1.00  0.00    -0.376 OA
BRANCH   3   4
ATOM      4  C   UNL A   1      44.776  41.906  28.490  1.00  0.00     0.202 C 
BRANCH   4   5
ATOM      5  C   UNL A   1      45.407  42.367  27.027  1.00  0.00     0.261 C 
BRANCH   5   6
ATOM      6  O   UNL A   1      44.430  42.796  25.970  1.00  0.00    -0.462 OA
BRANCH   6   7
ATOM      7  C   UNL A   1      44.587  43.792  25.017  1.00  0.00     0.331 C 
ATOM      8  O   UNL A   1      45.001  44.913  25.293  1.00  0.00    -0.249 OA
BRANCH   7   9
ATOM      9  C   UNL A   1      44.134  43.357  23.491  1.00  0.00     0.135 C 
ATOM     10  C   UNL A   1      43.761  44.695  22.819  1.00  0.00     0.047 C 
BRANCH   9  11
ATOM     11  C   UNL A   1      45.035  42.586  22.424  1.00  0.00     0.037 C 
ATOM     12  C   UNL A   1      45.844  43.207  21.291  1.00  0.00     0.007 C 
ENDBRANCH   9  11
BRANCH   9  13
ATOM     13  N   UNL A   1      42.932  42.483  23.508  1.00  0.00    -0.340 N 
ATOM     14  C   UNL A   1      41.938  42.623  22.574  1.00  0.00     0.221 C 
ATOM     15  H   UNL A   1      42.847  41.792  24.204  1.00  0.00     0.164 HD
ATOM     16  O   UNL A   1      40.786  42.835  22.944  1.00  0.00    -0.275 OA
BRANCH  14  17
ATOM     17  C   UNL A   1      42.283  42.431  21.130  1.00  0.00     0.105 C 
BRANCH  17  18
ATOM     18  C   UNL A   1      41.736  43.344  19.984  1.00  0.00     0.045 C 
BRANCH  18  19
ATOM     19  C   UNL A   1      42.259  44.331  18.922  1.00  0.00    -0.046 A 
ATOM     20  C   UNL A   1      41.538  44.598  17.779  1.00  0.00     0.007 A 
ATOM     21  C   UNL A   1      43.529  44.946  18.924  1.00  0.00     0.023 A 
ATOM     22  C   UNL A   1      41.858  45.694  16.947  1.00  0.00     0.048 A 
ATOM     23  C   UNL A   1      43.917  45.984  18.073  1.00  0.00     0.060 A 
ATOM     24  C   UNL A   1      43.015  46.438  17.147  1.00  0.00     0.133 A 
ATOM     25  Br  UNL A   1      45.651  46.744  18.244  1.00  0.00    -0.047 Br
BRANCH  24  26
ATOM     26  O   UNL A   1      43.230  47.651  16.567  1.00  0.00    -0.496 OA
ATOM     27  C   UNL A   1      42.071  48.456  16.489  1.00  0.00     0.278 C 
ENDBRANCH  24  26
ENDBRANCH  18  19
ENDBRANCH  17  18
ENDBRANCH  14  17
ENDBRANCH   9  13
ENDBRANCH   7   9
ENDBRANCH   6   7
ENDBRANCH   5   6
ENDBRANCH   4   5
ENDBRANCH   3   4
ENDBRANCH   2   3
ENDBRANCH   1   2
BRANCH   1  28
ATOM     28  O   UNL A   1      47.848  40.480  29.643  1.00  0.00    -0.377 OA
BRANCH  28  29
ATOM     29  C   UNL A   1      48.645  40.709  28.500  1.00  0.00     0.188 C 
BRANCH  29  30
ATOM     30  C   UNL A   1      48.497  39.618  27.441  1.00  0.00     0.188 C 
BRANCH  30  31
ATOM     31  O   UNL A   1      47.321  39.514  26.640  1.00  0.00    -0.376 OA
BRANCH  31  32
ATOM     32  C   UNL A   1      46.983  38.299  25.991  1.00  0.00     0.202 C 
BRANCH  32  33
ATOM     33  C   UNL A   1      45.667  37.639  26.431  1.00  0.00     0.261 C 
BRANCH  33  34
ATOM     34  O   UNL A   1      44.948  38.347  27.447  1.00  0.00    -0.460 OA
BRANCH  34  35
ATOM     35  C   UNL A   1      43.600  38.250  27.340  1.00  0.00     0.338 C 
ATOM     36  O   UNL A   1      42.879  38.803  26.534  1.00  0.00    -0.246 OA
BRANCH  35  37
ATOM     37  C   UNL A   1      43.092  37.263  28.309  1.00  0.00     0.060 A 
ATOM     38  C   UNL A   1      43.745  37.153  29.542  1.00  0.00     0.016 A 
ATOM     39  C   UNL A   1      42.099  36.351  27.943  1.00  0.00     0.016 A 
ATOM     40  C   UNL A   1      43.469  36.080  30.379  1.00  0.00     0.010 A 
ATOM     41  C   UNL A   1      41.836  35.260  28.776  1.00  0.00     0.010 A 
ATOM     42  C   UNL A   1      42.571  35.091  29.963  1.00  0.00    -0.014 A 
BRANCH  42  43
ATOM     43  C   UNL A   1      42.611  33.786  30.662  1.00  0.00     0.031 A 
ATOM     44  C   UNL A   1      43.493  32.699  30.107  1.00  0.00     0.074 A 
ATOM     45  C   UNL A   1      41.953  33.610  31.821  1.00  0.00     0.049 A 
ATOM     46  N   UNL A   1      43.739  31.508  30.585  1.00  0.00    -0.248 NA
ATOM     47  C   UNL A   1      44.198  32.997  28.848  1.00  0.00     0.031 C 
ATOM     48  C   UNL A   1      41.088  34.601  32.459  1.00  0.00     0.029 A 
ATOM     49  N   UNL A   1      41.911  32.528  32.661  1.00  0.00    -0.354 N 
ATOM     50  C   UNL A   1      44.613  30.911  29.683  1.00  0.00     0.074 A 
ATOM     51  C   UNL A   1      44.834  31.859  28.615  1.00  0.00     0.031 C 
ATOM     52  C   UNL A   1      40.575  34.068  33.582  1.00  0.00     0.029 A 
ATOM     53  C   UNL A   1      41.065  32.699  33.730  1.00  0.00     0.049 A 
ATOM     54  H   UNL A   1      42.435  31.708  32.513  1.00  0.00     0.167 HD
ATOM     55  C   UNL A   1      45.198  29.692  29.749  1.00  0.00     0.034 A 
ATOM     56  C   UNL A   1      40.715  31.838  34.705  1.00  0.00     0.034 A 
ATOM     57  C   UNL A   1      44.984  28.757  30.821  1.00  0.00     0.049 A 
ATOM     58  C   UNL A   1      41.361  30.478  34.744  1.00  0.00     0.074 A 
ATOM     59  C   UNL A   1      45.536  27.500  30.991  1.00  0.00     0.029 A 
ATOM     60  N   UNL A   1      44.143  28.975  31.901  1.00  0.00    -0.354 N 
ATOM     61  N   UNL A   1      42.257  29.964  33.934  1.00  0.00    -0.248 NA
ATOM     62  C   UNL A   1      40.982  29.596  35.856  1.00  0.00     0.031 C 
ATOM     63  C   UNL A   1      45.011  26.949  32.165  1.00  0.00     0.029 A 
ATOM     64  C   UNL A   1      44.156  27.875  32.742  1.00  0.00     0.049 A 
ATOM     65  H   UNL A   1      43.613  29.791  32.049  1.00  0.00     0.167 HD
ATOM     66  C   UNL A   1      42.568  28.711  34.454  1.00  0.00     0.074 A 
ATOM     67  C   UNL A   1      41.790  28.563  35.667  1.00  0.00     0.031 C 
ATOM     68  C   UNL A   1      43.405  27.762  33.966  1.00  0.00     0.034 A 
BRANCH  55  69
ATOM     69  C   UNL A   1      46.149  29.312  28.642  1.00  0.00     0.023 A 
ATOM     70  C   UNL A   1      47.539  29.405  28.856  1.00  0.00     0.012 A 
ATOM     71  C   UNL A   1      45.669  28.819  27.413  1.00  0.00     0.148 A 
ATOM     72  C   UNL A   1      48.439  29.041  27.853  1.00  0.00     0.002 A 
ATOM     73  C   UNL A   1      46.572  28.416  26.435  1.00  0.00     0.091 A 
ATOM     74  F   UNL A   1      44.344  28.760  27.220  1.00  0.00    -0.205 F 
ATOM     75  C   UNL A   1      47.955  28.538  26.649  1.00  0.00     0.022 A 
BRANCH  73  76
ATOM     76  S   UNL A   1      46.056  27.683  24.879  1.00  0.00     0.127 S 
ATOM     77  O   UNL A   1      46.811  26.430  24.877  1.00  0.00    -0.237 OA
ATOM     78  O   UNL A   1      44.616  27.525  25.078  1.00  0.00    -0.237 OA
ATOM     79  O   UNL A   1      46.428  28.635  23.841  1.00  0.00    -0.744 OA
ENDBRANCH  73  76
ENDBRANCH  55  69
BRANCH  56  80
ATOM     80  C   UNL A   1      39.714  32.244  35.731  1.00  0.00     0.023 A 
ATOM     81  C   UNL A   1      38.338  32.147  35.452  1.00  0.00     0.012 A 
ATOM     82  C   UNL A   1      40.128  32.716  36.992  1.00  0.00     0.148 A 
ATOM     83  C   UNL A   1      37.392  32.549  36.397  1.00  0.00     0.002 A 
ATOM     84  C   UNL A   1      39.182  33.054  37.951  1.00  0.00     0.091 A 
ATOM     85  F   UNL A   1      41.443  32.819  37.231  1.00  0.00    -0.205 F 
ATOM     86  C   UNL A   1      37.813  32.990  37.649  1.00  0.00     0.022 A 
BRANCH  84  87
ATOM     87  S   UNL A   1      39.637  33.497  39.630  1.00  0.00     0.127 S 
ATOM     88  O   UNL A   1      38.333  33.743  40.239  1.00  0.00    -0.237 OA
ATOM     89  O   UNL A   1      40.314  32.283  40.090  1.00  0.00    -0.237 OA
ATOM     90  O   UNL A   1      40.510  34.656  39.507  1.00  0.00    -0.744 OA
ENDBRANCH  84  87
ENDBRANCH  56  80
BRANCH  68  91
ATOM     91  C   UNL A   1      43.542  26.488  34.761  1.00  0.00     0.023 A 
ATOM     92  C   UNL A   1      42.692  25.397  34.490  1.00  0.00     0.012 A 
ATOM     93  C   UNL A   1      44.539  26.359  35.748  1.00  0.00     0.148 A 
ATOM     94  C   UNL A   1      42.798  24.216  35.225  1.00  0.00     0.002 A 
ATOM     95  C   UNL A   1      44.672  25.160  36.439  1.00  0.00     0.091 A 
ATOM     96  F   UNL A   1      45.329  27.412  36.003  1.00  0.00    -0.205 F 
ATOM     97  C   UNL A   1      43.793  24.095  36.191  1.00  0.00     0.022 A 
BRANCH  95  98
ATOM     98  S   UNL A   1      45.986  24.883  37.632  1.00  0.00     0.127 S 
ATOM     99  O   UNL A   1      45.699  25.905  38.636  1.00  0.00    -0.237 OA
ATOM    100  O   UNL A   1      45.727  23.510  38.068  1.00  0.00    -0.237 OA
ATOM    101  O   UNL A   1      47.234  25.055  36.899  1.00  0.00    -0.744 OA
ENDBRANCH  95  98
ENDBRANCH  68  91
ENDBRANCH  42  43
ENDBRANCH  35  37
ENDBRANCH  34  35
ENDBRANCH  33  34
ENDBRANCH  32  33
ENDBRANCH  31  32
ENDBRANCH  30  31
ENDBRANCH  29  30
ENDBRANCH  28  29
ENDBRANCH   1  28
TORSDOF 29
ENDMDL
MODEL 3
REMARK VINA RESULT:      -6.5      4.497      8.362
REMARK SMILES CC[C@@](C)(NC(=O)CCc1ccc(OC)c(Br)c1)C(=O)OCCOCCOCCOCCOC(=O)c1ccc(-c2c3nc(c(-c4cccc(S(=O)(=O)[O-])c4F)c4ccc([nH]4)c(-c4cccc(S(=O)(=O)[O-])c4F)c4nc(c(-c5cccc(S(=O)(=O)[O-])c5F)c5ccc2[nH]5)C=C4)C=C3)cc1
REMARK SMILES IDX 26 1 25 2 24 3 23 4 22 5 21 6 19 7 20 8 3 9 4 10 2 11 1 12
REMARK SMILES IDX 5 13 6 14 7 16 8 17 9 18 10 19 11 20 18 21 12 22 16 23 13 24
REMARK SMILES IDX 17 25 14 26 15 27 27 28 28 29 29 30 30 31 31 32 32 33 33 34
REMARK SMILES IDX 34 35 35 36 36 37 37 38 98 39 38 40 97 41 39 42 40 43 41 44
REMARK SMILES IDX 91 45 42 46 96 47 90 48 92 49 43 50 95 51 89 52 88 53 44 55
REMARK SMILES IDX 76 56 56 57 75 58 57 59 60 60 74 61 93 62 58 63 59 64 73 66
REMARK SMILES IDX 94 67 61 68 45 69 46 70 54 71 47 72 49 73 55 74 48 75 50 76
REMARK SMILES IDX 51 77 52 78 53 79 77 80 78 81 86 82 79 83 81 84 87 85 80 86
REMARK SMILES IDX 82 87 83 88 84 89 85 90 62 91 63 92 71 93 64 94 66 95 72 96
REMARK SMILES IDX 65 97 67 98 68 99 69 100 70 101
REMARK H PARENT 5 15 92 54 60 65
REMARK Flexibility Score: inf
ROOT
ATOM      1  C   UNL A   1      38.536  27.939  28.788  1.00  0.00     0.188 C 
ENDROOT
BRANCH   1   2
ATOM      2  C   UNL A   1      38.065  29.319  28.235  1.00  0.00     0.188 C 
BRANCH   2   3
ATOM      3  O   UNL A   1      36.921  30.163  28.492  1.00  0.00    -0.376 OA
BRANCH   3   4
ATOM      4  C   UNL A   1      36.383  31.431  28.035  1.00  0.00     0.202 C 
BRANCH   4   5
ATOM      5  C   UNL A   1      34.783  31.820  27.835  1.00  0.00     0.261 C 
BRANCH   5   6
ATOM      6  O   UNL A   1      34.462  33.262  27.567  1.00  0.00    -0.462 OA
BRANCH   6   7
ATOM      7  C   UNL A   1      33.433  34.021  28.105  1.00  0.00     0.331 C 
ATOM      8  O   UNL A   1      32.274  33.936  27.714  1.00  0.00    -0.249 OA
BRANCH   7   9
ATOM      9  C   UNL A   1      33.903  35.075  29.285  1.00  0.00     0.135 C 
ATOM     10  C   UNL A   1      34.000  36.430  28.554  1.00  0.00     0.047 C 
BRANCH   9  11
ATOM     11  C   UNL A   1      33.120  35.382  30.641  1.00  0.00     0.037 C 
ATOM     12  C   UNL A   1      32.819  36.754  31.233  1.00  0.00     0.007 C 
ENDBRANCH   9  11
BRANCH   9  13
ATOM     13  N   UNL A   1      35.244  34.727  29.823  1.00  0.00    -0.340 N 
ATOM     14  C   UNL A   1      35.389  34.189  31.075  1.00  0.00     0.221 C 
ATOM     15  H   UNL A   1      36.042  34.889  29.271  1.00  0.00     0.164 HD
ATOM     16  O   UNL A   1      36.106  34.755  31.897  1.00  0.00    -0.275 OA
BRANCH  14  17
ATOM     17  C   UNL A   1      34.730  32.879  31.371  1.00  0.00     0.105 C 
BRANCH  17  18
ATOM     18  C   UNL A   1      35.518  31.544  31.581  1.00  0.00     0.045 C 
BRANCH  18  19
ATOM     19  C   UNL A   1      36.813  31.041  32.247  1.00  0.00    -0.046 A 
ATOM     20  C   UNL A   1      37.617  31.890  32.976  1.00  0.00     0.007 A 
ATOM     21  C   UNL A   1      37.374  29.756  32.090  1.00  0.00     0.023 A 
ATOM     22  C   UNL A   1      38.639  31.393  33.816  1.00  0.00     0.048 A 
ATOM     23  C   UNL A   1      38.432  29.246  32.848  1.00  0.00     0.060 A 
ATOM     24  C   UNL A   1      38.991  30.049  33.807  1.00  0.00     0.133 A 
ATOM     25  Br  UNL A   1      39.033  27.468  32.549  1.00  0.00    -0.047 Br
BRANCH  24  26
ATOM     26  O   UNL A   1      39.757  29.473  34.774  1.00  0.00    -0.496 OA
ATOM     27  C   UNL A   1      40.897  30.233  35.121  1.00  0.00     0.278 C 
ENDBRANCH  24  26
ENDBRANCH  18  19
ENDBRANCH  17  18
ENDBRANCH  14  17
ENDBRANCH   9  13
ENDBRANCH   7   9
ENDBRANCH   6   7
ENDBRANCH   5   6
ENDBRANCH   4   5
ENDBRANCH   3   4
ENDBRANCH   2   3
ENDBRANCH   1   2
BRANCH   1  28
ATOM     28  O   UNL A   1      39.878  27.804  29.211  1.00  0.00    -0.377 OA
BRANCH  28  29
ATOM     29  C   UNL A   1      40.444  26.520  29.056  1.00  0.00     0.188 C 
BRANCH  29  30
ATOM     30  C   UNL A   1      41.950  26.559  28.797  1.00  0.00     0.188 C 
BRANCH  30  31
ATOM     31  O   UNL A   1      42.480  27.064  27.572  1.00  0.00    -0.376 OA
BRANCH  31  32
ATOM     32  C   UNL A   1      43.777  26.697  27.130  1.00  0.00     0.202 C 
BRANCH  32  33
ATOM     33  C   UNL A   1      44.779  27.846  26.940  1.00  0.00     0.261 C 
BRANCH  33  34
ATOM     34  O   UNL A   1      44.452  28.764  25.891  1.00  0.00    -0.460 OA
BRANCH  34  35
ATOM     35  C   UNL A   1      43.424  29.598  26.184  1.00  0.00     0.338 C 
ATOM     36  O   UNL A   1      42.298  29.574  25.729  1.00  0.00    -0.246 OA
BRANCH  35  37
ATOM     37  C   UNL A   1      43.826  30.529  27.253  1.00  0.00     0.060 A 
ATOM     38  C   UNL A   1      43.019  30.610  28.393  1.00  0.00     0.016 A 
ATOM     39  C   UNL A   1      44.880  31.424  27.058  1.00  0.00     0.016 A 
ATOM     40  C   UNL A   1      43.210  31.640  29.305  1.00  0.00     0.010 A 
ATOM     41  C   UNL A   1      45.059  32.472  27.965  1.00  0.00     0.010 A 
ATOM     42  C   UNL A   1      44.179  32.617  29.053  1.00  0.00    -0.014 A 
BRANCH  42  43
ATOM     43  C   UNL A   1      44.081  33.893  29.797  1.00  0.00     0.031 A 
ATOM     44  C   UNL A   1      44.313  33.877  31.285  1.00  0.00     0.074 A 
ATOM     45  C   UNL A   1      43.888  35.052  29.146  1.00  0.00     0.049 A 
ATOM     46  N   UNL A   1      44.347  34.876  32.128  1.00  0.00    -0.248 NA
ATOM     47  C   UNL A   1      44.547  32.561  31.905  1.00  0.00     0.031 C 
ATOM     48  C   UNL A   1      43.672  35.186  27.706  1.00  0.00     0.029 A 
ATOM     49  N   UNL A   1      43.838  36.338  29.619  1.00  0.00    -0.354 N 
ATOM     50  C   UNL A   1      44.590  34.310  33.375  1.00  0.00     0.074 A 
ATOM     51  C   UNL A   1      44.669  32.879  33.185  1.00  0.00     0.031 C 
ATOM     52  C   UNL A   1      43.485  36.485  27.415  1.00  0.00     0.029 A 
ATOM     53  C   UNL A   1      43.553  37.267  28.648  1.00  0.00     0.049 A 
ATOM     54  H   UNL A   1      43.992  36.573  30.562  1.00  0.00     0.167 HD
ATOM     55  C   UNL A   1      44.755  34.927  34.568  1.00  0.00     0.034 A 
ATOM     56  C   UNL A   1      43.352  38.595  28.751  1.00  0.00     0.034 A 
ATOM     57  C   UNL A   1      44.688  36.352  34.750  1.00  0.00     0.049 A 
ATOM     58  C   UNL A   1      43.519  39.255  30.094  1.00  0.00     0.074 A 
ATOM     59  C   UNL A   1      44.853  37.082  35.914  1.00  0.00     0.029 A 
ATOM     60  N   UNL A   1      44.425  37.265  33.740  1.00  0.00    -0.354 N 
ATOM     61  N   UNL A   1      43.841  38.718  31.247  1.00  0.00    -0.248 NA
ATOM     62  C   UNL A   1      43.337  40.713  30.142  1.00  0.00     0.031 C 
ATOM     63  C   UNL A   1      44.668  38.435  35.610  1.00  0.00     0.029 A 
ATOM     64  C   UNL A   1      44.419  38.551  34.252  1.00  0.00     0.049 A 
ATOM     65  H   UNL A   1      44.266  37.032  32.797  1.00  0.00     0.167 HD
ATOM     66  C   UNL A   1      43.928  39.773  32.150  1.00  0.00     0.074 A 
ATOM     67  C   UNL A   1      43.659  40.982  31.399  1.00  0.00     0.031 C 
ATOM     68  C   UNL A   1      44.188  39.746  33.481  1.00  0.00     0.034 A 
BRANCH  55  69
ATOM     69  C   UNL A   1      45.055  34.063  35.767  1.00  0.00     0.023 A 
ATOM     70  C   UNL A   1      46.395  33.841  36.149  1.00  0.00     0.012 A 
ATOM     71  C   UNL A   1      44.015  33.512  36.541  1.00  0.00     0.148 A 
ATOM     72  C   UNL A   1      46.696  33.060  37.265  1.00  0.00     0.002 A 
ATOM     73  C   UNL A   1      44.322  32.772  37.678  1.00  0.00     0.091 A 
ATOM     74  F   UNL A   1      42.750  33.715  36.149  1.00  0.00    -0.205 F 
ATOM     75  C   UNL A   1      45.661  32.536  38.034  1.00  0.00     0.022 A 
BRANCH  73  76
ATOM     76  S   UNL A   1      43.065  32.117  38.779  1.00  0.00     0.127 S 
ATOM     77  O   UNL A   1      43.879  31.540  39.849  1.00  0.00    -0.237 OA
ATOM     78  O   UNL A   1      42.330  33.324  39.157  1.00  0.00    -0.237 OA
ATOM     79  O   UNL A   1      42.299  31.159  37.994  1.00  0.00    -0.744 OA
ENDBRANCH  73  76
ENDBRANCH  55  69
BRANCH  56  80
ATOM     80  C   UNL A   1      42.986  39.387  27.544  1.00  0.00     0.023 A 
ATOM     81  C   UNL A   1      41.648  39.434  27.109  1.00  0.00     0.012 A 
ATOM     82  C   UNL A   1      43.966  40.107  26.832  1.00  0.00     0.148 A 
ATOM     83  C   UNL A   1      41.299  40.152  25.964  1.00  0.00     0.002 A 
ATOM     84  C   UNL A   1      43.602  40.871  25.731  1.00  0.00     0.091 A 
ATOM     85  F   UNL A   1      45.237  40.034  27.251  1.00  0.00    -0.205 F 
ATOM     86  C   UNL A   1      42.272  40.880  25.283  1.00  0.00     0.022 A 
BRANCH  84  87
ATOM     87  S   UNL A   1      44.765  41.945  24.884  1.00  0.00     0.127 S 
ATOM     88  O   UNL A   1      43.939  42.495  23.813  1.00  0.00    -0.237 OA
ATOM     89  O   UNL A   1      45.122  42.895  25.939  1.00  0.00    -0.237 OA
ATOM     90  O   UNL A   1      45.860  41.083  24.464  1.00  0.00    -0.744 OA
ENDBRANCH  84  87
ENDBRANCH  56  80
BRANCH  68  91
ATOM     91  C   UNL A   1      44.221  41.067  34.205  1.00  0.00     0.023 A 
ATOM     92  C   UNL A   1      43.022  41.634  34.687  1.00  0.00     0.012 A 
ATOM     93  C   UNL A   1      45.441  41.729  34.443  1.00  0.00     0.148 A 
ATOM     94  C   UNL A   1      43.034  42.862  35.348  1.00  0.00     0.002 A 
ATOM     95  C   UNL A   1      45.449  42.927  35.148  1.00  0.00     0.091 A 
ATOM     96  F   UNL A   1      46.569  41.185  33.964  1.00  0.00    -0.205 F 
ATOM     97  C   UNL A   1      44.247  43.502  35.587  1.00  0.00     0.022 A 
BRANCH  95  98
ATOM     98  S   UNL A   1      46.973  43.772  35.585  1.00  0.00     0.127 S 
ATOM     99  O   UNL A   1      47.700  42.725  36.300  1.00  0.00    -0.237 OA
ATOM    100  O   UNL A   1      47.528  44.112  34.274  1.00  0.00    -0.237 OA
ATOM    101  O   UNL A   1      46.577  44.922  36.387  1.00  0.00    -0.744 OA
ENDBRANCH  95  98
ENDBRANCH  68  91
ENDBRANCH  42  43
ENDBRANCH  35  37
ENDBRANCH  34  35
ENDBRANCH  33  34
ENDBRANCH  32  33
ENDBRANCH  31  32
ENDBRANCH  30  31
ENDBRANCH  29  30
ENDBRANCH  28  29
ENDBRANCH   1  28
TORSDOF 29
ENDMDL
