MODEL 1
REMARK VINA RESULT:      -9.7      0.000      0.000
REMARK SMILES O=C(OCCOCCOCCOCCOC(=O)c1ccc(NC2CC2)c(F)c1F)c1ccc(-c2c3nc(c(-c4cccc(S(=O)(=O)[O-])c4F)c4ccc([nH]4)c(-c4cccc(S(=O)(=O)[O-])c4F)c4nc(c(-c5cccc(S(=O)(=O)[O-])c5F)c5ccc2[nH]5)C=C4)C=C3)cc1
REMARK SMILES IDX 8 1 7 2 6 3 5 4 4 5 3 6 2 7 1 8 30 9 31 10 92 11 32 12 91 13
REMARK SMILES IDX 33 14 34 15 35 16 85 17 36 18 90 19 84 20 86 21 37 22 89 23
REMARK SMILES IDX 83 24 82 25 38 27 70 28 50 29 69 30 51 31 54 32 68 33 87 34
REMARK SMILES IDX 52 35 53 36 67 38 88 39 55 40 39 41 40 42 48 43 41 44 43 45
REMARK SMILES IDX 49 46 42 47 44 48 45 49 46 50 47 51 71 52 72 53 80 54 73 55
REMARK SMILES IDX 75 56 81 57 74 58 76 59 77 60 78 61 79 62 56 63 57 64 65 65
REMARK SMILES IDX 58 66 60 67 66 68 59 69 61 70 62 71 63 72 64 73 9 74 10 75
REMARK SMILES IDX 11 76 12 77 13 78 14 79 15 80 16 81 17 82 18 83 19 84 28 85
REMARK SMILES IDX 20 86 26 87 29 88 21 89 27 90 22 91 23 93 24 94 25 95
REMARK H PARENT 86 26 54 37 22 92
REMARK Flexibility Score: inf
ROOT
ATOM      1  C   UNL A   1      33.286  25.922  26.037  1.00  0.00     0.188 C 
ENDROOT
BRANCH   1   2
ATOM      2  C   UNL A   1      33.097  27.425  26.249  1.00  0.00     0.188 C 
BRANCH   2   3
ATOM      3  O   UNL A   1      31.727  27.784  26.080  1.00  0.00    -0.376 OA
BRANCH   3   4
ATOM      4  C   UNL A   1      31.472  28.962  25.320  1.00  0.00     0.202 C 
BRANCH   4   5
ATOM      5  C   UNL A   1      32.524  30.061  25.483  1.00  0.00     0.261 C 
BRANCH   5   6
ATOM      6  O   UNL A   1      32.378  30.785  26.711  1.00  0.00    -0.460 OA
BRANCH   6   7
ATOM      7  C   UNL A   1      33.269  31.643  27.274  1.00  0.00     0.338 C 
ATOM      8  O   UNL A   1      32.996  32.843  27.265  1.00  0.00    -0.246 OA
BRANCH   7   9
ATOM      9  C   UNL A   1      34.555  31.220  27.916  1.00  0.00     0.060 A 
ATOM     10  C   UNL A   1      34.855  29.932  28.365  1.00  0.00     0.016 A 
ATOM     11  C   UNL A   1      35.568  32.190  28.001  1.00  0.00     0.016 A 
ATOM     12  C   UNL A   1      36.080  29.616  28.932  1.00  0.00     0.010 A 
ATOM     13  C   UNL A   1      36.815  31.880  28.552  1.00  0.00     0.010 A 
ATOM     14  C   UNL A   1      37.059  30.593  29.043  1.00  0.00    -0.014 A 
BRANCH  14  15
ATOM     15  C   UNL A   1      38.252  30.276  29.840  1.00  0.00     0.031 A 
ATOM     16  C   UNL A   1      39.276  29.377  29.220  1.00  0.00     0.074 A 
ATOM     17  C   UNL A   1      38.448  30.874  31.028  1.00  0.00     0.049 A 
ATOM     18  N   UNL A   1      40.359  28.876  29.741  1.00  0.00    -0.248 NA
ATOM     19  C   UNL A   1      39.051  28.999  27.812  1.00  0.00     0.031 C 
ATOM     20  C   UNL A   1      37.553  31.863  31.634  1.00  0.00     0.029 A 
ATOM     21  N   UNL A   1      39.462  30.739  31.937  1.00  0.00    -0.354 N 
ATOM     22  C   UNL A   1      40.904  28.066  28.754  1.00  0.00     0.074 A 
ATOM     23  C   UNL A   1      40.057  28.168  27.589  1.00  0.00     0.031 C 
ATOM     24  C   UNL A   1      38.048  32.230  32.826  1.00  0.00     0.029 A 
ATOM     25  C   UNL A   1      39.251  31.450  33.095  1.00  0.00     0.049 A 
ATOM     26  H   UNL A   1      40.262  30.188  31.778  1.00  0.00     0.167 HD
ATOM     27  C   UNL A   1      42.008  27.293  28.833  1.00  0.00     0.034 A 
ATOM     28  C   UNL A   1      39.929  31.416  34.258  1.00  0.00     0.034 A 
ATOM     29  C   UNL A   1      42.832  27.235  30.005  1.00  0.00     0.049 A 
ATOM     30  C   UNL A   1      41.122  30.500  34.339  1.00  0.00     0.074 A 
ATOM     31  C   UNL A   1      43.966  26.481  30.228  1.00  0.00     0.029 A 
ATOM     32  N   UNL A   1      42.592  27.964  31.162  1.00  0.00    -0.354 N 
ATOM     33  N   UNL A   1      41.646  29.746  33.401  1.00  0.00    -0.248 NA
ATOM     34  C   UNL A   1      41.821  30.429  35.628  1.00  0.00     0.031 C 
ATOM     35  C   UNL A   1      44.391  26.727  31.537  1.00  0.00     0.029 A 
ATOM     36  C   UNL A   1      43.545  27.664  32.116  1.00  0.00     0.049 A 
ATOM     37  H   UNL A   1      41.852  28.600  31.286  1.00  0.00     0.167 HD
ATOM     38  C   UNL A   1      42.748  29.126  33.977  1.00  0.00     0.074 A 
ATOM     39  C   UNL A   1      42.829  29.617  35.340  1.00  0.00     0.031 C 
ATOM     40  C   UNL A   1      43.604  28.221  33.444  1.00  0.00     0.034 A 
BRANCH  27  41
ATOM     41  C   UNL A   1      42.327  26.420  27.651  1.00  0.00     0.023 A 
ATOM     42  C   UNL A   1      43.051  26.932  26.556  1.00  0.00     0.012 A 
ATOM     43  C   UNL A   1      41.881  25.084  27.624  1.00  0.00     0.148 A 
ATOM     44  C   UNL A   1      43.295  26.137  25.436  1.00  0.00     0.002 A 
ATOM     45  C   UNL A   1      42.165  24.286  26.523  1.00  0.00     0.091 A 
ATOM     46  F   UNL A   1      41.166  24.629  28.662  1.00  0.00    -0.205 F 
ATOM     47  C   UNL A   1      42.860  24.814  25.422  1.00  0.00     0.022 A 
BRANCH  45  48
ATOM     48  S   UNL A   1      41.695  22.556  26.435  1.00  0.00     0.127 S 
ATOM     49  O   UNL A   1      42.275  22.158  25.153  1.00  0.00    -0.237 OA
ATOM     50  O   UNL A   1      42.370  21.997  27.608  1.00  0.00    -0.237 OA
ATOM     51  O   UNL A   1      40.241  22.526  26.495  1.00  0.00    -0.744 OA
ENDBRANCH  45  48
ENDBRANCH  27  41
BRANCH  28  52
ATOM     52  C   UNL A   1      39.477  32.228  35.426  1.00  0.00     0.023 A 
ATOM     53  C   UNL A   1      38.629  31.655  36.393  1.00  0.00     0.012 A 
ATOM     54  C   UNL A   1      39.895  33.564  35.593  1.00  0.00     0.148 A 
ATOM     55  C   UNL A   1      38.183  32.406  37.485  1.00  0.00     0.002 A 
ATOM     56  C   UNL A   1      39.496  34.288  36.711  1.00  0.00     0.091 A 
ATOM     57  F   UNL A   1      40.683  34.106  34.653  1.00  0.00    -0.205 F 
ATOM     58  C   UNL A   1      38.624  33.716  37.650  1.00  0.00     0.022 A 
BRANCH  56  59
ATOM     59  S   UNL A   1      40.122  35.935  37.065  1.00  0.00     0.127 S 
ATOM     60  O   UNL A   1      39.716  36.672  35.872  1.00  0.00    -0.237 OA
ATOM     61  O   UNL A   1      39.391  36.283  38.284  1.00  0.00    -0.237 OA
ATOM     62  O   UNL A   1      41.558  35.775  37.255  1.00  0.00    -0.744 OA
ENDBRANCH  56  59
ENDBRANCH  28  52
BRANCH  40  63
ATOM     63  C   UNL A   1      44.718  27.729  34.325  1.00  0.00     0.023 A 
ATOM     64  C   UNL A   1      45.943  28.422  34.355  1.00  0.00     0.012 A 
ATOM     65  C   UNL A   1      44.499  26.653  35.205  1.00  0.00     0.148 A 
ATOM     66  C   UNL A   1      46.947  28.033  35.238  1.00  0.00     0.002 A 
ATOM     67  C   UNL A   1      45.482  26.309  36.122  1.00  0.00     0.091 A 
ATOM     68  F   UNL A   1      43.328  26.004  35.142  1.00  0.00    -0.205 F 
ATOM     69  C   UNL A   1      46.711  26.989  36.131  1.00  0.00     0.022 A 
BRANCH  67  70
ATOM     70  S   UNL A   1      45.221  25.058  37.382  1.00  0.00     0.127 S 
ATOM     71  O   UNL A   1      46.405  25.231  38.222  1.00  0.00    -0.237 OA
ATOM     72  O   UNL A   1      43.966  25.496  37.996  1.00  0.00    -0.237 OA
ATOM     73  O   UNL A   1      45.137  23.786  36.678  1.00  0.00    -0.744 OA
ENDBRANCH  67  70
ENDBRANCH  40  63
ENDBRANCH  14  15
ENDBRANCH   7   9
ENDBRANCH   6   7
ENDBRANCH   5   6
ENDBRANCH   4   5
ENDBRANCH   3   4
ENDBRANCH   2   3
ENDBRANCH   1   2
BRANCH   1  74
ATOM     74  O   UNL A   1      34.478  25.560  25.340  1.00  0.00    -0.377 OA
BRANCH  74  75
ATOM     75  C   UNL A   1      34.822  24.176  25.346  1.00  0.00     0.188 C 
BRANCH  75  76
ATOM     76  C   UNL A   1      36.193  23.745  25.916  1.00  0.00     0.188 C 
BRANCH  76  77
ATOM     77  O   UNL A   1      36.542  22.405  25.609  1.00  0.00    -0.376 OA
BRANCH  77  78
ATOM     78  C   UNL A   1      35.754  21.776  24.606  1.00  0.00     0.202 C 
BRANCH  78  79
ATOM     79  C   UNL A   1      34.924  20.569  25.067  1.00  0.00     0.261 C 
BRANCH  79  80
ATOM     80  O   UNL A   1      33.888  20.135  24.163  1.00  0.00    -0.460 OA
BRANCH  80  81
ATOM     81  C   UNL A   1      32.606  20.078  24.587  1.00  0.00     0.341 C 
ATOM     82  O   UNL A   1      31.969  19.094  24.911  1.00  0.00    -0.246 OA
BRANCH  81  83
ATOM     83  C   UNL A   1      32.155  21.480  24.704  1.00  0.00     0.099 A 
ATOM     84  C   UNL A   1      31.544  21.920  25.881  1.00  0.00     0.021 A 
ATOM     85  C   UNL A   1      32.152  22.303  23.583  1.00  0.00     0.175 A 
ATOM     86  C   UNL A   1      30.916  23.174  25.925  1.00  0.00     0.030 A 
ATOM     87  C   UNL A   1      31.484  23.526  23.628  1.00  0.00     0.182 A 
ATOM     88  F   UNL A   1      32.666  21.887  22.416  1.00  0.00    -0.203 F 
ATOM     89  C   UNL A   1      30.846  23.991  24.794  1.00  0.00     0.074 A 
ATOM     90  F   UNL A   1      31.402  24.267  22.508  1.00  0.00    -0.201 F 
BRANCH  89  91
ATOM     91  N   UNL A   1      30.188  25.239  24.743  1.00  0.00    -0.380 N 
ATOM     92  H   UNL A   1      30.257  25.778  25.563  1.00  0.00     0.160 HD
BRANCH  91  93
ATOM     93  C   UNL A   1      29.423  25.855  23.666  1.00  0.00     0.079 C 
ATOM     94  C   UNL A   1      28.663  27.144  23.724  1.00  0.00     0.027 C 
ATOM     95  C   UNL A   1      29.910  27.040  22.886  1.00  0.00     0.027 C 
ENDBRANCH  91  93
ENDBRANCH  89  91
ENDBRANCH  81  83
ENDBRANCH  80  81
ENDBRANCH  79  80
ENDBRANCH  78  79
ENDBRANCH  77  78
ENDBRANCH  76  77
ENDBRANCH  75  76
ENDBRANCH  74  75
ENDBRANCH   1  74
TORSDOF 25
ENDMDL
MODEL 2
REMARK VINA RESULT:      -8.9      4.075      7.441
REMARK SMILES O=C(OCCOCCOCCOCCOC(=O)c1ccc(NC2CC2)c(F)c1F)c1ccc(-c2c3nc(c(-c4cccc(S(=O)(=O)[O-])c4F)c4ccc([nH]4)c(-c4cccc(S(=O)(=O)[O-])c4F)c4nc(c(-c5cccc(S(=O)(=O)[O-])c5F)c5ccc2[nH]5)C=C4)C=C3)cc1
REMARK SMILES IDX 8 1 7 2 6 3 5 4 4 5 3 6 2 7 1 8 30 9 31 10 92 11 32 12 91 13
REMARK SMILES IDX 33 14 34 15 35 16 85 17 36 18 90 19 84 20 86 21 37 22 89 23
REMARK SMILES IDX 83 24 82 25 38 27 70 28 50 29 69 30 51 31 54 32 68 33 87 34
REMARK SMILES IDX 52 35 53 36 67 38 88 39 55 40 39 41 40 42 48 43 41 44 43 45
REMARK SMILES IDX 49 46 42 47 44 48 45 49 46 50 47 51 71 52 72 53 80 54 73 55
REMARK SMILES IDX 75 56 81 57 74 58 76 59 77 60 78 61 79 62 56 63 57 64 65 65
REMARK SMILES IDX 58 66 60 67 66 68 59 69 61 70 62 71 63 72 64 73 9 74 10 75
REMARK SMILES IDX 11 76 12 77 13 78 14 79 15 80 16 81 17 82 18 83 19 84 28 85
REMARK SMILES IDX 20 86 26 87 29 88 21 89 27 90 22 91 23 93 24 94 25 95
REMARK H PARENT 86 26 54 37 22 92
REMARK Flexibility Score: inf
ROOT
ATOM      1  C   UNL A   1      33.812  22.385  26.605  1.00  0.00     0.188 C 
ENDROOT
BRANCH   1   2
ATOM      2  C   UNL A   1      35.146  21.774  26.175  1.00  0.00     0.188 C 
BRANCH   2   3
ATOM      3  O   UNL A   1      35.391  22.033  24.794  1.00  0.00    -0.376 OA
BRANCH   3   4
ATOM      4  C   UNL A   1      36.495  22.884  24.497  1.00  0.00     0.202 C 
BRANCH   4   5
ATOM      5  C   UNL A   1      37.385  23.209  25.697  1.00  0.00     0.261 C 
BRANCH   5   6
ATOM      6  O   UNL A   1      38.428  22.245  25.887  1.00  0.00    -0.460 OA
BRANCH   6   7
ATOM      7  C   UNL A   1      39.623  22.432  26.506  1.00  0.00     0.338 C 
ATOM      8  O   UNL A   1      40.336  21.446  26.690  1.00  0.00    -0.246 OA
BRANCH   7   9
ATOM      9  C   UNL A   1      40.133  23.763  26.967  1.00  0.00     0.060 A 
ATOM     10  C   UNL A   1      40.714  24.026  28.209  1.00  0.00     0.016 A 
ATOM     11  C   UNL A   1      40.090  24.814  26.035  1.00  0.00     0.016 A 
ATOM     12  C   UNL A   1      41.181  25.285  28.553  1.00  0.00     0.010 A 
ATOM     13  C   UNL A   1      40.575  26.084  26.360  1.00  0.00     0.010 A 
ATOM     14  C   UNL A   1      41.098  26.323  27.636  1.00  0.00    -0.014 A 
BRANCH  14  15
ATOM     15  C   UNL A   1      41.402  27.680  28.112  1.00  0.00     0.031 A 
ATOM     16  C   UNL A   1      42.832  28.118  28.080  1.00  0.00     0.074 A 
ATOM     17  C   UNL A   1      40.404  28.516  28.448  1.00  0.00     0.049 A 
ATOM     18  N   UNL A   1      43.370  29.217  28.523  1.00  0.00    -0.248 NA
ATOM     19  C   UNL A   1      43.789  27.189  27.447  1.00  0.00     0.031 C 
ATOM     20  C   UNL A   1      38.975  28.197  28.377  1.00  0.00     0.029 A 
ATOM     21  N   UNL A   1      40.437  29.801  28.915  1.00  0.00    -0.354 N 
ATOM     22  C   UNL A   1      44.733  29.082  28.295  1.00  0.00     0.074 A 
ATOM     23  C   UNL A   1      44.941  27.813  27.640  1.00  0.00     0.031 C 
ATOM     24  C   UNL A   1      38.269  29.254  28.807  1.00  0.00     0.029 A 
ATOM     25  C   UNL A   1      39.195  30.290  29.249  1.00  0.00     0.049 A 
ATOM     26  H   UNL A   1      41.266  30.324  29.003  1.00  0.00     0.167 HD
ATOM     27  C   UNL A   1      45.718  29.943  28.627  1.00  0.00     0.034 A 
ATOM     28  C   UNL A   1      38.866  31.424  29.896  1.00  0.00     0.034 A 
ATOM     29  C   UNL A   1      45.465  31.203  29.262  1.00  0.00     0.049 A 
ATOM     30  C   UNL A   1      39.989  32.339  30.307  1.00  0.00     0.074 A 
ATOM     31  C   UNL A   1      46.369  32.163  29.671  1.00  0.00     0.029 A 
ATOM     32  N   UNL A   1      44.199  31.670  29.591  1.00  0.00    -0.354 N 
ATOM     33  N   UNL A   1      41.276  32.219  30.078  1.00  0.00    -0.248 NA
ATOM     34  C   UNL A   1      39.623  33.545  31.061  1.00  0.00     0.031 C 
ATOM     35  C   UNL A   1      45.650  33.195  30.281  1.00  0.00     0.029 A 
ATOM     36  C   UNL A   1      44.295  32.896  30.217  1.00  0.00     0.049 A 
ATOM     37  H   UNL A   1      43.357  31.196  29.405  1.00  0.00     0.167 HD
ATOM     38  C   UNL A   1      41.873  33.340  30.638  1.00  0.00     0.074 A 
ATOM     39  C   UNL A   1      40.800  34.142  31.195  1.00  0.00     0.031 C 
ATOM     40  C   UNL A   1      43.186  33.674  30.709  1.00  0.00     0.034 A 
BRANCH  27  41
ATOM     41  C   UNL A   1      47.133  29.509  28.365  1.00  0.00     0.023 A 
ATOM     42  C   UNL A   1      47.776  29.847  27.157  1.00  0.00     0.012 A 
ATOM     43  C   UNL A   1      47.821  28.739  29.324  1.00  0.00     0.148 A 
ATOM     44  C   UNL A   1      49.068  29.394  26.892  1.00  0.00     0.002 A 
ATOM     45  C   UNL A   1      49.123  28.327  29.070  1.00  0.00     0.091 A 
ATOM     46  F   UNL A   1      47.180  28.402  30.451  1.00  0.00    -0.205 F 
ATOM     47  C   UNL A   1      49.744  28.642  27.850  1.00  0.00     0.022 A 
BRANCH  45  48
ATOM     48  S   UNL A   1      50.096  27.403  30.263  1.00  0.00     0.127 S 
ATOM     49  O   UNL A   1      51.347  27.203  29.532  1.00  0.00    -0.237 OA
ATOM     50  O   UNL A   1      50.186  28.347  31.378  1.00  0.00    -0.237 OA
ATOM     51  O   UNL A   1      49.343  26.190  30.548  1.00  0.00    -0.744 OA
ENDBRANCH  45  48
ENDBRANCH  27  41
BRANCH  28  52
ATOM     52  C   UNL A   1      37.442  31.726  30.223  1.00  0.00     0.023 A 
ATOM     53  C   UNL A   1      36.948  31.469  31.516  1.00  0.00     0.012 A 
ATOM     54  C   UNL A   1      36.574  32.283  29.262  1.00  0.00     0.148 A 
ATOM     55  C   UNL A   1      35.613  31.731  31.835  1.00  0.00     0.002 A 
ATOM     56  C   UNL A   1      35.262  32.596  29.601  1.00  0.00     0.091 A 
ATOM     57  F   UNL A   1      37.048  32.501  28.027  1.00  0.00    -0.205 F 
ATOM     58  C   UNL A   1      34.774  32.304  30.883  1.00  0.00     0.022 A 
BRANCH  56  59
ATOM     59  S   UNL A   1      34.155  33.454  28.475  1.00  0.00     0.127 S 
ATOM     60  O   UNL A   1      33.456  32.342  27.837  1.00  0.00    -0.237 OA
ATOM     61  O   UNL A   1      33.339  34.249  29.395  1.00  0.00    -0.237 OA
ATOM     62  O   UNL A   1      35.017  34.246  27.606  1.00  0.00    -0.744 OA
ENDBRANCH  56  59
ENDBRANCH  28  52
BRANCH  40  63
ATOM     63  C   UNL A   1      43.527  34.973  31.383  1.00  0.00     0.023 A 
ATOM     64  C   UNL A   1      43.665  36.144  30.614  1.00  0.00     0.012 A 
ATOM     65  C   UNL A   1      43.591  35.045  32.787  1.00  0.00     0.148 A 
ATOM     66  C   UNL A   1      43.885  37.370  31.236  1.00  0.00     0.002 A 
ATOM     67  C   UNL A   1      43.754  36.278  33.402  1.00  0.00     0.091 A 
ATOM     68  F   UNL A   1      43.472  33.910  33.491  1.00  0.00    -0.205 F 
ATOM     69  C   UNL A   1      43.914  37.440  32.628  1.00  0.00     0.022 A 
BRANCH  67  70
ATOM     70  S   UNL A   1      43.685  36.476  35.184  1.00  0.00     0.127 S 
ATOM     71  O   UNL A   1      44.954  35.876  35.598  1.00  0.00    -0.237 OA
ATOM     72  O   UNL A   1      43.619  37.930  35.331  1.00  0.00    -0.237 OA
ATOM     73  O   UNL A   1      42.490  35.768  35.624  1.00  0.00    -0.744 OA
ENDBRANCH  67  70
ENDBRANCH  40  63
ENDBRANCH  14  15
ENDBRANCH   7   9
ENDBRANCH   6   7
ENDBRANCH   5   6
ENDBRANCH   4   5
ENDBRANCH   3   4
ENDBRANCH   2   3
ENDBRANCH   1   2
BRANCH   1  74
ATOM     74  O   UNL A   1      32.657  21.748  26.058  1.00  0.00    -0.377 OA
BRANCH  74  75
ATOM     75  C   UNL A   1      31.730  22.590  25.377  1.00  0.00     0.188 C 
BRANCH  75  76
ATOM     76  C   UNL A   1      31.846  22.752  23.844  1.00  0.00     0.188 C 
BRANCH  76  77
ATOM     77  O   UNL A   1      31.922  24.103  23.417  1.00  0.00    -0.376 OA
BRANCH  77  78
ATOM     78  C   UNL A   1      33.204  24.542  22.986  1.00  0.00     0.202 C 
BRANCH  78  79
ATOM     79  C   UNL A   1      34.004  25.372  24.001  1.00  0.00     0.261 C 
BRANCH  79  80
ATOM     80  O   UNL A   1      33.307  25.730  25.211  1.00  0.00    -0.460 OA
BRANCH  80  81
ATOM     81  C   UNL A   1      33.229  27.026  25.584  1.00  0.00     0.341 C 
ATOM     82  O   UNL A   1      34.025  27.660  26.251  1.00  0.00    -0.246 OA
BRANCH  81  83
ATOM     83  C   UNL A   1      32.033  27.572  24.911  1.00  0.00     0.099 A 
ATOM     84  C   UNL A   1      30.788  26.967  25.102  1.00  0.00     0.021 A 
ATOM     85  C   UNL A   1      32.173  28.553  23.936  1.00  0.00     0.175 A 
ATOM     86  C   UNL A   1      29.695  27.333  24.303  1.00  0.00     0.030 A 
ATOM     87  C   UNL A   1      31.090  28.874  23.119  1.00  0.00     0.182 A 
ATOM     88  F   UNL A   1      33.368  29.106  23.676  1.00  0.00    -0.203 F 
ATOM     89  C   UNL A   1      29.827  28.271  23.276  1.00  0.00     0.074 A 
ATOM     90  F   UNL A   1      31.267  29.751  22.114  1.00  0.00    -0.201 F 
BRANCH  89  91
ATOM     91  N   UNL A   1      28.791  28.653  22.397  1.00  0.00    -0.380 N 
ATOM     92  H   UNL A   1      28.741  28.132  21.564  1.00  0.00     0.160 HD
BRANCH  91  93
ATOM     93  C   UNL A   1      27.783  29.698  22.529  1.00  0.00     0.079 C 
ATOM     94  C   UNL A   1      27.806  30.856  23.480  1.00  0.00     0.027 C 
ATOM     95  C   UNL A   1      27.970  31.089  22.001  1.00  0.00     0.027 C 
ENDBRANCH  91  93
ENDBRANCH  89  91
ENDBRANCH  81  83
ENDBRANCH  80  81
ENDBRANCH  79  80
ENDBRANCH  78  79
ENDBRANCH  77  78
ENDBRANCH  76  77
ENDBRANCH  75  76
ENDBRANCH  74  75
ENDBRANCH   1  74
TORSDOF 25
ENDMDL
MODEL 3
REMARK VINA RESULT:      -8.8      4.196      7.568
REMARK SMILES O=C(OCCOCCOCCOCCOC(=O)c1ccc(NC2CC2)c(F)c1F)c1ccc(-c2c3nc(c(-c4cccc(S(=O)(=O)[O-])c4F)c4ccc([nH]4)c(-c4cccc(S(=O)(=O)[O-])c4F)c4nc(c(-c5cccc(S(=O)(=O)[O-])c5F)c5ccc2[nH]5)C=C4)C=C3)cc1
REMARK SMILES IDX 8 1 7 2 6 3 5 4 4 5 3 6 2 7 1 8 30 9 31 10 92 11 32 12 91 13
REMARK SMILES IDX 33 14 34 15 35 16 85 17 36 18 90 19 84 20 86 21 37 22 89 23
REMARK SMILES IDX 83 24 82 25 38 27 70 28 50 29 69 30 51 31 54 32 68 33 87 34
REMARK SMILES IDX 52 35 53 36 67 38 88 39 55 40 39 41 40 42 48 43 41 44 43 45
REMARK SMILES IDX 49 46 42 47 44 48 45 49 46 50 47 51 71 52 72 53 80 54 73 55
REMARK SMILES IDX 75 56 81 57 74 58 76 59 77 60 78 61 79 62 56 63 57 64 65 65
REMARK SMILES IDX 58 66 60 67 66 68 59 69 61 70 62 71 63 72 64 73 9 74 10 75
REMARK SMILES IDX 11 76 12 77 13 78 14 79 15 80 16 81 17 82 18 83 19 84 28 85
REMARK SMILES IDX 20 86 26 87 29 88 21 89 27 90 22 91 23 93 24 94 25 95
REMARK H PARENT 86 26 54 37 22 92
REMARK Flexibility Score: inf
ROOT
ATOM      1  C   UNL A   1      32.977  22.960  27.054  1.00  0.00     0.188 C 
ENDROOT
BRANCH   1   2
ATOM      2  C   UNL A   1      34.300  22.427  26.503  1.00  0.00     0.188 C 
BRANCH   2   3
ATOM      3  O   UNL A   1      34.513  22.899  25.174  1.00  0.00    -0.376 OA
BRANCH   3   4
ATOM      4  C   UNL A   1      35.528  23.886  25.009  1.00  0.00     0.202 C 
BRANCH   4   5
ATOM      5  C   UNL A   1      36.586  23.898  26.114  1.00  0.00     0.261 C 
BRANCH   5   6
ATOM      6  O   UNL A   1      37.711  23.066  25.809  1.00  0.00    -0.460 OA
BRANCH   6   7
ATOM      7  C   UNL A   1      38.986  23.202  26.261  1.00  0.00     0.338 C 
ATOM      8  O   UNL A   1      39.755  22.255  26.105  1.00  0.00    -0.246 OA
BRANCH   7   9
ATOM      9  C   UNL A   1      39.516  24.436  26.925  1.00  0.00     0.060 A 
ATOM     10  C   UNL A   1      39.432  24.726  28.289  1.00  0.00     0.016 A 
ATOM     11  C   UNL A   1      40.225  25.336  26.112  1.00  0.00     0.016 A 
ATOM     12  C   UNL A   1      39.968  25.884  28.830  1.00  0.00     0.010 A 
ATOM     13  C   UNL A   1      40.788  26.498  26.648  1.00  0.00     0.010 A 
ATOM     14  C   UNL A   1      40.634  26.783  28.009  1.00  0.00    -0.014 A 
BRANCH  14  15
ATOM     15  C   UNL A   1      40.993  28.089  28.578  1.00  0.00     0.031 A 
ATOM     16  C   UNL A   1      42.450  28.403  28.719  1.00  0.00     0.074 A 
ATOM     17  C   UNL A   1      40.036  28.995  28.845  1.00  0.00     0.049 A 
ATOM     18  N   UNL A   1      43.024  29.433  29.268  1.00  0.00    -0.248 NA
ATOM     19  C   UNL A   1      43.391  27.419  28.149  1.00  0.00     0.031 C 
ATOM     20  C   UNL A   1      38.603  28.805  28.608  1.00  0.00     0.029 A 
ATOM     21  N   UNL A   1      40.123  30.254  29.373  1.00  0.00    -0.354 N 
ATOM     22  C   UNL A   1      44.387  29.189  29.180  1.00  0.00     0.074 A 
ATOM     23  C   UNL A   1      44.562  27.933  28.492  1.00  0.00     0.031 C 
ATOM     24  C   UNL A   1      37.942  29.902  29.010  1.00  0.00     0.029 A 
ATOM     25  C   UNL A   1      38.897  30.836  29.596  1.00  0.00     0.049 A 
ATOM     26  H   UNL A   1      40.978  30.700  29.573  1.00  0.00     0.167 HD
ATOM     27  C   UNL A   1      45.398  29.949  29.655  1.00  0.00     0.034 A 
ATOM     28  C   UNL A   1      38.593  31.969  30.256  1.00  0.00     0.034 A 
ATOM     29  C   UNL A   1      45.181  31.201  30.319  1.00  0.00     0.049 A 
ATOM     30  C   UNL A   1      39.735  32.767  30.828  1.00  0.00     0.074 A 
ATOM     31  C   UNL A   1      46.110  32.063  30.866  1.00  0.00     0.029 A 
ATOM     32  N   UNL A   1      43.929  31.763  30.532  1.00  0.00    -0.354 N 
ATOM     33  N   UNL A   1      41.025  32.544  30.731  1.00  0.00    -0.248 NA
ATOM     34  C   UNL A   1      39.388  33.971  31.593  1.00  0.00     0.031 C 
ATOM     35  C   UNL A   1      45.415  33.129  31.443  1.00  0.00     0.029 A 
ATOM     36  C   UNL A   1      44.055  32.952  31.222  1.00  0.00     0.049 A 
ATOM     37  H   UNL A   1      43.076  31.371  30.235  1.00  0.00     0.167 HD
ATOM     38  C   UNL A   1      41.647  33.588  31.404  1.00  0.00     0.074 A 
ATOM     39  C   UNL A   1      40.589  34.458  31.880  1.00  0.00     0.031 C 
ATOM     40  C   UNL A   1      42.967  33.804  31.629  1.00  0.00     0.034 A 
BRANCH  27  41
ATOM     41  C   UNL A   1      46.793  29.404  29.525  1.00  0.00     0.023 A 
ATOM     42  C   UNL A   1      47.400  28.723  30.600  1.00  0.00     0.012 A 
ATOM     43  C   UNL A   1      47.513  29.592  28.329  1.00  0.00     0.148 A 
ATOM     44  C   UNL A   1      48.715  28.269  30.498  1.00  0.00     0.002 A 
ATOM     45  C   UNL A   1      48.807  29.101  28.220  1.00  0.00     0.091 A 
ATOM     46  F   UNL A   1      46.928  30.271  27.333  1.00  0.00    -0.205 F 
ATOM     47  C   UNL A   1      49.415  28.451  29.308  1.00  0.00     0.022 A 
BRANCH  45  48
ATOM     48  S   UNL A   1      49.771  29.236  26.712  1.00  0.00     0.127 S 
ATOM     49  O   UNL A   1      49.916  30.685  26.583  1.00  0.00    -0.237 OA
ATOM     50  O   UNL A   1      51.001  28.529  27.073  1.00  0.00    -0.237 OA
ATOM     51  O   UNL A   1      48.983  28.596  25.669  1.00  0.00    -0.744 OA
ENDBRANCH  45  48
ENDBRANCH  27  41
BRANCH  28  52
ATOM     52  C   UNL A   1      37.170  32.381  30.444  1.00  0.00     0.023 A 
ATOM     53  C   UNL A   1      36.489  32.034  31.626  1.00  0.00     0.012 A 
ATOM     54  C   UNL A   1      36.491  33.129  29.461  1.00  0.00     0.148 A 
ATOM     55  C   UNL A   1      35.152  32.398  31.812  1.00  0.00     0.002 A 
ATOM     56  C   UNL A   1      35.179  33.539  29.676  1.00  0.00     0.091 A 
ATOM     57  F   UNL A   1      37.142  33.432  28.329  1.00  0.00    -0.205 F 
ATOM     58  C   UNL A   1      34.502  33.158  30.844  1.00  0.00     0.022 A 
BRANCH  56  59
ATOM     59  S   UNL A   1      34.313  34.629  28.539  1.00  0.00     0.127 S 
ATOM     60  O   UNL A   1      32.943  34.131  28.633  1.00  0.00    -0.237 OA
ATOM     61  O   UNL A   1      34.535  35.942  29.147  1.00  0.00    -0.237 OA
ATOM     62  O   UNL A   1      34.968  34.449  27.250  1.00  0.00    -0.744 OA
ENDBRANCH  56  59
ENDBRANCH  28  52
BRANCH  40  63
ATOM     63  C   UNL A   1      43.337  35.042  32.395  1.00  0.00     0.023 A 
ATOM     64  C   UNL A   1      43.573  36.246  31.706  1.00  0.00     0.012 A 
ATOM     65  C   UNL A   1      43.333  35.029  33.803  1.00  0.00     0.148 A 
ATOM     66  C   UNL A   1      43.822  37.421  32.411  1.00  0.00     0.002 A 
ATOM     67  C   UNL A   1      43.524  36.214  34.498  1.00  0.00     0.091 A 
ATOM     68  F   UNL A   1      43.120  33.863  34.431  1.00  0.00    -0.205 F 
ATOM     69  C   UNL A   1      43.782  37.408  33.805  1.00  0.00     0.022 A 
BRANCH  67  70
ATOM     70  S   UNL A   1      43.374  36.312  36.284  1.00  0.00     0.127 S 
ATOM     71  O   UNL A   1      44.478  35.459  36.722  1.00  0.00    -0.237 OA
ATOM     72  O   UNL A   1      43.570  37.741  36.532  1.00  0.00    -0.237 OA
ATOM     73  O   UNL A   1      42.041  35.819  36.605  1.00  0.00    -0.744 OA
ENDBRANCH  67  70
ENDBRANCH  40  63
ENDBRANCH  14  15
ENDBRANCH   7   9
ENDBRANCH   6   7
ENDBRANCH   5   6
ENDBRANCH   4   5
ENDBRANCH   3   4
ENDBRANCH   2   3
ENDBRANCH   1   2
BRANCH   1  74
ATOM     74  O   UNL A   1      31.829  22.642  26.268  1.00  0.00    -0.377 OA
BRANCH  74  75
ATOM     75  C   UNL A   1      31.043  23.743  25.817  1.00  0.00     0.188 C 
BRANCH  75  76
ATOM     76  C   UNL A   1      30.813  23.932  24.300  1.00  0.00     0.188 C 
BRANCH  76  77
ATOM     77  O   UNL A   1      30.881  25.283  23.877  1.00  0.00    -0.376 OA
BRANCH  77  78
ATOM     78  C   UNL A   1      29.904  26.154  24.434  1.00  0.00     0.202 C 
BRANCH  78  79
ATOM     79  C   UNL A   1      29.235  27.126  23.450  1.00  0.00     0.261 C 
BRANCH  79  80
ATOM     80  O   UNL A   1      30.031  27.523  22.317  1.00  0.00    -0.460 OA
BRANCH  80  81
ATOM     81  C   UNL A   1      30.534  28.776  22.254  1.00  0.00     0.341 C 
ATOM     82  O   UNL A   1      30.138  29.706  21.576  1.00  0.00    -0.246 OA
BRANCH  81  83
ATOM     83  C   UNL A   1      31.598  28.838  23.276  1.00  0.00     0.099 A 
ATOM     84  C   UNL A   1      32.773  28.101  23.105  1.00  0.00     0.021 A 
ATOM     85  C   UNL A   1      31.354  29.463  24.494  1.00  0.00     0.175 A 
ATOM     86  C   UNL A   1      33.688  27.976  24.162  1.00  0.00     0.030 A 
ATOM     87  C   UNL A   1      32.250  29.292  25.549  1.00  0.00     0.182 A 
ATOM     88  F   UNL A   1      30.206  30.120  24.718  1.00  0.00    -0.203 F 
ATOM     89  C   UNL A   1      33.434  28.542  25.413  1.00  0.00     0.074 A 
ATOM     90  F   UNL A   1      31.951  29.817  26.751  1.00  0.00    -0.201 F 
BRANCH  89  91
ATOM     91  N   UNL A   1      34.278  28.417  26.539  1.00  0.00    -0.380 N 
ATOM     92  H   UNL A   1      34.330  27.511  26.918  1.00  0.00     0.160 HD
BRANCH  91  93
ATOM     93  C   UNL A   1      35.082  29.419  27.227  1.00  0.00     0.079 C 
ATOM     94  C   UNL A   1      34.803  30.888  27.320  1.00  0.00     0.027 C 
ATOM     95  C   UNL A   1      34.694  30.019  28.546  1.00  0.00     0.027 C 
ENDBRANCH  91  93
ENDBRANCH  89  91
ENDBRANCH  81  83
ENDBRANCH  80  81
ENDBRANCH  79  80
ENDBRANCH  78  79
ENDBRANCH  77  78
ENDBRANCH  76  77
ENDBRANCH  75  76
ENDBRANCH  74  75
ENDBRANCH   1  74
TORSDOF 25
ENDMDL
