MODEL 1
REMARK VINA RESULT:      -7.1      0.000      0.000
REMARK SMILES O=C(OCCOCCOCCOCCOC(=O)C1(NC(=O)c2ccncc2Cl)CCCCC1)c1ccc(-c2c3nc(c(-c4cccc(S(=O)(=O)[O-])c4F)c4ccc([nH]4)c(-c4cccc(S(=O)(=O)[O-])c4F)c4nc(c(-c5cccc(S(=O)(=O)[O-])c5F)c5ccc2[nH]5)C=C4)C=C3)cc1
REMARK SMILES IDX 8 1 7 2 6 3 5 4 4 5 3 6 2 7 1 8 34 9 35 10 96 11 36 12 95 13
REMARK SMILES IDX 37 14 38 15 39 16 89 17 40 18 94 19 88 20 90 21 41 22 93 23
REMARK SMILES IDX 87 24 86 25 42 27 74 28 54 29 73 30 55 31 58 32 72 33 91 34
REMARK SMILES IDX 56 35 57 36 71 38 92 39 59 40 43 41 44 42 52 43 45 44 47 45
REMARK SMILES IDX 53 46 46 47 48 48 49 49 50 50 51 51 75 52 76 53 84 54 77 55
REMARK SMILES IDX 79 56 85 57 78 58 80 59 81 60 82 61 83 62 60 63 61 64 69 65
REMARK SMILES IDX 62 66 64 67 70 68 63 69 65 70 66 71 67 72 68 73 9 74 10 75
REMARK SMILES IDX 11 76 12 77 13 78 14 79 15 80 16 81 17 82 18 83 29 84 33 85
REMARK SMILES IDX 30 86 32 87 31 88 19 89 20 90 21 92 22 93 23 94 27 95 24 96
REMARK SMILES IDX 26 97 28 98 25 99
REMARK H PARENT 90 26 58 37 19 91
REMARK Flexibility Score: inf
ROOT
ATOM      1  C   UNL A   1      48.174  25.780  24.574  1.00  0.00     0.188 C 
ENDROOT
BRANCH   1   2
ATOM      2  C   UNL A   1      48.734  27.065  23.970  1.00  0.00     0.188 C 
BRANCH   2   3
ATOM      3  O   UNL A   1      50.104  26.901  23.627  1.00  0.00    -0.376 OA
BRANCH   3   4
ATOM      4  C   UNL A   1      51.053  27.374  24.573  1.00  0.00     0.202 C 
BRANCH   4   5
ATOM      5  C   UNL A   1      50.436  27.795  25.917  1.00  0.00     0.261 C 
BRANCH   5   6
ATOM      6  O   UNL A   1      51.197  27.220  26.993  1.00  0.00    -0.460 OA
BRANCH   6   7
ATOM      7  C   UNL A   1      50.838  25.966  27.405  1.00  0.00     0.338 C 
ATOM      8  O   UNL A   1      51.002  24.919  26.834  1.00  0.00    -0.246 OA
BRANCH   7   9
ATOM      9  C   UNL A   1      49.925  26.220  28.538  1.00  0.00     0.060 A 
ATOM     10  C   UNL A   1      48.654  25.677  28.378  1.00  0.00     0.016 A 
ATOM     11  C   UNL A   1      50.173  27.163  29.529  1.00  0.00     0.016 A 
ATOM     12  C   UNL A   1      47.573  26.273  28.979  1.00  0.00     0.010 A 
ATOM     13  C   UNL A   1      49.088  27.650  30.270  1.00  0.00     0.010 A 
ATOM     14  C   UNL A   1      47.773  27.279  29.921  1.00  0.00    -0.014 A 
BRANCH  14  15
ATOM     15  C   UNL A   1      46.587  28.045  30.366  1.00  0.00     0.031 A 
ATOM     16  C   UNL A   1      46.151  29.229  29.549  1.00  0.00     0.074 A 
ATOM     17  C   UNL A   1      45.831  27.597  31.388  1.00  0.00     0.049 A 
ATOM     18  N   UNL A   1      45.261  30.143  29.827  1.00  0.00    -0.248 NA
ATOM     19  C   UNL A   1      46.799  29.407  28.235  1.00  0.00     0.031 C 
ATOM     20  C   UNL A   1      46.073  26.365  32.147  1.00  0.00     0.029 A 
ATOM     21  N   UNL A   1      44.697  28.114  31.955  1.00  0.00    -0.354 N 
ATOM     22  C   UNL A   1      45.315  31.052  28.776  1.00  0.00     0.074 A 
ATOM     23  C   UNL A   1      46.294  30.563  27.834  1.00  0.00     0.031 C 
ATOM     24  C   UNL A   1      45.108  26.212  33.064  1.00  0.00     0.029 A 
ATOM     25  C   UNL A   1      44.260  27.394  33.044  1.00  0.00     0.049 A 
ATOM     26  H   UNL A   1      44.240  28.918  31.619  1.00  0.00     0.167 HD
ATOM     27  C   UNL A   1      44.616  32.199  28.630  1.00  0.00     0.034 A 
ATOM     28  C   UNL A   1      43.333  27.703  33.970  1.00  0.00     0.034 A 
ATOM     29  C   UNL A   1      43.620  32.630  29.570  1.00  0.00     0.049 A 
ATOM     30  C   UNL A   1      42.628  29.024  33.831  1.00  0.00     0.074 A 
ATOM     31  C   UNL A   1      42.882  33.797  29.579  1.00  0.00     0.029 A 
ATOM     32  N   UNL A   1      43.221  31.891  30.677  1.00  0.00    -0.354 N 
ATOM     33  N   UNL A   1      42.724  29.914  32.872  1.00  0.00    -0.248 NA
ATOM     34  C   UNL A   1      41.692  29.387  34.901  1.00  0.00     0.031 C 
ATOM     35  C   UNL A   1      42.059  33.778  30.710  1.00  0.00     0.029 A 
ATOM     36  C   UNL A   1      42.253  32.578  31.380  1.00  0.00     0.049 A 
ATOM     37  H   UNL A   1      43.577  31.007  30.922  1.00  0.00     0.167 HD
ATOM     38  C   UNL A   1      41.844  30.934  33.209  1.00  0.00     0.074 A 
ATOM     39  C   UNL A   1      41.201  30.531  34.445  1.00  0.00     0.031 C 
ATOM     40  C   UNL A   1      41.601  32.109  32.577  1.00  0.00     0.034 A 
BRANCH  27  41
ATOM     41  C   UNL A   1      44.956  33.080  27.457  1.00  0.00     0.023 A 
ATOM     42  C   UNL A   1      44.260  32.958  26.239  1.00  0.00     0.012 A 
ATOM     43  C   UNL A   1      45.988  34.033  27.571  1.00  0.00     0.148 A 
ATOM     44  C   UNL A   1      44.612  33.743  25.140  1.00  0.00     0.002 A 
ATOM     45  C   UNL A   1      46.304  34.842  26.487  1.00  0.00     0.091 A 
ATOM     46  F   UNL A   1      46.654  34.117  28.731  1.00  0.00    -0.205 F 
ATOM     47  C   UNL A   1      45.627  34.689  25.266  1.00  0.00     0.022 A 
BRANCH  45  48
ATOM     48  S   UNL A   1      47.555  36.129  26.565  1.00  0.00     0.127 S 
ATOM     49  O   UNL A   1      47.065  37.076  25.563  1.00  0.00    -0.237 OA
ATOM     50  O   UNL A   1      47.433  36.587  27.949  1.00  0.00    -0.237 OA
ATOM     51  O   UNL A   1      48.820  35.485  26.240  1.00  0.00    -0.744 OA
ENDBRANCH  45  48
ENDBRANCH  27  41
BRANCH  28  52
ATOM     52  C   UNL A   1      43.077  26.800  35.130  1.00  0.00     0.023 A 
ATOM     53  C   UNL A   1      41.995  25.900  35.091  1.00  0.00     0.012 A 
ATOM     54  C   UNL A   1      43.889  26.839  36.283  1.00  0.00     0.148 A 
ATOM     55  C   UNL A   1      41.702  25.089  36.190  1.00  0.00     0.002 A 
ATOM     56  C   UNL A   1      43.631  25.983  37.347  1.00  0.00     0.091 A 
ATOM     57  F   UNL A   1      44.902  27.716  36.320  1.00  0.00    -0.205 F 
ATOM     58  C   UNL A   1      42.524  25.124  37.313  1.00  0.00     0.022 A 
BRANCH  56  59
ATOM     59  S   UNL A   1      44.716  25.871  38.775  1.00  0.00     0.127 S 
ATOM     60  O   UNL A   1      44.012  26.699  39.750  1.00  0.00    -0.237 OA
ATOM     61  O   UNL A   1      44.696  24.435  39.055  1.00  0.00    -0.237 OA
ATOM     62  O   UNL A   1      46.006  26.375  38.326  1.00  0.00    -0.744 OA
ENDBRANCH  56  59
ENDBRANCH  28  52
BRANCH  40  63
ATOM     63  C   UNL A   1      40.562  33.007  33.184  1.00  0.00     0.023 A 
ATOM     64  C   UNL A   1      40.932  33.965  34.147  1.00  0.00     0.012 A 
ATOM     65  C   UNL A   1      39.228  32.944  32.739  1.00  0.00     0.148 A 
ATOM     66  C   UNL A   1      39.979  34.827  34.684  1.00  0.00     0.002 A 
ATOM     67  C   UNL A   1      38.297  33.844  33.235  1.00  0.00     0.091 A 
ATOM     68  F   UNL A   1      38.899  32.007  31.837  1.00  0.00    -0.205 F 
ATOM     69  C   UNL A   1      38.667  34.777  34.219  1.00  0.00     0.022 A 
BRANCH  67  70
ATOM     70  S   UNL A   1      36.618  33.923  32.607  1.00  0.00     0.127 S 
ATOM     71  O   UNL A   1      36.057  32.666  33.100  1.00  0.00    -0.237 OA
ATOM     72  O   UNL A   1      36.099  35.123  33.265  1.00  0.00    -0.237 OA
ATOM     73  O   UNL A   1      36.733  34.031  31.160  1.00  0.00    -0.744 OA
ENDBRANCH  67  70
ENDBRANCH  40  63
ENDBRANCH  14  15
ENDBRANCH   7   9
ENDBRANCH   6   7
ENDBRANCH   5   6
ENDBRANCH   4   5
ENDBRANCH   3   4
ENDBRANCH   2   3
ENDBRANCH   1   2
BRANCH   1  74
ATOM     74  O   UNL A   1      46.847  25.398  24.181  1.00  0.00    -0.377 OA
BRANCH  74  75
ATOM     75  C   UNL A   1      45.772  25.403  25.134  1.00  0.00     0.188 C 
BRANCH  75  76
ATOM     76  C   UNL A   1      45.720  26.759  25.921  1.00  0.00     0.188 C 
BRANCH  76  77
ATOM     77  O   UNL A   1      45.166  27.864  25.177  1.00  0.00    -0.376 OA
BRANCH  77  78
ATOM     78  C   UNL A   1      44.058  28.532  25.825  1.00  0.00     0.202 C 
BRANCH  78  79
ATOM     79  C   UNL A   1      42.845  27.624  26.132  1.00  0.00     0.261 C 
BRANCH  79  80
ATOM     80  O   UNL A   1      41.705  28.407  26.488  1.00  0.00    -0.461 OA
BRANCH  80  81
ATOM     81  C   UNL A   1      41.477  28.750  27.774  1.00  0.00     0.331 C 
ATOM     82  O   UNL A   1      42.230  29.439  28.450  1.00  0.00    -0.249 OA
BRANCH  81  83
ATOM     83  C   UNL A   1      40.074  28.229  28.225  1.00  0.00     0.138 C 
ATOM     84  C   UNL A   1      39.972  28.120  29.759  1.00  0.00     0.040 C 
ATOM     85  C   UNL A   1      39.082  29.351  27.720  1.00  0.00     0.040 C 
ATOM     86  C   UNL A   1      38.519  28.059  30.256  1.00  0.00     0.003 C 
ATOM     87  C   UNL A   1      37.689  29.401  28.343  1.00  0.00     0.003 C 
ATOM     88  C   UNL A   1      37.751  29.309  29.854  1.00  0.00     0.000 C 
BRANCH  83  89
ATOM     89  N   UNL A   1      39.816  26.889  27.592  1.00  0.00    -0.336 N 
ATOM     90  C   UNL A   1      40.103  25.637  28.143  1.00  0.00     0.253 C 
ATOM     91  H   UNL A   1      39.401  26.895  26.698  1.00  0.00     0.165 HD
ATOM     92  O   UNL A   1      39.223  25.045  28.766  1.00  0.00    -0.269 OA
BRANCH  90  93
ATOM     93  C   UNL A   1      41.370  24.889  27.797  1.00  0.00     0.061 A 
ATOM     94  C   UNL A   1      41.380  23.909  26.800  1.00  0.00     0.035 A 
ATOM     95  C   UNL A   1      42.556  25.053  28.501  1.00  0.00     0.072 A 
ATOM     96  C   UNL A   1      42.522  23.188  26.485  1.00  0.00     0.112 A 
ATOM     97  C   UNL A   1      43.659  24.269  28.139  1.00  0.00     0.132 A 
ATOM     98  Cl  UNL A   1      42.754  26.194  29.772  1.00  0.00    -0.082 Cl
ATOM     99  N   UNL A   1      43.672  23.348  27.146  1.00  0.00    -0.263 NA
ENDBRANCH  90  93
ENDBRANCH  83  89
ENDBRANCH  81  83
ENDBRANCH  80  81
ENDBRANCH  79  80
ENDBRANCH  78  79
ENDBRANCH  77  78
ENDBRANCH  76  77
ENDBRANCH  75  76
ENDBRANCH  74  75
ENDBRANCH   1  74
TORSDOF 25
ENDMDL
MODEL 2
REMARK VINA RESULT:      -6.8      6.654     13.651
REMARK SMILES O=C(OCCOCCOCCOCCOC(=O)C1(NC(=O)c2ccncc2Cl)CCCCC1)c1ccc(-c2c3nc(c(-c4cccc(S(=O)(=O)[O-])c4F)c4ccc([nH]4)c(-c4cccc(S(=O)(=O)[O-])c4F)c4nc(c(-c5cccc(S(=O)(=O)[O-])c5F)c5ccc2[nH]5)C=C4)C=C3)cc1
REMARK SMILES IDX 8 1 7 2 6 3 5 4 4 5 3 6 2 7 1 8 34 9 35 10 96 11 36 12 95 13
REMARK SMILES IDX 37 14 38 15 39 16 89 17 40 18 94 19 88 20 90 21 41 22 93 23
REMARK SMILES IDX 87 24 86 25 42 27 74 28 54 29 73 30 55 31 58 32 72 33 91 34
REMARK SMILES IDX 56 35 57 36 71 38 92 39 59 40 43 41 44 42 52 43 45 44 47 45
REMARK SMILES IDX 53 46 46 47 48 48 49 49 50 50 51 51 75 52 76 53 84 54 77 55
REMARK SMILES IDX 79 56 85 57 78 58 80 59 81 60 82 61 83 62 60 63 61 64 69 65
REMARK SMILES IDX 62 66 64 67 70 68 63 69 65 70 66 71 67 72 68 73 9 74 10 75
REMARK SMILES IDX 11 76 12 77 13 78 14 79 15 80 16 81 17 82 18 83 29 84 33 85
REMARK SMILES IDX 30 86 32 87 31 88 19 89 20 90 21 92 22 93 23 94 27 95 24 96
REMARK SMILES IDX 26 97 28 98 25 99
REMARK H PARENT 90 26 58 37 19 91
REMARK Flexibility Score: inf
ROOT
ATOM      1  C   UNL A   1      42.391  32.197  38.806  1.00  0.00     0.188 C 
ENDROOT
BRANCH   1   2
ATOM      2  C   UNL A   1      43.702  31.973  39.554  1.00  0.00     0.188 C 
BRANCH   2   3
ATOM      3  O   UNL A   1      44.344  30.790  39.095  1.00  0.00    -0.376 OA
BRANCH   3   4
ATOM      4  C   UNL A   1      45.293  30.205  39.977  1.00  0.00     0.202 C 
BRANCH   4   5
ATOM      5  C   UNL A   1      46.346  29.336  39.270  1.00  0.00     0.261 C 
BRANCH   5   6
ATOM      6  O   UNL A   1      45.702  28.509  38.286  1.00  0.00    -0.460 OA
BRANCH   6   7
ATOM      7  C   UNL A   1      46.486  27.604  37.626  1.00  0.00     0.338 C 
ATOM      8  O   UNL A   1      47.596  27.234  37.909  1.00  0.00    -0.246 OA
BRANCH   7   9
ATOM      9  C   UNL A   1      45.804  27.434  36.326  1.00  0.00     0.060 A 
ATOM     10  C   UNL A   1      46.081  28.434  35.401  1.00  0.00     0.016 A 
ATOM     11  C   UNL A   1      44.744  26.556  36.125  1.00  0.00     0.016 A 
ATOM     12  C   UNL A   1      45.151  28.763  34.446  1.00  0.00     0.010 A 
ATOM     13  C   UNL A   1      43.888  26.787  35.040  1.00  0.00     0.010 A 
ATOM     14  C   UNL A   1      44.033  27.954  34.263  1.00  0.00    -0.014 A 
BRANCH  14  15
ATOM     15  C   UNL A   1      42.953  28.469  33.392  1.00  0.00     0.031 A 
ATOM     16  C   UNL A   1      41.995  29.479  33.958  1.00  0.00     0.074 A 
ATOM     17  C   UNL A   1      42.926  28.154  32.081  1.00  0.00     0.049 A 
ATOM     18  N   UNL A   1      40.883  29.939  33.453  1.00  0.00    -0.248 NA
ATOM     19  C   UNL A   1      42.338  30.058  35.272  1.00  0.00     0.031 C 
ATOM     20  C   UNL A   1      43.907  27.309  31.390  1.00  0.00     0.029 A 
ATOM     21  N   UNL A   1      42.054  28.519  31.091  1.00  0.00    -0.354 N 
ATOM     22  C   UNL A   1      40.348  30.779  34.423  1.00  0.00     0.074 A 
ATOM     23  C   UNL A   1      41.272  30.799  35.533  1.00  0.00     0.031 C 
ATOM     24  C   UNL A   1      43.593  27.238  30.090  1.00  0.00     0.029 A 
ATOM     25  C   UNL A   1      42.325  27.919  29.882  1.00  0.00     0.049 A 
ATOM     26  H   UNL A   1      41.308  29.147  31.229  1.00  0.00     0.167 HD
ATOM     27  C   UNL A   1      39.178  31.455  34.387  1.00  0.00     0.034 A 
ATOM     28  C   UNL A   1      41.584  27.860  28.760  1.00  0.00     0.034 A 
ATOM     29  C   UNL A   1      38.305  31.441  33.247  1.00  0.00     0.049 A 
ATOM     30  C   UNL A   1      40.248  28.550  28.774  1.00  0.00     0.074 A 
ATOM     31  C   UNL A   1      37.064  32.028  33.099  1.00  0.00     0.029 A 
ATOM     32  N   UNL A   1      38.597  30.801  32.050  1.00  0.00    -0.354 N 
ATOM     33  N   UNL A   1      39.712  29.293  29.715  1.00  0.00    -0.248 NA
ATOM     34  C   UNL A   1      39.412  28.394  27.579  1.00  0.00     0.031 C 
ATOM     35  C   UNL A   1      36.591  31.715  31.819  1.00  0.00     0.029 A 
ATOM     36  C   UNL A   1      37.558  30.972  31.157  1.00  0.00     0.049 A 
ATOM     37  H   UNL A   1      39.424  30.301  31.865  1.00  0.00     0.167 HD
ATOM     38  C   UNL A   1      38.486  29.711  29.217  1.00  0.00     0.074 A 
ATOM     39  C   UNL A   1      38.377  29.167  27.877  1.00  0.00     0.031 C 
ATOM     40  C   UNL A   1      37.521  30.456  29.812  1.00  0.00     0.034 A 
BRANCH  27  41
ATOM     41  C   UNL A   1      38.761  32.195  35.630  1.00  0.00     0.023 A 
ATOM     42  C   UNL A   1      39.000  33.578  35.759  1.00  0.00     0.012 A 
ATOM     43  C   UNL A   1      38.132  31.502  36.684  1.00  0.00     0.148 A 
ATOM     44  C   UNL A   1      38.655  34.250  36.932  1.00  0.00     0.002 A 
ATOM     45  C   UNL A   1      37.752  32.186  37.831  1.00  0.00     0.091 A 
ATOM     46  F   UNL A   1      37.936  30.183  36.551  1.00  0.00    -0.205 F 
ATOM     47  C   UNL A   1      38.025  33.557  37.964  1.00  0.00     0.022 A 
BRANCH  45  48
ATOM     48  S   UNL A   1      36.883  31.396  39.191  1.00  0.00     0.127 S 
ATOM     49  O   UNL A   1      37.756  31.713  40.321  1.00  0.00    -0.237 OA
ATOM     50  O   UNL A   1      35.605  32.108  39.189  1.00  0.00    -0.237 OA
ATOM     51  O   UNL A   1      36.800  29.983  38.853  1.00  0.00    -0.744 OA
ENDBRANCH  45  48
ENDBRANCH  27  41
BRANCH  28  52
ATOM     52  C   UNL A   1      42.042  27.072  27.579  1.00  0.00     0.023 A 
ATOM     53  C   UNL A   1      42.684  27.723  26.509  1.00  0.00     0.012 A 
ATOM     54  C   UNL A   1      41.830  25.679  27.500  1.00  0.00     0.148 A 
ATOM     55  C   UNL A   1      43.066  27.013  25.368  1.00  0.00     0.002 A 
ATOM     56  C   UNL A   1      42.271  24.968  26.390  1.00  0.00     0.091 A 
ATOM     57  F   UNL A   1      41.197  25.072  28.514  1.00  0.00    -0.205 F 
ATOM     58  C   UNL A   1      42.868  25.636  25.312  1.00  0.00     0.022 A 
BRANCH  56  59
ATOM     59  S   UNL A   1      42.175  23.177  26.296  1.00  0.00     0.127 S 
ATOM     60  O   UNL A   1      42.958  22.774  27.460  1.00  0.00    -0.237 OA
ATOM     61  O   UNL A   1      40.734  22.947  26.411  1.00  0.00    -0.237 OA
ATOM     62  O   UNL A   1      42.735  22.822  24.999  1.00  0.00    -0.744 OA
ENDBRANCH  56  59
ENDBRANCH  28  52
BRANCH  40  63
ATOM     63  C   UNL A   1      36.299  30.765  28.997  1.00  0.00     0.023 A 
ATOM     64  C   UNL A   1      35.575  29.723  28.387  1.00  0.00     0.012 A 
ATOM     65  C   UNL A   1      35.831  32.089  28.901  1.00  0.00     0.148 A 
ATOM     66  C   UNL A   1      34.418  30.001  27.662  1.00  0.00     0.002 A 
ATOM     67  C   UNL A   1      34.648  32.351  28.228  1.00  0.00     0.091 A 
ATOM     68  F   UNL A   1      36.553  33.065  29.473  1.00  0.00    -0.205 F 
ATOM     69  C   UNL A   1      33.947  31.310  27.594  1.00  0.00     0.022 A 
BRANCH  67  70
ATOM     70  S   UNL A   1      33.912  33.987  28.190  1.00  0.00     0.127 S 
ATOM     71  O   UNL A   1      34.071  34.416  29.579  1.00  0.00    -0.237 OA
ATOM     72  O   UNL A   1      34.767  34.688  27.232  1.00  0.00    -0.237 OA
ATOM     73  O   UNL A   1      32.537  33.800  27.748  1.00  0.00    -0.744 OA
ENDBRANCH  67  70
ENDBRANCH  40  63
ENDBRANCH  14  15
ENDBRANCH   7   9
ENDBRANCH   6   7
ENDBRANCH   5   6
ENDBRANCH   4   5
ENDBRANCH   3   4
ENDBRANCH   2   3
ENDBRANCH   1   2
BRANCH   1  74
ATOM     74  O   UNL A   1      41.198  32.309  39.596  1.00  0.00    -0.377 OA
BRANCH  74  75
ATOM     75  C   UNL A   1      41.189  33.091  40.801  1.00  0.00     0.188 C 
BRANCH  75  76
ATOM     76  C   UNL A   1      40.609  34.525  40.543  1.00  0.00     0.188 C 
BRANCH  76  77
ATOM     77  O   UNL A   1      39.795  35.044  41.615  1.00  0.00    -0.376 OA
BRANCH  77  78
ATOM     78  C   UNL A   1      40.540  35.655  42.695  1.00  0.00     0.202 C 
BRANCH  78  79
ATOM     79  C   UNL A   1      40.054  37.066  43.099  1.00  0.00     0.261 C 
BRANCH  79  80
ATOM     80  O   UNL A   1      40.854  38.072  42.474  1.00  0.00    -0.461 OA
BRANCH  80  81
ATOM     81  C   UNL A   1      40.325  38.896  41.545  1.00  0.00     0.331 C 
ATOM     82  O   UNL A   1      39.856  38.525  40.478  1.00  0.00    -0.249 OA
BRANCH  81  83
ATOM     83  C   UNL A   1      40.305  40.364  42.084  1.00  0.00     0.138 C 
ATOM     84  C   UNL A   1      39.416  40.500  43.336  1.00  0.00     0.040 C 
ATOM     85  C   UNL A   1      41.809  40.632  42.486  1.00  0.00     0.040 C 
ATOM     86  C   UNL A   1      39.719  41.772  44.145  1.00  0.00     0.003 C 
ATOM     87  C   UNL A   1      42.095  41.794  43.434  1.00  0.00     0.003 C 
ATOM     88  C   UNL A   1      41.162  41.781  44.628  1.00  0.00     0.000 C 
BRANCH  83  89
ATOM     89  N   UNL A   1      39.814  41.284  40.998  1.00  0.00    -0.336 N 
ATOM     90  C   UNL A   1      40.494  42.385  40.469  1.00  0.00     0.253 C 
ATOM     91  H   UNL A   1      38.925  41.089  40.623  1.00  0.00     0.165 HD
ATOM     92  O   UNL A   1      41.174  42.233  39.455  1.00  0.00    -0.269 OA
BRANCH  90  93
ATOM     93  C   UNL A   1      40.228  43.791  40.956  1.00  0.00     0.061 A 
ATOM     94  C   UNL A   1      38.924  44.277  41.082  1.00  0.00     0.035 A 
ATOM     95  C   UNL A   1      41.245  44.704  41.207  1.00  0.00     0.072 A 
ATOM     96  C   UNL A   1      38.656  45.573  41.498  1.00  0.00     0.112 A 
ATOM     97  C   UNL A   1      40.892  46.002  41.599  1.00  0.00     0.132 A 
ATOM     98  Cl  UNL A   1      42.917  44.315  41.098  1.00  0.00    -0.082 Cl
ATOM     99  N   UNL A   1      39.626  46.455  41.756  1.00  0.00    -0.263 NA
ENDBRANCH  90  93
ENDBRANCH  83  89
ENDBRANCH  81  83
ENDBRANCH  80  81
ENDBRANCH  79  80
ENDBRANCH  78  79
ENDBRANCH  77  78
ENDBRANCH  76  77
ENDBRANCH  75  76
ENDBRANCH  74  75
ENDBRANCH   1  74
TORSDOF 25
ENDMDL
MODEL 3
REMARK VINA RESULT:      -6.6      5.333     11.134
REMARK SMILES O=C(OCCOCCOCCOCCOC(=O)C1(NC(=O)c2ccncc2Cl)CCCCC1)c1ccc(-c2c3nc(c(-c4cccc(S(=O)(=O)[O-])c4F)c4ccc([nH]4)c(-c4cccc(S(=O)(=O)[O-])c4F)c4nc(c(-c5cccc(S(=O)(=O)[O-])c5F)c5ccc2[nH]5)C=C4)C=C3)cc1
REMARK SMILES IDX 8 1 7 2 6 3 5 4 4 5 3 6 2 7 1 8 34 9 35 10 96 11 36 12 95 13
REMARK SMILES IDX 37 14 38 15 39 16 89 17 40 18 94 19 88 20 90 21 41 22 93 23
REMARK SMILES IDX 87 24 86 25 42 27 74 28 54 29 73 30 55 31 58 32 72 33 91 34
REMARK SMILES IDX 56 35 57 36 71 38 92 39 59 40 43 41 44 42 52 43 45 44 47 45
REMARK SMILES IDX 53 46 46 47 48 48 49 49 50 50 51 51 75 52 76 53 84 54 77 55
REMARK SMILES IDX 79 56 85 57 78 58 80 59 81 60 82 61 83 62 60 63 61 64 69 65
REMARK SMILES IDX 62 66 64 67 70 68 63 69 65 70 66 71 67 72 68 73 9 74 10 75
REMARK SMILES IDX 11 76 12 77 13 78 14 79 15 80 16 81 17 82 18 83 29 84 33 85
REMARK SMILES IDX 30 86 32 87 31 88 19 89 20 90 21 92 22 93 23 94 27 95 24 96
REMARK SMILES IDX 26 97 28 98 25 99
REMARK H PARENT 90 26 58 37 19 91
REMARK Flexibility Score: inf
ROOT
ATOM      1  C   UNL A   1      48.760  29.150  39.960  1.00  0.00     0.188 C 
ENDROOT
BRANCH   1   2
ATOM      2  C   UNL A   1      49.384  29.376  38.586  1.00  0.00     0.188 C 
BRANCH   2   3
ATOM      3  O   UNL A   1      49.984  28.180  38.106  1.00  0.00    -0.376 OA
BRANCH   3   4
ATOM      4  C   UNL A   1      49.144  27.307  37.362  1.00  0.00     0.202 C 
BRANCH   4   5
ATOM      5  C   UNL A   1      49.789  26.769  36.074  1.00  0.00     0.261 C 
BRANCH   5   6
ATOM      6  O   UNL A   1      48.838  26.839  34.998  1.00  0.00    -0.460 OA
BRANCH   6   7
ATOM      7  C   UNL A   1      47.777  25.978  35.051  1.00  0.00     0.338 C 
ATOM      8  O   UNL A   1      47.775  24.785  34.890  1.00  0.00    -0.246 OA
BRANCH   7   9
ATOM      9  C   UNL A   1      46.602  26.874  35.026  1.00  0.00     0.060 A 
ATOM     10  C   UNL A   1      45.379  26.211  35.047  1.00  0.00     0.016 A 
ATOM     11  C   UNL A   1      46.671  28.223  34.695  1.00  0.00     0.016 A 
ATOM     12  C   UNL A   1      44.279  26.783  34.458  1.00  0.00     0.010 A 
ATOM     13  C   UNL A   1      45.503  28.861  34.257  1.00  0.00     0.010 A 
ATOM     14  C   UNL A   1      44.329  28.110  34.039  1.00  0.00    -0.014 A 
BRANCH  14  15
ATOM     15  C   UNL A   1      43.211  28.608  33.208  1.00  0.00     0.031 A 
ATOM     16  C   UNL A   1      42.250  29.593  33.813  1.00  0.00     0.074 A 
ATOM     17  C   UNL A   1      43.149  28.303  31.896  1.00  0.00     0.049 A 
ATOM     18  N   UNL A   1      41.113  30.032  33.348  1.00  0.00    -0.248 NA
ATOM     19  C   UNL A   1      42.622  30.168  35.120  1.00  0.00     0.031 C 
ATOM     20  C   UNL A   1      44.126  27.485  31.167  1.00  0.00     0.029 A 
ATOM     21  N   UNL A   1      42.238  28.657  30.937  1.00  0.00    -0.354 N 
ATOM     22  C   UNL A   1      40.591  30.852  34.342  1.00  0.00     0.074 A 
ATOM     23  C   UNL A   1      41.550  30.884  35.421  1.00  0.00     0.031 C 
ATOM     24  C   UNL A   1      43.772  27.418  29.876  1.00  0.00     0.029 A 
ATOM     25  C   UNL A   1      42.483  28.073  29.715  1.00  0.00     0.049 A 
ATOM     26  H   UNL A   1      41.483  29.267  31.104  1.00  0.00     0.167 HD
ATOM     27  C   UNL A   1      39.406  31.502  34.349  1.00  0.00     0.034 A 
ATOM     28  C   UNL A   1      41.708  28.007  28.617  1.00  0.00     0.034 A 
ATOM     29  C   UNL A   1      38.498  31.479  33.237  1.00  0.00     0.049 A 
ATOM     30  C   UNL A   1      40.358  28.668  28.679  1.00  0.00     0.074 A 
ATOM     31  C   UNL A   1      37.240  32.040  33.133  1.00  0.00     0.029 A 
ATOM     32  N   UNL A   1      38.764  30.855  32.025  1.00  0.00    -0.354 N 
ATOM     33  N   UNL A   1      39.837  29.390  29.643  1.00  0.00    -0.248 NA
ATOM     34  C   UNL A   1      39.489  28.503  27.510  1.00  0.00     0.031 C 
ATOM     35  C   UNL A   1      36.734  31.727  31.867  1.00  0.00     0.029 A 
ATOM     36  C   UNL A   1      37.695  31.011  31.168  1.00  0.00     0.049 A 
ATOM     37  H   UNL A   1      39.596  30.374  31.810  1.00  0.00     0.167 HD
ATOM     38  C   UNL A   1      38.587  29.786  29.188  1.00  0.00     0.074 A 
ATOM     39  C   UNL A   1      38.447  29.250  27.848  1.00  0.00     0.031 C 
ATOM     40  C   UNL A   1      37.626  30.504  29.820  1.00  0.00     0.034 A 
BRANCH  27  41
ATOM     41  C   UNL A   1      39.014  32.224  35.611  1.00  0.00     0.023 A 
ATOM     42  C   UNL A   1      38.110  31.642  36.521  1.00  0.00     0.012 A 
ATOM     43  C   UNL A   1      39.547  33.499  35.886  1.00  0.00     0.148 A 
ATOM     44  C   UNL A   1      37.712  32.336  37.665  1.00  0.00     0.002 A 
ATOM     45  C   UNL A   1      39.181  34.165  37.048  1.00  0.00     0.091 A 
ATOM     46  F   UNL A   1      40.387  34.044  34.995  1.00  0.00    -0.205 F 
ATOM     47  C   UNL A   1      38.253  33.592  37.933  1.00  0.00     0.022 A 
BRANCH  45  48
ATOM     48  S   UNL A   1      39.865  35.760  37.512  1.00  0.00     0.127 S 
ATOM     49  O   UNL A   1      39.044  36.106  38.673  1.00  0.00    -0.237 OA
ATOM     50  O   UNL A   1      41.251  35.416  37.825  1.00  0.00    -0.237 OA
ATOM     51  O   UNL A   1      39.694  36.627  36.355  1.00  0.00    -0.744 OA
ENDBRANCH  45  48
ENDBRANCH  27  41
BRANCH  28  52
ATOM     52  C   UNL A   1      42.145  27.238  27.415  1.00  0.00     0.023 A 
ATOM     53  C   UNL A   1      42.657  27.921  26.295  1.00  0.00     0.012 A 
ATOM     54  C   UNL A   1      42.040  25.832  27.365  1.00  0.00     0.148 A 
ATOM     55  C   UNL A   1      43.014  27.225  25.138  1.00  0.00     0.002 A 
ATOM     56  C   UNL A   1      42.459  25.140  26.235  1.00  0.00     0.091 A 
ATOM     57  F   UNL A   1      41.530  25.193  28.428  1.00  0.00    -0.205 F 
ATOM     58  C   UNL A   1      42.924  25.836  25.111  1.00  0.00     0.022 A 
BRANCH  56  59
ATOM     59  S   UNL A   1      42.500  23.346  26.167  1.00  0.00     0.127 S 
ATOM     60  O   UNL A   1      43.022  23.110  24.824  1.00  0.00    -0.237 OA
ATOM     61  O   UNL A   1      43.426  23.025  27.254  1.00  0.00    -0.237 OA
ATOM     62  O   UNL A   1      41.129  22.914  26.401  1.00  0.00    -0.744 OA
ENDBRANCH  56  59
ENDBRANCH  28  52
BRANCH  40  63
ATOM     63  C   UNL A   1      36.371  30.794  29.047  1.00  0.00     0.023 A 
ATOM     64  C   UNL A   1      35.611  29.736  28.514  1.00  0.00     0.012 A 
ATOM     65  C   UNL A   1      35.913  32.118  28.915  1.00  0.00     0.148 A 
ATOM     66  C   UNL A   1      34.426  29.996  27.829  1.00  0.00     0.002 A 
ATOM     67  C   UNL A   1      34.703  32.365  28.284  1.00  0.00     0.091 A 
ATOM     68  F   UNL A   1      36.669  33.108  29.414  1.00  0.00    -0.205 F 
ATOM     69  C   UNL A   1      33.965  31.307  27.727  1.00  0.00     0.022 A 
BRANCH  67  70
ATOM     70  S   UNL A   1      33.983  34.007  28.210  1.00  0.00     0.127 S 
ATOM     71  O   UNL A   1      34.118  34.453  29.595  1.00  0.00    -0.237 OA
ATOM     72  O   UNL A   1      34.863  34.687  27.260  1.00  0.00    -0.237 OA
ATOM     73  O   UNL A   1      32.615  33.825  27.743  1.00  0.00    -0.744 OA
ENDBRANCH  67  70
ENDBRANCH  40  63
ENDBRANCH  14  15
ENDBRANCH   7   9
ENDBRANCH   6   7
ENDBRANCH   5   6
ENDBRANCH   4   5
ENDBRANCH   3   4
ENDBRANCH   2   3
ENDBRANCH   1   2
BRANCH   1  74
ATOM     74  O   UNL A   1      47.458  28.547  39.996  1.00  0.00    -0.377 OA
BRANCH  74  75
ATOM     75  C   UNL A   1      47.163  27.500  40.934  1.00  0.00     0.188 C 
BRANCH  75  76
ATOM     76  C   UNL A   1      46.198  26.434  40.308  1.00  0.00     0.188 C 
BRANCH  76  77
ATOM     77  O   UNL A   1      46.768  25.672  39.223  1.00  0.00    -0.376 OA
BRANCH  77  78
ATOM     78  C   UNL A   1      47.878  24.824  39.601  1.00  0.00     0.202 C 
BRANCH  78  79
ATOM     79  C   UNL A   1      47.558  23.311  39.622  1.00  0.00     0.261 C 
BRANCH  79  80
ATOM     80  O   UNL A   1      48.499  22.586  38.828  1.00  0.00    -0.461 OA
BRANCH  80  81
ATOM     81  C   UNL A   1      49.033  21.430  39.276  1.00  0.00     0.331 C 
ATOM     82  O   UNL A   1      49.235  21.172  40.456  1.00  0.00    -0.249 OA
BRANCH  81  83
ATOM     83  C   UNL A   1      49.251  20.444  38.083  1.00  0.00     0.138 C 
ATOM     84  C   UNL A   1      49.661  21.188  36.796  1.00  0.00     0.040 C 
ATOM     85  C   UNL A   1      50.455  19.540  38.563  1.00  0.00     0.040 C 
ATOM     86  C   UNL A   1      50.314  20.263  35.756  1.00  0.00     0.003 C 
ATOM     87  C   UNL A   1      51.219  18.752  37.502  1.00  0.00     0.003 C 
ATOM     88  C   UNL A   1      51.575  19.620  36.312  1.00  0.00     0.000 C 
BRANCH  83  89
ATOM     89  N   UNL A   1      47.987  19.663  37.848  1.00  0.00    -0.336 N 
ATOM     90  C   UNL A   1      46.893  19.568  38.713  1.00  0.00     0.253 C 
ATOM     91  H   UNL A   1      47.924  19.168  36.999  1.00  0.00     0.165 HD
ATOM     92  O   UNL A   1      45.947  20.340  38.563  1.00  0.00    -0.269 OA
BRANCH  90  93
ATOM     93  C   UNL A   1      46.729  18.403  39.662  1.00  0.00     0.061 A 
ATOM     94  C   UNL A   1      47.556  18.260  40.780  1.00  0.00     0.035 A 
ATOM     95  C   UNL A   1      45.831  17.367  39.433  1.00  0.00     0.072 A 
ATOM     96  C   UNL A   1      47.445  17.184  41.648  1.00  0.00     0.112 A 
ATOM     97  C   UNL A   1      45.797  16.302  40.342  1.00  0.00     0.132 A 
ATOM     98  Cl  UNL A   1      44.734  17.340  38.109  1.00  0.00    -0.082 Cl
ATOM     99  N   UNL A   1      46.576  16.190  41.444  1.00  0.00    -0.263 NA
ENDBRANCH  90  93
ENDBRANCH  83  89
ENDBRANCH  81  83
ENDBRANCH  80  81
ENDBRANCH  79  80
ENDBRANCH  78  79
ENDBRANCH  77  78
ENDBRANCH  76  77
ENDBRANCH  75  76
ENDBRANCH  74  75
ENDBRANCH   1  74
TORSDOF 25
ENDMDL
