MODEL 1
REMARK VINA RESULT:      -7.8      0.000      0.000
REMARK SMILES CC(C)(C)OC(=O)N1CC(Cc2ccc(C(=O)OCCOCCOCCOCCOC(=O)c3ccc(-c4c5nc(c(-c6cccc(S(=O)(=O)[O-])c6F)c6ccc([nH]6)c(-c6cccc(S(=O)(=O)[O-])c6F)c6nc(c(-c7cccc(S(=O)(=O)[O-])c7F)c7ccc4[nH]7)C=C6)C=C5)cc3)cc2)C1
REMARK SMILES IDX 23 1 22 2 21 3 20 4 19 5 18 6 16 7 17 8 15 9 12 10 13 11
REMARK SMILES IDX 97 12 14 13 96 14 11 15 10 16 6 17 7 18 8 19 9 20 98 21 5 22
REMARK SMILES IDX 2 23 1 24 3 25 4 26 24 27 25 28 26 29 27 30 28 31 29 32
REMARK SMILES IDX 30 33 31 34 32 35 33 36 34 37 95 38 35 39 94 40 36 41 37 42
REMARK SMILES IDX 38 43 88 44 39 45 93 46 87 47 89 48 40 49 92 50 86 51 85 52
REMARK SMILES IDX 41 54 73 55 53 56 72 57 54 58 57 59 71 60 90 61 55 62 56 63
REMARK SMILES IDX 70 65 91 66 58 67 42 68 43 69 51 70 44 71 46 72 52 73 45 74
REMARK SMILES IDX 47 75 48 76 49 77 50 78 74 79 75 80 83 81 76 82 78 83 84 84
REMARK SMILES IDX 77 85 79 86 80 87 81 88 82 89 59 90 60 91 68 92 61 93 63 94
REMARK SMILES IDX 69 95 62 96 64 97 65 98 66 99 67 100
REMARK H PARENT 89 53 57 64
REMARK Flexibility Score: inf
ROOT
ATOM      1  C   UNL A   1      36.497  22.522  25.785  1.00  0.00     0.188 C 
ENDROOT
BRANCH   1   2
ATOM      2  C   UNL A   1      35.434  23.270  24.959  1.00  0.00     0.188 C 
BRANCH   2   3
ATOM      3  O   UNL A   1      35.162  24.591  25.410  1.00  0.00    -0.376 OA
BRANCH   3   4
ATOM      4  C   UNL A   1      33.808  24.916  25.686  1.00  0.00     0.202 C 
BRANCH   4   5
ATOM      5  C   UNL A   1      32.987  25.441  24.502  1.00  0.00     0.261 C 
BRANCH   5   6
ATOM      6  O   UNL A   1      32.395  26.728  24.709  1.00  0.00    -0.460 OA
BRANCH   6   7
ATOM      7  C   UNL A   1      31.858  26.976  25.921  1.00  0.00     0.338 C 
ATOM      8  O   UNL A   1      31.122  26.244  26.564  1.00  0.00    -0.246 OA
BRANCH   7   9
ATOM      9  C   UNL A   1      32.460  28.220  26.450  1.00  0.00     0.060 A 
ATOM     10  C   UNL A   1      33.585  30.618  27.340  1.00  0.00    -0.048 A 
ATOM     11  C   UNL A   1      32.335  30.623  26.709  1.00  0.00     0.004 A 
ATOM     12  C   UNL A   1      34.220  29.395  27.605  1.00  0.00     0.004 A 
ATOM     13  C   UNL A   1      31.776  29.427  26.260  1.00  0.00     0.016 A 
ATOM     14  C   UNL A   1      33.667  28.201  27.153  1.00  0.00     0.016 A 
BRANCH  10  15
ATOM     15  C   UNL A   1      34.300  31.914  27.629  1.00  0.00     0.042 C 
BRANCH  15  16
ATOM     16  C   UNL A   1      34.764  31.882  29.080  1.00  0.00     0.033 C 
ATOM     17  C   UNL A   1      36.060  32.916  31.861  1.00  0.00     0.410 C 
ATOM     18  O   UNL A   1      35.247  33.122  32.761  1.00  0.00    -0.224 OA
ATOM     19  N   UNL A   1      35.711  32.918  30.548  1.00  0.00    -0.307 N 
ATOM     20  C   UNL A   1      34.405  33.102  29.943  1.00  0.00     0.128 C 
ATOM     21  C   UNL A   1      36.251  32.201  29.407  1.00  0.00     0.128 C 
BRANCH  17  22
ATOM     22  O   UNL A   1      37.388  32.708  32.039  1.00  0.00    -0.444 OA
BRANCH  22  23
ATOM     23  C   UNL A   1      37.870  31.508  32.706  1.00  0.00     0.106 C 
ATOM     24  C   UNL A   1      37.811  31.824  34.208  1.00  0.00     0.056 C 
ATOM     25  C   UNL A   1      39.325  31.256  32.303  1.00  0.00     0.056 C 
ATOM     26  C   UNL A   1      36.993  30.271  32.457  1.00  0.00     0.056 C 
ENDBRANCH  22  23
ENDBRANCH  17  22
ENDBRANCH  15  16
ENDBRANCH  10  15
ENDBRANCH   7   9
ENDBRANCH   6   7
ENDBRANCH   5   6
ENDBRANCH   4   5
ENDBRANCH   3   4
ENDBRANCH   2   3
ENDBRANCH   1   2
BRANCH   1  27
ATOM     27  O   UNL A   1      37.808  23.057  25.826  1.00  0.00    -0.377 OA
BRANCH  27  28
ATOM     28  C   UNL A   1      38.928  22.188  25.957  1.00  0.00     0.188 C 
BRANCH  28  29
ATOM     29  C   UNL A   1      40.024  22.411  27.025  1.00  0.00     0.188 C 
BRANCH  29  30
ATOM     30  O   UNL A   1      41.361  22.336  26.547  1.00  0.00    -0.376 OA
BRANCH  30  31
ATOM     31  C   UNL A   1      41.829  23.454  25.809  1.00  0.00     0.202 C 
BRANCH  31  32
ATOM     32  C   UNL A   1      43.299  23.355  25.384  1.00  0.00     0.261 C 
BRANCH  32  33
ATOM     33  O   UNL A   1      43.797  24.488  24.656  1.00  0.00    -0.460 OA
BRANCH  33  34
ATOM     34  C   UNL A   1      44.972  25.012  25.065  1.00  0.00     0.338 C 
ATOM     35  O   UNL A   1      46.083  24.763  24.624  1.00  0.00    -0.246 OA
BRANCH  34  36
ATOM     36  C   UNL A   1      44.677  26.091  26.024  1.00  0.00     0.060 A 
ATOM     37  C   UNL A   1      45.680  26.502  26.911  1.00  0.00     0.016 A 
ATOM     38  C   UNL A   1      43.416  26.692  26.044  1.00  0.00     0.016 A 
ATOM     39  C   UNL A   1      45.405  27.489  27.858  1.00  0.00     0.010 A 
ATOM     40  C   UNL A   1      43.139  27.669  27.000  1.00  0.00     0.010 A 
ATOM     41  C   UNL A   1      44.119  28.043  27.937  1.00  0.00    -0.014 A 
BRANCH  41  42
ATOM     42  C   UNL A   1      43.745  28.859  29.114  1.00  0.00     0.031 A 
ATOM     43  C   UNL A   1      43.659  30.351  28.949  1.00  0.00     0.074 A 
ATOM     44  C   UNL A   1      43.486  28.291  30.306  1.00  0.00     0.049 A 
ATOM     45  N   UNL A   1      43.352  31.267  29.829  1.00  0.00    -0.248 NA
ATOM     46  C   UNL A   1      43.963  30.882  27.608  1.00  0.00     0.031 C 
ATOM     47  C   UNL A   1      43.547  26.860  30.594  1.00  0.00     0.029 A 
ATOM     48  N   UNL A   1      43.141  28.864  31.505  1.00  0.00    -0.354 N 
ATOM     49  C   UNL A   1      43.442  32.480  29.157  1.00  0.00     0.074 A 
ATOM     50  C   UNL A   1      43.853  32.188  27.802  1.00  0.00     0.031 C 
ATOM     51  C   UNL A   1      43.276  26.668  31.897  1.00  0.00     0.029 A 
ATOM     52  C   UNL A   1      43.041  27.961  32.536  1.00  0.00     0.049 A 
ATOM     53  H   UNL A   1      42.982  29.830  31.615  1.00  0.00     0.167 HD
ATOM     54  C   UNL A   1      43.184  33.726  29.618  1.00  0.00     0.034 A 
ATOM     55  C   UNL A   1      42.801  28.163  33.848  1.00  0.00     0.034 A 
ATOM     56  C   UNL A   1      42.769  34.018  30.962  1.00  0.00     0.049 A 
ATOM     57  C   UNL A   1      42.537  29.563  34.343  1.00  0.00     0.074 A 
ATOM     58  C   UNL A   1      42.449  35.244  31.518  1.00  0.00     0.029 A 
ATOM     59  N   UNL A   1      42.628  33.074  31.967  1.00  0.00    -0.354 N 
ATOM     60  N   UNL A   1      42.499  30.687  33.667  1.00  0.00    -0.248 NA
ATOM     61  C   UNL A   1      42.244  29.719  35.776  1.00  0.00     0.031 C 
ATOM     62  C   UNL A   1      42.138  35.043  32.867  1.00  0.00     0.029 A 
ATOM     63  C   UNL A   1      42.233  33.688  33.143  1.00  0.00     0.049 A 
ATOM     64  H   UNL A   1      42.785  32.107  31.861  1.00  0.00     0.167 HD
ATOM     65  C   UNL A   1      42.142  31.672  34.582  1.00  0.00     0.074 A 
ATOM     66  C   UNL A   1      41.954  31.010  35.856  1.00  0.00     0.031 C 
ATOM     67  C   UNL A   1      41.997  33.008  34.390  1.00  0.00     0.034 A 
BRANCH  54  68
ATOM     68  C   UNL A   1      43.315  34.867  28.645  1.00  0.00     0.023 A 
ATOM     69  C   UNL A   1      42.177  35.320  27.947  1.00  0.00     0.012 A 
ATOM     70  C   UNL A   1      44.549  35.516  28.450  1.00  0.00     0.148 A 
ATOM     71  C   UNL A   1      42.270  36.380  27.047  1.00  0.00     0.002 A 
ATOM     72  C   UNL A   1      44.625  36.602  27.584  1.00  0.00     0.091 A 
ATOM     73  F   UNL A   1      45.625  35.055  29.103  1.00  0.00    -0.205 F 
ATOM     74  C   UNL A   1      43.491  37.026  26.875  1.00  0.00     0.022 A 
BRANCH  72  75
ATOM     75  S   UNL A   1      46.133  37.549  27.350  1.00  0.00     0.127 S 
ATOM     76  O   UNL A   1      45.663  38.646  26.505  1.00  0.00    -0.237 OA
ATOM     77  O   UNL A   1      46.469  37.935  28.719  1.00  0.00    -0.237 OA
ATOM     78  O   UNL A   1      47.083  36.642  26.723  1.00  0.00    -0.744 OA
ENDBRANCH  72  75
ENDBRANCH  54  68
BRANCH  55  79
ATOM     79  C   UNL A   1      42.763  27.006  34.787  1.00  0.00     0.023 A 
ATOM     80  C   UNL A   1      41.539  26.362  35.053  1.00  0.00     0.012 A 
ATOM     81  C   UNL A   1      43.934  26.538  35.415  1.00  0.00     0.148 A 
ATOM     82  C   UNL A   1      41.475  25.297  35.952  1.00  0.00     0.002 A 
ATOM     83  C   UNL A   1      43.873  25.441  36.267  1.00  0.00     0.091 A 
ATOM     84  F   UNL A   1      45.086  27.176  35.165  1.00  0.00    -0.205 F 
ATOM     85  C   UNL A   1      42.642  24.831  36.551  1.00  0.00     0.022 A 
BRANCH  83  86
ATOM     86  S   UNL A   1      45.342  24.695  36.981  1.00  0.00     0.127 S 
ATOM     87  O   UNL A   1      44.880  24.349  38.323  1.00  0.00    -0.237 OA
ATOM     88  O   UNL A   1      45.563  23.554  36.092  1.00  0.00    -0.237 OA
ATOM     89  O   UNL A   1      46.376  25.718  36.911  1.00  0.00    -0.744 OA
ENDBRANCH  83  86
ENDBRANCH  55  79
BRANCH  67  90
ATOM     90  C   UNL A   1      41.574  33.844  35.571  1.00  0.00     0.023 A 
ATOM     91  C   UNL A   1      40.206  34.069  35.821  1.00  0.00     0.012 A 
ATOM     92  C   UNL A   1      42.532  34.347  36.475  1.00  0.00     0.148 A 
ATOM     93  C   UNL A   1      39.799  34.813  36.929  1.00  0.00     0.002 A 
ATOM     94  C   UNL A   1      42.117  35.043  37.604  1.00  0.00     0.091 A 
ATOM     95  F   UNL A   1      43.831  34.138  36.214  1.00  0.00    -0.205 F 
ATOM     96  C   UNL A   1      40.753  35.289  37.826  1.00  0.00     0.022 A 
BRANCH  94  97
ATOM     97  S   UNL A   1      43.269  35.608  38.863  1.00  0.00     0.127 S 
ATOM     98  O   UNL A   1      44.095  36.551  38.109  1.00  0.00    -0.237 OA
ATOM     99  O   UNL A   1      42.379  36.228  39.846  1.00  0.00    -0.237 OA
ATOM    100  O   UNL A   1      43.957  34.416  39.340  1.00  0.00    -0.744 OA
ENDBRANCH  94  97
ENDBRANCH  67  90
ENDBRANCH  41  42
ENDBRANCH  34  36
ENDBRANCH  33  34
ENDBRANCH  32  33
ENDBRANCH  31  32
ENDBRANCH  30  31
ENDBRANCH  29  30
ENDBRANCH  28  29
ENDBRANCH  27  28
ENDBRANCH   1  27
TORSDOF 27
ENDMDL
MODEL 2
REMARK VINA RESULT:      -7.6      5.597      9.925
REMARK SMILES CC(C)(C)OC(=O)N1CC(Cc2ccc(C(=O)OCCOCCOCCOCCOC(=O)c3ccc(-c4c5nc(c(-c6cccc(S(=O)(=O)[O-])c6F)c6ccc([nH]6)c(-c6cccc(S(=O)(=O)[O-])c6F)c6nc(c(-c7cccc(S(=O)(=O)[O-])c7F)c7ccc4[nH]7)C=C6)C=C5)cc3)cc2)C1
REMARK SMILES IDX 23 1 22 2 21 3 20 4 19 5 18 6 16 7 17 8 15 9 12 10 13 11
REMARK SMILES IDX 97 12 14 13 96 14 11 15 10 16 6 17 7 18 8 19 9 20 98 21 5 22
REMARK SMILES IDX 2 23 1 24 3 25 4 26 24 27 25 28 26 29 27 30 28 31 29 32
REMARK SMILES IDX 30 33 31 34 32 35 33 36 34 37 95 38 35 39 94 40 36 41 37 42
REMARK SMILES IDX 38 43 88 44 39 45 93 46 87 47 89 48 40 49 92 50 86 51 85 52
REMARK SMILES IDX 41 54 73 55 53 56 72 57 54 58 57 59 71 60 90 61 55 62 56 63
REMARK SMILES IDX 70 65 91 66 58 67 42 68 43 69 51 70 44 71 46 72 52 73 45 74
REMARK SMILES IDX 47 75 48 76 49 77 50 78 74 79 75 80 83 81 76 82 78 83 84 84
REMARK SMILES IDX 77 85 79 86 80 87 81 88 82 89 59 90 60 91 68 92 61 93 63 94
REMARK SMILES IDX 69 95 62 96 64 97 65 98 66 99 67 100
REMARK H PARENT 89 53 57 64
REMARK Flexibility Score: inf
ROOT
ATOM      1  C   UNL A   1      35.282  33.661  31.867  1.00  0.00     0.188 C 
ENDROOT
BRANCH   1   2
ATOM      2  C   UNL A   1      34.744  32.595  30.895  1.00  0.00     0.188 C 
BRANCH   2   3
ATOM      3  O   UNL A   1      35.457  32.506  29.668  1.00  0.00    -0.376 OA
BRANCH   3   4
ATOM      4  C   UNL A   1      35.347  31.291  28.941  1.00  0.00     0.202 C 
BRANCH   4   5
ATOM      5  C   UNL A   1      34.558  31.361  27.629  1.00  0.00     0.261 C 
BRANCH   5   6
ATOM      6  O   UNL A   1      33.744  30.214  27.359  1.00  0.00    -0.460 OA
BRANCH   6   7
ATOM      7  C   UNL A   1      32.497  30.435  26.892  1.00  0.00     0.338 C 
ATOM      8  O   UNL A   1      31.960  31.516  26.710  1.00  0.00    -0.246 OA
BRANCH   7   9
ATOM      9  C   UNL A   1      31.933  29.141  26.445  1.00  0.00     0.060 A 
ATOM     10  C   UNL A   1      30.780  26.760  25.550  1.00  0.00    -0.048 A 
ATOM     11  C   UNL A   1      31.057  27.788  24.641  1.00  0.00     0.004 A 
ATOM     12  C   UNL A   1      31.171  26.898  26.891  1.00  0.00     0.004 A 
ATOM     13  C   UNL A   1      31.629  28.979  25.089  1.00  0.00     0.016 A 
ATOM     14  C   UNL A   1      31.736  28.087  27.341  1.00  0.00     0.016 A 
BRANCH  10  15
ATOM     15  C   UNL A   1      29.966  25.564  25.126  1.00  0.00     0.042 C 
BRANCH  15  16
ATOM     16  C   UNL A   1      30.888  24.351  25.098  1.00  0.00     0.033 C 
ATOM     17  C   UNL A   1      33.583  22.596  25.466  1.00  0.00     0.410 C 
ATOM     18  O   UNL A   1      33.547  21.787  26.392  1.00  0.00    -0.224 OA
ATOM     19  N   UNL A   1      32.781  23.692  25.421  1.00  0.00    -0.307 N 
ATOM     20  C   UNL A   1      31.748  24.114  26.349  1.00  0.00     0.128 C 
ATOM     21  C   UNL A   1      32.223  24.433  24.305  1.00  0.00     0.128 C 
BRANCH  17  22
ATOM     22  O   UNL A   1      34.433  22.539  24.410  1.00  0.00    -0.444 OA
BRANCH  22  23
ATOM     23  C   UNL A   1      35.873  22.585  24.610  1.00  0.00     0.106 C 
ATOM     24  C   UNL A   1      36.462  22.986  23.249  1.00  0.00     0.056 C 
ATOM     25  C   UNL A   1      36.378  21.190  24.985  1.00  0.00     0.056 C 
ATOM     26  C   UNL A   1      36.318  23.640  25.636  1.00  0.00     0.056 C 
ENDBRANCH  22  23
ENDBRANCH  17  22
ENDBRANCH  15  16
ENDBRANCH  10  15
ENDBRANCH   7   9
ENDBRANCH   6   7
ENDBRANCH   5   6
ENDBRANCH   4   5
ENDBRANCH   3   4
ENDBRANCH   2   3
ENDBRANCH   1   2
BRANCH   1  27
ATOM     27  O   UNL A   1      36.569  34.199  31.622  1.00  0.00    -0.377 OA
BRANCH  27  28
ATOM     28  C   UNL A   1      37.670  33.814  32.438  1.00  0.00     0.188 C 
BRANCH  28  29
ATOM     29  C   UNL A   1      38.714  32.772  31.975  1.00  0.00     0.188 C 
BRANCH  29  30
ATOM     30  O   UNL A   1      38.177  31.598  31.380  1.00  0.00    -0.376 OA
BRANCH  30  31
ATOM     31  C   UNL A   1      38.886  31.077  30.267  1.00  0.00     0.202 C 
BRANCH  31  32
ATOM     32  C   UNL A   1      38.783  29.555  30.114  1.00  0.00     0.261 C 
BRANCH  32  33
ATOM     33  O   UNL A   1      39.818  28.954  29.320  1.00  0.00    -0.460 OA
BRANCH  33  34
ATOM     34  C   UNL A   1      40.038  27.634  29.496  1.00  0.00     0.338 C 
ATOM     35  O   UNL A   1      39.234  26.727  29.351  1.00  0.00    -0.246 OA
BRANCH  34  36
ATOM     36  C   UNL A   1      41.483  27.441  29.718  1.00  0.00     0.060 A 
ATOM     37  C   UNL A   1      42.111  26.321  29.160  1.00  0.00     0.016 A 
ATOM     38  C   UNL A   1      42.209  28.365  30.473  1.00  0.00     0.016 A 
ATOM     39  C   UNL A   1      43.466  26.097  29.398  1.00  0.00     0.010 A 
ATOM     40  C   UNL A   1      43.562  28.132  30.722  1.00  0.00     0.010 A 
ATOM     41  C   UNL A   1      44.186  26.976  30.219  1.00  0.00    -0.014 A 
BRANCH  41  42
ATOM     42  C   UNL A   1      45.527  26.586  30.712  1.00  0.00     0.031 A 
ATOM     43  C   UNL A   1      46.730  27.008  29.915  1.00  0.00     0.074 A 
ATOM     44  C   UNL A   1      45.677  25.872  31.842  1.00  0.00     0.049 A 
ATOM     45  N   UNL A   1      47.997  26.787  30.144  1.00  0.00    -0.248 NA
ATOM     46  C   UNL A   1      46.467  27.785  28.691  1.00  0.00     0.031 C 
ATOM     47  C   UNL A   1      44.590  25.394  32.694  1.00  0.00     0.029 A 
ATOM     48  N   UNL A   1      46.815  25.405  32.451  1.00  0.00    -0.354 N 
ATOM     49  C   UNL A   1      48.680  27.379  29.090  1.00  0.00     0.074 A 
ATOM     50  C   UNL A   1      47.688  27.951  28.206  1.00  0.00     0.031 C 
ATOM     51  C   UNL A   1      45.113  24.676  33.703  1.00  0.00     0.029 A 
ATOM     52  C   UNL A   1      46.567  24.629  33.558  1.00  0.00     0.049 A 
ATOM     53  H   UNL A   1      47.723  25.606  32.125  1.00  0.00     0.167 HD
ATOM     54  C   UNL A   1      50.016  27.461  28.884  1.00  0.00     0.034 A 
ATOM     55  C   UNL A   1      47.418  23.949  34.352  1.00  0.00     0.034 A 
ATOM     56  C   UNL A   1      51.002  26.900  29.764  1.00  0.00     0.049 A 
ATOM     57  C   UNL A   1      48.902  24.038  34.090  1.00  0.00     0.074 A 
ATOM     58  C   UNL A   1      52.381  26.959  29.661  1.00  0.00     0.029 A 
ATOM     59  N   UNL A   1      50.717  26.164  30.903  1.00  0.00    -0.354 N 
ATOM     60  N   UNL A   1      49.539  24.710  33.161  1.00  0.00    -0.248 NA
ATOM     61  C   UNL A   1      49.785  23.306  35.010  1.00  0.00     0.031 C 
ATOM     62  C   UNL A   1      52.929  26.237  30.727  1.00  0.00     0.029 A 
ATOM     63  C   UNL A   1      51.892  25.756  31.511  1.00  0.00     0.049 A 
ATOM     64  H   UNL A   1      49.811  25.962  31.233  1.00  0.00     0.167 HD
ATOM     65  C   UNL A   1      50.894  24.513  33.408  1.00  0.00     0.074 A 
ATOM     66  C   UNL A   1      50.986  23.675  34.587  1.00  0.00     0.031 C 
ATOM     67  C   UNL A   1      51.968  24.969  32.715  1.00  0.00     0.034 A 
BRANCH  54  68
ATOM     68  C   UNL A   1      50.485  28.215  27.668  1.00  0.00     0.023 A 
ATOM     69  C   UNL A   1      50.870  29.566  27.794  1.00  0.00     0.012 A 
ATOM     70  C   UNL A   1      50.584  27.581  26.415  1.00  0.00     0.148 A 
ATOM     71  C   UNL A   1      51.316  30.284  26.685  1.00  0.00     0.002 A 
ATOM     72  C   UNL A   1      51.073  28.291  25.323  1.00  0.00     0.091 A 
ATOM     73  F   UNL A   1      50.190  26.305  26.311  1.00  0.00    -0.205 F 
ATOM     74  C   UNL A   1      51.427  29.643  25.454  1.00  0.00     0.022 A 
BRANCH  72  75
ATOM     75  S   UNL A   1      51.325  27.537  23.713  1.00  0.00     0.127 S 
ATOM     76  O   UNL A   1      51.826  28.668  22.933  1.00  0.00    -0.237 OA
ATOM     77  O   UNL A   1      52.323  26.510  24.008  1.00  0.00    -0.237 OA
ATOM     78  O   UNL A   1      50.026  27.023  23.303  1.00  0.00    -0.744 OA
ENDBRANCH  72  75
ENDBRANCH  54  68
BRANCH  55  79
ATOM     79  C   UNL A   1      46.896  23.148  35.496  1.00  0.00     0.023 A 
ATOM     80  C   UNL A   1      46.590  21.786  35.313  1.00  0.00     0.012 A 
ATOM     81  C   UNL A   1      46.705  23.730  36.764  1.00  0.00     0.148 A 
ATOM     82  C   UNL A   1      46.070  21.026  36.362  1.00  0.00     0.002 A 
ATOM     83  C   UNL A   1      46.240  22.954  37.820  1.00  0.00     0.091 A 
ATOM     84  F   UNL A   1      46.983  25.033  36.914  1.00  0.00    -0.205 F 
ATOM     85  C   UNL A   1      45.905  21.607  37.617  1.00  0.00     0.022 A 
BRANCH  83  86
ATOM     86  S   UNL A   1      46.118  23.585  39.497  1.00  0.00     0.127 S 
ATOM     87  O   UNL A   1      45.689  22.398  40.233  1.00  0.00    -0.237 OA
ATOM     88  O   UNL A   1      47.493  24.011  39.760  1.00  0.00    -0.237 OA
ATOM     89  O   UNL A   1      45.154  24.675  39.437  1.00  0.00    -0.744 OA
ENDBRANCH  83  86
ENDBRANCH  55  79
BRANCH  67  90
ATOM     90  C   UNL A   1      53.339  24.614  33.230  1.00  0.00     0.023 A 
ATOM     91  C   UNL A   1      53.990  23.457  32.758  1.00  0.00     0.012 A 
ATOM     92  C   UNL A   1      54.012  25.466  34.129  1.00  0.00     0.148 A 
ATOM     93  C   UNL A   1      55.273  23.134  33.200  1.00  0.00     0.002 A 
ATOM     94  C   UNL A   1      55.310  25.164  34.526  1.00  0.00     0.091 A 
ATOM     95  F   UNL A   1      53.372  26.554  34.582  1.00  0.00    -0.205 F 
ATOM     96  C   UNL A   1      55.937  23.993  34.074  1.00  0.00     0.022 A 
BRANCH  94  97
ATOM     97  S   UNL A   1      56.274  26.262  35.572  1.00  0.00     0.127 S 
ATOM     98  O   UNL A   1      57.546  25.546  35.663  1.00  0.00    -0.237 OA
ATOM     99  O   UNL A   1      56.321  27.490  34.775  1.00  0.00    -0.237 OA
ATOM    100  O   UNL A   1      55.531  26.382  36.819  1.00  0.00    -0.744 OA
ENDBRANCH  94  97
ENDBRANCH  67  90
ENDBRANCH  41  42
ENDBRANCH  34  36
ENDBRANCH  33  34
ENDBRANCH  32  33
ENDBRANCH  31  32
ENDBRANCH  30  31
ENDBRANCH  29  30
ENDBRANCH  28  29
ENDBRANCH  27  28
ENDBRANCH   1  27
TORSDOF 27
ENDMDL
MODEL 3
REMARK VINA RESULT:      -7.1      3.993      8.563
REMARK SMILES CC(C)(C)OC(=O)N1CC(Cc2ccc(C(=O)OCCOCCOCCOCCOC(=O)c3ccc(-c4c5nc(c(-c6cccc(S(=O)(=O)[O-])c6F)c6ccc([nH]6)c(-c6cccc(S(=O)(=O)[O-])c6F)c6nc(c(-c7cccc(S(=O)(=O)[O-])c7F)c7ccc4[nH]7)C=C6)C=C5)cc3)cc2)C1
REMARK SMILES IDX 23 1 22 2 21 3 20 4 19 5 18 6 16 7 17 8 15 9 12 10 13 11
REMARK SMILES IDX 97 12 14 13 96 14 11 15 10 16 6 17 7 18 8 19 9 20 98 21 5 22
REMARK SMILES IDX 2 23 1 24 3 25 4 26 24 27 25 28 26 29 27 30 28 31 29 32
REMARK SMILES IDX 30 33 31 34 32 35 33 36 34 37 95 38 35 39 94 40 36 41 37 42
REMARK SMILES IDX 38 43 88 44 39 45 93 46 87 47 89 48 40 49 92 50 86 51 85 52
REMARK SMILES IDX 41 54 73 55 53 56 72 57 54 58 57 59 71 60 90 61 55 62 56 63
REMARK SMILES IDX 70 65 91 66 58 67 42 68 43 69 51 70 44 71 46 72 52 73 45 74
REMARK SMILES IDX 47 75 48 76 49 77 50 78 74 79 75 80 83 81 76 82 78 83 84 84
REMARK SMILES IDX 77 85 79 86 80 87 81 88 82 89 59 90 60 91 68 92 61 93 63 94
REMARK SMILES IDX 69 95 62 96 64 97 65 98 66 99 67 100
REMARK H PARENT 89 53 57 64
REMARK Flexibility Score: inf
ROOT
ATOM      1  C   UNL A   1      35.269  23.551  25.878  1.00  0.00     0.188 C 
ENDROOT
BRANCH   1   2
ATOM      2  C   UNL A   1      33.958  24.347  25.750  1.00  0.00     0.188 C 
BRANCH   2   3
ATOM      3  O   UNL A   1      34.118  25.758  25.809  1.00  0.00    -0.376 OA
BRANCH   3   4
ATOM      4  C   UNL A   1      32.983  26.554  25.501  1.00  0.00     0.202 C 
BRANCH   4   5
ATOM      5  C   UNL A   1      33.170  27.587  24.384  1.00  0.00     0.261 C 
BRANCH   5   6
ATOM      6  O   UNL A   1      33.605  28.877  24.830  1.00  0.00    -0.460 OA
BRANCH   6   7
ATOM      7  C   UNL A   1      32.893  29.465  25.813  1.00  0.00     0.338 C 
ATOM      8  O   UNL A   1      31.679  29.475  25.938  1.00  0.00    -0.246 OA
BRANCH   7   9
ATOM      9  C   UNL A   1      33.839  29.949  26.844  1.00  0.00     0.060 A 
ATOM     10  C   UNL A   1      35.658  30.947  28.714  1.00  0.00    -0.048 A 
ATOM     11  C   UNL A   1      34.713  31.801  28.133  1.00  0.00     0.004 A 
ATOM     12  C   UNL A   1      35.622  29.575  28.423  1.00  0.00     0.004 A 
ATOM     13  C   UNL A   1      33.808  31.303  27.196  1.00  0.00     0.016 A 
ATOM     14  C   UNL A   1      34.724  29.077  27.483  1.00  0.00     0.016 A 
BRANCH  10  15
ATOM     15  C   UNL A   1      36.778  31.507  29.555  1.00  0.00     0.042 C 
BRANCH  15  16
ATOM     16  C   UNL A   1      36.265  32.763  30.249  1.00  0.00     0.033 C 
ATOM     17  C   UNL A   1      35.093  34.647  32.606  1.00  0.00     0.410 C 
ATOM     18  O   UNL A   1      35.899  35.457  33.065  1.00  0.00    -0.224 OA
ATOM     19  N   UNL A   1      35.482  33.514  31.965  1.00  0.00    -0.307 N 
ATOM     20  C   UNL A   1      36.820  33.045  31.654  1.00  0.00     0.128 C 
ATOM     21  C   UNL A   1      34.856  32.742  30.907  1.00  0.00     0.128 C 
BRANCH  17  22
ATOM     22  O   UNL A   1      33.744  34.742  32.709  1.00  0.00    -0.444 OA
BRANCH  22  23
ATOM     23  C   UNL A   1      33.041  35.916  32.216  1.00  0.00     0.106 C 
ATOM     24  C   UNL A   1      33.118  35.825  30.685  1.00  0.00     0.056 C 
ATOM     25  C   UNL A   1      33.773  37.177  32.682  1.00  0.00     0.056 C 
ATOM     26  C   UNL A   1      31.555  35.952  32.604  1.00  0.00     0.056 C 
ENDBRANCH  22  23
ENDBRANCH  17  22
ENDBRANCH  15  16
ENDBRANCH  10  15
ENDBRANCH   7   9
ENDBRANCH   6   7
ENDBRANCH   5   6
ENDBRANCH   4   5
ENDBRANCH   3   4
ENDBRANCH   2   3
ENDBRANCH   1   2
BRANCH   1  27
ATOM     27  O   UNL A   1      36.492  24.261  25.800  1.00  0.00    -0.377 OA
BRANCH  27  28
ATOM     28  C   UNL A   1      37.728  23.572  25.956  1.00  0.00     0.188 C 
BRANCH  28  29
ATOM     29  C   UNL A   1      38.798  24.020  26.978  1.00  0.00     0.188 C 
BRANCH  29  30
ATOM     30  O   UNL A   1      39.918  24.698  26.426  1.00  0.00    -0.376 OA
BRANCH  30  31
ATOM     31  C   UNL A   1      39.986  26.096  26.661  1.00  0.00     0.202 C 
BRANCH  31  32
ATOM     32  C   UNL A   1      41.213  26.778  26.045  1.00  0.00     0.261 C 
BRANCH  32  33
ATOM     33  O   UNL A   1      41.621  27.992  26.694  1.00  0.00    -0.460 OA
BRANCH  33  34
ATOM     34  C   UNL A   1      42.948  28.224  26.781  1.00  0.00     0.338 C 
ATOM     35  O   UNL A   1      43.676  28.677  25.912  1.00  0.00    -0.246 OA
BRANCH  34  36
ATOM     36  C   UNL A   1      43.354  28.012  28.182  1.00  0.00     0.060 A 
ATOM     37  C   UNL A   1      42.413  27.518  29.094  1.00  0.00     0.016 A 
ATOM     38  C   UNL A   1      44.659  28.301  28.589  1.00  0.00     0.016 A 
ATOM     39  C   UNL A   1      42.766  27.356  30.433  1.00  0.00     0.010 A 
ATOM     40  C   UNL A   1      45.005  28.152  29.932  1.00  0.00     0.010 A 
ATOM     41  C   UNL A   1      44.049  27.718  30.866  1.00  0.00    -0.014 A 
BRANCH  41  42
ATOM     42  C   UNL A   1      44.328  27.829  32.316  1.00  0.00     0.031 A 
ATOM     43  C   UNL A   1      44.790  26.601  33.050  1.00  0.00     0.074 A 
ATOM     44  C   UNL A   1      44.175  28.994  32.971  1.00  0.00     0.049 A 
ATOM     45  N   UNL A   1      45.095  26.454  34.312  1.00  0.00    -0.248 NA
ATOM     46  C   UNL A   1      44.926  25.371  32.251  1.00  0.00     0.031 C 
ATOM     47  C   UNL A   1      43.722  30.249  32.374  1.00  0.00     0.029 A 
ATOM     48  N   UNL A   1      44.364  29.298  34.297  1.00  0.00    -0.354 N 
ATOM     49  C   UNL A   1      45.440  25.116  34.463  1.00  0.00     0.074 A 
ATOM     50  C   UNL A   1      45.287  24.488  33.170  1.00  0.00     0.031 C 
ATOM     51  C   UNL A   1      43.642  31.184  33.337  1.00  0.00     0.029 A 
ATOM     52  C   UNL A   1      44.020  30.590  34.619  1.00  0.00     0.049 A 
ATOM     53  H   UNL A   1      44.712  28.653  34.954  1.00  0.00     0.167 HD
ATOM     54  C   UNL A   1      45.869  24.471  35.573  1.00  0.00     0.034 A 
ATOM     55  C   UNL A   1      43.999  31.211  35.815  1.00  0.00     0.034 A 
ATOM     56  C   UNL A   1      46.028  25.096  36.857  1.00  0.00     0.049 A 
ATOM     57  C   UNL A   1      44.460  30.465  37.042  1.00  0.00     0.074 A 
ATOM     58  C   UNL A   1      46.488  24.536  38.036  1.00  0.00     0.029 A 
ATOM     59  N   UNL A   1      45.717  26.417  37.136  1.00  0.00    -0.354 N 
ATOM     60  N   UNL A   1      44.908  29.236  37.144  1.00  0.00    -0.248 NA
ATOM     61  C   UNL A   1      44.452  31.205  38.314  1.00  0.00     0.031 C 
ATOM     62  C   UNL A   1      46.434  25.515  39.034  1.00  0.00     0.029 A 
ATOM     63  C   UNL A   1      45.969  26.692  38.469  1.00  0.00     0.049 A 
ATOM     64  H   UNL A   1      45.370  27.067  36.482  1.00  0.00     0.167 HD
ATOM     65  C   UNL A   1      45.268  29.069  38.478  1.00  0.00     0.074 A 
ATOM     66  C   UNL A   1      45.007  30.330  39.141  1.00  0.00     0.031 C 
ATOM     67  C   UNL A   1      45.756  27.968  39.102  1.00  0.00     0.034 A 
BRANCH  54  68
ATOM     68  C   UNL A   1      46.226  23.015  35.435  1.00  0.00     0.023 A 
ATOM     69  C   UNL A   1      45.270  22.031  35.761  1.00  0.00     0.012 A 
ATOM     70  C   UNL A   1      47.487  22.621  34.947  1.00  0.00     0.148 A 
ATOM     71  C   UNL A   1      45.573  20.677  35.633  1.00  0.00     0.002 A 
ATOM     72  C   UNL A   1      47.766  21.269  34.780  1.00  0.00     0.091 A 
ATOM     73  F   UNL A   1      48.390  23.570  34.668  1.00  0.00    -0.205 F 
ATOM     74  C   UNL A   1      46.816  20.297  35.133  1.00  0.00     0.022 A 
BRANCH  72  75
ATOM     75  S   UNL A   1      49.308  20.679  34.074  1.00  0.00     0.127 S 
ATOM     76  O   UNL A   1      50.014  20.203  35.263  1.00  0.00    -0.237 OA
ATOM     77  O   UNL A   1      48.850  19.623  33.173  1.00  0.00    -0.237 OA
ATOM     78  O   UNL A   1      49.909  21.826  33.409  1.00  0.00    -0.744 OA
ENDBRANCH  72  75
ENDBRANCH  54  68
BRANCH  55  79
ATOM     79  C   UNL A   1      43.557  32.632  35.911  1.00  0.00     0.023 A 
ATOM     80  C   UNL A   1      44.507  33.667  35.813  1.00  0.00     0.012 A 
ATOM     81  C   UNL A   1      42.201  32.962  36.096  1.00  0.00     0.148 A 
ATOM     82  C   UNL A   1      44.120  35.002  35.932  1.00  0.00     0.002 A 
ATOM     83  C   UNL A   1      41.814  34.296  36.158  1.00  0.00     0.091 A 
ATOM     84  F   UNL A   1      41.313  31.963  36.207  1.00  0.00    -0.205 F 
ATOM     85  C   UNL A   1      42.774  35.317  36.094  1.00  0.00     0.022 A 
BRANCH  83  86
ATOM     86  S   UNL A   1      40.090  34.795  36.238  1.00  0.00     0.127 S 
ATOM     87  O   UNL A   1      40.131  35.848  37.249  1.00  0.00    -0.237 OA
ATOM     88  O   UNL A   1      39.848  35.261  34.872  1.00  0.00    -0.237 OA
ATOM     89  O   UNL A   1      39.350  33.595  36.601  1.00  0.00    -0.744 OA
ENDBRANCH  83  86
ENDBRANCH  55  79
BRANCH  67  90
ATOM     90  C   UNL A   1      46.084  28.081  40.570  1.00  0.00     0.023 A 
ATOM     91  C   UNL A   1      45.103  27.777  41.535  1.00  0.00     0.012 A 
ATOM     92  C   UNL A   1      47.386  28.419  40.991  1.00  0.00     0.148 A 
ATOM     93  C   UNL A   1      45.402  27.845  42.896  1.00  0.00     0.002 A 
ATOM     94  C   UNL A   1      47.689  28.435  42.348  1.00  0.00     0.091 A 
ATOM     95  F   UNL A   1      48.303  28.722  40.060  1.00  0.00    -0.205 F 
ATOM     96  C   UNL A   1      46.697  28.161  43.301  1.00  0.00     0.022 A 
BRANCH  94  97
ATOM     97  S   UNL A   1      49.354  28.737  42.956  1.00  0.00     0.127 S 
ATOM     98  O   UNL A   1      49.151  28.713  44.404  1.00  0.00    -0.237 OA
ATOM     99  O   UNL A   1      50.093  27.591  42.424  1.00  0.00    -0.237 OA
ATOM    100  O   UNL A   1      49.755  30.023  42.402  1.00  0.00    -0.744 OA
ENDBRANCH  94  97
ENDBRANCH  67  90
ENDBRANCH  41  42
ENDBRANCH  34  36
ENDBRANCH  33  34
ENDBRANCH  32  33
ENDBRANCH  31  32
ENDBRANCH  30  31
ENDBRANCH  29  30
ENDBRANCH  28  29
ENDBRANCH  27  28
ENDBRANCH   1  27
TORSDOF 27
ENDMDL
