MODEL 1
REMARK VINA RESULT:      -9.8      0.000      0.000
REMARK SMILES CCOc1cc(OCC)cc(-c2ccc([C@@H](C)C(=O)OCCOCCOCCOCCOC(=O)c3ccc(-c4c5nc(c(-c6cccc(S(=O)(=O)[O-])c6F)c6ccc([nH]6)c(-c6cccc(S(=O)(=O)[O-])c6F)c6nc(c(-c7cccc(S(=O)(=O)[O-])c7F)c7ccc4[nH]7)C=C6)C=C5)cc3)cc2)c1
REMARK SMILES IDX 25 1 24 2 23 3 22 4 21 5 20 6 18 7 19 8 16 9 17 10 15 11
REMARK SMILES IDX 12 12 13 13 99 14 14 15 98 16 11 17 4 18 5 19 100 20 6 21
REMARK SMILES IDX 10 22 3 23 2 24 1 25 7 26 8 27 9 28 26 29 27 30 28 31 29 32
REMARK SMILES IDX 30 33 31 34 32 35 33 36 34 37 35 38 36 39 97 40 37 41 96 42
REMARK SMILES IDX 38 43 39 44 40 45 90 46 41 47 95 48 89 49 91 50 42 51 94 52
REMARK SMILES IDX 88 53 87 54 43 56 75 57 55 58 74 59 56 60 59 61 73 62 92 63
REMARK SMILES IDX 57 64 58 65 72 67 93 68 60 69 44 70 45 71 53 72 46 73 48 74
REMARK SMILES IDX 54 75 47 76 49 77 50 78 51 79 52 80 76 81 77 82 85 83 78 84
REMARK SMILES IDX 80 85 86 86 79 87 81 88 82 89 83 90 84 91 61 92 62 93 70 94
REMARK SMILES IDX 63 95 65 96 71 97 64 98 66 99 67 100 68 101 69 102
REMARK H PARENT 91 55 59 66
REMARK Flexibility Score: inf
ROOT
ATOM      1  C   UNL A   1      33.495  26.172  25.607  1.00  0.00     0.188 C 
ENDROOT
BRANCH   1   2
ATOM      2  C   UNL A   1      33.644  27.693  25.755  1.00  0.00     0.188 C 
BRANCH   2   3
ATOM      3  O   UNL A   1      32.775  28.437  26.598  1.00  0.00    -0.376 OA
BRANCH   3   4
ATOM      4  C   UNL A   1      31.494  28.847  26.135  1.00  0.00     0.202 C 
BRANCH   4   5
ATOM      5  C   UNL A   1      31.303  30.146  25.326  1.00  0.00     0.261 C 
BRANCH   5   6
ATOM      6  O   UNL A   1      31.086  30.013  23.908  1.00  0.00    -0.463 OA
BRANCH   6   7
ATOM      7  C   UNL A   1      29.809  30.116  23.481  1.00  0.00     0.313 C 
ATOM      8  O   UNL A   1      29.118  31.122  23.647  1.00  0.00    -0.252 OA
BRANCH   7   9
ATOM      9  C   UNL A   1      29.236  28.888  22.777  1.00  0.00     0.126 C 
ATOM     10  C   UNL A   1      27.718  28.914  22.912  1.00  0.00     0.025 C 
BRANCH   9  11
ATOM     11  C   UNL A   1      29.795  27.490  23.043  1.00  0.00    -0.034 A 
ATOM     12  C   UNL A   1      30.749  24.854  23.630  1.00  0.00    -0.018 A 
ATOM     13  C   UNL A   1      31.345  25.653  22.636  1.00  0.00     0.009 A 
ATOM     14  C   UNL A   1      29.659  25.394  24.320  1.00  0.00     0.009 A 
ATOM     15  C   UNL A   1      30.883  26.951  22.351  1.00  0.00     0.005 A 
ATOM     16  C   UNL A   1      29.199  26.689  24.042  1.00  0.00     0.005 A 
BRANCH  12  17
ATOM     17  C   UNL A   1      31.324  23.546  24.007  1.00  0.00    -0.011 A 
ATOM     18  C   UNL A   1      32.102  21.291  23.508  1.00  0.00     0.123 A 
ATOM     19  C   UNL A   1      32.358  21.065  24.860  1.00  0.00     0.092 A 
ATOM     20  C   UNL A   1      31.576  22.518  23.083  1.00  0.00     0.055 A 
ATOM     21  C   UNL A   1      32.082  22.057  25.798  1.00  0.00     0.123 A 
ATOM     22  C   UNL A   1      31.573  23.283  25.364  1.00  0.00     0.055 A 
BRANCH  18  23
ATOM     23  O   UNL A   1      32.203  20.215  22.666  1.00  0.00    -0.494 OA
BRANCH  23  24
ATOM     24  C   UNL A   1      32.489  18.974  23.317  1.00  0.00     0.226 C 
ATOM     25  C   UNL A   1      32.532  17.847  22.307  1.00  0.00     0.049 C 
ENDBRANCH  23  24
ENDBRANCH  18  23
BRANCH  21  26
ATOM     26  O   UNL A   1      32.336  21.727  27.103  1.00  0.00    -0.494 OA
BRANCH  26  27
ATOM     27  C   UNL A   1      33.703  21.536  27.479  1.00  0.00     0.226 C 
ATOM     28  C   UNL A   1      34.477  22.845  27.469  1.00  0.00     0.049 C 
ENDBRANCH  26  27
ENDBRANCH  21  26
ENDBRANCH  12  17
ENDBRANCH   9  11
ENDBRANCH   7   9
ENDBRANCH   6   7
ENDBRANCH   5   6
ENDBRANCH   4   5
ENDBRANCH   3   4
ENDBRANCH   2   3
ENDBRANCH   1   2
BRANCH   1  29
ATOM     29  O   UNL A   1      34.371  25.576  24.677  1.00  0.00    -0.377 OA
BRANCH  29  30
ATOM     30  C   UNL A   1      35.213  24.541  25.155  1.00  0.00     0.188 C 
BRANCH  30  31
ATOM     31  C   UNL A   1      35.959  23.698  24.102  1.00  0.00     0.188 C 
BRANCH  31  32
ATOM     32  O   UNL A   1      35.814  22.293  24.266  1.00  0.00    -0.376 OA
BRANCH  32  33
ATOM     33  C   UNL A   1      36.990  21.511  24.375  1.00  0.00     0.202 C 
BRANCH  33  34
ATOM     34  C   UNL A   1      37.822  21.614  25.660  1.00  0.00     0.261 C 
BRANCH  34  35
ATOM     35  O   UNL A   1      39.236  21.391  25.562  1.00  0.00    -0.460 OA
BRANCH  35  36
ATOM     36  C   UNL A   1      39.959  21.297  26.696  1.00  0.00     0.338 C 
ATOM     37  O   UNL A   1      40.407  20.271  27.186  1.00  0.00    -0.246 OA
BRANCH  36  38
ATOM     38  C   UNL A   1      40.304  22.671  27.134  1.00  0.00     0.060 A 
ATOM     39  C   UNL A   1      39.641  23.752  26.537  1.00  0.00     0.016 A 
ATOM     40  C   UNL A   1      41.248  22.899  28.139  1.00  0.00     0.016 A 
ATOM     41  C   UNL A   1      39.928  25.060  26.931  1.00  0.00     0.010 A 
ATOM     42  C   UNL A   1      41.558  24.216  28.508  1.00  0.00     0.010 A 
ATOM     43  C   UNL A   1      40.915  25.305  27.893  1.00  0.00    -0.014 A 
BRANCH  43  44
ATOM     44  C   UNL A   1      41.365  26.697  28.155  1.00  0.00     0.031 A 
ATOM     45  C   UNL A   1      42.795  27.067  27.869  1.00  0.00     0.074 A 
ATOM     46  C   UNL A   1      40.519  27.625  28.643  1.00  0.00     0.049 A 
ATOM     47  N   UNL A   1      43.415  28.201  28.068  1.00  0.00    -0.248 NA
ATOM     48  C   UNL A   1      43.639  26.016  27.276  1.00  0.00     0.031 C 
ATOM     49  C   UNL A   1      39.107  27.403  28.946  1.00  0.00     0.029 A 
ATOM     50  N   UNL A   1      40.740  28.934  29.000  1.00  0.00    -0.354 N 
ATOM     51  C   UNL A   1      44.727  27.993  27.661  1.00  0.00     0.074 A 
ATOM     52  C   UNL A   1      44.814  26.624  27.201  1.00  0.00     0.031 C 
ATOM     53  C   UNL A   1      38.596  28.526  29.481  1.00  0.00     0.029 A 
ATOM     54  C   UNL A   1      39.652  29.532  29.588  1.00  0.00     0.049 A 
ATOM     55  H   UNL A   1      41.595  29.397  28.848  1.00  0.00     0.167 HD
ATOM     56  C   UNL A   1      45.766  28.863  27.666  1.00  0.00     0.034 A 
ATOM     57  C   UNL A   1      39.530  30.738  30.182  1.00  0.00     0.034 A 
ATOM     58  C   UNL A   1      45.679  30.225  28.117  1.00  0.00     0.049 A 
ATOM     59  C   UNL A   1      40.714  31.671  30.217  1.00  0.00     0.074 A 
ATOM     60  C   UNL A   1      46.665  31.196  28.108  1.00  0.00     0.029 A 
ATOM     61  N   UNL A   1      44.554  30.804  28.683  1.00  0.00    -0.354 N 
ATOM     62  N   UNL A   1      41.915  31.503  29.718  1.00  0.00    -0.248 NA
ATOM     63  C   UNL A   1      40.519  32.973  30.876  1.00  0.00     0.031 C 
ATOM     64  C   UNL A   1      46.152  32.347  28.713  1.00  0.00     0.029 A 
ATOM     65  C   UNL A   1      44.830  32.110  29.053  1.00  0.00     0.049 A 
ATOM     66  H   UNL A   1      43.688  30.354  28.803  1.00  0.00     0.167 HD
ATOM     67  C   UNL A   1      42.605  32.684  29.973  1.00  0.00     0.074 A 
ATOM     68  C   UNL A   1      41.681  33.570  30.648  1.00  0.00     0.031 C 
ATOM     69  C   UNL A   1      43.893  33.002  29.688  1.00  0.00     0.034 A 
BRANCH  56  70
ATOM     70  C   UNL A   1      47.099  28.367  27.167  1.00  0.00     0.023 A 
ATOM     71  C   UNL A   1      48.070  27.917  28.083  1.00  0.00     0.012 A 
ATOM     72  C   UNL A   1      47.358  28.282  25.785  1.00  0.00     0.148 A 
ATOM     73  C   UNL A   1      49.292  27.419  27.632  1.00  0.00     0.002 A 
ATOM     74  C   UNL A   1      48.557  27.740  25.342  1.00  0.00     0.091 A 
ATOM     75  F   UNL A   1      46.427  28.735  24.932  1.00  0.00    -0.205 F 
ATOM     76  C   UNL A   1      49.530  27.319  26.263  1.00  0.00     0.022 A 
BRANCH  74  77
ATOM     77  S   UNL A   1      48.926  27.494  23.602  1.00  0.00     0.127 S 
ATOM     78  O   UNL A   1      50.228  28.149  23.481  1.00  0.00    -0.237 OA
ATOM     79  O   UNL A   1      48.967  26.035  23.502  1.00  0.00    -0.237 OA
ATOM     80  O   UNL A   1      47.841  28.127  22.865  1.00  0.00    -0.744 OA
ENDBRANCH  74  77
ENDBRANCH  56  70
BRANCH  57  81
ATOM     81  C   UNL A   1      38.234  31.139  30.805  1.00  0.00     0.023 A 
ATOM     82  C   UNL A   1      37.986  30.845  32.159  1.00  0.00     0.012 A 
ATOM     83  C   UNL A   1      37.244  31.804  30.054  1.00  0.00     0.148 A 
ATOM     84  C   UNL A   1      36.763  31.175  32.746  1.00  0.00     0.002 A 
ATOM     85  C   UNL A   1      36.053  32.184  30.661  1.00  0.00     0.091 A 
ATOM     86  F   UNL A   1      37.490  32.055  28.761  1.00  0.00    -0.205 F 
ATOM     87  C   UNL A   1      35.802  31.853  32.001  1.00  0.00     0.022 A 
BRANCH  85  88
ATOM     88  S   UNL A   1      34.814  33.173  29.816  1.00  0.00     0.127 S 
ATOM     89  O   UNL A   1      35.643  34.123  29.077  1.00  0.00    -0.237 OA
ATOM     90  O   UNL A   1      34.143  32.168  28.990  1.00  0.00    -0.237 OA
ATOM     91  O   UNL A   1      33.980  33.744  30.864  1.00  0.00    -0.744 OA
ENDBRANCH  85  88
ENDBRANCH  57  81
BRANCH  69  92
ATOM     92  C   UNL A   1      44.382  34.377  30.071  1.00  0.00     0.023 A 
ATOM     93  C   UNL A   1      45.039  34.575  31.301  1.00  0.00     0.012 A 
ATOM     94  C   UNL A   1      44.254  35.460  29.177  1.00  0.00     0.148 A 
ATOM     95  C   UNL A   1      45.526  35.834  31.652  1.00  0.00     0.002 A 
ATOM     96  C   UNL A   1      44.788  36.698  29.509  1.00  0.00     0.091 A 
ATOM     97  F   UNL A   1      43.615  35.256  28.015  1.00  0.00    -0.205 F 
ATOM     98  C   UNL A   1      45.411  36.891  30.753  1.00  0.00     0.022 A 
BRANCH  96  99
ATOM     99  S   UNL A   1      44.774  38.094  28.378  1.00  0.00     0.127 S 
ATOM    100  O   UNL A   1      45.458  39.121  29.164  1.00  0.00    -0.237 OA
ATOM    101  O   UNL A   1      45.545  37.579  27.245  1.00  0.00    -0.237 OA
ATOM    102  O   UNL A   1      43.374  38.364  28.086  1.00  0.00    -0.744 OA
ENDBRANCH  96  99
ENDBRANCH  69  92
ENDBRANCH  43  44
ENDBRANCH  36  38
ENDBRANCH  35  36
ENDBRANCH  34  35
ENDBRANCH  33  34
ENDBRANCH  32  33
ENDBRANCH  31  32
ENDBRANCH  30  31
ENDBRANCH  29  30
ENDBRANCH   1  29
TORSDOF 29
ENDMDL
MODEL 2
REMARK VINA RESULT:      -9.1      5.660      7.503
REMARK SMILES CCOc1cc(OCC)cc(-c2ccc([C@@H](C)C(=O)OCCOCCOCCOCCOC(=O)c3ccc(-c4c5nc(c(-c6cccc(S(=O)(=O)[O-])c6F)c6ccc([nH]6)c(-c6cccc(S(=O)(=O)[O-])c6F)c6nc(c(-c7cccc(S(=O)(=O)[O-])c7F)c7ccc4[nH]7)C=C6)C=C5)cc3)cc2)c1
REMARK SMILES IDX 25 1 24 2 23 3 22 4 21 5 20 6 18 7 19 8 16 9 17 10 15 11
REMARK SMILES IDX 12 12 13 13 99 14 14 15 98 16 11 17 4 18 5 19 100 20 6 21
REMARK SMILES IDX 10 22 3 23 2 24 1 25 7 26 8 27 9 28 26 29 27 30 28 31 29 32
REMARK SMILES IDX 30 33 31 34 32 35 33 36 34 37 35 38 36 39 97 40 37 41 96 42
REMARK SMILES IDX 38 43 39 44 40 45 90 46 41 47 95 48 89 49 91 50 42 51 94 52
REMARK SMILES IDX 88 53 87 54 43 56 75 57 55 58 74 59 56 60 59 61 73 62 92 63
REMARK SMILES IDX 57 64 58 65 72 67 93 68 60 69 44 70 45 71 53 72 46 73 48 74
REMARK SMILES IDX 54 75 47 76 49 77 50 78 51 79 52 80 76 81 77 82 85 83 78 84
REMARK SMILES IDX 80 85 86 86 79 87 81 88 82 89 83 90 84 91 61 92 62 93 70 94
REMARK SMILES IDX 63 95 65 96 71 97 64 98 66 99 67 100 68 101 69 102
REMARK H PARENT 91 55 59 66
REMARK Flexibility Score: inf
ROOT
ATOM      1  C   UNL A   1      34.499  24.479  25.281  1.00  0.00     0.188 C 
ENDROOT
BRANCH   1   2
ATOM      2  C   UNL A   1      33.918  25.862  25.604  1.00  0.00     0.188 C 
BRANCH   2   3
ATOM      3  O   UNL A   1      34.307  27.013  24.867  1.00  0.00    -0.376 OA
BRANCH   3   4
ATOM      4  C   UNL A   1      33.792  28.296  25.202  1.00  0.00     0.202 C 
BRANCH   4   5
ATOM      5  C   UNL A   1      32.590  28.905  24.454  1.00  0.00     0.261 C 
BRANCH   5   6
ATOM      6  O   UNL A   1      32.451  28.584  23.057  1.00  0.00    -0.463 OA
BRANCH   6   7
ATOM      7  C   UNL A   1      31.243  28.818  22.501  1.00  0.00     0.313 C 
ATOM      8  O   UNL A   1      30.896  29.918  22.071  1.00  0.00    -0.252 OA
BRANCH   7   9
ATOM      9  C   UNL A   1      30.289  27.626  22.442  1.00  0.00     0.126 C 
ATOM     10  C   UNL A   1      29.048  27.955  23.262  1.00  0.00     0.025 C 
BRANCH   9  11
ATOM     11  C   UNL A   1      30.780  26.205  22.721  1.00  0.00    -0.034 A 
ATOM     12  C   UNL A   1      31.607  23.532  23.334  1.00  0.00    -0.018 A 
ATOM     13  C   UNL A   1      32.225  24.284  22.318  1.00  0.00     0.009 A 
ATOM     14  C   UNL A   1      30.558  24.138  24.033  1.00  0.00     0.009 A 
ATOM     15  C   UNL A   1      31.827  25.600  22.019  1.00  0.00     0.005 A 
ATOM     16  C   UNL A   1      30.161  25.451  23.742  1.00  0.00     0.005 A 
BRANCH  12  17
ATOM     17  C   UNL A   1      32.120  22.202  23.722  1.00  0.00    -0.011 A 
ATOM     18  C   UNL A   1      32.558  19.839  23.314  1.00  0.00     0.123 A 
ATOM     19  C   UNL A   1      33.067  19.696  24.604  1.00  0.00     0.092 A 
ATOM     20  C   UNL A   1      32.074  21.080  22.878  1.00  0.00     0.055 A 
ATOM     21  C   UNL A   1      33.087  20.787  25.471  1.00  0.00     0.123 A 
ATOM     22  C   UNL A   1      32.619  22.023  25.022  1.00  0.00     0.055 A 
BRANCH  18  23
ATOM     23  O   UNL A   1      32.378  18.694  22.584  1.00  0.00    -0.494 OA
BRANCH  23  24
ATOM     24  C   UNL A   1      32.667  17.486  23.292  1.00  0.00     0.226 C 
ATOM     25  C   UNL A   1      33.974  16.893  22.809  1.00  0.00     0.049 C 
ENDBRANCH  23  24
ENDBRANCH  18  23
BRANCH  21  26
ATOM     26  O   UNL A   1      33.574  20.536  26.726  1.00  0.00    -0.494 OA
BRANCH  26  27
ATOM     27  C   UNL A   1      34.123  21.641  27.452  1.00  0.00     0.226 C 
ATOM     28  C   UNL A   1      33.037  22.486  28.098  1.00  0.00     0.049 C 
ENDBRANCH  26  27
ENDBRANCH  21  26
ENDBRANCH  12  17
ENDBRANCH   9  11
ENDBRANCH   7   9
ENDBRANCH   6   7
ENDBRANCH   5   6
ENDBRANCH   4   5
ENDBRANCH   3   4
ENDBRANCH   2   3
ENDBRANCH   1   2
BRANCH   1  29
ATOM     29  O   UNL A   1      35.880  24.465  24.997  1.00  0.00    -0.377 OA
BRANCH  29  30
ATOM     30  C   UNL A   1      36.358  23.424  24.163  1.00  0.00     0.188 C 
BRANCH  30  31
ATOM     31  C   UNL A   1      36.927  22.171  24.857  1.00  0.00     0.188 C 
BRANCH  31  32
ATOM     32  O   UNL A   1      38.305  22.264  25.196  1.00  0.00    -0.376 OA
BRANCH  32  33
ATOM     33  C   UNL A   1      38.644  22.793  26.466  1.00  0.00     0.202 C 
BRANCH  33  34
ATOM     34  C   UNL A   1      39.741  23.864  26.544  1.00  0.00     0.261 C 
BRANCH  34  35
ATOM     35  O   UNL A   1      39.511  24.995  27.397  1.00  0.00    -0.460 OA
BRANCH  35  36
ATOM     36  C   UNL A   1      40.126  26.159  27.109  1.00  0.00     0.338 C 
ATOM     37  O   UNL A   1      40.619  26.471  26.035  1.00  0.00    -0.246 OA
BRANCH  36  38
ATOM     38  C   UNL A   1      39.915  27.084  28.248  1.00  0.00     0.060 A 
ATOM     39  C   UNL A   1      40.529  28.344  28.212  1.00  0.00     0.016 A 
ATOM     40  C   UNL A   1      39.102  26.734  29.329  1.00  0.00     0.016 A 
ATOM     41  C   UNL A   1      40.345  29.249  29.260  1.00  0.00     0.010 A 
ATOM     42  C   UNL A   1      38.947  27.632  30.395  1.00  0.00     0.010 A 
ATOM     43  C   UNL A   1      39.582  28.886  30.376  1.00  0.00    -0.014 A 
BRANCH  43  44
ATOM     44  C   UNL A   1      39.562  29.765  31.575  1.00  0.00     0.031 A 
ATOM     45  C   UNL A   1      40.668  29.640  32.588  1.00  0.00     0.074 A 
ATOM     46  C   UNL A   1      38.575  30.660  31.770  1.00  0.00     0.049 A 
ATOM     47  N   UNL A   1      40.825  30.264  33.726  1.00  0.00    -0.248 NA
ATOM     48  C   UNL A   1      41.744  28.685  32.272  1.00  0.00     0.031 C 
ATOM     49  C   UNL A   1      37.456  30.893  30.860  1.00  0.00     0.029 A 
ATOM     50  N   UNL A   1      38.342  31.518  32.818  1.00  0.00    -0.354 N 
ATOM     51  C   UNL A   1      41.993  29.755  34.281  1.00  0.00     0.074 A 
ATOM     52  C   UNL A   1      42.507  28.771  33.352  1.00  0.00     0.031 C 
ATOM     53  C   UNL A   1      36.632  31.804  31.407  1.00  0.00     0.029 A 
ATOM     54  C   UNL A   1      37.149  32.192  32.719  1.00  0.00     0.049 A 
ATOM     55  H   UNL A   1      38.970  31.638  33.567  1.00  0.00     0.167 HD
ATOM     56  C   UNL A   1      42.587  30.078  35.455  1.00  0.00     0.034 A 
ATOM     57  C   UNL A   1      36.523  33.000  33.602  1.00  0.00     0.034 A 
ATOM     58  C   UNL A   1      42.081  31.060  36.375  1.00  0.00     0.049 A 
ATOM     59  C   UNL A   1      37.183  33.308  34.923  1.00  0.00     0.074 A 
ATOM     60  C   UNL A   1      42.645  31.493  37.563  1.00  0.00     0.029 A 
ATOM     61  N   UNL A   1      40.883  31.741  36.230  1.00  0.00    -0.354 N 
ATOM     62  N   UNL A   1      38.347  32.911  35.378  1.00  0.00    -0.248 NA
ATOM     63  C   UNL A   1      36.454  34.196  35.842  1.00  0.00     0.031 C 
ATOM     64  C   UNL A   1      41.764  32.400  38.160  1.00  0.00     0.029 A 
ATOM     65  C   UNL A   1      40.675  32.570  37.320  1.00  0.00     0.049 A 
ATOM     66  H   UNL A   1      40.271  31.650  35.465  1.00  0.00     0.167 HD
ATOM     67  C   UNL A   1      38.502  33.525  36.618  1.00  0.00     0.074 A 
ATOM     68  C   UNL A   1      37.326  34.340  36.831  1.00  0.00     0.031 C 
ATOM     69  C   UNL A   1      39.521  33.411  37.507  1.00  0.00     0.034 A 
BRANCH  56  70
ATOM     70  C   UNL A   1      43.860  29.359  35.818  1.00  0.00     0.023 A 
ATOM     71  C   UNL A   1      45.106  29.896  35.436  1.00  0.00     0.012 A 
ATOM     72  C   UNL A   1      43.822  28.189  36.601  1.00  0.00     0.148 A 
ATOM     73  C   UNL A   1      46.293  29.261  35.801  1.00  0.00     0.002 A 
ATOM     74  C   UNL A   1      45.009  27.589  37.002  1.00  0.00     0.091 A 
ATOM     75  F   UNL A   1      42.625  27.684  36.938  1.00  0.00    -0.205 F 
ATOM     76  C   UNL A   1      46.244  28.116  36.594  1.00  0.00     0.022 A 
BRANCH  74  77
ATOM     77  S   UNL A   1      45.054  26.160  38.089  1.00  0.00     0.127 S 
ATOM     78  O   UNL A   1      44.557  25.104  37.207  1.00  0.00    -0.237 OA
ATOM     79  O   UNL A   1      46.479  26.066  38.408  1.00  0.00    -0.237 OA
ATOM     80  O   UNL A   1      44.195  26.483  39.218  1.00  0.00    -0.744 OA
ENDBRANCH  74  77
ENDBRANCH  56  70
BRANCH  57  81
ATOM     81  C   UNL A   1      35.186  33.575  33.273  1.00  0.00     0.023 A 
ATOM     82  C   UNL A   1      34.024  32.803  33.461  1.00  0.00     0.012 A 
ATOM     83  C   UNL A   1      35.065  34.885  32.767  1.00  0.00     0.148 A 
ATOM     84  C   UNL A   1      32.769  33.310  33.120  1.00  0.00     0.002 A 
ATOM     85  C   UNL A   1      33.808  35.406  32.486  1.00  0.00     0.091 A 
ATOM     86  F   UNL A   1      36.184  35.596  32.574  1.00  0.00    -0.205 F 
ATOM     87  C   UNL A   1      32.660  34.614  32.643  1.00  0.00     0.022 A 
BRANCH  85  88
ATOM     88  S   UNL A   1      33.563  37.115  31.992  1.00  0.00     0.127 S 
ATOM     89  O   UNL A   1      34.613  37.798  32.744  1.00  0.00    -0.237 OA
ATOM     90  O   UNL A   1      33.784  37.043  30.548  1.00  0.00    -0.237 OA
ATOM     91  O   UNL A   1      32.196  37.445  32.374  1.00  0.00    -0.744 OA
ENDBRANCH  85  88
ENDBRANCH  57  81
BRANCH  69  92
ATOM     92  C   UNL A   1      39.435  34.211  38.784  1.00  0.00     0.023 A 
ATOM     93  C   UNL A   1      40.120  35.437  38.897  1.00  0.00     0.012 A 
ATOM     94  C   UNL A   1      38.613  33.781  39.846  1.00  0.00     0.148 A 
ATOM     95  C   UNL A   1      40.020  36.202  40.059  1.00  0.00     0.002 A 
ATOM     96  C   UNL A   1      38.476  34.574  40.979  1.00  0.00     0.091 A 
ATOM     97  F   UNL A   1      37.977  32.606  39.727  1.00  0.00    -0.205 F 
ATOM     98  C   UNL A   1      39.191  35.777  41.094  1.00  0.00     0.022 A 
BRANCH  96  99
ATOM     99  S   UNL A   1      37.358  34.158  42.322  1.00  0.00     0.127 S 
ATOM    100  O   UNL A   1      37.953  32.923  42.833  1.00  0.00    -0.237 OA
ATOM    101  O   UNL A   1      37.497  35.314  43.208  1.00  0.00    -0.237 OA
ATOM    102  O   UNL A   1      36.040  34.010  41.720  1.00  0.00    -0.744 OA
ENDBRANCH  96  99
ENDBRANCH  69  92
ENDBRANCH  43  44
ENDBRANCH  36  38
ENDBRANCH  35  36
ENDBRANCH  34  35
ENDBRANCH  33  34
ENDBRANCH  32  33
ENDBRANCH  31  32
ENDBRANCH  30  31
ENDBRANCH  29  30
ENDBRANCH   1  29
TORSDOF 29
ENDMDL
MODEL 3
REMARK VINA RESULT:      -8.7      6.542     11.253
REMARK SMILES CCOc1cc(OCC)cc(-c2ccc([C@@H](C)C(=O)OCCOCCOCCOCCOC(=O)c3ccc(-c4c5nc(c(-c6cccc(S(=O)(=O)[O-])c6F)c6ccc([nH]6)c(-c6cccc(S(=O)(=O)[O-])c6F)c6nc(c(-c7cccc(S(=O)(=O)[O-])c7F)c7ccc4[nH]7)C=C6)C=C5)cc3)cc2)c1
REMARK SMILES IDX 25 1 24 2 23 3 22 4 21 5 20 6 18 7 19 8 16 9 17 10 15 11
REMARK SMILES IDX 12 12 13 13 99 14 14 15 98 16 11 17 4 18 5 19 100 20 6 21
REMARK SMILES IDX 10 22 3 23 2 24 1 25 7 26 8 27 9 28 26 29 27 30 28 31 29 32
REMARK SMILES IDX 30 33 31 34 32 35 33 36 34 37 35 38 36 39 97 40 37 41 96 42
REMARK SMILES IDX 38 43 39 44 40 45 90 46 41 47 95 48 89 49 91 50 42 51 94 52
REMARK SMILES IDX 88 53 87 54 43 56 75 57 55 58 74 59 56 60 59 61 73 62 92 63
REMARK SMILES IDX 57 64 58 65 72 67 93 68 60 69 44 70 45 71 53 72 46 73 48 74
REMARK SMILES IDX 54 75 47 76 49 77 50 78 51 79 52 80 76 81 77 82 85 83 78 84
REMARK SMILES IDX 80 85 86 86 79 87 81 88 82 89 83 90 84 91 61 92 62 93 70 94
REMARK SMILES IDX 63 95 65 96 71 97 64 98 66 99 67 100 68 101 69 102
REMARK H PARENT 91 55 59 66
REMARK Flexibility Score: inf
ROOT
ATOM      1  C   UNL A   1      45.372  21.361  24.466  1.00  0.00     0.188 C 
ENDROOT
BRANCH   1   2
ATOM      2  C   UNL A   1      44.484  20.413  25.284  1.00  0.00     0.188 C 
BRANCH   2   3
ATOM      3  O   UNL A   1      43.075  20.590  25.336  1.00  0.00    -0.376 OA
BRANCH   3   4
ATOM      4  C   UNL A   1      42.241  19.590  25.909  1.00  0.00     0.202 C 
BRANCH   4   5
ATOM      5  C   UNL A   1      41.646  19.744  27.323  1.00  0.00     0.261 C 
BRANCH   5   6
ATOM      6  O   UNL A   1      40.557  20.673  27.481  1.00  0.00    -0.463 OA
BRANCH   6   7
ATOM      7  C   UNL A   1      40.891  21.956  27.739  1.00  0.00     0.313 C 
ATOM      8  O   UNL A   1      41.702  22.285  28.605  1.00  0.00    -0.252 OA
BRANCH   7   9
ATOM      9  C   UNL A   1      40.184  23.015  26.895  1.00  0.00     0.126 C 
ATOM     10  C   UNL A   1      40.154  24.321  27.680  1.00  0.00     0.025 C 
BRANCH   9  11
ATOM     11  C   UNL A   1      38.836  22.731  26.234  1.00  0.00    -0.034 A 
ATOM     12  C   UNL A   1      36.273  22.321  25.021  1.00  0.00    -0.018 A 
ATOM     13  C   UNL A   1      37.249  21.307  25.053  1.00  0.00     0.009 A 
ATOM     14  C   UNL A   1      36.606  23.551  25.600  1.00  0.00     0.009 A 
ATOM     15  C   UNL A   1      38.505  21.503  25.654  1.00  0.00     0.005 A 
ATOM     16  C   UNL A   1      37.856  23.748  26.205  1.00  0.00     0.005 A 
BRANCH  12  17
ATOM     17  C   UNL A   1      34.915  22.060  24.502  1.00  0.00    -0.011 A 
ATOM     18  C   UNL A   1      32.854  20.767  24.362  1.00  0.00     0.123 A 
ATOM     19  C   UNL A   1      32.363  21.628  23.382  1.00  0.00     0.092 A 
ATOM     20  C   UNL A   1      34.127  20.972  24.911  1.00  0.00     0.055 A 
ATOM     21  C   UNL A   1      33.142  22.693  22.934  1.00  0.00     0.123 A 
ATOM     22  C   UNL A   1      34.402  22.899  23.498  1.00  0.00     0.055 A 
BRANCH  18  23
ATOM     23  O   UNL A   1      32.132  19.630  24.613  1.00  0.00    -0.494 OA
BRANCH  23  24
ATOM     24  C   UNL A   1      32.759  18.419  24.183  1.00  0.00     0.226 C 
ATOM     25  C   UNL A   1      32.485  18.177  22.714  1.00  0.00     0.049 C 
ENDBRANCH  23  24
ENDBRANCH  18  23
BRANCH  21  26
ATOM     26  O   UNL A   1      32.586  23.460  21.946  1.00  0.00    -0.494 OA
BRANCH  26  27
ATOM     27  C   UNL A   1      32.200  24.795  22.287  1.00  0.00     0.226 C 
ATOM     28  C   UNL A   1      32.817  25.818  21.347  1.00  0.00     0.049 C 
ENDBRANCH  26  27
ENDBRANCH  21  26
ENDBRANCH  12  17
ENDBRANCH   9  11
ENDBRANCH   7   9
ENDBRANCH   6   7
ENDBRANCH   5   6
ENDBRANCH   4   5
ENDBRANCH   3   4
ENDBRANCH   2   3
ENDBRANCH   1   2
BRANCH   1  29
ATOM     29  O   UNL A   1      46.295  22.112  25.222  1.00  0.00    -0.377 OA
BRANCH  29  30
ATOM     30  C   UNL A   1      46.375  23.500  24.949  1.00  0.00     0.188 C 
BRANCH  30  31
ATOM     31  C   UNL A   1      45.561  24.444  25.855  1.00  0.00     0.188 C 
BRANCH  31  32
ATOM     32  O   UNL A   1      44.321  23.907  26.297  1.00  0.00    -0.376 OA
BRANCH  32  33
ATOM     33  C   UNL A   1      43.168  24.161  25.513  1.00  0.00     0.202 C 
BRANCH  33  34
ATOM     34  C   UNL A   1      43.063  25.505  24.780  1.00  0.00     0.261 C 
BRANCH  34  35
ATOM     35  O   UNL A   1      42.066  26.435  25.228  1.00  0.00    -0.460 OA
BRANCH  35  36
ATOM     36  C   UNL A   1      42.444  27.694  25.529  1.00  0.00     0.338 C 
ATOM     37  O   UNL A   1      42.167  28.703  24.899  1.00  0.00    -0.246 OA
BRANCH  36  38
ATOM     38  C   UNL A   1      43.069  27.676  26.873  1.00  0.00     0.060 A 
ATOM     39  C   UNL A   1      42.577  26.778  27.830  1.00  0.00     0.016 A 
ATOM     40  C   UNL A   1      44.145  28.511  27.187  1.00  0.00     0.016 A 
ATOM     41  C   UNL A   1      43.147  26.721  29.104  1.00  0.00     0.010 A 
ATOM     42  C   UNL A   1      44.692  28.475  28.478  1.00  0.00     0.010 A 
ATOM     43  C   UNL A   1      44.184  27.594  29.450  1.00  0.00    -0.014 A 
BRANCH  43  44
ATOM     44  C   UNL A   1      44.643  27.677  30.861  1.00  0.00     0.031 A 
ATOM     45  C   UNL A   1      43.864  28.522  31.832  1.00  0.00     0.074 A 
ATOM     46  C   UNL A   1      45.739  27.016  31.280  1.00  0.00     0.049 A 
ATOM     47  N   UNL A   1      44.108  28.778  33.091  1.00  0.00    -0.248 NA
ATOM     48  C   UNL A   1      42.643  29.161  31.314  1.00  0.00     0.031 C 
ATOM     49  C   UNL A   1      46.571  26.150  30.448  1.00  0.00     0.029 A 
ATOM     50  N   UNL A   1      46.355  26.997  32.508  1.00  0.00    -0.354 N 
ATOM     51  C   UNL A   1      43.096  29.635  33.508  1.00  0.00     0.074 A 
ATOM     52  C   UNL A   1      42.233  29.853  32.367  1.00  0.00     0.031 C 
ATOM     53  C   UNL A   1      47.614  25.716  31.178  1.00  0.00     0.029 A 
ATOM     54  C   UNL A   1      47.539  26.299  32.517  1.00  0.00     0.049 A 
ATOM     55  H   UNL A   1      45.983  27.440  33.305  1.00  0.00     0.167 HD
ATOM     56  C   UNL A   1      42.901  30.188  34.728  1.00  0.00     0.034 A 
ATOM     57  C   UNL A   1      48.476  26.176  33.481  1.00  0.00     0.034 A 
ATOM     58  C   UNL A   1      43.755  29.967  35.864  1.00  0.00     0.049 A 
ATOM     59  C   UNL A   1      48.258  26.840  34.817  1.00  0.00     0.074 A 
ATOM     60  C   UNL A   1      43.604  30.441  37.155  1.00  0.00     0.029 A 
ATOM     61  N   UNL A   1      44.931  29.234  35.842  1.00  0.00    -0.354 N 
ATOM     62  N   UNL A   1      47.235  27.548  35.232  1.00  0.00    -0.248 NA
ATOM     63  C   UNL A   1      49.313  26.668  35.828  1.00  0.00     0.031 C 
ATOM     64  C   UNL A   1      44.715  30.036  37.902  1.00  0.00     0.029 A 
ATOM     65  C   UNL A   1      45.531  29.267  37.090  1.00  0.00     0.049 A 
ATOM     66  H   UNL A   1      45.286  28.760  35.056  1.00  0.00     0.167 HD
ATOM     67  C   UNL A   1      47.508  27.876  36.557  1.00  0.00     0.074 A 
ATOM     68  C   UNL A   1      48.780  27.269  36.883  1.00  0.00     0.031 C 
ATOM     69  C   UNL A   1      46.778  28.626  37.421  1.00  0.00     0.034 A 
BRANCH  56  70
ATOM     70  C   UNL A   1      41.711  31.095  34.906  1.00  0.00     0.023 A 
ATOM     71  C   UNL A   1      40.478  30.565  35.335  1.00  0.00     0.012 A 
ATOM     72  C   UNL A   1      41.837  32.485  34.714  1.00  0.00     0.148 A 
ATOM     73  C   UNL A   1      39.380  31.400  35.542  1.00  0.00     0.002 A 
ATOM     74  C   UNL A   1      40.754  33.316  34.969  1.00  0.00     0.091 A 
ATOM     75  F   UNL A   1      43.013  32.967  34.287  1.00  0.00    -0.205 F 
ATOM     76  C   UNL A   1      39.522  32.775  35.371  1.00  0.00     0.022 A 
BRANCH  74  77
ATOM     77  S   UNL A   1      40.857  35.106  34.856  1.00  0.00     0.127 S 
ATOM     78  O   UNL A   1      41.775  35.417  35.951  1.00  0.00    -0.237 OA
ATOM     79  O   UNL A   1      41.419  35.295  33.518  1.00  0.00    -0.237 OA
ATOM     80  O   UNL A   1      39.499  35.601  35.023  1.00  0.00    -0.744 OA
ENDBRANCH  74  77
ENDBRANCH  56  70
BRANCH  57  81
ATOM     81  C   UNL A   1      49.720  25.395  33.220  1.00  0.00     0.023 A 
ATOM     82  C   UNL A   1      50.844  26.031  32.659  1.00  0.00     0.012 A 
ATOM     83  C   UNL A   1      49.789  24.020  33.520  1.00  0.00     0.148 A 
ATOM     84  C   UNL A   1      52.001  25.306  32.369  1.00  0.00     0.002 A 
ATOM     85  C   UNL A   1      50.965  23.317  33.286  1.00  0.00     0.091 A 
ATOM     86  F   UNL A   1      48.702  23.428  34.034  1.00  0.00    -0.205 F 
ATOM     87  C   UNL A   1      52.066  23.954  32.693  1.00  0.00     0.022 A 
BRANCH  85  88
ATOM     88  S   UNL A   1      51.182  21.607  33.790  1.00  0.00     0.127 S 
ATOM     89  O   UNL A   1      52.550  21.338  33.356  1.00  0.00    -0.237 OA
ATOM     90  O   UNL A   1      51.000  21.697  35.239  1.00  0.00    -0.237 OA
ATOM     91  O   UNL A   1      50.142  20.856  33.100  1.00  0.00    -0.744 OA
ENDBRANCH  85  88
ENDBRANCH  57  81
BRANCH  69  92
ATOM     92  C   UNL A   1      47.313  28.811  38.820  1.00  0.00     0.023 A 
ATOM     93  C   UNL A   1      46.993  27.880  39.827  1.00  0.00     0.012 A 
ATOM     94  C   UNL A   1      48.194  29.871  39.117  1.00  0.00     0.148 A 
ATOM     95  C   UNL A   1      47.509  28.021  41.115  1.00  0.00     0.002 A 
ATOM     96  C   UNL A   1      48.747  29.975  40.387  1.00  0.00     0.091 A 
ATOM     97  F   UNL A   1      48.480  30.755  38.149  1.00  0.00    -0.205 F 
ATOM     98  C   UNL A   1      48.394  29.060  41.392  1.00  0.00     0.022 A 
BRANCH  96  99
ATOM     99  S   UNL A   1      49.969  31.222  40.812  1.00  0.00     0.127 S 
ATOM    100  O   UNL A   1      51.032  30.937  39.848  1.00  0.00    -0.237 OA
ATOM    101  O   UNL A   1      49.239  32.466  40.564  1.00  0.00    -0.237 OA
ATOM    102  O   UNL A   1      50.317  30.989  42.206  1.00  0.00    -0.744 OA
ENDBRANCH  96  99
ENDBRANCH  69  92
ENDBRANCH  43  44
ENDBRANCH  36  38
ENDBRANCH  35  36
ENDBRANCH  34  35
ENDBRANCH  33  34
ENDBRANCH  32  33
ENDBRANCH  31  32
ENDBRANCH  30  31
ENDBRANCH  29  30
ENDBRANCH   1  29
TORSDOF 29
ENDMDL
