MODEL 1
REMARK VINA RESULT:      -7.8      0.000      0.000
REMARK SMILES CCCc1cc2c(cc1Cl)C=C(C(=O)OCCOCCOCCOCCOC(=O)c1ccc(-c3c4nc(c(-c5cccc(S(=O)(=O)[O-])c5F)c5ccc([nH]5)c(-c5cccc(S(=O)(=O)[O-])c5F)c5nc(c(-c6cccc(S(=O)(=O)[O-])c6F)c6ccc3[nH]6)C=C5)C=C4)cc1)[C@@H](C(F)(F)F)O2
REMARK SMILES IDX 22 1 21 2 20 3 19 4 18 5 17 6 16 7 15 8 13 9 14 10 12 11
REMARK SMILES IDX 4 12 5 13 9 14 6 15 8 16 10 17 7 18 98 19 11 20 93 21 3 22
REMARK SMILES IDX 2 23 1 24 94 25 95 26 96 27 97 28 23 29 24 30 25 31 26 32
REMARK SMILES IDX 27 33 28 34 29 35 30 36 31 37 92 38 32 39 91 40 33 41 34 42
REMARK SMILES IDX 35 43 85 44 36 45 90 46 84 47 86 48 37 49 89 50 83 51 82 52
REMARK SMILES IDX 38 54 70 55 50 56 69 57 51 58 54 59 68 60 87 61 52 62 53 63
REMARK SMILES IDX 67 65 88 66 55 67 39 68 40 69 48 70 41 71 43 72 49 73 42 74
REMARK SMILES IDX 44 75 45 76 46 77 47 78 71 79 72 80 80 81 73 82 75 83 81 84
REMARK SMILES IDX 74 85 76 86 77 87 78 88 79 89 56 90 57 91 65 92 58 93 60 94
REMARK SMILES IDX 66 95 59 96 61 97 62 98 63 99 64 100
REMARK H PARENT 86 53 54 64
REMARK Flexibility Score: inf
ROOT
ATOM      1  C   UNL A   1      36.925  32.087  33.186  1.00  0.00     0.188 C 
ENDROOT
BRANCH   1   2
ATOM      2  O   UNL A   1      36.219  32.644  34.292  1.00  0.00    -0.377 OA
BRANCH   2   3
ATOM      3  C   UNL A   1      35.415  33.778  34.006  1.00  0.00     0.188 C 
BRANCH   3   4
ATOM      4  C   UNL A   1      34.042  33.394  33.428  1.00  0.00     0.188 C 
BRANCH   4   5
ATOM      5  O   UNL A   1      33.578  34.148  32.328  1.00  0.00    -0.376 OA
BRANCH   5   6
ATOM      6  C   UNL A   1      34.378  34.408  31.182  1.00  0.00     0.202 C 
BRANCH   6   7
ATOM      7  C   UNL A   1      34.010  34.136  29.707  1.00  0.00     0.261 C 
BRANCH   7   8
ATOM      8  O   UNL A   1      34.187  32.813  29.203  1.00  0.00    -0.460 OA
BRANCH   8   9
ATOM      9  C   UNL A   1      34.913  32.669  28.079  1.00  0.00     0.338 C 
ATOM     10  O   UNL A   1      35.732  33.444  27.621  1.00  0.00    -0.246 OA
BRANCH   9  11
ATOM     11  C   UNL A   1      34.686  31.293  27.594  1.00  0.00     0.087 C 
ATOM     12  C   UNL A   1      32.609  27.106  25.754  1.00  0.00    -0.026 A 
ATOM     13  C   UNL A   1      33.818  27.403  26.412  1.00  0.00     0.052 A 
ATOM     14  C   UNL A   1      31.792  28.176  25.354  1.00  0.00     0.045 A 
ATOM     15  C   UNL A   1      34.152  28.716  26.745  1.00  0.00     0.128 A 
ATOM     16  C   UNL A   1      32.096  29.483  25.744  1.00  0.00     0.032 A 
ATOM     17  Cl  UNL A   1      30.387  27.957  24.373  1.00  0.00    -0.084 Cl
ATOM     18  C   UNL A   1      33.251  29.744  26.484  1.00  0.00     0.019 A 
ATOM     19  O   UNL A   1      35.345  28.908  27.383  1.00  0.00    -0.475 OA
ATOM     20  C   UNL A   1      33.486  31.058  27.049  1.00  0.00     0.027 C 
ATOM     21  C   UNL A   1      35.803  30.280  27.598  1.00  0.00     0.316 C 
BRANCH  12  22
ATOM     22  C   UNL A   1      32.222  25.655  25.570  1.00  0.00     0.037 C 
BRANCH  22  23
ATOM     23  C   UNL A   1      33.422  24.693  25.585  1.00  0.00     0.001 C 
ATOM     24  C   UNL A   1      33.119  23.308  26.141  1.00  0.00     0.004 C 
ENDBRANCH  22  23
ENDBRANCH  12  22
BRANCH  21  25
ATOM     25  C   UNL A   1      36.622  30.282  28.898  1.00  0.00     0.430 C 
ATOM     26  F   UNL A   1      35.825  30.492  29.974  1.00  0.00    -0.167 F 
ATOM     27  F   UNL A   1      37.261  29.111  29.110  1.00  0.00    -0.167 F 
ATOM     28  F   UNL A   1      37.558  31.260  28.892  1.00  0.00    -0.167 F 
ENDBRANCH  21  25
ENDBRANCH   9  11
ENDBRANCH   8   9
ENDBRANCH   7   8
ENDBRANCH   6   7
ENDBRANCH   5   6
ENDBRANCH   4   5
ENDBRANCH   3   4
ENDBRANCH   2   3
ENDBRANCH   1   2
BRANCH   1  29
ATOM     29  C   UNL A   1      38.401  31.686  33.389  1.00  0.00     0.188 C 
BRANCH  29  30
ATOM     30  O   UNL A   1      39.153  32.660  34.117  1.00  0.00    -0.376 OA
BRANCH  30  31
ATOM     31  C   UNL A   1      39.452  33.879  33.453  1.00  0.00     0.202 C 
BRANCH  31  32
ATOM     32  C   UNL A   1      40.898  33.991  32.953  1.00  0.00     0.261 C 
BRANCH  32  33
ATOM     33  O   UNL A   1      41.048  34.108  31.531  1.00  0.00    -0.460 OA
BRANCH  33  34
ATOM     34  C   UNL A   1      40.617  33.080  30.764  1.00  0.00     0.338 C 
ATOM     35  O   UNL A   1      39.633  33.066  30.047  1.00  0.00    -0.246 OA
BRANCH  34  36
ATOM     36  C   UNL A   1      41.665  32.038  30.798  1.00  0.00     0.060 A 
ATOM     37  C   UNL A   1      42.990  32.365  30.499  1.00  0.00     0.016 A 
ATOM     38  C   UNL A   1      41.311  30.718  31.103  1.00  0.00     0.016 A 
ATOM     39  C   UNL A   1      43.967  31.371  30.532  1.00  0.00     0.010 A 
ATOM     40  C   UNL A   1      42.294  29.723  31.141  1.00  0.00     0.010 A 
ATOM     41  C   UNL A   1      43.632  30.049  30.876  1.00  0.00    -0.014 A 
BRANCH  41  42
ATOM     42  C   UNL A   1      44.724  29.081  31.133  1.00  0.00     0.031 A 
ATOM     43  C   UNL A   1      45.349  28.268  30.041  1.00  0.00     0.074 A 
ATOM     44  C   UNL A   1      45.169  28.964  32.400  1.00  0.00     0.049 A 
ATOM     45  N   UNL A   1      46.424  27.523  30.098  1.00  0.00    -0.248 NA
ATOM     46  C   UNL A   1      44.693  28.280  28.726  1.00  0.00     0.031 C 
ATOM     47  C   UNL A   1      44.587  29.651  33.556  1.00  0.00     0.029 A 
ATOM     48  N   UNL A   1      46.209  28.244  32.928  1.00  0.00    -0.354 N 
ATOM     49  C   UNL A   1      46.577  26.976  28.832  1.00  0.00     0.074 A 
ATOM     50  C   UNL A   1      45.470  27.456  28.031  1.00  0.00     0.031 C 
ATOM     51  C   UNL A   1      45.298  29.344  34.651  1.00  0.00     0.029 A 
ATOM     52  C   UNL A   1      46.378  28.436  34.278  1.00  0.00     0.049 A 
ATOM     53  H   UNL A   1      46.779  27.647  32.390  1.00  0.00     0.167 HD
ATOM     54  C   UNL A   1      47.567  26.171  28.380  1.00  0.00     0.034 A 
ATOM     55  C   UNL A   1      47.310  27.955  35.122  1.00  0.00     0.034 A 
ATOM     56  C   UNL A   1      48.674  25.715  29.180  1.00  0.00     0.049 A 
ATOM     57  C   UNL A   1      48.409  27.084  34.590  1.00  0.00     0.074 A 
ATOM     58  C   UNL A   1      49.770  24.972  28.778  1.00  0.00     0.029 A 
ATOM     59  N   UNL A   1      48.819  25.940  30.538  1.00  0.00    -0.354 N 
ATOM     60  N   UNL A   1      48.639  26.724  33.351  1.00  0.00    -0.248 NA
ATOM     61  C   UNL A   1      49.390  26.574  35.557  1.00  0.00     0.031 C 
ATOM     62  C   UNL A   1      50.568  24.729  29.899  1.00  0.00     0.029 A 
ATOM     63  C   UNL A   1      49.975  25.332  30.996  1.00  0.00     0.049 A 
ATOM     64  H   UNL A   1      48.193  26.455  31.096  1.00  0.00     0.167 HD
ATOM     65  C   UNL A   1      49.795  25.955  33.387  1.00  0.00     0.074 A 
ATOM     66  C   UNL A   1      50.230  25.916  34.767  1.00  0.00     0.031 C 
ATOM     67  C   UNL A   1      50.422  25.326  32.365  1.00  0.00     0.034 A 
BRANCH  54  68
ATOM     68  C   UNL A   1      47.558  25.777  26.928  1.00  0.00     0.023 A 
ATOM     69  C   UNL A   1      46.926  24.574  26.556  1.00  0.00     0.012 A 
ATOM     70  C   UNL A   1      48.042  26.646  25.932  1.00  0.00     0.148 A 
ATOM     71  C   UNL A   1      46.783  24.236  25.211  1.00  0.00     0.002 A 
ATOM     72  C   UNL A   1      47.874  26.314  24.592  1.00  0.00     0.091 A 
ATOM     73  F   UNL A   1      48.642  27.782  26.313  1.00  0.00    -0.205 F 
ATOM     74  C   UNL A   1      47.247  25.109  24.231  1.00  0.00     0.022 A 
BRANCH  72  75
ATOM     75  S   UNL A   1      48.388  27.389  23.248  1.00  0.00     0.127 S 
ATOM     76  O   UNL A   1      49.670  27.889  23.747  1.00  0.00    -0.237 OA
ATOM     77  O   UNL A   1      48.493  26.453  22.129  1.00  0.00    -0.237 OA
ATOM     78  O   UNL A   1      47.345  28.395  23.112  1.00  0.00    -0.744 OA
ENDBRANCH  72  75
ENDBRANCH  54  68
BRANCH  55  79
ATOM     79  C   UNL A   1      47.271  28.372  36.549  1.00  0.00     0.023 A 
ATOM     80  C   UNL A   1      47.825  29.612  36.918  1.00  0.00     0.012 A 
ATOM     81  C   UNL A   1      46.612  27.591  37.516  1.00  0.00     0.148 A 
ATOM     82  C   UNL A   1      47.724  30.067  38.233  1.00  0.00     0.002 A 
ATOM     83  C   UNL A   1      46.484  28.065  38.814  1.00  0.00     0.091 A 
ATOM     84  F   UNL A   1      46.092  26.417  37.133  1.00  0.00    -0.205 F 
ATOM     85  C   UNL A   1      47.047  29.300  39.177  1.00  0.00     0.022 A 
BRANCH  83  86
ATOM     86  S   UNL A   1      45.543  27.200  40.076  1.00  0.00     0.127 S 
ATOM     87  O   UNL A   1      44.234  27.075  39.438  1.00  0.00    -0.237 OA
ATOM     88  O   UNL A   1      46.291  25.950  40.200  1.00  0.00    -0.237 OA
ATOM     89  O   UNL A   1      45.582  28.052  41.257  1.00  0.00    -0.744 OA
ENDBRANCH  83  86
ENDBRANCH  55  79
BRANCH  67  90
ATOM     90  C   UNL A   1      51.648  24.512  32.675  1.00  0.00     0.023 A 
ATOM     91  C   UNL A   1      51.501  23.147  32.984  1.00  0.00     0.012 A 
ATOM     92  C   UNL A   1      52.937  25.053  32.503  1.00  0.00     0.148 A 
ATOM     93  C   UNL A   1      52.621  22.328  33.114  1.00  0.00     0.002 A 
ATOM     94  C   UNL A   1      54.047  24.224  32.602  1.00  0.00     0.091 A 
ATOM     95  F   UNL A   1      53.046  26.357  32.212  1.00  0.00    -0.205 F 
ATOM     96  C   UNL A   1      53.890  22.861  32.910  1.00  0.00     0.022 A 
BRANCH  94  97
ATOM     97  S   UNL A   1      55.722  24.795  32.285  1.00  0.00     0.127 S 
ATOM     98  O   UNL A   1      56.507  23.601  32.593  1.00  0.00    -0.237 OA
ATOM     99  O   UNL A   1      55.664  25.140  30.865  1.00  0.00    -0.237 OA
ATOM    100  O   UNL A   1      55.942  25.922  33.181  1.00  0.00    -0.744 OA
ENDBRANCH  94  97
ENDBRANCH  67  90
ENDBRANCH  41  42
ENDBRANCH  34  36
ENDBRANCH  33  34
ENDBRANCH  32  33
ENDBRANCH  31  32
ENDBRANCH  30  31
ENDBRANCH  29  30
ENDBRANCH   1  29
TORSDOF 26
ENDMDL
MODEL 2
REMARK VINA RESULT:      -7.6      4.914      6.610
REMARK SMILES CCCc1cc2c(cc1Cl)C=C(C(=O)OCCOCCOCCOCCOC(=O)c1ccc(-c3c4nc(c(-c5cccc(S(=O)(=O)[O-])c5F)c5ccc([nH]5)c(-c5cccc(S(=O)(=O)[O-])c5F)c5nc(c(-c6cccc(S(=O)(=O)[O-])c6F)c6ccc3[nH]6)C=C5)C=C4)cc1)[C@@H](C(F)(F)F)O2
REMARK SMILES IDX 22 1 21 2 20 3 19 4 18 5 17 6 16 7 15 8 13 9 14 10 12 11
REMARK SMILES IDX 4 12 5 13 9 14 6 15 8 16 10 17 7 18 98 19 11 20 93 21 3 22
REMARK SMILES IDX 2 23 1 24 94 25 95 26 96 27 97 28 23 29 24 30 25 31 26 32
REMARK SMILES IDX 27 33 28 34 29 35 30 36 31 37 92 38 32 39 91 40 33 41 34 42
REMARK SMILES IDX 35 43 85 44 36 45 90 46 84 47 86 48 37 49 89 50 83 51 82 52
REMARK SMILES IDX 38 54 70 55 50 56 69 57 51 58 54 59 68 60 87 61 52 62 53 63
REMARK SMILES IDX 67 65 88 66 55 67 39 68 40 69 48 70 41 71 43 72 49 73 42 74
REMARK SMILES IDX 44 75 45 76 46 77 47 78 71 79 72 80 80 81 73 82 75 83 81 84
REMARK SMILES IDX 74 85 76 86 77 87 78 88 79 89 56 90 57 91 65 92 58 93 60 94
REMARK SMILES IDX 66 95 59 96 61 97 62 98 63 99 64 100
REMARK H PARENT 86 53 54 64
REMARK Flexibility Score: inf
ROOT
ATOM      1  C   UNL A   1      37.699  33.264  33.287  1.00  0.00     0.188 C 
ENDROOT
BRANCH   1   2
ATOM      2  O   UNL A   1      36.821  33.404  34.400  1.00  0.00    -0.377 OA
BRANCH   2   3
ATOM      3  C   UNL A   1      35.717  34.277  34.213  1.00  0.00     0.188 C 
BRANCH   3   4
ATOM      4  C   UNL A   1      34.458  33.538  33.729  1.00  0.00     0.188 C 
BRANCH   4   5
ATOM      5  O   UNL A   1      33.950  33.901  32.462  1.00  0.00    -0.376 OA
BRANCH   5   6
ATOM      6  C   UNL A   1      34.702  33.763  31.264  1.00  0.00     0.202 C 
BRANCH   6   7
ATOM      7  C   UNL A   1      34.173  33.854  29.815  1.00  0.00     0.261 C 
BRANCH   7   8
ATOM      8  O   UNL A   1      34.035  32.644  29.073  1.00  0.00    -0.460 OA
BRANCH   8   9
ATOM      9  C   UNL A   1      34.804  32.496  27.979  1.00  0.00     0.338 C 
ATOM     10  O   UNL A   1      35.643  33.268  27.552  1.00  0.00    -0.246 OA
BRANCH   9  11
ATOM     11  C   UNL A   1      34.593  31.119  27.487  1.00  0.00     0.087 C 
ATOM     12  C   UNL A   1      32.552  26.904  25.672  1.00  0.00    -0.026 A 
ATOM     13  C   UNL A   1      33.775  27.222  26.294  1.00  0.00     0.052 A 
ATOM     14  C   UNL A   1      31.698  27.958  25.310  1.00  0.00     0.045 A 
ATOM     15  C   UNL A   1      34.091  28.540  26.629  1.00  0.00     0.128 A 
ATOM     16  C   UNL A   1      31.986  29.268  25.703  1.00  0.00     0.032 A 
ATOM     17  Cl  UNL A   1      30.268  27.716  24.373  1.00  0.00    -0.084 Cl
ATOM     18  C   UNL A   1      33.158  29.549  26.408  1.00  0.00     0.019 A 
ATOM     19  O   UNL A   1      35.299  28.753  27.230  1.00  0.00    -0.475 OA
ATOM     20  C   UNL A   1      33.381  30.862  26.978  1.00  0.00     0.027 C 
ATOM     21  C   UNL A   1      35.732  30.133  27.444  1.00  0.00     0.316 C 
BRANCH  12  22
ATOM     22  C   UNL A   1      32.192  25.447  25.486  1.00  0.00     0.037 C 
BRANCH  22  23
ATOM     23  C   UNL A   1      32.529  24.905  24.086  1.00  0.00     0.001 C 
ATOM     24  C   UNL A   1      32.563  23.386  23.984  1.00  0.00     0.004 C 
ENDBRANCH  22  23
ENDBRANCH  12  22
BRANCH  21  25
ATOM     25  C   UNL A   1      36.593  30.141  28.717  1.00  0.00     0.430 C 
ATOM     26  F   UNL A   1      37.273  28.975  28.851  1.00  0.00    -0.167 F 
ATOM     27  F   UNL A   1      37.514  31.129  28.714  1.00  0.00    -0.167 F 
ATOM     28  F   UNL A   1      35.834  30.295  29.827  1.00  0.00    -0.167 F 
ENDBRANCH  21  25
ENDBRANCH   9  11
ENDBRANCH   8   9
ENDBRANCH   7   8
ENDBRANCH   6   7
ENDBRANCH   5   6
ENDBRANCH   4   5
ENDBRANCH   3   4
ENDBRANCH   2   3
ENDBRANCH   1   2
BRANCH   1  29
ATOM     29  C   UNL A   1      39.074  33.961  33.351  1.00  0.00     0.188 C 
BRANCH  29  30
ATOM     30  O   UNL A   1      39.428  34.619  32.132  1.00  0.00    -0.376 OA
BRANCH  30  31
ATOM     31  C   UNL A   1      39.552  33.811  30.970  1.00  0.00     0.202 C 
BRANCH  31  32
ATOM     32  C   UNL A   1      40.966  33.766  30.377  1.00  0.00     0.261 C 
BRANCH  32  33
ATOM     33  O   UNL A   1      41.782  34.915  30.647  1.00  0.00    -0.460 OA
BRANCH  33  34
ATOM     34  C   UNL A   1      42.560  35.387  29.647  1.00  0.00     0.338 C 
ATOM     35  O   UNL A   1      42.602  36.531  29.232  1.00  0.00    -0.246 OA
BRANCH  34  36
ATOM     36  C   UNL A   1      43.496  34.307  29.272  1.00  0.00     0.060 A 
ATOM     37  C   UNL A   1      43.502  33.804  27.968  1.00  0.00     0.016 A 
ATOM     38  C   UNL A   1      44.355  33.774  30.241  1.00  0.00     0.016 A 
ATOM     39  C   UNL A   1      44.389  32.785  27.629  1.00  0.00     0.010 A 
ATOM     40  C   UNL A   1      45.247  32.754  29.898  1.00  0.00     0.010 A 
ATOM     41  C   UNL A   1      45.285  32.268  28.583  1.00  0.00    -0.014 A 
BRANCH  41  42
ATOM     42  C   UNL A   1      46.365  31.361  28.128  1.00  0.00     0.031 A 
ATOM     43  C   UNL A   1      47.718  31.862  27.728  1.00  0.00     0.074 A 
ATOM     44  C   UNL A   1      46.100  30.039  28.105  1.00  0.00     0.049 A 
ATOM     45  N   UNL A   1      48.800  31.167  27.484  1.00  0.00    -0.248 NA
ATOM     46  C   UNL A   1      47.885  33.314  27.572  1.00  0.00     0.031 C 
ATOM     47  C   UNL A   1      44.795  29.443  28.403  1.00  0.00     0.029 A 
ATOM     48  N   UNL A   1      46.905  28.963  27.834  1.00  0.00    -0.354 N 
ATOM     49  C   UNL A   1      49.779  32.091  27.147  1.00  0.00     0.074 A 
ATOM     50  C   UNL A   1      49.156  33.398  27.194  1.00  0.00     0.031 C 
ATOM     51  C   UNL A   1      44.897  28.108  28.330  1.00  0.00     0.029 A 
ATOM     52  C   UNL A   1      46.268  27.754  27.974  1.00  0.00     0.049 A 
ATOM     53  H   UNL A   1      47.849  29.050  27.566  1.00  0.00     0.167 HD
ATOM     54  C   UNL A   1      51.082  31.865  26.854  1.00  0.00     0.034 A 
ATOM     55  C   UNL A   1      46.735  26.497  27.852  1.00  0.00     0.034 A 
ATOM     56  C   UNL A   1      51.695  30.564  26.829  1.00  0.00     0.049 A 
ATOM     57  C   UNL A   1      48.187  26.276  27.549  1.00  0.00     0.074 A 
ATOM     58  C   UNL A   1      53.030  30.251  26.631  1.00  0.00     0.029 A 
ATOM     59  N   UNL A   1      51.023  29.364  26.988  1.00  0.00    -0.354 N 
ATOM     60  N   UNL A   1      49.138  27.167  27.411  1.00  0.00    -0.248 NA
ATOM     61  C   UNL A   1      48.640  24.885  27.411  1.00  0.00     0.031 C 
ATOM     62  C   UNL A   1      53.160  28.860  26.650  1.00  0.00     0.029 A 
ATOM     63  C   UNL A   1      51.909  28.308  26.872  1.00  0.00     0.049 A 
ATOM     64  H   UNL A   1      50.057  29.275  27.158  1.00  0.00     0.167 HD
ATOM     65  C   UNL A   1      50.303  26.447  27.180  1.00  0.00     0.074 A 
ATOM     66  C   UNL A   1      49.944  25.044  27.216  1.00  0.00     0.031 C 
ATOM     67  C   UNL A   1      51.552  26.914  26.943  1.00  0.00     0.034 A 
BRANCH  54  68
ATOM     68  C   UNL A   1      51.972  33.052  26.603  1.00  0.00     0.023 A 
ATOM     69  C   UNL A   1      52.727  33.571  27.674  1.00  0.00     0.012 A 
ATOM     70  C   UNL A   1      52.167  33.559  25.304  1.00  0.00     0.148 A 
ATOM     71  C   UNL A   1      53.658  34.585  27.457  1.00  0.00     0.002 A 
ATOM     72  C   UNL A   1      53.115  34.553  25.091  1.00  0.00     0.091 A 
ATOM     73  F   UNL A   1      51.433  33.049  24.305  1.00  0.00    -0.205 F 
ATOM     74  C   UNL A   1      53.859  35.068  26.167  1.00  0.00     0.022 A 
BRANCH  72  75
ATOM     75  S   UNL A   1      53.491  35.211  23.463  1.00  0.00     0.127 S 
ATOM     76  O   UNL A   1      52.291  36.000  23.182  1.00  0.00    -0.237 OA
ATOM     77  O   UNL A   1      54.694  36.002  23.721  1.00  0.00    -0.237 OA
ATOM     78  O   UNL A   1      53.687  34.059  22.596  1.00  0.00    -0.744 OA
ENDBRANCH  72  75
ENDBRANCH  54  68
BRANCH  55  79
ATOM     79  C   UNL A   1      45.812  25.359  28.105  1.00  0.00     0.023 A 
ATOM     80  C   UNL A   1      45.529  24.986  29.432  1.00  0.00     0.012 A 
ATOM     81  C   UNL A   1      45.149  24.712  27.045  1.00  0.00     0.148 A 
ATOM     82  C   UNL A   1      44.600  23.980  29.700  1.00  0.00     0.002 A 
ATOM     83  C   UNL A   1      44.199  23.738  27.320  1.00  0.00     0.091 A 
ATOM     84  F   UNL A   1      45.437  25.093  25.793  1.00  0.00    -0.205 F 
ATOM     85  C   UNL A   1      43.929  23.364  28.646  1.00  0.00     0.022 A 
BRANCH  83  86
ATOM     86  S   UNL A   1      43.209  22.959  26.040  1.00  0.00     0.127 S 
ATOM     87  O   UNL A   1      42.540  24.110  25.439  1.00  0.00    -0.237 OA
ATOM     88  O   UNL A   1      44.238  22.338  25.205  1.00  0.00    -0.237 OA
ATOM     89  O   UNL A   1      42.336  22.018  26.728  1.00  0.00    -0.744 OA
ENDBRANCH  83  86
ENDBRANCH  55  79
BRANCH  67  90
ATOM     90  C   UNL A   1      52.647  25.918  26.679  1.00  0.00     0.023 A 
ATOM     91  C   UNL A   1      52.666  25.235  25.449  1.00  0.00     0.012 A 
ATOM     92  C   UNL A   1      53.730  25.782  27.570  1.00  0.00     0.148 A 
ATOM     93  C   UNL A   1      53.752  24.432  25.104  1.00  0.00     0.002 A 
ATOM     94  C   UNL A   1      54.823  25.005  27.206  1.00  0.00     0.091 A 
ATOM     95  F   UNL A   1      53.682  26.442  28.736  1.00  0.00    -0.205 F 
ATOM     96  C   UNL A   1      54.834  24.328  25.974  1.00  0.00     0.022 A 
BRANCH  94  97
ATOM     97  S   UNL A   1      56.299  24.864  28.222  1.00  0.00     0.127 S 
ATOM     98  O   UNL A   1      55.812  25.325  29.521  1.00  0.00    -0.237 OA
ATOM     99  O   UNL A   1      56.585  23.432  28.149  1.00  0.00    -0.237 OA
ATOM    100  O   UNL A   1      57.300  25.722  27.602  1.00  0.00    -0.744 OA
ENDBRANCH  94  97
ENDBRANCH  67  90
ENDBRANCH  41  42
ENDBRANCH  34  36
ENDBRANCH  33  34
ENDBRANCH  32  33
ENDBRANCH  31  32
ENDBRANCH  30  31
ENDBRANCH  29  30
ENDBRANCH   1  29
TORSDOF 26
ENDMDL
MODEL 3
REMARK VINA RESULT:      -7.5      8.711     14.294
REMARK SMILES CCCc1cc2c(cc1Cl)C=C(C(=O)OCCOCCOCCOCCOC(=O)c1ccc(-c3c4nc(c(-c5cccc(S(=O)(=O)[O-])c5F)c5ccc([nH]5)c(-c5cccc(S(=O)(=O)[O-])c5F)c5nc(c(-c6cccc(S(=O)(=O)[O-])c6F)c6ccc3[nH]6)C=C5)C=C4)cc1)[C@@H](C(F)(F)F)O2
REMARK SMILES IDX 22 1 21 2 20 3 19 4 18 5 17 6 16 7 15 8 13 9 14 10 12 11
REMARK SMILES IDX 4 12 5 13 9 14 6 15 8 16 10 17 7 18 98 19 11 20 93 21 3 22
REMARK SMILES IDX 2 23 1 24 94 25 95 26 96 27 97 28 23 29 24 30 25 31 26 32
REMARK SMILES IDX 27 33 28 34 29 35 30 36 31 37 92 38 32 39 91 40 33 41 34 42
REMARK SMILES IDX 35 43 85 44 36 45 90 46 84 47 86 48 37 49 89 50 83 51 82 52
REMARK SMILES IDX 38 54 70 55 50 56 69 57 51 58 54 59 68 60 87 61 52 62 53 63
REMARK SMILES IDX 67 65 88 66 55 67 39 68 40 69 48 70 41 71 43 72 49 73 42 74
REMARK SMILES IDX 44 75 45 76 46 77 47 78 71 79 72 80 80 81 73 82 75 83 81 84
REMARK SMILES IDX 74 85 76 86 77 87 78 88 79 89 56 90 57 91 65 92 58 93 60 94
REMARK SMILES IDX 66 95 59 96 61 97 62 98 63 99 64 100
REMARK H PARENT 86 53 54 64
REMARK Flexibility Score: inf
ROOT
ATOM      1  C   UNL A   1      51.689  37.250  28.384  1.00  0.00     0.188 C 
ENDROOT
BRANCH   1   2
ATOM      2  O   UNL A   1      51.541  37.574  29.764  1.00  0.00    -0.377 OA
BRANCH   2   3
ATOM      3  C   UNL A   1      50.865  38.790  30.045  1.00  0.00     0.188 C 
BRANCH   3   4
ATOM      4  C   UNL A   1      49.451  38.559  30.606  1.00  0.00     0.188 C 
BRANCH   4   5
ATOM      5  O   UNL A   1      48.933  39.555  31.464  1.00  0.00    -0.376 OA
BRANCH   5   6
ATOM      6  C   UNL A   1      47.790  40.334  31.136  1.00  0.00     0.202 C 
BRANCH   6   7
ATOM      7  C   UNL A   1      47.190  40.562  29.731  1.00  0.00     0.261 C 
BRANCH   7   8
ATOM      8  O   UNL A   1      45.912  39.998  29.446  1.00  0.00    -0.460 OA
BRANCH   8   9
ATOM      9  C   UNL A   1      44.835  40.789  29.605  1.00  0.00     0.338 C 
ATOM     10  O   UNL A   1      44.502  41.398  30.605  1.00  0.00    -0.246 OA
BRANCH   9  11
ATOM     11  C   UNL A   1      44.222  40.953  28.271  1.00  0.00     0.087 C 
ATOM     12  C   UNL A   1      42.735  42.786  23.837  1.00  0.00    -0.026 A 
ATOM     13  C   UNL A   1      42.376  41.668  24.615  1.00  0.00     0.052 A 
ATOM     14  C   UNL A   1      43.844  43.547  24.241  1.00  0.00     0.045 A 
ATOM     15  C   UNL A   1      43.043  41.378  25.807  1.00  0.00     0.128 A 
ATOM     16  C   UNL A   1      44.468  43.292  25.465  1.00  0.00     0.032 A 
ATOM     17  Cl  UNL A   1      44.501  44.818  23.274  1.00  0.00    -0.084 Cl
ATOM     18  C   UNL A   1      44.032  42.240  26.271  1.00  0.00     0.019 A 
ATOM     19  O   UNL A   1      42.625  40.274  26.495  1.00  0.00    -0.475 OA
ATOM     20  C   UNL A   1      44.544  42.076  27.617  1.00  0.00     0.027 C 
ATOM     21  C   UNL A   1      43.404  39.846  27.656  1.00  0.00     0.316 C 
BRANCH  12  22
ATOM     22  C   UNL A   1      41.872  43.148  22.649  1.00  0.00     0.037 C 
BRANCH  22  23
ATOM     23  C   UNL A   1      42.242  42.383  21.366  1.00  0.00     0.001 C 
ATOM     24  C   UNL A   1      42.632  43.267  20.189  1.00  0.00     0.004 C 
ENDBRANCH  22  23
ENDBRANCH  12  22
BRANCH  21  25
ATOM     25  C   UNL A   1      42.421  39.195  28.642  1.00  0.00     0.430 C 
ATOM     26  F   UNL A   1      43.079  38.644  29.692  1.00  0.00    -0.167 F 
ATOM     27  F   UNL A   1      41.540  40.080  29.156  1.00  0.00    -0.167 F 
ATOM     28  F   UNL A   1      41.707  38.208  28.050  1.00  0.00    -0.167 F 
ENDBRANCH  21  25
ENDBRANCH   9  11
ENDBRANCH   8   9
ENDBRANCH   7   8
ENDBRANCH   6   7
ENDBRANCH   5   6
ENDBRANCH   4   5
ENDBRANCH   3   4
ENDBRANCH   2   3
ENDBRANCH   1   2
BRANCH   1  29
ATOM     29  C   UNL A   1      51.364  38.338  27.340  1.00  0.00     0.188 C 
BRANCH  29  30
ATOM     30  O   UNL A   1      50.256  38.001  26.502  1.00  0.00    -0.376 OA
BRANCH  30  31
ATOM     31  C   UNL A   1      49.697  36.704  26.654  1.00  0.00     0.202 C 
BRANCH  31  32
ATOM     32  C   UNL A   1      48.906  36.207  25.437  1.00  0.00     0.261 C 
BRANCH  32  33
ATOM     33  O   UNL A   1      47.514  35.955  25.672  1.00  0.00    -0.460 OA
BRANCH  33  34
ATOM     34  C   UNL A   1      47.161  34.730  26.123  1.00  0.00     0.338 C 
ATOM     35  O   UNL A   1      47.626  33.660  25.772  1.00  0.00    -0.246 OA
BRANCH  34  36
ATOM     36  C   UNL A   1      46.241  34.929  27.263  1.00  0.00     0.060 A 
ATOM     37  C   UNL A   1      45.682  33.826  27.914  1.00  0.00     0.016 A 
ATOM     38  C   UNL A   1      45.914  36.230  27.662  1.00  0.00     0.016 A 
ATOM     39  C   UNL A   1      44.815  34.029  28.986  1.00  0.00     0.010 A 
ATOM     40  C   UNL A   1      45.047  36.431  28.741  1.00  0.00     0.010 A 
ATOM     41  C   UNL A   1      44.509  35.330  29.424  1.00  0.00    -0.014 A 
BRANCH  41  42
ATOM     42  C   UNL A   1      43.781  35.499  30.703  1.00  0.00     0.031 A 
ATOM     43  C   UNL A   1      42.466  34.836  30.972  1.00  0.00     0.074 A 
ATOM     44  C   UNL A   1      44.357  36.265  31.651  1.00  0.00     0.049 A 
ATOM     45  N   UNL A   1      41.814  34.756  32.104  1.00  0.00    -0.248 NA
ATOM     46  C   UNL A   1      41.789  34.188  29.840  1.00  0.00     0.031 C 
ATOM     47  C   UNL A   1      45.600  37.020  31.474  1.00  0.00     0.029 A 
ATOM     48  N   UNL A   1      43.987  36.528  32.945  1.00  0.00    -0.354 N 
ATOM     49  C   UNL A   1      40.652  34.050  31.827  1.00  0.00     0.074 A 
ATOM     50  C   UNL A   1      40.674  33.745  30.411  1.00  0.00     0.031 C 
ATOM     51  C   UNL A   1      45.907  37.634  32.626  1.00  0.00     0.029 A 
ATOM     52  C   UNL A   1      44.882  37.324  33.619  1.00  0.00     0.049 A 
ATOM     53  H   UNL A   1      43.161  36.178  33.352  1.00  0.00     0.167 HD
ATOM     54  C   UNL A   1      39.674  33.673  32.684  1.00  0.00     0.034 A 
ATOM     55  C   UNL A   1      44.893  37.743  34.898  1.00  0.00     0.034 A 
ATOM     56  C   UNL A   1      39.671  33.965  34.093  1.00  0.00     0.049 A 
ATOM     57  C   UNL A   1      43.810  37.291  35.832  1.00  0.00     0.074 A 
ATOM     58  C   UNL A   1      38.766  33.543  35.052  1.00  0.00     0.029 A 
ATOM     59  N   UNL A   1      40.599  34.762  34.742  1.00  0.00    -0.354 N 
ATOM     60  N   UNL A   1      42.814  36.473  35.593  1.00  0.00    -0.248 NA
ATOM     61  C   UNL A   1      43.862  37.790  37.213  1.00  0.00     0.031 C 
ATOM     62  C   UNL A   1      39.136  34.102  36.278  1.00  0.00     0.029 A 
ATOM     63  C   UNL A   1      40.277  34.863  36.084  1.00  0.00     0.049 A 
ATOM     64  H   UNL A   1      41.372  35.194  34.313  1.00  0.00     0.167 HD
ATOM     65  C   UNL A   1      42.126  36.353  36.793  1.00  0.00     0.074 A 
ATOM     66  C   UNL A   1      42.829  37.164  37.764  1.00  0.00     0.031 C 
ATOM     67  C   UNL A   1      41.001  35.644  37.054  1.00  0.00     0.034 A 
BRANCH  54  68
ATOM     68  C   UNL A   1      38.545  32.832  32.152  1.00  0.00     0.023 A 
ATOM     69  C   UNL A   1      38.696  31.431  32.130  1.00  0.00     0.012 A 
ATOM     70  C   UNL A   1      37.305  33.404  31.811  1.00  0.00     0.148 A 
ATOM     71  C   UNL A   1      37.630  30.610  31.767  1.00  0.00     0.002 A 
ATOM     72  C   UNL A   1      36.239  32.578  31.473  1.00  0.00     0.091 A 
ATOM     73  F   UNL A   1      37.191  34.739  31.837  1.00  0.00    -0.205 F 
ATOM     74  C   UNL A   1      36.401  31.182  31.449  1.00  0.00     0.022 A 
BRANCH  72  75
ATOM     75  S   UNL A   1      34.599  33.206  31.096  1.00  0.00     0.127 S 
ATOM     76  O   UNL A   1      34.307  32.524  29.835  1.00  0.00    -0.237 OA
ATOM     77  O   UNL A   1      33.819  32.734  32.239  1.00  0.00    -0.237 OA
ATOM     78  O   UNL A   1      34.732  34.652  30.997  1.00  0.00    -0.744 OA
ENDBRANCH  72  75
ENDBRANCH  54  68
BRANCH  55  79
ATOM     79  C   UNL A   1      46.029  38.576  35.372  1.00  0.00     0.023 A 
ATOM     80  C   UNL A   1      47.184  37.945  35.872  1.00  0.00     0.012 A 
ATOM     81  C   UNL A   1      46.005  39.978  35.243  1.00  0.00     0.148 A 
ATOM     82  C   UNL A   1      48.297  38.700  36.241  1.00  0.00     0.002 A 
ATOM     83  C   UNL A   1      47.130  40.720  35.578  1.00  0.00     0.091 A 
ATOM     84  F   UNL A   1      44.893  40.549  34.760  1.00  0.00    -0.205 F 
ATOM     85  C   UNL A   1      48.274  40.084  36.086  1.00  0.00     0.022 A 
BRANCH  83  86
ATOM     86  S   UNL A   1      47.235  42.494  35.319  1.00  0.00     0.127 S 
ATOM     87  O   UNL A   1      47.267  42.579  33.860  1.00  0.00    -0.237 OA
ATOM     88  O   UNL A   1      45.994  42.959  35.937  1.00  0.00    -0.237 OA
ATOM     89  O   UNL A   1      48.450  42.924  35.996  1.00  0.00    -0.744 OA
ENDBRANCH  83  86
ENDBRANCH  55  79
BRANCH  67  90
ATOM     90  C   UNL A   1      40.424  35.710  38.441  1.00  0.00     0.023 A 
ATOM     91  C   UNL A   1      39.520  36.743  38.754  1.00  0.00     0.012 A 
ATOM     92  C   UNL A   1      40.646  34.673  39.367  1.00  0.00     0.148 A 
ATOM     93  C   UNL A   1      38.841  36.741  39.972  1.00  0.00     0.002 A 
ATOM     94  C   UNL A   1      39.941  34.660  40.564  1.00  0.00     0.091 A 
ATOM     95  F   UNL A   1      41.514  33.704  39.041  1.00  0.00    -0.205 F 
ATOM     96  C   UNL A   1      39.040  35.695  40.869  1.00  0.00     0.022 A 
BRANCH  94  97
ATOM     97  S   UNL A   1      40.069  33.321  41.756  1.00  0.00     0.127 S 
ATOM     98  O   UNL A   1      39.763  32.155  40.928  1.00  0.00    -0.237 OA
ATOM     99  O   UNL A   1      41.465  33.421  42.180  1.00  0.00    -0.237 OA
ATOM    100  O   UNL A   1      39.090  33.609  42.796  1.00  0.00    -0.744 OA
ENDBRANCH  94  97
ENDBRANCH  67  90
ENDBRANCH  41  42
ENDBRANCH  34  36
ENDBRANCH  33  34
ENDBRANCH  32  33
ENDBRANCH  31  32
ENDBRANCH  30  31
ENDBRANCH  29  30
ENDBRANCH   1  29
TORSDOF 26
ENDMDL
