MODEL 1
REMARK VINA RESULT:     -12.2      0.000      0.000
REMARK SMILES Cc1ccccc1[C@@H]1[NH2+][C@H](C(=O)OCCOCCOCCOCCOC(=O)c2ccc(-c3c4nc(c(-c5cccc(S(=O)(=O)[O-])c5F)c5ccc([nH]5)c(-c5cccc(S(=O)(=O)[O-])c5F)c5nc(c(-c6cccc(S(=O)(=O)[O-])c6F)c6ccc3[nH]6)C=C5)C=C4)cc2)CC2=c3ccccc3=N[C@@H]21
REMARK SMILES IDX 20 1 19 2 18 3 17 4 16 5 15 6 14 7 13 8 11 9 12 10 10 11
REMARK SMILES IDX 8 12 9 13 100 14 92 17 99 18 91 19 93 20 98 21 94 22 97 23
REMARK SMILES IDX 95 24 96 25 7 26 1 27 2 28 3 29 4 30 6 31 5 32 21 33 22 34
REMARK SMILES IDX 23 35 24 36 25 37 26 38 27 39 28 40 29 41 90 42 30 43 89 44
REMARK SMILES IDX 31 45 32 46 33 47 83 48 34 49 88 50 82 51 84 52 35 53 87 54
REMARK SMILES IDX 81 55 80 56 36 58 68 59 48 60 67 61 49 62 52 63 66 64 85 65
REMARK SMILES IDX 50 66 51 67 65 69 86 70 53 71 37 72 38 73 46 74 39 75 41 76
REMARK SMILES IDX 47 77 40 78 42 79 43 80 44 81 45 82 69 83 70 84 78 85 71 86
REMARK SMILES IDX 73 87 79 88 72 89 74 90 75 91 76 92 77 93 54 94 55 95 63 96
REMARK SMILES IDX 56 97 58 98 64 99 57 100 59 101 60 102 61 103 62 104
REMARK H PARENT 9 15 9 16 84 57 52 68
REMARK Flexibility Score: inf
ROOT
ATOM      1  C   UNL A   1      52.844  37.714  25.130  1.00  0.00     0.188 C 
ENDROOT
BRANCH   1   2
ATOM      2  O   UNL A   1      53.476  38.239  23.912  1.00  0.00    -0.377 OA
BRANCH   2   3
ATOM      3  C   UNL A   1      54.501  39.346  23.657  1.00  0.00     0.188 C 
BRANCH   3   4
ATOM      4  C   UNL A   1      54.466  41.194  23.182  1.00  0.00     0.188 C 
BRANCH   4   5
ATOM      5  O   UNL A   1      54.387  42.128  21.517  1.00  0.00    -0.376 OA
BRANCH   5   6
ATOM      6  C   UNL A   1      53.173  42.070  19.980  1.00  0.00     0.202 C 
BRANCH   6   7
ATOM      7  C   UNL A   1      51.894  43.511  19.962  1.00  0.00     0.261 C 
BRANCH   7   8
ATOM      8  O   UNL A   1      50.067  43.077  19.803  1.00  0.00    -0.459 OA
BRANCH   8   9
ATOM      9  C   UNL A   1      48.714  42.830  20.524  1.00  0.00     0.365 C 
ATOM     10  O   UNL A   1      48.274  41.666  20.498  1.00  0.00    -0.245 OA
BRANCH   9  11
ATOM     11  C   UNL A   1      47.605  44.047  21.423  1.00  0.00     0.298 C 
ATOM     12  C   UNL A   1      44.861  44.973  20.692  1.00  0.00     0.243 C 
ATOM     13  N   UNL A   1      46.150  44.185  21.054  1.00  0.00    -0.326 N 
ATOM     14  C   UNL A   1      44.731  45.105  22.491  1.00  0.00     0.196 C 
ATOM     15  H   UNL A   1      46.169  43.584  20.230  1.00  0.00     0.347 HD
ATOM     16  H   UNL A   1      45.961  44.401  22.033  1.00  0.00     0.347 HD
ATOM     17  C   UNL A   1      45.975  44.391  23.401  1.00  0.00    -0.024 C 
ATOM     18  N   UNL A   1      43.565  44.442  23.133  1.00  0.00    -0.270 NA
ATOM     19  C   UNL A   1      47.472  44.299  22.940  1.00  0.00     0.111 C 
ATOM     20  C   UNL A   1      45.471  43.507  24.261  1.00  0.00     0.002 A 
ATOM     21  C   UNL A   1      44.031  43.581  23.999  1.00  0.00     0.066 A 
ATOM     22  C   UNL A   1      46.065  42.438  25.017  1.00  0.00     0.010 A 
ATOM     23  C   UNL A   1      43.228  42.524  24.700  1.00  0.00     0.028 A 
ATOM     24  C   UNL A   1      45.284  41.451  25.486  1.00  0.00     0.001 A 
ATOM     25  C   UNL A   1      43.847  41.501  25.316  1.00  0.00     0.002 A 
BRANCH  12  26
ATOM     26  C   UNL A   1      44.211  45.201  18.830  1.00  0.00     0.015 A 
ATOM     27  C   UNL A   1      41.881  43.495  18.773  1.00  0.00     0.045 C 
ATOM     28  C   UNL A   1      42.508  44.719  18.104  1.00  0.00    -0.042 A 
ATOM     29  C   UNL A   1      41.546  45.962  16.781  1.00  0.00     0.004 A 
ATOM     30  C   UNL A   1      42.200  47.614  16.496  1.00  0.00     0.000 A 
ATOM     31  C   UNL A   1      44.703  46.884  18.255  1.00  0.00     0.010 A 
ATOM     32  C   UNL A   1      43.730  48.032  17.230  1.00  0.00     0.001 A 
ENDBRANCH  12  26
ENDBRANCH   9  11
ENDBRANCH   8   9
ENDBRANCH   7   8
ENDBRANCH   6   7
ENDBRANCH   5   6
ENDBRANCH   4   5
ENDBRANCH   3   4
ENDBRANCH   2   3
ENDBRANCH   1   2
BRANCH   1  33
ATOM     33  C   UNL A   1      51.636  36.789  24.993  1.00  0.00     0.188 C 
BRANCH  33  34
ATOM     34  O   UNL A   1      51.243  36.162  26.161  1.00  0.00    -0.376 OA
BRANCH  34  35
ATOM     35  C   UNL A   1      49.925  35.698  26.363  1.00  0.00     0.202 C 
BRANCH  35  36
ATOM     36  C   UNL A   1      50.027  34.484  25.464  1.00  0.00     0.261 C 
BRANCH  36  37
ATOM     37  O   UNL A   1      48.649  33.903  25.378  1.00  0.00    -0.460 OA
BRANCH  37  38
ATOM     38  C   UNL A   1      48.174  33.189  26.458  1.00  0.00     0.338 C 
ATOM     39  O   UNL A   1      48.865  32.361  27.045  1.00  0.00    -0.246 OA
BRANCH  38  40
ATOM     40  C   UNL A   1      46.643  33.290  26.721  1.00  0.00     0.060 A 
ATOM     41  C   UNL A   1      46.435  34.262  28.096  1.00  0.00     0.016 A 
ATOM     42  C   UNL A   1      45.412  32.108  26.212  1.00  0.00     0.016 A 
ATOM     43  C   UNL A   1      45.039  33.970  29.178  1.00  0.00     0.010 A 
ATOM     44  C   UNL A   1      43.951  31.696  27.195  1.00  0.00     0.010 A 
ATOM     45  C   UNL A   1      43.628  32.525  28.821  1.00  0.00    -0.014 A 
BRANCH  45  46
ATOM     46  C   UNL A   1      42.379  31.212  29.658  1.00  0.00     0.031 A 
ATOM     47  C   UNL A   1      41.616  32.104  30.739  1.00  0.00     0.074 A 
ATOM     48  C   UNL A   1      42.493  29.399  29.477  1.00  0.00     0.049 A 
ATOM     49  N   UNL A   1      40.689  31.577  31.440  1.00  0.00    -0.248 NA
ATOM     50  C   UNL A   1      41.910  33.449  31.271  1.00  0.00     0.031 C 
ATOM     51  C   UNL A   1      41.964  27.807  29.939  1.00  0.00     0.029 A 
ATOM     52  N   UNL A   1      43.742  28.553  28.889  1.00  0.00    -0.354 N 
ATOM     53  C   UNL A   1      40.370  32.295  32.517  1.00  0.00     0.074 A 
ATOM     54  C   UNL A   1      41.049  33.544  32.304  1.00  0.00     0.031 C 
ATOM     55  C   UNL A   1      42.804  26.784  29.661  1.00  0.00     0.029 A 
ATOM     56  C   UNL A   1      44.072  27.275  29.194  1.00  0.00     0.049 A 
ATOM     57  H   UNL A   1      44.321  29.016  28.240  1.00  0.00     0.167 HD
ATOM     58  C   UNL A   1      39.405  31.680  33.235  1.00  0.00     0.034 A 
ATOM     59  C   UNL A   1      45.349  26.978  29.596  1.00  0.00     0.034 A 
ATOM     60  C   UNL A   1      39.567  30.140  33.213  1.00  0.00     0.049 A 
ATOM     61  C   UNL A   1      45.000  26.831  31.146  1.00  0.00     0.074 A 
ATOM     62  C   UNL A   1      38.856  29.089  32.647  1.00  0.00     0.029 A 
ATOM     63  N   UNL A   1      40.793  29.514  33.619  1.00  0.00    -0.354 N 
ATOM     64  N   UNL A   1      44.129  27.596  31.802  1.00  0.00    -0.248 NA
ATOM     65  C   UNL A   1      45.139  25.553  31.841  1.00  0.00     0.031 C 
ATOM     66  C   UNL A   1      39.705  27.898  32.605  1.00  0.00     0.029 A 
ATOM     67  C   UNL A   1      40.988  28.170  33.127  1.00  0.00     0.049 A 
ATOM     68  H   UNL A   1      41.453  29.967  34.192  1.00  0.00     0.167 HD
ATOM     69  C   UNL A   1      43.393  26.894  32.788  1.00  0.00     0.074 A 
ATOM     70  C   UNL A   1      44.165  25.621  32.782  1.00  0.00     0.031 C 
ATOM     71  C   UNL A   1      42.209  27.253  33.526  1.00  0.00     0.034 A 
BRANCH  58  72
ATOM     72  C   UNL A   1      38.166  32.516  33.536  1.00  0.00     0.023 A 
ATOM     73  C   UNL A   1      38.241  33.405  34.616  1.00  0.00     0.012 A 
ATOM     74  C   UNL A   1      36.886  32.424  32.890  1.00  0.00     0.148 A 
ATOM     75  C   UNL A   1      37.154  34.210  34.986  1.00  0.00     0.002 A 
ATOM     76  C   UNL A   1      35.836  33.290  33.201  1.00  0.00     0.091 A 
ATOM     77  F   UNL A   1      36.618  31.432  32.036  1.00  0.00    -0.205 F 
ATOM     78  C   UNL A   1      35.969  34.185  34.258  1.00  0.00     0.022 A 
BRANCH  76  79
ATOM     79  S   UNL A   1      34.304  33.362  32.241  1.00  0.00     0.127 S 
ATOM     80  O   UNL A   1      33.283  33.083  33.250  1.00  0.00    -0.237 OA
ATOM     81  O   UNL A   1      34.314  34.742  31.754  1.00  0.00    -0.237 OA
ATOM     82  O   UNL A   1      34.419  32.354  31.191  1.00  0.00    -0.744 OA
ENDBRANCH  76  79
ENDBRANCH  58  72
BRANCH  59  83
ATOM     83  C   UNL A   1      46.540  27.592  28.655  1.00  0.00     0.023 A 
ATOM     84  C   UNL A   1      47.642  28.144  29.376  1.00  0.00     0.012 A 
ATOM     85  C   UNL A   1      46.871  27.492  27.273  1.00  0.00     0.148 A 
ATOM     86  C   UNL A   1      49.004  28.226  28.962  1.00  0.00     0.002 A 
ATOM     87  C   UNL A   1      48.257  27.633  26.801  1.00  0.00     0.091 A 
ATOM     88  F   UNL A   1      45.910  27.124  26.422  1.00  0.00    -0.205 F 
ATOM     89  C   UNL A   1      49.326  27.899  27.674  1.00  0.00     0.022 A 
BRANCH  87  90
ATOM     90  S   UNL A   1      48.822  27.164  25.127  1.00  0.00     0.127 S 
ATOM     91  O   UNL A   1      50.252  27.452  25.213  1.00  0.00    -0.237 OA
ATOM     92  O   UNL A   1      48.514  25.734  25.039  1.00  0.00    -0.237 OA
ATOM     93  O   UNL A   1      48.051  28.011  24.231  1.00  0.00    -0.744 OA
ENDBRANCH  87  90
ENDBRANCH  59  83
BRANCH  71  94
ATOM     94  C   UNL A   1      42.152  26.885  35.019  1.00  0.00     0.023 A 
ATOM     95  C   UNL A   1      41.286  25.897  35.506  1.00  0.00     0.012 A 
ATOM     96  C   UNL A   1      43.167  27.322  35.923  1.00  0.00     0.148 A 
ATOM     97  C   UNL A   1      41.412  25.366  36.788  1.00  0.00     0.002 A 
ATOM     98  C   UNL A   1      43.392  26.672  37.124  1.00  0.00     0.091 A 
ATOM     99  F   UNL A   1      43.921  28.394  35.662  1.00  0.00    -0.205 F 
ATOM    100  C   UNL A   1      42.496  25.713  37.576  1.00  0.00     0.022 A 
BRANCH  98 101
ATOM    101  S   UNL A   1      44.914  26.922  38.048  1.00  0.00     0.127 S 
ATOM    102  O   UNL A   1      44.851  25.828  39.013  1.00  0.00    -0.237 OA
ATOM    103  O   UNL A   1      45.928  26.764  37.003  1.00  0.00    -0.237 OA
ATOM    104  O   UNL A   1      44.830  28.269  38.595  1.00  0.00    -0.744 OA
ENDBRANCH  98 101
ENDBRANCH  71  94
ENDBRANCH  45  46
ENDBRANCH  38  40
ENDBRANCH  37  38
ENDBRANCH  36  37
ENDBRANCH  35  36
ENDBRANCH  34  35
ENDBRANCH  33  34
ENDBRANCH   1  33
TORSDOF 24
ENDMDL
MODEL 2
REMARK VINA RESULT:     -12.0      9.570     20.633
REMARK SMILES Cc1ccccc1[C@@H]1[NH2+][C@H](C(=O)OCCOCCOCCOCCOC(=O)c2ccc(-c3c4nc(c(-c5cccc(S(=O)(=O)[O-])c5F)c5ccc([nH]5)c(-c5cccc(S(=O)(=O)[O-])c5F)c5nc(c(-c6cccc(S(=O)(=O)[O-])c6F)c6ccc3[nH]6)C=C5)C=C4)cc2)CC2=c3ccccc3=N[C@@H]21
REMARK SMILES IDX 20 1 19 2 18 3 17 4 16 5 15 6 14 7 13 8 11 9 12 10 10 11
REMARK SMILES IDX 8 12 9 13 100 14 92 17 99 18 91 19 93 20 98 21 94 22 97 23
REMARK SMILES IDX 95 24 96 25 7 26 1 27 2 28 3 29 4 30 6 31 5 32 21 33 22 34
REMARK SMILES IDX 23 35 24 36 25 37 26 38 27 39 28 40 29 41 90 42 30 43 89 44
REMARK SMILES IDX 31 45 32 46 33 47 83 48 34 49 88 50 82 51 84 52 35 53 87 54
REMARK SMILES IDX 81 55 80 56 36 58 68 59 48 60 67 61 49 62 52 63 66 64 85 65
REMARK SMILES IDX 50 66 51 67 65 69 86 70 53 71 37 72 38 73 46 74 39 75 41 76
REMARK SMILES IDX 47 77 40 78 42 79 43 80 44 81 45 82 69 83 70 84 78 85 71 86
REMARK SMILES IDX 73 87 79 88 72 89 74 90 75 91 76 92 77 93 54 94 55 95 63 96
REMARK SMILES IDX 56 97 58 98 64 99 57 100 59 101 60 102 61 103 62 104
REMARK H PARENT 9 15 9 16 84 57 52 68
REMARK Flexibility Score: inf
ROOT
ATOM      1  C   UNL A   1      49.099  20.298  37.082  1.00  0.00     0.188 C 
ENDROOT
BRANCH   1   2
ATOM      2  O   UNL A   1      49.859  19.534  38.081  1.00  0.00    -0.377 OA
BRANCH   2   3
ATOM      3  C   UNL A   1      49.697  19.331  39.589  1.00  0.00     0.188 C 
BRANCH   3   4
ATOM      4  C   UNL A   1      50.078  20.318  41.176  1.00  0.00     0.188 C 
BRANCH   4   5
ATOM      5  O   UNL A   1      50.795  19.848  42.884  1.00  0.00    -0.376 OA
BRANCH   5   6
ATOM      6  C   UNL A   1      50.187  18.690  44.343  1.00  0.00     0.202 C 
BRANCH   6   7
ATOM      7  C   UNL A   1      48.372  18.081  44.130  1.00  0.00     0.261 C 
BRANCH   7   8
ATOM      8  O   UNL A   1      47.939  16.347  44.727  1.00  0.00    -0.459 OA
BRANCH   8   9
ATOM      9  C   UNL A   1      46.939  15.438  45.493  1.00  0.00     0.365 C 
ATOM     10  O   UNL A   1      47.428  14.630  46.302  1.00  0.00    -0.245 OA
BRANCH   9  11
ATOM     11  C   UNL A   1      45.069  15.352  45.361  1.00  0.00     0.298 C 
ATOM     12  C   UNL A   1      43.321  16.076  43.049  1.00  0.00     0.243 C 
ATOM     13  N   UNL A   1      44.381  15.500  44.027  1.00  0.00    -0.326 N 
ATOM     14  C   UNL A   1      42.301  14.770  43.774  1.00  0.00     0.196 C 
ATOM     15  H   UNL A   1      45.207  15.751  43.484  1.00  0.00     0.347 HD
ATOM     16  H   UNL A   1      43.663  14.862  44.370  1.00  0.00     0.347 HD
ATOM     17  C   UNL A   1      43.024  13.816  44.979  1.00  0.00    -0.024 C 
ATOM     18  N   UNL A   1      41.847  13.686  42.862  1.00  0.00    -0.270 NA
ATOM     19  C   UNL A   1      44.098  14.336  45.998  1.00  0.00     0.111 C 
ATOM     20  C   UNL A   1      42.970  12.528  44.645  1.00  0.00     0.002 A 
ATOM     21  C   UNL A   1      42.285  12.555  43.349  1.00  0.00     0.066 A 
ATOM     22  C   UNL A   1      43.675  11.368  45.121  1.00  0.00     0.010 A 
ATOM     23  C   UNL A   1      42.270  11.233  42.638  1.00  0.00     0.028 A 
ATOM     24  C   UNL A   1      43.734  10.271  44.349  1.00  0.00     0.001 A 
ATOM     25  C   UNL A   1      43.022  10.213  43.090  1.00  0.00     0.002 A 
BRANCH  12  26
ATOM     26  C   UNL A   1      43.706  17.539  41.763  1.00  0.00     0.015 A 
ATOM     27  C   UNL A   1      44.479  19.709  43.507  1.00  0.00     0.045 C 
ATOM     28  C   UNL A   1      44.641  19.178  42.082  1.00  0.00    -0.042 A 
ATOM     29  C   UNL A   1      45.963  19.914  40.692  1.00  0.00     0.004 A 
ATOM     30  C   UNL A   1      46.418  18.889  39.286  1.00  0.00     0.000 A 
ATOM     31  C   UNL A   1      44.266  16.776  40.180  1.00  0.00     0.010 A 
ATOM     32  C   UNL A   1      45.580  17.370  39.069  1.00  0.00     0.001 A 
ENDBRANCH  12  26
ENDBRANCH   9  11
ENDBRANCH   8   9
ENDBRANCH   7   8
ENDBRANCH   6   7
ENDBRANCH   5   6
ENDBRANCH   4   5
ENDBRANCH   3   4
ENDBRANCH   2   3
ENDBRANCH   1   2
BRANCH   1  33
ATOM     33  C   UNL A   1      49.512  20.205  35.614  1.00  0.00     0.188 C 
BRANCH  33  34
ATOM     34  O   UNL A   1      48.520  20.523  34.705  1.00  0.00    -0.376 OA
BRANCH  34  35
ATOM     35  C   UNL A   1      47.712  21.672  34.840  1.00  0.00     0.202 C 
BRANCH  35  36
ATOM     36  C   UNL A   1      46.396  20.942  35.008  1.00  0.00     0.261 C 
BRANCH  36  37
ATOM     37  O   UNL A   1      45.373  21.732  34.250  1.00  0.00    -0.460 OA
BRANCH  37  38
ATOM     38  C   UNL A   1      45.116  23.025  34.653  1.00  0.00     0.338 C 
ATOM     39  O   UNL A   1      44.435  23.273  35.644  1.00  0.00    -0.246 OA
BRANCH  38  40
ATOM     40  C   UNL A   1      45.505  24.143  33.643  1.00  0.00     0.060 A 
ATOM     41  C   UNL A   1      46.417  25.292  34.496  1.00  0.00     0.016 A 
ATOM     42  C   UNL A   1      44.623  24.563  32.154  1.00  0.00     0.016 A 
ATOM     43  C   UNL A   1      46.347  27.013  34.006  1.00  0.00     0.010 A 
ATOM     44  C   UNL A   1      44.454  26.252  31.530  1.00  0.00     0.010 A 
ATOM     45  C   UNL A   1      45.235  27.681  32.417  1.00  0.00    -0.014 A 
BRANCH  45  46
ATOM     46  C   UNL A   1      44.150  29.194  31.697  1.00  0.00     0.031 A 
ATOM     47  C   UNL A   1      43.730  29.977  33.022  1.00  0.00     0.074 A 
ATOM     48  C   UNL A   1      43.491  29.292  29.997  1.00  0.00     0.049 A 
ATOM     49  N   UNL A   1      43.052  31.053  32.922  1.00  0.00    -0.248 NA
ATOM     50  C   UNL A   1      43.800  29.588  34.444  1.00  0.00     0.031 C 
ATOM     51  C   UNL A   1      42.482  30.082  28.820  1.00  0.00     0.029 A 
ATOM     52  N   UNL A   1      43.409  28.094  28.911  1.00  0.00    -0.354 N 
ATOM     53  C   UNL A   1      42.478  31.423  34.067  1.00  0.00     0.074 A 
ATOM     54  C   UNL A   1      43.091  30.564  35.044  1.00  0.00     0.031 C 
ATOM     55  C   UNL A   1      42.123  29.351  27.740  1.00  0.00     0.029 A 
ATOM     56  C   UNL A   1      42.519  27.977  27.896  1.00  0.00     0.049 A 
ATOM     57  H   UNL A   1      44.077  27.374  28.996  1.00  0.00     0.167 HD
ATOM     58  C   UNL A   1      41.753  32.550  33.899  1.00  0.00     0.034 A 
ATOM     59  C   UNL A   1      41.801  26.819  27.747  1.00  0.00     0.034 A 
ATOM     60  C   UNL A   1      41.066  32.588  32.511  1.00  0.00     0.049 A 
ATOM     61  C   UNL A   1      40.437  27.396  28.340  1.00  0.00     0.074 A 
ATOM     62  C   UNL A   1      41.231  33.343  31.357  1.00  0.00     0.029 A 
ATOM     63  N   UNL A   1      40.210  31.522  32.074  1.00  0.00    -0.354 N 
ATOM     64  N   UNL A   1      40.356  28.243  29.366  1.00  0.00    -0.248 NA
ATOM     65  C   UNL A   1      39.239  27.522  27.514  1.00  0.00     0.031 C 
ATOM     66  C   UNL A   1      40.590  32.658  30.233  1.00  0.00     0.029 A 
ATOM     67  C   UNL A   1      40.016  31.437  30.646  1.00  0.00     0.049 A 
ATOM     68  H   UNL A   1      39.785  30.895  32.703  1.00  0.00     0.167 HD
ATOM     69  C   UNL A   1      39.314  29.194  29.230  1.00  0.00     0.074 A 
ATOM     70  C   UNL A   1      38.619  28.600  28.054  1.00  0.00     0.031 C 
ATOM     71  C   UNL A   1      39.039  30.412  29.947  1.00  0.00     0.034 A 
BRANCH  58  72
ATOM     72  C   UNL A   1      42.082  33.699  34.844  1.00  0.00     0.023 A 
ATOM     73  C   UNL A   1      41.224  33.897  35.933  1.00  0.00     0.012 A 
ATOM     74  C   UNL A   1      43.127  34.672  34.688  1.00  0.00     0.148 A 
ATOM     75  C   UNL A   1      41.428  34.934  36.856  1.00  0.00     0.002 A 
ATOM     76  C   UNL A   1      43.383  35.647  35.654  1.00  0.00     0.091 A 
ATOM     77  F   UNL A   1      43.832  34.747  33.555  1.00  0.00    -0.205 F 
ATOM     78  C   UNL A   1      42.526  35.781  36.742  1.00  0.00     0.022 A 
BRANCH  76  79
ATOM     79  S   UNL A   1      44.837  36.722  35.606  1.00  0.00     0.127 S 
ATOM     80  O   UNL A   1      44.478  37.784  36.546  1.00  0.00    -0.237 OA
ATOM     81  O   UNL A   1      45.894  35.827  36.078  1.00  0.00    -0.237 OA
ATOM     82  O   UNL A   1      44.992  37.156  34.221  1.00  0.00    -0.744 OA
ENDBRANCH  76  79
ENDBRANCH  58  72
BRANCH  59  83
ATOM     83  C   UNL A   1      42.681  25.439  27.802  1.00  0.00     0.023 A 
ATOM     84  C   UNL A   1      41.959  24.290  28.247  1.00  0.00     0.012 A 
ATOM     85  C   UNL A   1      43.942  25.038  27.275  1.00  0.00     0.148 A 
ATOM     86  C   UNL A   1      42.184  22.926  27.898  1.00  0.00     0.002 A 
ATOM     87  C   UNL A   1      44.235  23.631  26.961  1.00  0.00     0.091 A 
ATOM     88  F   UNL A   1      44.813  25.993  26.936  1.00  0.00    -0.205 F 
ATOM     89  C   UNL A   1      43.305  22.601  27.185  1.00  0.00     0.022 A 
BRANCH  87  90
ATOM     90  S   UNL A   1      45.660  23.080  25.958  1.00  0.00     0.127 S 
ATOM     91  O   UNL A   1      46.751  23.839  26.564  1.00  0.00    -0.237 OA
ATOM     92  O   UNL A   1      45.733  21.639  26.211  1.00  0.00    -0.237 OA
ATOM     93  O   UNL A   1      45.309  23.444  24.594  1.00  0.00    -0.744 OA
ENDBRANCH  87  90
ENDBRANCH  59  83
BRANCH  71  94
ATOM     94  C   UNL A   1      37.575  30.723  30.303  1.00  0.00     0.023 A 
ATOM     95  C   UNL A   1      37.137  30.806  31.632  1.00  0.00     0.012 A 
ATOM     96  C   UNL A   1      36.669  31.221  29.319  1.00  0.00     0.148 A 
ATOM     97  C   UNL A   1      35.900  31.348  31.973  1.00  0.00     0.002 A 
ATOM     98  C   UNL A   1      35.524  31.911  29.675  1.00  0.00     0.091 A 
ATOM     99  F   UNL A   1      36.873  31.015  28.014  1.00  0.00    -0.205 F 
ATOM    100  C   UNL A   1      35.118  31.949  31.001  1.00  0.00     0.022 A 
BRANCH  98 101
ATOM    101  S   UNL A   1      34.624  32.905  28.477  1.00  0.00     0.127 S 
ATOM    102  O   UNL A   1      33.789  31.896  27.830  1.00  0.00    -0.237 OA
ATOM    103  O   UNL A   1      33.901  33.838  29.344  1.00  0.00    -0.237 OA
ATOM    104  O   UNL A   1      35.637  33.534  27.641  1.00  0.00    -0.744 OA
ENDBRANCH  98 101
ENDBRANCH  71  94
ENDBRANCH  45  46
ENDBRANCH  38  40
ENDBRANCH  37  38
ENDBRANCH  36  37
ENDBRANCH  35  36
ENDBRANCH  34  35
ENDBRANCH  33  34
ENDBRANCH   1  33
TORSDOF 24
ENDMDL
MODEL 3
REMARK VINA RESULT:     -11.6      3.786      6.044
REMARK SMILES Cc1ccccc1[C@@H]1[NH2+][C@H](C(=O)OCCOCCOCCOCCOC(=O)c2ccc(-c3c4nc(c(-c5cccc(S(=O)(=O)[O-])c5F)c5ccc([nH]5)c(-c5cccc(S(=O)(=O)[O-])c5F)c5nc(c(-c6cccc(S(=O)(=O)[O-])c6F)c6ccc3[nH]6)C=C5)C=C4)cc2)CC2=c3ccccc3=N[C@@H]21
REMARK SMILES IDX 20 1 19 2 18 3 17 4 16 5 15 6 14 7 13 8 11 9 12 10 10 11
REMARK SMILES IDX 8 12 9 13 100 14 92 17 99 18 91 19 93 20 98 21 94 22 97 23
REMARK SMILES IDX 95 24 96 25 7 26 1 27 2 28 3 29 4 30 6 31 5 32 21 33 22 34
REMARK SMILES IDX 23 35 24 36 25 37 26 38 27 39 28 40 29 41 90 42 30 43 89 44
REMARK SMILES IDX 31 45 32 46 33 47 83 48 34 49 88 50 82 51 84 52 35 53 87 54
REMARK SMILES IDX 81 55 80 56 36 58 68 59 48 60 67 61 49 62 52 63 66 64 85 65
REMARK SMILES IDX 50 66 51 67 65 69 86 70 53 71 37 72 38 73 46 74 39 75 41 76
REMARK SMILES IDX 47 77 40 78 42 79 43 80 44 81 45 82 69 83 70 84 78 85 71 86
REMARK SMILES IDX 73 87 79 88 72 89 74 90 75 91 76 92 77 93 54 94 55 95 63 96
REMARK SMILES IDX 56 97 58 98 64 99 57 100 59 101 60 102 61 103 62 104
REMARK H PARENT 9 15 9 16 84 57 52 68
REMARK Flexibility Score: inf
ROOT
ATOM      1  C   UNL A   1      46.727  39.070  27.341  1.00  0.00     0.188 C 
ENDROOT
BRANCH   1   2
ATOM      2  O   UNL A   1      46.918  39.578  25.975  1.00  0.00    -0.377 OA
BRANCH   2   3
ATOM      3  C   UNL A   1      46.052  40.428  25.043  1.00  0.00     0.188 C 
BRANCH   3   4
ATOM      4  C   UNL A   1      44.682  41.742  25.227  1.00  0.00     0.188 C 
BRANCH   4   5
ATOM      5  O   UNL A   1      42.821  41.781  24.795  1.00  0.00    -0.376 OA
BRANCH   5   6
ATOM      6  C   UNL A   1      41.802  42.323  23.211  1.00  0.00     0.202 C 
BRANCH   6   7
ATOM      7  C   UNL A   1      42.772  42.090  21.562  1.00  0.00     0.261 C 
BRANCH   7   8
ATOM      8  O   UNL A   1      44.621  42.452  21.560  1.00  0.00    -0.459 OA
BRANCH   8   9
ATOM      9  C   UNL A   1      46.029  42.065  21.029  1.00  0.00     0.365 C 
ATOM     10  O   UNL A   1      46.445  40.932  21.329  1.00  0.00    -0.245 OA
BRANCH   9  11
ATOM     11  C   UNL A   1      47.234  43.078  20.008  1.00  0.00     0.298 C 
ATOM     12  C   UNL A   1      46.687  45.449  18.275  1.00  0.00     0.243 C 
ATOM     13  N   UNL A   1      46.822  44.401  19.413  1.00  0.00    -0.326 N 
ATOM     14  C   UNL A   1      48.373  45.858  18.787  1.00  0.00     0.196 C 
ATOM     15  H   UNL A   1      45.833  44.348  19.657  1.00  0.00     0.347 HD
ATOM     16  H   UNL A   1      47.786  44.712  19.535  1.00  0.00     0.347 HD
ATOM     17  C   UNL A   1      49.034  44.934  20.049  1.00  0.00    -0.024 C 
ATOM     18  N   UNL A   1      48.595  47.216  19.353  1.00  0.00    -0.270 NA
ATOM     19  C   UNL A   1      48.709  43.421  20.306  1.00  0.00     0.111 C 
ATOM     20  C   UNL A   1      49.426  45.725  21.046  1.00  0.00     0.002 A 
ATOM     21  C   UNL A   1      49.088  47.063  20.553  1.00  0.00     0.066 A 
ATOM     22  C   UNL A   1      49.748  45.468  22.424  1.00  0.00     0.010 A 
ATOM     23  C   UNL A   1      49.241  48.149  21.579  1.00  0.00     0.028 A 
ATOM     24  C   UNL A   1      49.718  46.480  23.307  1.00  0.00     0.001 A 
ATOM     25  C   UNL A   1      49.455  47.835  22.870  1.00  0.00     0.002 A 
BRANCH  12  26
ATOM     26  C   UNL A   1      45.017  45.721  17.237  1.00  0.00     0.015 A 
ATOM     27  C   UNL A   1      43.281  43.676  18.307  1.00  0.00     0.045 C 
ATOM     28  C   UNL A   1      43.271  45.034  17.606  1.00  0.00    -0.042 A 
ATOM     29  C   UNL A   1      41.607  46.211  17.341  1.00  0.00     0.004 A 
ATOM     30  C   UNL A   1      41.819  47.964  16.993  1.00  0.00     0.000 A 
ATOM     31  C   UNL A   1      44.923  47.501  16.763  1.00  0.00     0.010 A 
ATOM     32  C   UNL A   1      43.441  48.559  16.723  1.00  0.00     0.001 A 
ENDBRANCH  12  26
ENDBRANCH   9  11
ENDBRANCH   8   9
ENDBRANCH   7   8
ENDBRANCH   6   7
ENDBRANCH   5   6
ENDBRANCH   4   5
ENDBRANCH   3   4
ENDBRANCH   2   3
ENDBRANCH   1   2
BRANCH   1  33
ATOM     33  C   UNL A   1      46.071  37.703  27.533  1.00  0.00     0.188 C 
BRANCH  33  34
ATOM     34  O   UNL A   1      45.753  37.037  26.363  1.00  0.00    -0.376 OA
BRANCH  34  35
ATOM     35  C   UNL A   1      46.390  35.837  25.980  1.00  0.00     0.202 C 
BRANCH  35  36
ATOM     36  C   UNL A   1      45.510  34.907  26.789  1.00  0.00     0.261 C 
BRANCH  36  37
ATOM     37  O   UNL A   1      45.763  33.525  26.268  1.00  0.00    -0.460 OA
BRANCH  37  38
ATOM     38  C   UNL A   1      44.700  32.650  26.195  1.00  0.00     0.338 C 
ATOM     39  O   UNL A   1      43.847  32.736  25.316  1.00  0.00    -0.246 OA
BRANCH  38  40
ATOM     40  C   UNL A   1      44.493  31.726  27.431  1.00  0.00     0.060 A 
ATOM     41  C   UNL A   1      43.536  30.420  26.923  1.00  0.00     0.016 A 
ATOM     42  C   UNL A   1      44.569  32.227  29.137  1.00  0.00     0.016 A 
ATOM     43  C   UNL A   1      42.424  29.638  28.089  1.00  0.00     0.010 A 
ATOM     44  C   UNL A   1      43.509  31.541  30.433  1.00  0.00     0.010 A 
ATOM     45  C   UNL A   1      42.268  30.217  30.050  1.00  0.00    -0.014 A 
BRANCH  45  46
ATOM     46  C   UNL A   1      41.035  30.413  31.607  1.00  0.00     0.031 A 
ATOM     47  C   UNL A   1      40.107  31.632  31.160  1.00  0.00     0.074 A 
ATOM     48  C   UNL A   1      41.291  29.652  33.247  1.00  0.00     0.049 A 
ATOM     49  N   UNL A   1      39.153  32.002  31.922  1.00  0.00    -0.248 NA
ATOM     50  C   UNL A   1      40.253  32.614  30.067  1.00  0.00     0.031 C 
ATOM     51  C   UNL A   1      40.830  29.489  34.917  1.00  0.00     0.029 A 
ATOM     52  N   UNL A   1      42.649  28.966  33.804  1.00  0.00    -0.354 N 
ATOM     53  C   UNL A   1      38.678  33.212  31.624  1.00  0.00     0.074 A 
ATOM     54  C   UNL A   1      39.288  33.510  30.355  1.00  0.00     0.031 C 
ATOM     55  C   UNL A   1      41.762  28.987  35.758  1.00  0.00     0.029 A 
ATOM     56  C   UNL A   1      43.034  28.864  35.098  1.00  0.00     0.049 A 
ATOM     57  H   UNL A   1      43.257  28.583  33.130  1.00  0.00     0.167 HD
ATOM     58  C   UNL A   1      37.691  33.564  32.475  1.00  0.00     0.034 A 
ATOM     59  C   UNL A   1      44.281  29.291  35.475  1.00  0.00     0.034 A 
ATOM     60  C   UNL A   1      37.960  33.047  33.910  1.00  0.00     0.049 A 
ATOM     61  C   UNL A   1      43.789  30.650  36.150  1.00  0.00     0.074 A 
ATOM     62  C   UNL A   1      37.384  32.084  34.728  1.00  0.00     0.029 A 
ATOM     63  N   UNL A   1      39.179  33.362  34.599  1.00  0.00    -0.354 N 
ATOM     64  N   UNL A   1      42.806  31.417  35.680  1.00  0.00    -0.248 NA
ATOM     65  C   UNL A   1      43.945  30.889  37.583  1.00  0.00     0.031 C 
ATOM     66  C   UNL A   1      38.313  31.746  35.807  1.00  0.00     0.029 A 
ATOM     67  C   UNL A   1      39.515  32.477  35.688  1.00  0.00     0.049 A 
ATOM     68  H   UNL A   1      39.745  34.127  34.347  1.00  0.00     0.167 HD
ATOM     69  C   UNL A   1      42.024  32.017  36.699  1.00  0.00     0.074 A 
ATOM     70  C   UNL A   1      42.879  31.677  37.870  1.00  0.00     0.031 C 
ATOM     71  C   UNL A   1      40.750  32.687  36.649  1.00  0.00     0.034 A 
BRANCH  58  72
ATOM     72  C   UNL A   1      36.374  33.978  31.830  1.00  0.00     0.023 A 
ATOM     73  C   UNL A   1      35.579  34.895  32.530  1.00  0.00     0.012 A 
ATOM     74  C   UNL A   1      35.804  33.456  30.619  1.00  0.00     0.148 A 
ATOM     75  C   UNL A   1      34.342  35.331  32.033  1.00  0.00     0.002 A 
ATOM     76  C   UNL A   1      34.618  33.959  30.080  1.00  0.00     0.091 A 
ATOM     77  F   UNL A   1      36.338  32.391  30.013  1.00  0.00    -0.205 F 
ATOM     78  C   UNL A   1      33.880  34.898  30.793  1.00  0.00     0.022 A 
BRANCH  76  79
ATOM     79  S   UNL A   1      34.009  33.498  28.440  1.00  0.00     0.127 S 
ATOM     80  O   UNL A   1      35.089  33.947  27.562  1.00  0.00    -0.237 OA
ATOM     81  O   UNL A   1      33.888  32.044  28.558  1.00  0.00    -0.237 OA
ATOM     82  O   UNL A   1      32.739  34.192  28.254  1.00  0.00    -0.744 OA
ENDBRANCH  76  79
ENDBRANCH  58  72
BRANCH  59  83
ATOM     83  C   UNL A   1      45.515  28.757  34.541  1.00  0.00     0.023 A 
ATOM     84  C   UNL A   1      45.661  27.337  34.502  1.00  0.00     0.012 A 
ATOM     85  C   UNL A   1      46.343  29.351  33.546  1.00  0.00     0.148 A 
ATOM     86  C   UNL A   1      46.184  26.540  33.442  1.00  0.00     0.002 A 
ATOM     87  C   UNL A   1      46.952  28.552  32.471  1.00  0.00     0.091 A 
ATOM     88  F   UNL A   1      46.442  30.683  33.525  1.00  0.00    -0.205 F 
ATOM     89  C   UNL A   1      46.777  27.160  32.378  1.00  0.00     0.022 A 
BRANCH  87  90
ATOM     90  S   UNL A   1      47.711  29.263  30.969  1.00  0.00     0.127 S 
ATOM     91  O   UNL A   1      46.653  30.159  30.507  1.00  0.00    -0.237 OA
ATOM     92  O   UNL A   1      48.897  29.962  31.470  1.00  0.00    -0.237 OA
ATOM     93  O   UNL A   1      47.991  28.115  30.122  1.00  0.00    -0.744 OA
ENDBRANCH  87  90
ENDBRANCH  59  83
BRANCH  71  94
ATOM     94  C   UNL A   1      40.569  33.954  37.504  1.00  0.00     0.023 A 
ATOM     95  C   UNL A   1      40.561  35.235  36.936  1.00  0.00     0.012 A 
ATOM     96  C   UNL A   1      40.117  33.871  38.854  1.00  0.00     0.148 A 
ATOM     97  C   UNL A   1      40.131  36.357  37.642  1.00  0.00     0.002 A 
ATOM     98  C   UNL A   1      39.532  34.953  39.488  1.00  0.00     0.091 A 
ATOM     99  F   UNL A   1      40.266  32.754  39.574  1.00  0.00    -0.205 F 
ATOM    100  C   UNL A   1      39.567  36.208  38.897  1.00  0.00     0.022 A 
BRANCH  98 101
ATOM    101  S   UNL A   1      38.578  34.746  40.998  1.00  0.00     0.127 S 
ATOM    102  O   UNL A   1      37.648  33.689  40.611  1.00  0.00    -0.237 OA
ATOM    103  O   UNL A   1      39.612  34.337  41.952  1.00  0.00    -0.237 OA
ATOM    104  O   UNL A   1      37.992  36.048  41.280  1.00  0.00    -0.744 OA
ENDBRANCH  98 101
ENDBRANCH  71  94
ENDBRANCH  45  46
ENDBRANCH  38  40
ENDBRANCH  37  38
ENDBRANCH  36  37
ENDBRANCH  35  36
ENDBRANCH  34  35
ENDBRANCH  33  34
ENDBRANCH   1  33
TORSDOF 24
ENDMDL
