MODEL 1
REMARK VINA RESULT:      -8.7      0.000      0.000
REMARK SMILES C[C@@H]([NH2+]C[C@H]1CCC[C@@H]1C(=O)OCCOCCOCCOCCOC(=O)c1ccc(-c2c3nc(c(-c4cccc(S(=O)(=O)[O-])c4F)c4ccc([nH]4)c(-c4cccc(S(=O)(=O)[O-])c4F)c4nc(c(-c5cccc(S(=O)(=O)[O-])c5F)c5ccc2[nH]5)C=C4)C=C3)cc1)c1cc(F)ccc1O
REMARK SMILES IDX 17 1 16 2 15 3 14 4 13 5 12 6 10 7 11 8 9 9 5 10 6 11 7 12
REMARK SMILES IDX 8 13 4 14 3 15 2 18 1 19 90 20 91 21 96 22 92 23 95 24 93 25
REMARK SMILES IDX 94 26 97 27 18 29 19 30 20 31 21 32 22 33 23 34 24 35 25 36
REMARK SMILES IDX 26 37 27 38 28 39 89 40 29 41 88 42 30 43 31 44 32 45 82 46
REMARK SMILES IDX 33 47 87 48 81 49 83 50 34 51 86 52 80 53 79 54 35 56 67 57
REMARK SMILES IDX 47 58 66 59 48 60 51 61 65 62 84 63 49 64 50 65 64 67 85 68
REMARK SMILES IDX 52 69 36 70 37 71 45 72 38 73 40 74 46 75 39 76 41 77 42 78
REMARK SMILES IDX 43 79 44 80 68 81 69 82 77 83 70 84 72 85 78 86 71 87 73 88
REMARK SMILES IDX 74 89 75 90 76 91 53 92 54 93 62 94 55 95 57 96 63 97 56 98
REMARK SMILES IDX 58 99 59 100 60 101 61 102
REMARK H PARENT 3 16 3 17 97 28 83 55 51 66
REMARK Flexibility Score: inf
ROOT
ATOM      1  C   UNL A   1      34.814  33.718  28.378  1.00  0.00     0.188 C 
ENDROOT
BRANCH   1   2
ATOM      2  C   UNL A   1      34.803  32.189  28.425  1.00  0.00     0.188 C 
BRANCH   2   3
ATOM      3  O   UNL A   1      33.985  31.445  27.534  1.00  0.00    -0.376 OA
BRANCH   3   4
ATOM      4  C   UNL A   1      34.312  30.097  27.222  1.00  0.00     0.202 C 
BRANCH   4   5
ATOM      5  C   UNL A   1      33.755  29.458  25.930  1.00  0.00     0.261 C 
BRANCH   5   6
ATOM      6  O   UNL A   1      32.886  28.304  26.061  1.00  0.00    -0.463 OA
BRANCH   6   7
ATOM      7  C   UNL A   1      32.543  27.658  24.919  1.00  0.00     0.309 C 
ATOM      8  O   UNL A   1      32.824  28.066  23.794  1.00  0.00    -0.252 OA
BRANCH   7   9
ATOM      9  C   UNL A   1      31.832  26.303  25.101  1.00  0.00     0.108 C 
ATOM     10  C   UNL A   1      31.741  25.257  23.962  1.00  0.00     0.058 C 
ATOM     11  C   UNL A   1      30.310  25.357  23.413  1.00  0.00     0.010 C 
ATOM     12  C   UNL A   1      29.456  25.791  24.586  1.00  0.00     0.001 C 
ATOM     13  C   UNL A   1      30.377  26.521  25.559  1.00  0.00     0.016 C 
BRANCH  10  14
ATOM     14  C   UNL A   1      32.014  23.832  24.523  1.00  0.00     0.265 C 
BRANCH  14  15
ATOM     15  N   UNL A   1      32.969  22.994  23.774  1.00  0.00    -0.340 N 
ATOM     16  H   UNL A   1      32.449  22.417  23.114  1.00  0.00     0.346 HD
ATOM     17  H   UNL A   1      33.620  23.619  23.299  1.00  0.00     0.346 HD
BRANCH  15  18
ATOM     18  C   UNL A   1      33.764  22.108  24.652  1.00  0.00     0.214 C 
ATOM     19  C   UNL A   1      35.244  22.197  24.257  1.00  0.00     0.081 C 
BRANCH  18  20
ATOM     20  C   UNL A   1      33.223  20.700  24.589  1.00  0.00     0.054 A 
ATOM     21  C   UNL A   1      32.878  20.153  23.345  1.00  0.00     0.053 A 
ATOM     22  C   UNL A   1      33.114  19.881  25.725  1.00  0.00     0.124 A 
ATOM     23  C   UNL A   1      32.425  18.842  23.263  1.00  0.00     0.123 A 
ATOM     24  C   UNL A   1      32.604  18.589  25.647  1.00  0.00     0.050 A 
ATOM     25  F   UNL A   1      32.188  18.313  22.058  1.00  0.00    -0.207 F 
ATOM     26  C   UNL A   1      32.261  18.065  24.403  1.00  0.00     0.043 A 
BRANCH  22  27
ATOM     27  O   UNL A   1      33.586  20.299  26.940  1.00  0.00    -0.507 OA
ATOM     28  H   UNL A   1      34.444  20.667  27.008  1.00  0.00     0.293 HD
ENDBRANCH  22  27
ENDBRANCH  18  20
ENDBRANCH  15  18
ENDBRANCH  14  15
ENDBRANCH  10  14
ENDBRANCH   7   9
ENDBRANCH   6   7
ENDBRANCH   5   6
ENDBRANCH   4   5
ENDBRANCH   3   4
ENDBRANCH   2   3
ENDBRANCH   1   2
BRANCH   1  29
ATOM     29  O   UNL A   1      33.578  34.362  28.584  1.00  0.00    -0.377 OA
BRANCH  29  30
ATOM     30  C   UNL A   1      33.309  34.874  29.873  1.00  0.00     0.188 C 
BRANCH  30  31
ATOM     31  C   UNL A   1      34.376  34.636  30.949  1.00  0.00     0.188 C 
BRANCH  31  32
ATOM     32  O   UNL A   1      34.031  33.602  31.868  1.00  0.00    -0.376 OA
BRANCH  32  33
ATOM     33  C   UNL A   1      34.776  32.393  31.850  1.00  0.00     0.202 C 
BRANCH  33  34
ATOM     34  C   UNL A   1      35.940  32.233  32.845  1.00  0.00     0.261 C 
BRANCH  34  35
ATOM     35  O   UNL A   1      36.464  30.911  33.038  1.00  0.00    -0.460 OA
BRANCH  35  36
ATOM     36  C   UNL A   1      36.895  30.230  31.957  1.00  0.00     0.338 C 
ATOM     37  O   UNL A   1      36.301  29.344  31.364  1.00  0.00    -0.246 OA
BRANCH  36  38
ATOM     38  C   UNL A   1      38.130  30.887  31.477  1.00  0.00     0.060 A 
ATOM     39  C   UNL A   1      38.266  31.146  30.107  1.00  0.00     0.016 A 
ATOM     40  C   UNL A   1      39.137  31.258  32.371  1.00  0.00     0.016 A 
ATOM     41  C   UNL A   1      39.426  31.747  29.620  1.00  0.00     0.010 A 
ATOM     42  C   UNL A   1      40.311  31.837  31.878  1.00  0.00     0.010 A 
ATOM     43  C   UNL A   1      40.474  32.048  30.497  1.00  0.00    -0.014 A 
BRANCH  43  44
ATOM     44  C   UNL A   1      41.809  32.382  29.945  1.00  0.00     0.031 A 
ATOM     45  C   UNL A   1      42.116  33.824  29.651  1.00  0.00     0.074 A 
ATOM     46  C   UNL A   1      42.733  31.434  29.712  1.00  0.00     0.049 A 
ATOM     47  N   UNL A   1      43.196  34.358  29.146  1.00  0.00    -0.248 NA
ATOM     48  C   UNL A   1      41.053  34.794  29.966  1.00  0.00     0.031 C 
ATOM     49  C   UNL A   1      42.556  30.004  29.955  1.00  0.00     0.029 A 
ATOM     50  N   UNL A   1      43.996  31.536  29.183  1.00  0.00    -0.354 N 
ATOM     51  C   UNL A   1      42.932  35.719  29.047  1.00  0.00     0.074 A 
ATOM     52  C   UNL A   1      41.587  35.927  29.536  1.00  0.00     0.031 C 
ATOM     53  C   UNL A   1      43.656  29.355  29.534  1.00  0.00     0.029 A 
ATOM     54  C   UNL A   1      44.600  30.320  28.973  1.00  0.00     0.049 A 
ATOM     55  H   UNL A   1      44.426  32.397  28.976  1.00  0.00     0.167 HD
ATOM     56  C   UNL A   1      43.738  36.709  28.598  1.00  0.00     0.034 A 
ATOM     57  C   UNL A   1      45.766  30.020  28.365  1.00  0.00     0.034 A 
ATOM     58  C   UNL A   1      45.076  36.499  28.115  1.00  0.00     0.049 A 
ATOM     59  C   UNL A   1      46.642  31.133  27.852  1.00  0.00     0.074 A 
ATOM     60  C   UNL A   1      45.995  37.441  27.693  1.00  0.00     0.029 A 
ATOM     61  N   UNL A   1      45.674  35.259  27.958  1.00  0.00    -0.354 N 
ATOM     62  N   UNL A   1      46.435  32.428  27.883  1.00  0.00    -0.248 NA
ATOM     63  C   UNL A   1      47.928  30.746  27.253  1.00  0.00     0.031 C 
ATOM     64  C   UNL A   1      47.132  36.767  27.236  1.00  0.00     0.029 A 
ATOM     65  C   UNL A   1      46.942  35.407  27.423  1.00  0.00     0.049 A 
ATOM     66  H   UNL A   1      45.258  34.397  28.194  1.00  0.00     0.167 HD
ATOM     67  C   UNL A   1      47.574  33.012  27.337  1.00  0.00     0.074 A 
ATOM     68  C   UNL A   1      48.476  31.928  27.002  1.00  0.00     0.031 C 
ATOM     69  C   UNL A   1      47.847  34.324  27.127  1.00  0.00     0.034 A 
BRANCH  56  70
ATOM     70  C   UNL A   1      43.181  38.109  28.600  1.00  0.00     0.023 A 
ATOM     71  C   UNL A   1      42.448  38.582  27.492  1.00  0.00     0.012 A 
ATOM     72  C   UNL A   1      43.375  38.953  29.710  1.00  0.00     0.148 A 
ATOM     73  C   UNL A   1      41.961  39.889  27.467  1.00  0.00     0.002 A 
ATOM     74  C   UNL A   1      42.840  40.236  29.700  1.00  0.00     0.091 A 
ATOM     75  F   UNL A   1      44.096  38.497  30.744  1.00  0.00    -0.205 F 
ATOM     76  C   UNL A   1      42.148  40.711  28.575  1.00  0.00     0.022 A 
BRANCH  74  77
ATOM     77  S   UNL A   1      42.960  41.340  31.111  1.00  0.00     0.127 S 
ATOM     78  O   UNL A   1      44.340  41.812  31.000  1.00  0.00    -0.237 OA
ATOM     79  O   UNL A   1      41.945  42.348  30.799  1.00  0.00    -0.237 OA
ATOM     80  O   UNL A   1      42.667  40.527  32.284  1.00  0.00    -0.744 OA
ENDBRANCH  74  77
ENDBRANCH  56  70
BRANCH  57  81
ATOM     81  C   UNL A   1      46.168  28.593  28.211  1.00  0.00     0.023 A 
ATOM     82  C   UNL A   1      46.889  27.950  29.234  1.00  0.00     0.012 A 
ATOM     83  C   UNL A   1      45.802  27.865  27.063  1.00  0.00     0.148 A 
ATOM     84  C   UNL A   1      47.258  26.609  29.105  1.00  0.00     0.002 A 
ATOM     85  C   UNL A   1      46.124  26.518  26.966  1.00  0.00     0.091 A 
ATOM     86  F   UNL A   1      45.128  28.505  26.096  1.00  0.00    -0.205 F 
ATOM     87  C   UNL A   1      46.865  25.891  27.979  1.00  0.00     0.022 A 
BRANCH  85  88
ATOM     88  S   UNL A   1      45.552  25.484  25.613  1.00  0.00     0.127 S 
ATOM     89  O   UNL A   1      46.194  26.116  24.462  1.00  0.00    -0.237 OA
ATOM     90  O   UNL A   1      46.103  24.181  25.985  1.00  0.00    -0.237 OA
ATOM     91  O   UNL A   1      44.099  25.563  25.643  1.00  0.00    -0.744 OA
ENDBRANCH  85  88
ENDBRANCH  57  81
BRANCH  69  92
ATOM     92  C   UNL A   1      49.191  34.680  26.543  1.00  0.00     0.023 A 
ATOM     93  C   UNL A   1      49.317  34.956  25.167  1.00  0.00     0.012 A 
ATOM     94  C   UNL A   1      50.318  34.815  27.381  1.00  0.00     0.148 A 
ATOM     95  C   UNL A   1      50.550  35.325  24.629  1.00  0.00     0.002 A 
ATOM     96  C   UNL A   1      51.528  35.236  26.846  1.00  0.00     0.091 A 
ATOM     97  F   UNL A   1      50.182  34.533  28.684  1.00  0.00    -0.205 F 
ATOM     98  C   UNL A   1      51.651  35.476  25.468  1.00  0.00     0.022 A 
BRANCH  96  99
ATOM     99  S   UNL A   1      52.973  35.556  27.866  1.00  0.00     0.127 S 
ATOM    100  O   UNL A   1      53.246  34.230  28.420  1.00  0.00    -0.237 OA
ATOM    101  O   UNL A   1      53.951  36.017  26.881  1.00  0.00    -0.237 OA
ATOM    102  O   UNL A   1      52.567  36.565  28.835  1.00  0.00    -0.744 OA
ENDBRANCH  96  99
ENDBRANCH  69  92
ENDBRANCH  43  44
ENDBRANCH  36  38
ENDBRANCH  35  36
ENDBRANCH  34  35
ENDBRANCH  33  34
ENDBRANCH  32  33
ENDBRANCH  31  32
ENDBRANCH  30  31
ENDBRANCH  29  30
ENDBRANCH   1  29
TORSDOF 28
ENDMDL
MODEL 2
REMARK VINA RESULT:      -8.6      2.094      2.523
REMARK SMILES C[C@@H]([NH2+]C[C@H]1CCC[C@@H]1C(=O)OCCOCCOCCOCCOC(=O)c1ccc(-c2c3nc(c(-c4cccc(S(=O)(=O)[O-])c4F)c4ccc([nH]4)c(-c4cccc(S(=O)(=O)[O-])c4F)c4nc(c(-c5cccc(S(=O)(=O)[O-])c5F)c5ccc2[nH]5)C=C4)C=C3)cc1)c1cc(F)ccc1O
REMARK SMILES IDX 17 1 16 2 15 3 14 4 13 5 12 6 10 7 11 8 9 9 5 10 6 11 7 12
REMARK SMILES IDX 8 13 4 14 3 15 2 18 1 19 90 20 91 21 96 22 92 23 95 24 93 25
REMARK SMILES IDX 94 26 97 27 18 29 19 30 20 31 21 32 22 33 23 34 24 35 25 36
REMARK SMILES IDX 26 37 27 38 28 39 89 40 29 41 88 42 30 43 31 44 32 45 82 46
REMARK SMILES IDX 33 47 87 48 81 49 83 50 34 51 86 52 80 53 79 54 35 56 67 57
REMARK SMILES IDX 47 58 66 59 48 60 51 61 65 62 84 63 49 64 50 65 64 67 85 68
REMARK SMILES IDX 52 69 36 70 37 71 45 72 38 73 40 74 46 75 39 76 41 77 42 78
REMARK SMILES IDX 43 79 44 80 68 81 69 82 77 83 70 84 72 85 78 86 71 87 73 88
REMARK SMILES IDX 74 89 75 90 76 91 53 92 54 93 62 94 55 95 57 96 63 97 56 98
REMARK SMILES IDX 58 99 59 100 60 101 61 102
REMARK H PARENT 3 16 3 17 97 28 83 55 51 66
REMARK Flexibility Score: inf
ROOT
ATOM      1  C   UNL A   1      34.861  32.689  27.842  1.00  0.00     0.188 C 
ENDROOT
BRANCH   1   2
ATOM      2  C   UNL A   1      34.549  31.192  27.897  1.00  0.00     0.188 C 
BRANCH   2   3
ATOM      3  O   UNL A   1      33.399  30.670  27.247  1.00  0.00    -0.376 OA
BRANCH   3   4
ATOM      4  C   UNL A   1      33.108  29.280  27.319  1.00  0.00     0.202 C 
BRANCH   4   5
ATOM      5  C   UNL A   1      32.459  28.574  26.107  1.00  0.00     0.261 C 
BRANCH   5   6
ATOM      6  O   UNL A   1      31.242  27.817  26.333  1.00  0.00    -0.463 OA
BRANCH   6   7
ATOM      7  C   UNL A   1      31.274  26.496  26.029  1.00  0.00     0.309 C 
ATOM      8  O   UNL A   1      31.613  25.621  26.823  1.00  0.00    -0.252 OA
BRANCH   7   9
ATOM      9  C   UNL A   1      30.772  26.118  24.620  1.00  0.00     0.108 C 
ATOM     10  C   UNL A   1      31.525  26.538  23.334  1.00  0.00     0.058 C 
ATOM     11  C   UNL A   1      30.730  27.713  22.746  1.00  0.00     0.010 C 
ATOM     12  C   UNL A   1      29.292  27.473  23.157  1.00  0.00     0.001 C 
ATOM     13  C   UNL A   1      29.328  26.614  24.417  1.00  0.00     0.016 C 
BRANCH  10  14
ATOM     14  C   UNL A   1      31.571  25.350  22.331  1.00  0.00     0.265 C 
BRANCH  14  15
ATOM     15  N   UNL A   1      31.556  23.991  22.905  1.00  0.00    -0.340 N 
ATOM     16  H   UNL A   1      30.897  23.974  23.683  1.00  0.00     0.346 HD
ATOM     17  H   UNL A   1      31.281  23.348  22.164  1.00  0.00     0.346 HD
BRANCH  15  18
ATOM     18  C   UNL A   1      32.882  23.563  23.399  1.00  0.00     0.214 C 
ATOM     19  C   UNL A   1      33.929  23.789  22.300  1.00  0.00     0.081 C 
BRANCH  18  20
ATOM     20  C   UNL A   1      32.821  22.129  23.865  1.00  0.00     0.054 A 
ATOM     21  C   UNL A   1      33.230  21.815  25.169  1.00  0.00     0.053 A 
ATOM     22  C   UNL A   1      32.302  21.096  23.068  1.00  0.00     0.124 A 
ATOM     23  C   UNL A   1      33.135  20.508  25.633  1.00  0.00     0.123 A 
ATOM     24  C   UNL A   1      32.264  19.779  23.514  1.00  0.00     0.050 A 
ATOM     25  F   UNL A   1      33.447  20.248  26.907  1.00  0.00    -0.207 F 
ATOM     26  C   UNL A   1      32.680  19.485  24.811  1.00  0.00     0.043 A 
BRANCH  22  27
ATOM     27  O   UNL A   1      31.736  21.365  21.850  1.00  0.00    -0.507 OA
ATOM     28  H   UNL A   1      30.991  20.876  21.562  1.00  0.00     0.293 HD
ENDBRANCH  22  27
ENDBRANCH  18  20
ENDBRANCH  15  18
ENDBRANCH  14  15
ENDBRANCH  10  14
ENDBRANCH   7   9
ENDBRANCH   6   7
ENDBRANCH   5   6
ENDBRANCH   4   5
ENDBRANCH   3   4
ENDBRANCH   2   3
ENDBRANCH   1   2
BRANCH   1  29
ATOM     29  O   UNL A   1      33.758  33.556  27.706  1.00  0.00    -0.377 OA
BRANCH  29  30
ATOM     30  C   UNL A   1      33.381  34.322  28.832  1.00  0.00     0.188 C 
BRANCH  30  31
ATOM     31  C   UNL A   1      34.412  34.450  29.960  1.00  0.00     0.188 C 
BRANCH  31  32
ATOM     32  O   UNL A   1      34.120  33.630  31.089  1.00  0.00    -0.376 OA
BRANCH  32  33
ATOM     33  C   UNL A   1      34.902  32.466  31.310  1.00  0.00     0.202 C 
BRANCH  33  34
ATOM     34  C   UNL A   1      35.656  32.331  32.647  1.00  0.00     0.261 C 
BRANCH  34  35
ATOM     35  O   UNL A   1      36.354  31.101  32.887  1.00  0.00    -0.460 OA
BRANCH  35  36
ATOM     36  C   UNL A   1      36.756  30.375  31.823  1.00  0.00     0.338 C 
ATOM     37  O   UNL A   1      36.077  29.608  31.160  1.00  0.00    -0.246 OA
BRANCH  36  38
ATOM     38  C   UNL A   1      38.116  30.828  31.460  1.00  0.00     0.060 A 
ATOM     39  C   UNL A   1      38.438  30.973  30.104  1.00  0.00     0.016 A 
ATOM     40  C   UNL A   1      39.060  31.123  32.446  1.00  0.00     0.016 A 
ATOM     41  C   UNL A   1      39.717  31.380  29.728  1.00  0.00     0.010 A 
ATOM     42  C   UNL A   1      40.350  31.506  32.068  1.00  0.00     0.010 A 
ATOM     43  C   UNL A   1      40.693  31.598  30.707  1.00  0.00    -0.014 A 
BRANCH  43  44
ATOM     44  C   UNL A   1      42.114  31.714  30.301  1.00  0.00     0.031 A 
ATOM     45  C   UNL A   1      42.694  33.090  30.128  1.00  0.00     0.074 A 
ATOM     46  C   UNL A   1      42.879  30.628  30.094  1.00  0.00     0.049 A 
ATOM     47  N   UNL A   1      43.895  33.446  29.758  1.00  0.00    -0.248 NA
ATOM     48  C   UNL A   1      41.789  34.219  30.405  1.00  0.00     0.031 C 
ATOM     49  C   UNL A   1      42.434  29.243  30.229  1.00  0.00     0.029 A 
ATOM     50  N   UNL A   1      44.188  30.528  29.690  1.00  0.00    -0.354 N 
ATOM     51  C   UNL A   1      43.882  34.836  29.721  1.00  0.00     0.074 A 
ATOM     52  C   UNL A   1      42.551  35.257  30.097  1.00  0.00     0.031 C 
ATOM     53  C   UNL A   1      43.442  28.429  29.871  1.00  0.00     0.029 A 
ATOM     54  C   UNL A   1      44.591  29.235  29.460  1.00  0.00     0.049 A 
ATOM     55  H   UNL A   1      44.779  31.307  29.578  1.00  0.00     0.167 HD
ATOM     56  C   UNL A   1      44.889  35.685  29.411  1.00  0.00     0.034 A 
ATOM     57  C   UNL A   1      45.742  28.760  28.943  1.00  0.00     0.034 A 
ATOM     58  C   UNL A   1      46.212  35.263  29.039  1.00  0.00     0.049 A 
ATOM     59  C   UNL A   1      46.844  29.721  28.583  1.00  0.00     0.074 A 
ATOM     60  C   UNL A   1      47.319  36.044  28.763  1.00  0.00     0.029 A 
ATOM     61  N   UNL A   1      46.599  33.944  28.860  1.00  0.00    -0.354 N 
ATOM     62  N   UNL A   1      46.863  31.029  28.676  1.00  0.00    -0.248 NA
ATOM     63  C   UNL A   1      48.099  29.139  28.081  1.00  0.00     0.031 C 
ATOM     64  C   UNL A   1      48.362  35.200  28.370  1.00  0.00     0.029 A 
ATOM     65  C   UNL A   1      47.922  33.888  28.453  1.00  0.00     0.049 A 
ATOM     66  H   UNL A   1      46.019  33.161  29.003  1.00  0.00     0.167 HD
ATOM     67  C   UNL A   1      48.135  31.425  28.275  1.00  0.00     0.074 A 
ATOM     68  C   UNL A   1      48.865  30.214  27.956  1.00  0.00     0.031 C 
ATOM     69  C   UNL A   1      48.650  32.676  28.174  1.00  0.00     0.034 A 
BRANCH  56  70
ATOM     70  C   UNL A   1      44.585  37.161  29.450  1.00  0.00     0.023 A 
ATOM     71  C   UNL A   1      44.736  37.884  30.652  1.00  0.00     0.012 A 
ATOM     72  C   UNL A   1      44.162  37.834  28.289  1.00  0.00     0.148 A 
ATOM     73  C   UNL A   1      44.422  39.241  30.709  1.00  0.00     0.002 A 
ATOM     74  C   UNL A   1      43.902  39.198  28.341  1.00  0.00     0.091 A 
ATOM     75  F   UNL A   1      43.999  37.127  27.162  1.00  0.00    -0.205 F 
ATOM     76  C   UNL A   1      44.015  39.899  29.552  1.00  0.00     0.022 A 
BRANCH  74  77
ATOM     77  S   UNL A   1      43.450  40.149  26.886  1.00  0.00     0.127 S 
ATOM     78  O   UNL A   1      44.568  39.865  25.989  1.00  0.00    -0.237 OA
ATOM     79  O   UNL A   1      42.182  39.530  26.496  1.00  0.00    -0.237 OA
ATOM     80  O   UNL A   1      43.337  41.532  27.330  1.00  0.00    -0.744 OA
ENDBRANCH  74  77
ENDBRANCH  56  70
BRANCH  57  81
ATOM     81  C   UNL A   1      45.904  27.293  28.737  1.00  0.00     0.023 A 
ATOM     82  C   UNL A   1      46.371  26.481  29.788  1.00  0.00     0.012 A 
ATOM     83  C   UNL A   1      45.562  26.699  27.507  1.00  0.00     0.148 A 
ATOM     84  C   UNL A   1      46.513  25.103  29.609  1.00  0.00     0.002 A 
ATOM     85  C   UNL A   1      45.653  25.322  27.354  1.00  0.00     0.091 A 
ATOM     86  F   UNL A   1      45.135  27.496  26.517  1.00  0.00    -0.205 F 
ATOM     87  C   UNL A   1      46.143  24.523  28.398  1.00  0.00     0.022 A 
BRANCH  85  88
ATOM     88  S   UNL A   1      45.081  24.475  25.876  1.00  0.00     0.127 S 
ATOM     89  O   UNL A   1      45.376  23.081  26.199  1.00  0.00    -0.237 OA
ATOM     90  O   UNL A   1      43.660  24.818  25.872  1.00  0.00    -0.237 OA
ATOM     91  O   UNL A   1      45.849  25.040  24.776  1.00  0.00    -0.744 OA
ENDBRANCH  85  88
ENDBRANCH  57  81
BRANCH  69  92
ATOM     92  C   UNL A   1      50.088  32.813  27.739  1.00  0.00     0.023 A 
ATOM     93  C   UNL A   1      51.133  32.582  28.656  1.00  0.00     0.012 A 
ATOM     94  C   UNL A   1      50.401  33.098  26.393  1.00  0.00     0.148 A 
ATOM     95  C   UNL A   1      52.464  32.668  28.248  1.00  0.00     0.002 A 
ATOM     96  C   UNL A   1      51.728  33.127  25.985  1.00  0.00     0.091 A 
ATOM     97  F   UNL A   1      49.393  33.330  25.539  1.00  0.00    -0.205 F 
ATOM     98  C   UNL A   1      52.762  32.928  26.913  1.00  0.00     0.022 A 
BRANCH  96  99
ATOM     99  S   UNL A   1      52.201  33.354  24.266  1.00  0.00     0.127 S 
ATOM    100  O   UNL A   1      51.709  32.120  23.656  1.00  0.00    -0.237 OA
ATOM    101  O   UNL A   1      51.453  34.556  23.896  1.00  0.00    -0.237 OA
ATOM    102  O   UNL A   1      53.648  33.517  24.264  1.00  0.00    -0.744 OA
ENDBRANCH  96  99
ENDBRANCH  69  92
ENDBRANCH  43  44
ENDBRANCH  36  38
ENDBRANCH  35  36
ENDBRANCH  34  35
ENDBRANCH  33  34
ENDBRANCH  32  33
ENDBRANCH  31  32
ENDBRANCH  30  31
ENDBRANCH  29  30
ENDBRANCH   1  29
TORSDOF 28
ENDMDL
MODEL 3
REMARK VINA RESULT:      -8.2      4.929      9.378
REMARK SMILES C[C@@H]([NH2+]C[C@H]1CCC[C@@H]1C(=O)OCCOCCOCCOCCOC(=O)c1ccc(-c2c3nc(c(-c4cccc(S(=O)(=O)[O-])c4F)c4ccc([nH]4)c(-c4cccc(S(=O)(=O)[O-])c4F)c4nc(c(-c5cccc(S(=O)(=O)[O-])c5F)c5ccc2[nH]5)C=C4)C=C3)cc1)c1cc(F)ccc1O
REMARK SMILES IDX 17 1 16 2 15 3 14 4 13 5 12 6 10 7 11 8 9 9 5 10 6 11 7 12
REMARK SMILES IDX 8 13 4 14 3 15 2 18 1 19 90 20 91 21 96 22 92 23 95 24 93 25
REMARK SMILES IDX 94 26 97 27 18 29 19 30 20 31 21 32 22 33 23 34 24 35 25 36
REMARK SMILES IDX 26 37 27 38 28 39 89 40 29 41 88 42 30 43 31 44 32 45 82 46
REMARK SMILES IDX 33 47 87 48 81 49 83 50 34 51 86 52 80 53 79 54 35 56 67 57
REMARK SMILES IDX 47 58 66 59 48 60 51 61 65 62 84 63 49 64 50 65 64 67 85 68
REMARK SMILES IDX 52 69 36 70 37 71 45 72 38 73 40 74 46 75 39 76 41 77 42 78
REMARK SMILES IDX 43 79 44 80 68 81 69 82 77 83 70 84 72 85 78 86 71 87 73 88
REMARK SMILES IDX 74 89 75 90 76 91 53 92 54 93 62 94 55 95 57 96 63 97 56 98
REMARK SMILES IDX 58 99 59 100 60 101 61 102
REMARK H PARENT 3 16 3 17 97 28 83 55 51 66
REMARK Flexibility Score: inf
ROOT
ATOM      1  C   UNL A   1      37.823  30.632  33.755  1.00  0.00     0.188 C 
ENDROOT
BRANCH   1   2
ATOM      2  C   UNL A   1      37.463  29.505  32.785  1.00  0.00     0.188 C 
BRANCH   2   3
ATOM      3  O   UNL A   1      38.366  28.433  32.557  1.00  0.00    -0.376 OA
BRANCH   3   4
ATOM      4  C   UNL A   1      39.717  28.701  32.200  1.00  0.00     0.202 C 
BRANCH   4   5
ATOM      5  C   UNL A   1      40.195  28.409  30.760  1.00  0.00     0.261 C 
BRANCH   5   6
ATOM      6  O   UNL A   1      39.396  28.918  29.661  1.00  0.00    -0.463 OA
BRANCH   6   7
ATOM      7  C   UNL A   1      39.712  28.482  28.417  1.00  0.00     0.309 C 
ATOM      8  O   UNL A   1      39.404  29.078  27.386  1.00  0.00    -0.252 OA
BRANCH   7   9
ATOM      9  C   UNL A   1      40.573  27.204  28.350  1.00  0.00     0.108 C 
ATOM     10  C   UNL A   1      41.909  27.148  27.571  1.00  0.00     0.058 C 
ATOM     11  C   UNL A   1      41.604  26.397  26.266  1.00  0.00     0.010 C 
ATOM     12  C   UNL A   1      40.481  25.439  26.604  1.00  0.00     0.001 C 
ATOM     13  C   UNL A   1      39.742  26.028  27.802  1.00  0.00     0.016 C 
BRANCH  10  14
ATOM     14  C   UNL A   1      42.981  26.387  28.403  1.00  0.00     0.265 C 
BRANCH  14  15
ATOM     15  N   UNL A   1      44.060  25.721  27.649  1.00  0.00    -0.340 N 
ATOM     16  H   UNL A   1      43.791  25.674  26.667  1.00  0.00     0.346 HD
ATOM     17  H   UNL A   1      44.910  26.267  27.783  1.00  0.00     0.346 HD
BRANCH  15  18
ATOM     18  C   UNL A   1      44.332  24.350  28.130  1.00  0.00     0.214 C 
ATOM     19  C   UNL A   1      45.825  24.039  27.960  1.00  0.00     0.081 C 
BRANCH  18  20
ATOM     20  C   UNL A   1      43.441  23.365  27.413  1.00  0.00     0.054 A 
ATOM     21  C   UNL A   1      42.549  22.580  28.157  1.00  0.00     0.053 A 
ATOM     22  C   UNL A   1      43.418  23.247  26.014  1.00  0.00     0.124 A 
ATOM     23  C   UNL A   1      41.687  21.703  27.510  1.00  0.00     0.123 A 
ATOM     24  C   UNL A   1      42.596  22.325  25.373  1.00  0.00     0.050 A 
ATOM     25  F   UNL A   1      40.783  21.032  28.232  1.00  0.00    -0.207 F 
ATOM     26  C   UNL A   1      41.719  21.550  26.129  1.00  0.00     0.043 A 
BRANCH  22  27
ATOM     27  O   UNL A   1      44.145  24.097  25.224  1.00  0.00    -0.507 OA
ATOM     28  H   UNL A   1      43.778  24.424  24.427  1.00  0.00     0.293 HD
ENDBRANCH  22  27
ENDBRANCH  18  20
ENDBRANCH  15  18
ENDBRANCH  14  15
ENDBRANCH  10  14
ENDBRANCH   7   9
ENDBRANCH   6   7
ENDBRANCH   5   6
ENDBRANCH   4   5
ENDBRANCH   3   4
ENDBRANCH   2   3
ENDBRANCH   1   2
BRANCH   1  29
ATOM     29  O   UNL A   1      38.125  30.250  35.078  1.00  0.00    -0.377 OA
BRANCH  29  30
ATOM     30  C   UNL A   1      38.865  31.154  35.872  1.00  0.00     0.188 C 
BRANCH  30  31
ATOM     31  C   UNL A   1      38.070  32.033  36.845  1.00  0.00     0.188 C 
BRANCH  31  32
ATOM     32  O   UNL A   1      37.481  33.173  36.226  1.00  0.00    -0.376 OA
BRANCH  32  33
ATOM     33  C   UNL A   1      38.246  33.913  35.286  1.00  0.00     0.202 C 
BRANCH  33  34
ATOM     34  C   UNL A   1      37.550  34.414  34.006  1.00  0.00     0.261 C 
BRANCH  34  35
ATOM     35  O   UNL A   1      38.390  34.904  32.951  1.00  0.00    -0.460 OA
BRANCH  35  36
ATOM     36  C   UNL A   1      38.200  34.423  31.705  1.00  0.00     0.338 C 
ATOM     37  O   UNL A   1      37.131  34.190  31.165  1.00  0.00    -0.246 OA
BRANCH  36  38
ATOM     38  C   UNL A   1      39.509  34.426  31.020  1.00  0.00     0.060 A 
ATOM     39  C   UNL A   1      40.669  34.235  31.782  1.00  0.00     0.016 A 
ATOM     40  C   UNL A   1      39.593  34.598  29.636  1.00  0.00     0.016 A 
ATOM     41  C   UNL A   1      41.921  34.252  31.169  1.00  0.00     0.010 A 
ATOM     42  C   UNL A   1      40.851  34.640  29.025  1.00  0.00     0.010 A 
ATOM     43  C   UNL A   1      42.020  34.505  29.796  1.00  0.00    -0.014 A 
BRANCH  43  44
ATOM     44  C   UNL A   1      43.341  34.838  29.212  1.00  0.00     0.031 A 
ATOM     45  C   UNL A   1      44.228  33.707  28.771  1.00  0.00     0.074 A 
ATOM     46  C   UNL A   1      43.750  36.111  29.072  1.00  0.00     0.049 A 
ATOM     47  N   UNL A   1      45.429  33.744  28.257  1.00  0.00    -0.248 NA
ATOM     48  C   UNL A   1      43.685  32.348  28.938  1.00  0.00     0.031 C 
ATOM     49  C   UNL A   1      42.983  37.292  29.461  1.00  0.00     0.029 A 
ATOM     50  N   UNL A   1      44.932  36.616  28.591  1.00  0.00    -0.354 N 
ATOM     51  C   UNL A   1      45.801  32.417  28.074  1.00  0.00     0.074 A 
ATOM     52  C   UNL A   1      44.702  31.600  28.540  1.00  0.00     0.031 C 
ATOM     53  C   UNL A   1      43.734  38.385  29.244  1.00  0.00     0.029 A 
ATOM     54  C   UNL A   1      45.039  37.979  28.723  1.00  0.00     0.049 A 
ATOM     55  H   UNL A   1      45.635  36.055  28.189  1.00  0.00     0.167 HD
ATOM     56  C   UNL A   1      46.950  31.922  27.557  1.00  0.00     0.034 A 
ATOM     57  C   UNL A   1      46.083  38.799  28.486  1.00  0.00     0.034 A 
ATOM     58  C   UNL A   1      48.039  32.737  27.093  1.00  0.00     0.049 A 
ATOM     59  C   UNL A   1      47.361  38.229  27.931  1.00  0.00     0.074 A 
ATOM     60  C   UNL A   1      49.221  32.335  26.499  1.00  0.00     0.029 A 
ATOM     61  N   UNL A   1      48.095  34.117  27.201  1.00  0.00    -0.354 N 
ATOM     62  N   UNL A   1      47.652  36.983  27.640  1.00  0.00    -0.248 NA
ATOM     63  C   UNL A   1      48.443  39.180  27.635  1.00  0.00     0.031 C 
ATOM     64  C   UNL A   1      50.012  33.469  26.291  1.00  0.00     0.029 A 
ATOM     65  C   UNL A   1      49.301  34.584  26.706  1.00  0.00     0.049 A 
ATOM     66  H   UNL A   1      47.380  34.684  27.573  1.00  0.00     0.167 HD
ATOM     67  C   UNL A   1      48.935  37.004  27.101  1.00  0.00     0.074 A 
ATOM     68  C   UNL A   1      49.357  38.390  27.088  1.00  0.00     0.031 C 
ATOM     69  C   UNL A   1      49.697  35.970  26.663  1.00  0.00     0.034 A 
BRANCH  56  70
ATOM     70  C   UNL A   1      47.084  30.423  27.481  1.00  0.00     0.023 A 
ATOM     71  C   UNL A   1      47.711  29.713  28.526  1.00  0.00     0.012 A 
ATOM     72  C   UNL A   1      46.575  29.715  26.376  1.00  0.00     0.148 A 
ATOM     73  C   UNL A   1      47.874  28.330  28.449  1.00  0.00     0.002 A 
ATOM     74  C   UNL A   1      46.694  28.331  26.330  1.00  0.00     0.091 A 
ATOM     75  F   UNL A   1      46.005  30.408  25.380  1.00  0.00    -0.205 F 
ATOM     76  C   UNL A   1      47.357  27.640  27.356  1.00  0.00     0.022 A 
BRANCH  74  77
ATOM     77  S   UNL A   1      45.989  27.347  25.005  1.00  0.00     0.127 S 
ATOM     78  O   UNL A   1      46.710  27.860  23.841  1.00  0.00    -0.237 OA
ATOM     79  O   UNL A   1      46.361  25.987  25.401  1.00  0.00    -0.237 OA
ATOM     80  O   UNL A   1      44.557  27.613  25.024  1.00  0.00    -0.744 OA
ENDBRANCH  74  77
ENDBRANCH  56  70
BRANCH  57  81
ATOM     81  C   UNL A   1      45.954  40.255  28.776  1.00  0.00     0.023 A 
ATOM     82  C   UNL A   1      46.156  40.734  30.084  1.00  0.00     0.012 A 
ATOM     83  C   UNL A   1      45.664  41.168  27.744  1.00  0.00     0.148 A 
ATOM     84  C   UNL A   1      46.050  42.099  30.362  1.00  0.00     0.002 A 
ATOM     85  C   UNL A   1      45.615  42.528  28.017  1.00  0.00     0.091 A 
ATOM     86  F   UNL A   1      45.460  40.684  26.510  1.00  0.00    -0.205 F 
ATOM     87  C   UNL A   1      45.793  42.996  29.328  1.00  0.00     0.022 A 
BRANCH  85  88
ATOM     88  S   UNL A   1      45.415  43.765  26.729  1.00  0.00     0.127 S 
ATOM     89  O   UNL A   1      45.278  44.991  27.512  1.00  0.00    -0.237 OA
ATOM     90  O   UNL A   1      46.677  43.638  26.001  1.00  0.00    -0.237 OA
ATOM     91  O   UNL A   1      44.233  43.365  25.979  1.00  0.00    -0.744 OA
ENDBRANCH  85  88
ENDBRANCH  57  81
BRANCH  69  92
ATOM     92  C   UNL A   1      51.055  36.288  26.089  1.00  0.00     0.023 A 
ATOM     93  C   UNL A   1      51.209  36.495  24.704  1.00  0.00     0.012 A 
ATOM     94  C   UNL A   1      52.166  36.458  26.941  1.00  0.00     0.148 A 
ATOM     95  C   UNL A   1      52.455  36.830  24.173  1.00  0.00     0.002 A 
ATOM     96  C   UNL A   1      53.389  36.845  26.410  1.00  0.00     0.091 A 
ATOM     97  F   UNL A   1      52.002  36.242  28.254  1.00  0.00    -0.205 F 
ATOM     98  C   UNL A   1      53.541  37.016  25.025  1.00  0.00     0.022 A 
BRANCH  96  99
ATOM     99  S   UNL A   1      54.816  37.207  27.441  1.00  0.00     0.127 S 
ATOM    100  O   UNL A   1      54.303  38.279  28.294  1.00  0.00    -0.237 OA
ATOM    101  O   UNL A   1      55.031  35.933  28.129  1.00  0.00    -0.237 OA
ATOM    102  O   UNL A   1      55.885  37.591  26.531  1.00  0.00    -0.744 OA
ENDBRANCH  96  99
ENDBRANCH  69  92
ENDBRANCH  43  44
ENDBRANCH  36  38
ENDBRANCH  35  36
ENDBRANCH  34  35
ENDBRANCH  33  34
ENDBRANCH  32  33
ENDBRANCH  31  32
ENDBRANCH  30  31
ENDBRANCH  29  30
ENDBRANCH   1  29
TORSDOF 28
ENDMDL
