MODEL 1
REMARK VINA RESULT:      -8.0      0.000      0.000
REMARK SMILES CO[C@H]1CC[C@@H]([NH2+]CC(=O)OCCOCCOCCOCCOC(=O)c2ccc(-c3c4nc(c(-c5cccc(S(=O)(=O)[O-])c5F)c5ccc([nH]5)c(-c5cccc(S(=O)(=O)[O-])c5F)c5nc(c(-c6cccc(S(=O)(=O)[O-])c6F)c6ccc3[nH]6)C=C5)C=C4)cc2)CC1
REMARK SMILES IDX 17 1 16 2 15 3 14 4 13 5 12 6 11 7 9 8 10 9 8 10 7 11 6 14
REMARK SMILES IDX 3 15 90 16 4 17 89 18 5 19 2 20 1 21 18 22 19 23 20 24 21 25
REMARK SMILES IDX 22 26 23 27 24 28 25 29 26 30 27 31 88 32 28 33 87 34 29 35
REMARK SMILES IDX 30 36 31 37 81 38 32 39 86 40 80 41 82 42 33 43 85 44 79 45
REMARK SMILES IDX 78 46 34 48 66 49 46 50 65 51 47 52 50 53 64 54 83 55 48 56
REMARK SMILES IDX 49 57 63 59 84 60 51 61 35 62 36 63 44 64 37 65 39 66 45 67
REMARK SMILES IDX 38 68 40 69 41 70 42 71 43 72 67 73 68 74 76 75 69 76 71 77
REMARK SMILES IDX 77 78 70 79 72 80 73 81 74 82 75 83 52 84 53 85 61 86 54 87
REMARK SMILES IDX 56 88 62 89 55 90 57 91 58 92 59 93 60 94
REMARK H PARENT 7 12 7 13 82 47 50 58
REMARK Flexibility Score: inf
ROOT
ATOM      1  O   UNL A   1      44.567  18.439  24.458  1.00  0.00    -0.377 OA
ENDROOT
BRANCH   1   2
ATOM      2  C   UNL A   1      44.160  18.582  25.814  1.00  0.00     0.188 C 
BRANCH   2   3
ATOM      3  C   UNL A   1      42.691  18.220  26.077  1.00  0.00     0.188 C 
BRANCH   3   4
ATOM      4  O   UNL A   1      41.716  19.206  25.746  1.00  0.00    -0.376 OA
BRANCH   4   5
ATOM      5  C   UNL A   1      41.920  20.518  26.294  1.00  0.00     0.202 C 
BRANCH   5   6
ATOM      6  C   UNL A   1      41.172  20.789  27.600  1.00  0.00     0.261 C 
BRANCH   6   7
ATOM      7  O   UNL A   1      39.913  21.414  27.285  1.00  0.00    -0.459 OA
BRANCH   7   8
ATOM      8  C   UNL A   1      39.912  22.744  27.027  1.00  0.00     0.361 C 
ATOM      9  O   UNL A   1      40.775  23.527  27.407  1.00  0.00    -0.245 OA
BRANCH   8  10
ATOM     10  C   UNL A   1      38.761  23.166  26.115  1.00  0.00     0.385 C 
BRANCH  10  11
ATOM     11  N   UNL A   1      37.536  23.637  26.795  1.00  0.00    -0.335 N 
ATOM     12  H   UNL A   1      37.261  22.934  27.481  1.00  0.00     0.347 HD
ATOM     13  H   UNL A   1      37.766  24.536  27.218  1.00  0.00     0.347 HD
BRANCH  11  14
ATOM     14  C   UNL A   1      36.393  23.875  25.894  1.00  0.00     0.183 C 
ATOM     15  C   UNL A   1      35.849  21.122  24.889  1.00  0.00     0.118 C 
ATOM     16  C   UNL A   1      35.330  21.585  26.257  1.00  0.00     0.038 C 
ATOM     17  C   UNL A   1      37.025  21.945  24.347  1.00  0.00     0.038 C 
ATOM     18  C   UNL A   1      35.123  23.097  26.287  1.00  0.00     0.067 C 
ATOM     19  C   UNL A   1      36.799  23.446  24.472  1.00  0.00     0.067 C 
BRANCH  15  20
ATOM     20  O   UNL A   1      36.191  19.737  24.856  1.00  0.00    -0.381 OA
ATOM     21  C   UNL A   1      37.580  19.473  24.896  1.00  0.00     0.195 C 
ENDBRANCH  15  20
ENDBRANCH  11  14
ENDBRANCH  10  11
ENDBRANCH   8  10
ENDBRANCH   7   8
ENDBRANCH   6   7
ENDBRANCH   5   6
ENDBRANCH   4   5
ENDBRANCH   3   4
ENDBRANCH   2   3
ENDBRANCH   1   2
BRANCH   1  22
ATOM     22  C   UNL A   1      44.949  19.696  23.889  1.00  0.00     0.188 C 
BRANCH  22  23
ATOM     23  C   UNL A   1      45.177  20.759  24.954  1.00  0.00     0.188 C 
BRANCH  23  24
ATOM     24  O   UNL A   1      44.957  22.102  24.530  1.00  0.00    -0.376 OA
BRANCH  24  25
ATOM     25  C   UNL A   1      44.519  22.990  25.567  1.00  0.00     0.202 C 
BRANCH  25  26
ATOM     26  C   UNL A   1      43.594  24.137  25.103  1.00  0.00     0.261 C 
BRANCH  26  27
ATOM     27  O   UNL A   1      43.551  25.234  26.047  1.00  0.00    -0.460 OA
BRANCH  27  28
ATOM     28  C   UNL A   1      43.109  26.432  25.597  1.00  0.00     0.338 C 
ATOM     29  O   UNL A   1      42.776  26.687  24.448  1.00  0.00    -0.246 OA
BRANCH  28  30
ATOM     30  C   UNL A   1      42.835  27.354  26.733  1.00  0.00     0.060 A 
ATOM     31  C   UNL A   1      42.051  28.488  26.474  1.00  0.00     0.016 A 
ATOM     32  C   UNL A   1      43.383  27.173  28.005  1.00  0.00     0.016 A 
ATOM     33  C   UNL A   1      41.900  29.488  27.439  1.00  0.00     0.010 A 
ATOM     34  C   UNL A   1      43.232  28.181  28.975  1.00  0.00     0.010 A 
ATOM     35  C   UNL A   1      42.551  29.377  28.675  1.00  0.00    -0.014 A 
BRANCH  35  36
ATOM     36  C   UNL A   1      42.730  30.598  29.517  1.00  0.00     0.031 A 
ATOM     37  C   UNL A   1      44.040  31.347  29.428  1.00  0.00     0.074 A 
ATOM     38  C   UNL A   1      41.761  31.088  30.314  1.00  0.00     0.049 A 
ATOM     39  N   UNL A   1      44.424  32.434  30.048  1.00  0.00    -0.248 NA
ATOM     40  C   UNL A   1      45.052  30.792  28.515  1.00  0.00     0.031 C 
ATOM     41  C   UNL A   1      40.438  30.503  30.503  1.00  0.00     0.029 A 
ATOM     42  N   UNL A   1      41.761  32.195  31.135  1.00  0.00    -0.354 N 
ATOM     43  C   UNL A   1      45.730  32.667  29.634  1.00  0.00     0.074 A 
ATOM     44  C   UNL A   1      46.079  31.601  28.721  1.00  0.00     0.031 C 
ATOM     45  C   UNL A   1      39.762  31.238  31.405  1.00  0.00     0.029 A 
ATOM     46  C   UNL A   1      40.612  32.334  31.877  1.00  0.00     0.049 A 
ATOM     47  H   UNL A   1      42.513  32.828  31.185  1.00  0.00     0.167 HD
ATOM     48  C   UNL A   1      46.569  33.680  29.962  1.00  0.00     0.034 A 
ATOM     49  C   UNL A   1      40.286  33.222  32.842  1.00  0.00     0.034 A 
ATOM     50  C   UNL A   1      46.238  34.765  30.844  1.00  0.00     0.049 A 
ATOM     51  C   UNL A   1      41.245  34.327  33.217  1.00  0.00     0.074 A 
ATOM     52  C   UNL A   1      47.009  35.867  31.173  1.00  0.00     0.029 A 
ATOM     53  N   UNL A   1      45.055  34.879  31.555  1.00  0.00    -0.354 N 
ATOM     54  N   UNL A   1      42.425  34.604  32.721  1.00  0.00    -0.248 NA
ATOM     55  C   UNL A   1      40.808  35.264  34.268  1.00  0.00     0.031 C 
ATOM     56  C   UNL A   1      46.311  36.623  32.121  1.00  0.00     0.029 A 
ATOM     57  C   UNL A   1      45.086  36.018  32.344  1.00  0.00     0.049 A 
ATOM     58  H   UNL A   1      44.305  34.245  31.508  1.00  0.00     0.167 HD
ATOM     59  C   UNL A   1      42.856  35.760  33.370  1.00  0.00     0.074 A 
ATOM     60  C   UNL A   1      41.802  36.143  34.284  1.00  0.00     0.031 C 
ATOM     61  C   UNL A   1      44.023  36.436  33.223  1.00  0.00     0.034 A 
BRANCH  48  62
ATOM     62  C   UNL A   1      47.948  33.659  29.355  1.00  0.00     0.023 A 
ATOM     63  C   UNL A   1      49.003  33.001  30.019  1.00  0.00     0.012 A 
ATOM     64  C   UNL A   1      48.187  34.263  28.105  1.00  0.00     0.148 A 
ATOM     65  C   UNL A   1      50.285  32.985  29.472  1.00  0.00     0.002 A 
ATOM     66  C   UNL A   1      49.455  34.198  27.542  1.00  0.00     0.091 A 
ATOM     67  F   UNL A   1      47.177  34.902  27.499  1.00  0.00    -0.205 F 
ATOM     68  C   UNL A   1      50.509  33.574  28.230  1.00  0.00     0.022 A 
BRANCH  66  69
ATOM     69  S   UNL A   1      49.818  34.850  25.908  1.00  0.00     0.127 S 
ATOM     70  O   UNL A   1      49.819  36.291  26.160  1.00  0.00    -0.237 OA
ATOM     71  O   UNL A   1      51.136  34.278  25.635  1.00  0.00    -0.237 OA
ATOM     72  O   UNL A   1      48.756  34.365  25.038  1.00  0.00    -0.744 OA
ENDBRANCH  66  69
ENDBRANCH  48  62
BRANCH  49  73
ATOM     73  C   UNL A   1      38.966  33.112  33.528  1.00  0.00     0.023 A 
ATOM     74  C   UNL A   1      38.876  32.485  34.786  1.00  0.00     0.012 A 
ATOM     75  C   UNL A   1      37.800  33.636  32.937  1.00  0.00     0.148 A 
ATOM     76  C   UNL A   1      37.645  32.361  35.432  1.00  0.00     0.002 A 
ATOM     77  C   UNL A   1      36.588  33.563  33.612  1.00  0.00     0.091 A 
ATOM     78  F   UNL A   1      37.905  34.210  31.730  1.00  0.00    -0.205 F 
ATOM     79  C   UNL A   1      36.504  32.909  34.851  1.00  0.00     0.022 A 
BRANCH  77  80
ATOM     80  S   UNL A   1      35.096  34.356  33.005  1.00  0.00     0.127 S 
ATOM     81  O   UNL A   1      34.051  33.577  33.666  1.00  0.00    -0.237 OA
ATOM     82  O   UNL A   1      35.261  35.720  33.509  1.00  0.00    -0.237 OA
ATOM     83  O   UNL A   1      35.143  34.239  31.554  1.00  0.00    -0.744 OA
ENDBRANCH  77  80
ENDBRANCH  49  73
BRANCH  61  84
ATOM     84  C   UNL A   1      44.234  37.694  34.032  1.00  0.00     0.023 A 
ATOM     85  C   UNL A   1      45.007  37.659  35.209  1.00  0.00     0.012 A 
ATOM     86  C   UNL A   1      43.738  38.932  33.573  1.00  0.00     0.148 A 
ATOM     87  C   UNL A   1      45.257  38.827  35.933  1.00  0.00     0.002 A 
ATOM     88  C   UNL A   1      44.033  40.099  34.270  1.00  0.00     0.091 A 
ATOM     89  F   UNL A   1      42.992  38.949  32.458  1.00  0.00    -0.205 F 
ATOM     90  C   UNL A   1      44.781  40.047  35.457  1.00  0.00     0.022 A 
BRANCH  88  91
ATOM     91  S   UNL A   1      43.545  41.727  33.685  1.00  0.00     0.127 S 
ATOM     92  O   UNL A   1      43.994  42.585  34.780  1.00  0.00    -0.237 OA
ATOM     93  O   UNL A   1      44.320  41.860  32.451  1.00  0.00    -0.237 OA
ATOM     94  O   UNL A   1      42.102  41.669  33.491  1.00  0.00    -0.744 OA
ENDBRANCH  88  91
ENDBRANCH  61  84
ENDBRANCH  35  36
ENDBRANCH  28  30
ENDBRANCH  27  28
ENDBRANCH  26  27
ENDBRANCH  25  26
ENDBRANCH  24  25
ENDBRANCH  23  24
ENDBRANCH  22  23
ENDBRANCH   1  22
TORSDOF 26
ENDMDL
MODEL 2
REMARK VINA RESULT:      -7.9      2.626      8.273
REMARK SMILES CO[C@H]1CC[C@@H]([NH2+]CC(=O)OCCOCCOCCOCCOC(=O)c2ccc(-c3c4nc(c(-c5cccc(S(=O)(=O)[O-])c5F)c5ccc([nH]5)c(-c5cccc(S(=O)(=O)[O-])c5F)c5nc(c(-c6cccc(S(=O)(=O)[O-])c6F)c6ccc3[nH]6)C=C5)C=C4)cc2)CC1
REMARK SMILES IDX 17 1 16 2 15 3 14 4 13 5 12 6 11 7 9 8 10 9 8 10 7 11 6 14
REMARK SMILES IDX 3 15 90 16 4 17 89 18 5 19 2 20 1 21 18 22 19 23 20 24 21 25
REMARK SMILES IDX 22 26 23 27 24 28 25 29 26 30 27 31 88 32 28 33 87 34 29 35
REMARK SMILES IDX 30 36 31 37 81 38 32 39 86 40 80 41 82 42 33 43 85 44 79 45
REMARK SMILES IDX 78 46 34 48 66 49 46 50 65 51 47 52 50 53 64 54 83 55 48 56
REMARK SMILES IDX 49 57 63 59 84 60 51 61 35 62 36 63 44 64 37 65 39 66 45 67
REMARK SMILES IDX 38 68 40 69 41 70 42 71 43 72 67 73 68 74 76 75 69 76 71 77
REMARK SMILES IDX 77 78 70 79 72 80 73 81 74 82 75 83 52 84 53 85 61 86 54 87
REMARK SMILES IDX 56 88 62 89 55 90 57 91 58 92 59 93 60 94
REMARK H PARENT 7 12 7 13 82 47 50 58
REMARK Flexibility Score: inf
ROOT
ATOM      1  O   UNL A   1      44.474  18.344  24.601  1.00  0.00    -0.377 OA
ENDROOT
BRANCH   1   2
ATOM      2  C   UNL A   1      44.058  18.348  25.962  1.00  0.00     0.188 C 
BRANCH   2   3
ATOM      3  C   UNL A   1      42.540  18.483  26.160  1.00  0.00     0.188 C 
BRANCH   3   4
ATOM      4  O   UNL A   1      41.909  19.606  25.550  1.00  0.00    -0.376 OA
BRANCH   4   5
ATOM      5  C   UNL A   1      41.633  20.729  26.402  1.00  0.00     0.202 C 
BRANCH   5   6
ATOM      6  C   UNL A   1      41.946  22.092  25.785  1.00  0.00     0.261 C 
BRANCH   6   7
ATOM      7  O   UNL A   1      42.391  22.977  26.831  1.00  0.00    -0.459 OA
BRANCH   7   8
ATOM      8  C   UNL A   1      42.071  24.290  26.730  1.00  0.00     0.361 C 
ATOM      9  O   UNL A   1      42.374  25.009  25.784  1.00  0.00    -0.245 OA
BRANCH   8  10
ATOM     10  C   UNL A   1      41.193  24.773  27.883  1.00  0.00     0.385 C 
BRANCH  10  11
ATOM     11  N   UNL A   1      40.495  26.058  27.671  1.00  0.00    -0.335 N 
ATOM     12  H   UNL A   1      40.194  26.101  26.697  1.00  0.00     0.347 HD
ATOM     13  H   UNL A   1      39.716  26.078  28.328  1.00  0.00     0.347 HD
BRANCH  11  14
ATOM     14  C   UNL A   1      41.316  27.250  27.953  1.00  0.00     0.183 C 
ATOM     15  C   UNL A   1      39.280  29.120  29.068  1.00  0.00     0.118 C 
ATOM     16  C   UNL A   1      39.920  28.030  29.940  1.00  0.00     0.038 C 
ATOM     17  C   UNL A   1      39.373  28.860  27.559  1.00  0.00     0.038 C 
ATOM     18  C   UNL A   1      41.313  27.667  29.435  1.00  0.00     0.067 C 
ATOM     19  C   UNL A   1      40.766  28.425  27.122  1.00  0.00     0.067 C 
BRANCH  15  20
ATOM     20  O   UNL A   1      37.924  29.394  29.414  1.00  0.00    -0.381 OA
ATOM     21  C   UNL A   1      37.055  29.552  28.309  1.00  0.00     0.195 C 
ENDBRANCH  15  20
ENDBRANCH  11  14
ENDBRANCH  10  11
ENDBRANCH   8  10
ENDBRANCH   7   8
ENDBRANCH   6   7
ENDBRANCH   5   6
ENDBRANCH   4   5
ENDBRANCH   3   4
ENDBRANCH   2   3
ENDBRANCH   1   2
BRANCH   1  22
ATOM     22  C   UNL A   1      45.536  19.279  24.374  1.00  0.00     0.188 C 
BRANCH  22  23
ATOM     23  C   UNL A   1      45.152  20.690  24.794  1.00  0.00     0.188 C 
BRANCH  23  24
ATOM     24  O   UNL A   1      46.215  21.477  25.325  1.00  0.00    -0.376 OA
BRANCH  24  25
ATOM     25  C   UNL A   1      46.157  22.867  24.980  1.00  0.00     0.202 C 
BRANCH  25  26
ATOM     26  C   UNL A   1      46.497  23.844  26.128  1.00  0.00     0.261 C 
BRANCH  26  27
ATOM     27  O   UNL A   1      45.566  24.950  26.213  1.00  0.00    -0.460 OA
BRANCH  27  28
ATOM     28  C   UNL A   1      45.955  26.139  25.696  1.00  0.00     0.338 C 
ATOM     29  O   UNL A   1      46.332  26.332  24.549  1.00  0.00    -0.246 OA
BRANCH  28  30
ATOM     30  C   UNL A   1      45.631  27.251  26.630  1.00  0.00     0.060 A 
ATOM     31  C   UNL A   1      44.617  28.143  26.251  1.00  0.00     0.016 A 
ATOM     32  C   UNL A   1      46.339  27.479  27.813  1.00  0.00     0.016 A 
ATOM     33  C   UNL A   1      44.380  29.309  26.984  1.00  0.00     0.010 A 
ATOM     34  C   UNL A   1      46.100  28.653  28.549  1.00  0.00     0.010 A 
ATOM     35  C   UNL A   1      45.170  29.611  28.101  1.00  0.00    -0.014 A 
BRANCH  35  36
ATOM     36  C   UNL A   1      45.197  31.012  28.618  1.00  0.00     0.031 A 
ATOM     37  C   UNL A   1      44.229  31.394  29.716  1.00  0.00     0.074 A 
ATOM     38  C   UNL A   1      46.076  31.937  28.186  1.00  0.00     0.049 A 
ATOM     39  N   UNL A   1      44.073  32.538  30.331  1.00  0.00    -0.248 NA
ATOM     40  C   UNL A   1      43.315  30.338  30.179  1.00  0.00     0.031 C 
ATOM     41  C   UNL A   1      47.085  31.733  27.152  1.00  0.00     0.029 A 
ATOM     42  N   UNL A   1      46.241  33.252  28.563  1.00  0.00    -0.354 N 
ATOM     43  C   UNL A   1      43.021  32.352  31.219  1.00  0.00     0.074 A 
ATOM     44  C   UNL A   1      42.566  30.989  31.053  1.00  0.00     0.031 C 
ATOM     45  C   UNL A   1      47.745  32.889  26.954  1.00  0.00     0.029 A 
ATOM     46  C   UNL A   1      47.192  33.923  27.832  1.00  0.00     0.049 A 
ATOM     47  H   UNL A   1      45.725  33.672  29.289  1.00  0.00     0.167 HD
ATOM     48  C   UNL A   1      42.482  33.222  32.109  1.00  0.00     0.034 A 
ATOM     49  C   UNL A   1      47.560  35.223  27.844  1.00  0.00     0.034 A 
ATOM     50  C   UNL A   1      42.934  34.571  32.313  1.00  0.00     0.049 A 
ATOM     51  C   UNL A   1      46.928  36.186  28.821  1.00  0.00     0.074 A 
ATOM     52  C   UNL A   1      42.485  35.493  33.243  1.00  0.00     0.029 A 
ATOM     53  N   UNL A   1      43.914  35.202  31.567  1.00  0.00    -0.354 N 
ATOM     54  N   UNL A   1      46.023  35.959  29.740  1.00  0.00    -0.248 NA
ATOM     55  C   UNL A   1      47.396  37.583  28.782  1.00  0.00     0.031 C 
ATOM     56  C   UNL A   1      43.162  36.698  33.027  1.00  0.00     0.029 A 
ATOM     57  C   UNL A   1      44.066  36.511  31.997  1.00  0.00     0.049 A 
ATOM     58  H   UNL A   1      44.427  34.784  30.839  1.00  0.00     0.167 HD
ATOM     59  C   UNL A   1      45.838  37.169  30.409  1.00  0.00     0.074 A 
ATOM     60  C   UNL A   1      46.739  38.123  29.800  1.00  0.00     0.031 C 
ATOM     61  C   UNL A   1      44.993  37.457  31.430  1.00  0.00     0.034 A 
BRANCH  48  62
ATOM     62  C   UNL A   1      41.326  32.731  32.940  1.00  0.00     0.023 A 
ATOM     63  C   UNL A   1      41.560  32.137  34.197  1.00  0.00     0.012 A 
ATOM     64  C   UNL A   1      40.001  32.890  32.487  1.00  0.00     0.148 A 
ATOM     65  C   UNL A   1      40.499  31.668  34.970  1.00  0.00     0.002 A 
ATOM     66  C   UNL A   1      38.946  32.468  33.286  1.00  0.00     0.091 A 
ATOM     67  F   UNL A   1      39.799  33.437  31.280  1.00  0.00    -0.205 F 
ATOM     68  C   UNL A   1      39.192  31.843  34.519  1.00  0.00     0.022 A 
BRANCH  66  69
ATOM     69  S   UNL A   1      37.229  32.730  32.830  1.00  0.00     0.127 S 
ATOM     70  O   UNL A   1      37.081  31.812  31.701  1.00  0.00    -0.237 OA
ATOM     71  O   UNL A   1      36.523  32.322  34.044  1.00  0.00    -0.237 OA
ATOM     72  O   UNL A   1      37.111  34.145  32.508  1.00  0.00    -0.744 OA
ENDBRANCH  66  69
ENDBRANCH  48  62
BRANCH  49  73
ATOM     73  C   UNL A   1      48.605  35.702  26.893  1.00  0.00     0.023 A 
ATOM     74  C   UNL A   1      48.243  36.109  25.594  1.00  0.00     0.012 A 
ATOM     75  C   UNL A   1      49.958  35.760  27.278  1.00  0.00     0.148 A 
ATOM     76  C   UNL A   1      49.212  36.543  24.689  1.00  0.00     0.002 A 
ATOM     77  C   UNL A   1      50.911  36.250  26.393  1.00  0.00     0.091 A 
ATOM     78  F   UNL A   1      50.284  35.348  28.512  1.00  0.00    -0.205 F 
ATOM     79  C   UNL A   1      50.544  36.624  25.092  1.00  0.00     0.022 A 
BRANCH  77  80
ATOM     80  S   UNL A   1      52.622  36.516  26.867  1.00  0.00     0.127 S 
ATOM     81  O   UNL A   1      52.488  37.503  27.936  1.00  0.00    -0.237 OA
ATOM     82  O   UNL A   1      53.018  35.178  27.307  1.00  0.00    -0.237 OA
ATOM     83  O   UNL A   1      53.301  36.980  25.665  1.00  0.00    -0.744 OA
ENDBRANCH  77  80
ENDBRANCH  49  73
BRANCH  61  84
ATOM     84  C   UNL A   1      45.010  38.854  32.005  1.00  0.00     0.023 A 
ATOM     85  C   UNL A   1      45.878  39.174  33.068  1.00  0.00     0.012 A 
ATOM     86  C   UNL A   1      44.225  39.875  31.429  1.00  0.00     0.148 A 
ATOM     87  C   UNL A   1      45.942  40.476  33.568  1.00  0.00     0.002 A 
ATOM     88  C   UNL A   1      44.332  41.181  31.898  1.00  0.00     0.091 A 
ATOM     89  F   UNL A   1      43.393  39.554  30.427  1.00  0.00    -0.205 F 
ATOM     90  C   UNL A   1      45.180  41.480  32.976  1.00  0.00     0.022 A 
BRANCH  88  91
ATOM     91  S   UNL A   1      43.462  42.558  31.138  1.00  0.00     0.127 S 
ATOM     92  O   UNL A   1      44.184  42.708  29.876  1.00  0.00    -0.237 OA
ATOM     93  O   UNL A   1      42.103  42.032  31.003  1.00  0.00    -0.237 OA
ATOM     94  O   UNL A   1      43.589  43.675  32.065  1.00  0.00    -0.744 OA
ENDBRANCH  88  91
ENDBRANCH  61  84
ENDBRANCH  35  36
ENDBRANCH  28  30
ENDBRANCH  27  28
ENDBRANCH  26  27
ENDBRANCH  25  26
ENDBRANCH  24  25
ENDBRANCH  23  24
ENDBRANCH  22  23
ENDBRANCH   1  22
TORSDOF 26
ENDMDL
MODEL 3
REMARK VINA RESULT:      -7.9      2.025      3.057
REMARK SMILES CO[C@H]1CC[C@@H]([NH2+]CC(=O)OCCOCCOCCOCCOC(=O)c2ccc(-c3c4nc(c(-c5cccc(S(=O)(=O)[O-])c5F)c5ccc([nH]5)c(-c5cccc(S(=O)(=O)[O-])c5F)c5nc(c(-c6cccc(S(=O)(=O)[O-])c6F)c6ccc3[nH]6)C=C5)C=C4)cc2)CC1
REMARK SMILES IDX 17 1 16 2 15 3 14 4 13 5 12 6 11 7 9 8 10 9 8 10 7 11 6 14
REMARK SMILES IDX 3 15 90 16 4 17 89 18 5 19 2 20 1 21 18 22 19 23 20 24 21 25
REMARK SMILES IDX 22 26 23 27 24 28 25 29 26 30 27 31 88 32 28 33 87 34 29 35
REMARK SMILES IDX 30 36 31 37 81 38 32 39 86 40 80 41 82 42 33 43 85 44 79 45
REMARK SMILES IDX 78 46 34 48 66 49 46 50 65 51 47 52 50 53 64 54 83 55 48 56
REMARK SMILES IDX 49 57 63 59 84 60 51 61 35 62 36 63 44 64 37 65 39 66 45 67
REMARK SMILES IDX 38 68 40 69 41 70 42 71 43 72 67 73 68 74 76 75 69 76 71 77
REMARK SMILES IDX 77 78 70 79 72 80 73 81 74 82 75 83 52 84 53 85 61 86 54 87
REMARK SMILES IDX 56 88 62 89 55 90 57 91 58 92 59 93 60 94
REMARK H PARENT 7 12 7 13 82 47 50 58
REMARK Flexibility Score: inf
ROOT
ATOM      1  O   UNL A   1      44.687  18.615  24.529  1.00  0.00    -0.377 OA
ENDROOT
BRANCH   1   2
ATOM      2  C   UNL A   1      44.391  18.576  25.920  1.00  0.00     0.188 C 
BRANCH   2   3
ATOM      3  C   UNL A   1      43.068  17.877  26.267  1.00  0.00     0.188 C 
BRANCH   3   4
ATOM      4  O   UNL A   1      41.879  18.447  25.728  1.00  0.00    -0.376 OA
BRANCH   4   5
ATOM      5  C   UNL A   1      41.753  19.875  25.820  1.00  0.00     0.202 C 
BRANCH   5   6
ATOM      6  C   UNL A   1      40.949  20.370  27.022  1.00  0.00     0.261 C 
BRANCH   6   7
ATOM      7  O   UNL A   1      40.830  21.803  26.935  1.00  0.00    -0.459 OA
BRANCH   7   8
ATOM      8  C   UNL A   1      39.654  22.317  26.499  1.00  0.00     0.361 C 
ATOM      9  O   UNL A   1      38.901  21.759  25.709  1.00  0.00    -0.245 OA
BRANCH   8  10
ATOM     10  C   UNL A   1      39.303  23.640  27.178  1.00  0.00     0.385 C 
BRANCH  10  11
ATOM     11  N   UNL A   1      39.597  24.863  26.401  1.00  0.00    -0.335 N 
ATOM     12  H   UNL A   1      39.524  24.636  25.409  1.00  0.00     0.347 HD
ATOM     13  H   UNL A   1      38.920  25.566  26.698  1.00  0.00     0.347 HD
BRANCH  11  14
ATOM     14  C   UNL A   1      40.934  25.434  26.647  1.00  0.00     0.183 C 
ATOM     15  C   UNL A   1      40.278  27.724  28.439  1.00  0.00     0.118 C 
ATOM     16  C   UNL A   1      40.392  26.294  28.987  1.00  0.00     0.038 C 
ATOM     17  C   UNL A   1      40.029  27.805  26.928  1.00  0.00     0.038 C 
ATOM     18  C   UNL A   1      41.335  25.451  28.134  1.00  0.00     0.067 C 
ATOM     19  C   UNL A   1      40.944  26.885  26.130  1.00  0.00     0.067 C 
BRANCH  15  20
ATOM     20  O   UNL A   1      39.300  28.510  29.119  1.00  0.00    -0.381 OA
ATOM     21  C   UNL A   1      38.977  28.054  30.418  1.00  0.00     0.195 C 
ENDBRANCH  15  20
ENDBRANCH  11  14
ENDBRANCH  10  11
ENDBRANCH   8  10
ENDBRANCH   7   8
ENDBRANCH   6   7
ENDBRANCH   5   6
ENDBRANCH   4   5
ENDBRANCH   3   4
ENDBRANCH   2   3
ENDBRANCH   1   2
BRANCH   1  22
ATOM     22  C   UNL A   1      45.107  19.921  24.118  1.00  0.00     0.188 C 
BRANCH  22  23
ATOM     23  C   UNL A   1      44.837  20.969  25.187  1.00  0.00     0.188 C 
BRANCH  23  24
ATOM     24  O   UNL A   1      45.200  22.303  24.837  1.00  0.00    -0.376 OA
BRANCH  24  25
ATOM     25  C   UNL A   1      44.571  23.319  25.629  1.00  0.00     0.202 C 
BRANCH  25  26
ATOM     26  C   UNL A   1      44.589  24.736  25.015  1.00  0.00     0.261 C 
BRANCH  26  27
ATOM     27  O   UNL A   1      44.228  25.763  25.970  1.00  0.00    -0.460 OA
BRANCH  27  28
ATOM     28  C   UNL A   1      44.838  26.966  25.860  1.00  0.00     0.338 C 
ATOM     29  O   UNL A   1      45.545  27.327  24.929  1.00  0.00    -0.246 OA
BRANCH  28  30
ATOM     30  C   UNL A   1      44.343  27.906  26.901  1.00  0.00     0.060 A 
ATOM     31  C   UNL A   1      43.657  29.051  26.468  1.00  0.00     0.016 A 
ATOM     32  C   UNL A   1      44.596  27.732  28.263  1.00  0.00     0.016 A 
ATOM     33  C   UNL A   1      43.321  30.066  27.369  1.00  0.00     0.010 A 
ATOM     34  C   UNL A   1      44.259  28.754  29.169  1.00  0.00     0.010 A 
ATOM     35  C   UNL A   1      43.684  29.958  28.717  1.00  0.00    -0.014 A 
BRANCH  35  36
ATOM     36  C   UNL A   1      43.700  31.186  29.569  1.00  0.00     0.031 A 
ATOM     37  C   UNL A   1      44.907  32.094  29.498  1.00  0.00     0.074 A 
ATOM     38  C   UNL A   1      42.670  31.545  30.358  1.00  0.00     0.049 A 
ATOM     39  N   UNL A   1      45.145  33.216  30.128  1.00  0.00    -0.248 NA
ATOM     40  C   UNL A   1      45.989  31.677  28.592  1.00  0.00     0.031 C 
ATOM     41  C   UNL A   1      41.429  30.797  30.530  1.00  0.00     0.029 A 
ATOM     42  N   UNL A   1      42.522  32.638  31.185  1.00  0.00    -0.354 N 
ATOM     43  C   UNL A   1      46.416  33.614  29.729  1.00  0.00     0.074 A 
ATOM     44  C   UNL A   1      46.904  32.607  28.813  1.00  0.00     0.031 C 
ATOM     45  C   UNL A   1      40.658  31.435  31.429  1.00  0.00     0.029 A 
ATOM     46  C   UNL A   1      41.358  32.627  31.916  1.00  0.00     0.049 A 
ATOM     47  H   UNL A   1      43.189  33.359  31.247  1.00  0.00     0.167 HD
ATOM     48  C   UNL A   1      47.118  34.722  30.072  1.00  0.00     0.034 A 
ATOM     49  C   UNL A   1      40.914  33.460  32.882  1.00  0.00     0.034 A 
ATOM     50  C   UNL A   1      46.645  35.751  30.956  1.00  0.00     0.049 A 
ATOM     51  C   UNL A   1      41.723  34.673  33.275  1.00  0.00     0.074 A 
ATOM     52  C   UNL A   1      47.268  36.939  31.300  1.00  0.00     0.029 A 
ATOM     53  N   UNL A   1      45.450  35.711  31.656  1.00  0.00    -0.354 N 
ATOM     54  N   UNL A   1      42.864  35.100  32.792  1.00  0.00    -0.248 NA
ATOM     55  C   UNL A   1      41.163  35.540  34.326  1.00  0.00     0.031 C 
ATOM     56  C   UNL A   1      46.472  37.594  32.245  1.00  0.00     0.029 A 
ATOM     57  C   UNL A   1      45.330  36.839  32.451  1.00  0.00     0.049 A 
ATOM     58  H   UNL A   1      44.786  34.988  31.597  1.00  0.00     0.167 HD
ATOM     59  C   UNL A   1      43.140  36.296  33.453  1.00  0.00     0.074 A 
ATOM     60  C   UNL A   1      42.037  36.537  34.357  1.00  0.00     0.031 C 
ATOM     61  C   UNL A   1      44.215  37.113  33.322  1.00  0.00     0.034 A 
BRANCH  48  62
ATOM     62  C   UNL A   1      48.494  34.878  29.479  1.00  0.00     0.023 A 
ATOM     63  C   UNL A   1      49.630  34.481  30.214  1.00  0.00     0.012 A 
ATOM     64  C   UNL A   1      48.657  35.388  28.176  1.00  0.00     0.148 A 
ATOM     65  C   UNL A   1      50.909  34.632  29.680  1.00  0.00     0.002 A 
ATOM     66  C   UNL A   1      49.931  35.486  27.631  1.00  0.00     0.091 A 
ATOM     67  F   UNL A   1      47.567  35.780  27.501  1.00  0.00    -0.205 F 
ATOM     68  C   UNL A   1      51.058  35.124  28.385  1.00  0.00     0.022 A 
BRANCH  66  69
ATOM     69  S   UNL A   1      50.215  36.026  25.941  1.00  0.00     0.127 S 
ATOM     70  O   UNL A   1      51.670  35.912  25.837  1.00  0.00    -0.237 OA
ATOM     71  O   UNL A   1      49.470  35.030  25.171  1.00  0.00    -0.237 OA
ATOM     72  O   UNL A   1      49.683  37.378  25.857  1.00  0.00    -0.744 OA
ENDBRANCH  66  69
ENDBRANCH  48  62
BRANCH  49  73
ATOM     73  C   UNL A   1      39.612  33.180  33.555  1.00  0.00     0.023 A 
ATOM     74  C   UNL A   1      38.402  33.437  32.881  1.00  0.00     0.012 A 
ATOM     75  C   UNL A   1      39.573  32.653  34.860  1.00  0.00     0.148 A 
ATOM     76  C   UNL A   1      37.177  33.195  33.505  1.00  0.00     0.002 A 
ATOM     77  C   UNL A   1      38.352  32.357  35.452  1.00  0.00     0.091 A 
ATOM     78  F   UNL A   1      40.737  32.436  35.490  1.00  0.00    -0.205 F 
ATOM     79  C   UNL A   1      37.151  32.645  34.785  1.00  0.00     0.022 A 
BRANCH  77  80
ATOM     80  S   UNL A   1      38.224  31.526  37.039  1.00  0.00     0.127 S 
ATOM     81  O   UNL A   1      38.158  30.122  36.638  1.00  0.00    -0.237 OA
ATOM     82  O   UNL A   1      39.476  31.926  37.683  1.00  0.00    -0.237 OA
ATOM     83  O   UNL A   1      37.024  32.056  37.671  1.00  0.00    -0.744 OA
ENDBRANCH  77  80
ENDBRANCH  49  73
BRANCH  61  84
ATOM     84  C   UNL A   1      44.259  38.382  34.140  1.00  0.00     0.023 A 
ATOM     85  C   UNL A   1      44.934  38.406  35.376  1.00  0.00     0.012 A 
ATOM     86  C   UNL A   1      43.704  39.578  33.638  1.00  0.00     0.148 A 
ATOM     87  C   UNL A   1      45.031  39.589  36.113  1.00  0.00     0.002 A 
ATOM     88  C   UNL A   1      43.847  40.763  34.352  1.00  0.00     0.091 A 
ATOM     89  F   UNL A   1      43.052  39.538  32.466  1.00  0.00    -0.205 F 
ATOM     90  C   UNL A   1      44.498  40.768  35.596  1.00  0.00     0.022 A 
BRANCH  88  91
ATOM     91  S   UNL A   1      43.280  42.349  33.723  1.00  0.00     0.127 S 
ATOM     92  O   UNL A   1      41.848  42.108  33.554  1.00  0.00    -0.237 OA
ATOM     93  O   UNL A   1      43.619  43.257  34.818  1.00  0.00    -0.237 OA
ATOM     94  O   UNL A   1      44.022  42.582  32.491  1.00  0.00    -0.744 OA
ENDBRANCH  88  91
ENDBRANCH  61  84
ENDBRANCH  35  36
ENDBRANCH  28  30
ENDBRANCH  27  28
ENDBRANCH  26  27
ENDBRANCH  25  26
ENDBRANCH  24  25
ENDBRANCH  23  24
ENDBRANCH  22  23
ENDBRANCH   1  22
TORSDOF 26
ENDMDL
