MODEL 1
REMARK VINA RESULT:      -9.3      0.000      0.000
REMARK SMILES O=C(CCc1cccnc1)Nc1ccsc1C(=O)OCCOCCOCCOCCOC(=O)c1ccc(-c2c3nc(c(-c4cccc(S(=O)(=O)[O-])c4F)c4ccc([nH]4)c(-c4cccc(S(=O)(=O)[O-])c4F)c4nc(c(-c5cccc(S(=O)(=O)[O-])c5F)c5ccc2[nH]5)C=C4)C=C3)cc1
REMARK SMILES IDX 24 1 23 2 22 3 21 4 20 5 19 6 17 7 18 8 16 9 12 10 13 11
REMARK SMILES IDX 14 12 15 13 11 14 1 15 2 16 3 18 4 19 5 20 6 21 10 22 7 23
REMARK SMILES IDX 9 24 8 25 25 26 26 27 27 28 28 29 29 30 30 31 31 32 32 33
REMARK SMILES IDX 33 34 34 35 35 36 96 37 36 38 95 39 37 40 38 41 39 42 89 43
REMARK SMILES IDX 40 44 94 45 88 46 90 47 41 48 93 49 87 50 86 51 42 53 74 54
REMARK SMILES IDX 54 55 73 56 55 57 58 58 72 59 91 60 56 61 57 62 71 64 92 65
REMARK SMILES IDX 59 66 43 67 44 68 52 69 45 70 47 71 53 72 46 73 48 74 49 75
REMARK SMILES IDX 50 76 51 77 75 78 76 79 84 80 77 81 79 82 85 83 78 84 80 85
REMARK SMILES IDX 81 86 82 87 83 88 60 89 61 90 69 91 62 92 64 93 70 94 63 95
REMARK SMILES IDX 65 96 66 97 67 98 68 99
REMARK H PARENT 11 17 90 52 58 63
REMARK Flexibility Score: inf
ROOT
ATOM      1  C   UNL A   1      31.455  29.156  25.034  1.00  0.00     0.188 C 
ENDROOT
BRANCH   1   2
ATOM      2  C   UNL A   1      30.989  28.342  23.820  1.00  0.00     0.188 C 
BRANCH   2   3
ATOM      3  O   UNL A   1      31.990  27.761  22.985  1.00  0.00    -0.376 OA
BRANCH   3   4
ATOM      4  C   UNL A   1      31.595  26.873  21.939  1.00  0.00     0.202 C 
BRANCH   4   5
ATOM      5  C   UNL A   1      32.264  25.498  21.937  1.00  0.00     0.261 C 
BRANCH   5   6
ATOM      6  O   UNL A   1      32.988  25.336  23.171  1.00  0.00    -0.459 OA
BRANCH   6   7
ATOM      7  C   UNL A   1      33.516  24.100  23.381  1.00  0.00     0.350 C 
ATOM      8  O   UNL A   1      34.298  23.556  22.611  1.00  0.00    -0.245 OA
BRANCH   7   9
ATOM      9  C   UNL A   1      33.198  23.687  24.731  1.00  0.00     0.136 A 
ATOM     10  C   UNL A   1      33.981  23.238  25.789  1.00  0.00     0.066 A 
ATOM     11  C   UNL A   1      33.150  22.708  26.834  1.00  0.00     0.039 A 
ATOM     12  C   UNL A   1      31.805  22.809  26.569  1.00  0.00     0.068 A 
ATOM     13  S   UNL A   1      31.513  23.560  25.074  1.00  0.00    -0.135 S 
BRANCH  10  14
ATOM     14  N   UNL A   1      35.380  23.309  25.836  1.00  0.00    -0.325 N 
ATOM     15  O   UNL A   1      35.864  21.060  25.505  1.00  0.00    -0.275 OA
ATOM     16  C   UNL A   1      36.222  22.204  25.773  1.00  0.00     0.224 C 
ATOM     17  H   UNL A   1      35.793  24.198  25.919  1.00  0.00     0.169 HD
BRANCH  16  18
ATOM     18  C   UNL A   1      37.690  22.506  26.037  1.00  0.00     0.105 C 
BRANCH  18  19
ATOM     19  C   UNL A   1      38.629  21.432  25.485  1.00  0.00     0.047 C 
BRANCH  19  20
ATOM     20  C   UNL A   1      39.938  21.401  26.227  1.00  0.00    -0.029 A 
ATOM     21  C   UNL A   1      40.469  22.553  26.812  1.00  0.00     0.007 A 
ATOM     22  C   UNL A   1      40.625  20.206  26.430  1.00  0.00     0.114 A 
ATOM     23  C   UNL A   1      41.591  22.462  27.628  1.00  0.00     0.020 A 
ATOM     24  N   UNL A   1      41.749  20.111  27.175  1.00  0.00    -0.264 NA
ATOM     25  C   UNL A   1      42.191  21.227  27.780  1.00  0.00     0.111 A 
ENDBRANCH  19  20
ENDBRANCH  18  19
ENDBRANCH  16  18
ENDBRANCH  10  14
ENDBRANCH   7   9
ENDBRANCH   6   7
ENDBRANCH   5   6
ENDBRANCH   4   5
ENDBRANCH   3   4
ENDBRANCH   2   3
ENDBRANCH   1   2
BRANCH   1  26
ATOM     26  O   UNL A   1      31.365  28.463  26.270  1.00  0.00    -0.377 OA
BRANCH  26  27
ATOM     27  C   UNL A   1      32.412  28.733  27.199  1.00  0.00     0.188 C 
BRANCH  27  28
ATOM     28  C   UNL A   1      33.541  29.583  26.595  1.00  0.00     0.188 C 
BRANCH  28  29
ATOM     29  O   UNL A   1      34.624  29.999  27.427  1.00  0.00    -0.376 OA
BRANCH  29  30
ATOM     30  C   UNL A   1      34.866  31.394  27.554  1.00  0.00     0.202 C 
BRANCH  30  31
ATOM     31  C   UNL A   1      33.565  32.205  27.694  1.00  0.00     0.261 C 
BRANCH  31  32
ATOM     32  O   UNL A   1      33.753  33.626  27.592  1.00  0.00    -0.460 OA
BRANCH  32  33
ATOM     33  C   UNL A   1      33.560  34.308  28.749  1.00  0.00     0.338 C 
ATOM     34  O   UNL A   1      32.602  35.002  29.048  1.00  0.00    -0.246 OA
BRANCH  33  35
ATOM     35  C   UNL A   1      34.671  34.024  29.685  1.00  0.00     0.060 A 
ATOM     36  C   UNL A   1      35.975  34.350  29.292  1.00  0.00     0.016 A 
ATOM     37  C   UNL A   1      34.442  33.372  30.900  1.00  0.00     0.016 A 
ATOM     38  C   UNL A   1      37.060  33.963  30.082  1.00  0.00     0.010 A 
ATOM     39  C   UNL A   1      35.528  32.973  31.683  1.00  0.00     0.010 A 
ATOM     40  C   UNL A   1      36.842  33.228  31.255  1.00  0.00    -0.014 A 
BRANCH  40  41
ATOM     41  C   UNL A   1      37.980  32.554  31.926  1.00  0.00     0.031 A 
ATOM     42  C   UNL A   1      38.626  31.381  31.237  1.00  0.00     0.074 A 
ATOM     43  C   UNL A   1      38.422  32.962  33.128  1.00  0.00     0.049 A 
ATOM     44  N   UNL A   1      39.634  30.644  31.626  1.00  0.00    -0.248 NA
ATOM     45  C   UNL A   1      38.060  30.987  29.935  1.00  0.00     0.031 C 
ATOM     46  C   UNL A   1      37.876  34.078  33.897  1.00  0.00     0.029 A 
ATOM     47  N   UNL A   1      39.424  32.461  33.922  1.00  0.00    -0.354 N 
ATOM     48  C   UNL A   1      39.818  29.698  30.625  1.00  0.00     0.074 A 
ATOM     49  C   UNL A   1      38.810  29.941  29.618  1.00  0.00     0.031 C 
ATOM     50  C   UNL A   1      38.528  34.157  35.071  1.00  0.00     0.029 A 
ATOM     51  C   UNL A   1      39.527  33.091  35.139  1.00  0.00     0.049 A 
ATOM     52  H   UNL A   1      40.012  31.721  33.646  1.00  0.00     0.167 HD
ATOM     53  C   UNL A   1      40.756  28.727  30.539  1.00  0.00     0.034 A 
ATOM     54  C   UNL A   1      40.330  32.826  36.191  1.00  0.00     0.034 A 
ATOM     55  C   UNL A   1      41.766  28.488  31.533  1.00  0.00     0.049 A 
ATOM     56  C   UNL A   1      41.353  31.723  36.080  1.00  0.00     0.074 A 
ATOM     57  C   UNL A   1      42.788  27.557  31.515  1.00  0.00     0.029 A 
ATOM     58  N   UNL A   1      41.873  29.181  32.728  1.00  0.00    -0.354 N 
ATOM     59  N   UNL A   1      41.613  30.937  35.063  1.00  0.00    -0.248 NA
ATOM     60  C   UNL A   1      42.217  31.493  37.249  1.00  0.00     0.031 C 
ATOM     61  C   UNL A   1      43.508  27.679  32.709  1.00  0.00     0.029 A 
ATOM     62  C   UNL A   1      42.938  28.692  33.463  1.00  0.00     0.049 A 
ATOM     63  H   UNL A   1      41.279  29.913  33.013  1.00  0.00     0.167 HD
ATOM     64  C   UNL A   1      42.691  30.148  35.455  1.00  0.00     0.074 A 
ATOM     65  C   UNL A   1      43.045  30.561  36.796  1.00  0.00     0.031 C 
ATOM     66  C   UNL A   1      43.319  29.159  34.771  1.00  0.00     0.034 A 
BRANCH  53  67
ATOM     67  C   UNL A   1      40.763  27.876  29.300  1.00  0.00     0.023 A 
ATOM     68  C   UNL A   1      39.866  26.793  29.207  1.00  0.00     0.012 A 
ATOM     69  C   UNL A   1      41.610  28.172  28.215  1.00  0.00     0.148 A 
ATOM     70  C   UNL A   1      39.826  26.003  28.059  1.00  0.00     0.002 A 
ATOM     71  C   UNL A   1      41.543  27.399  27.062  1.00  0.00     0.091 A 
ATOM     72  F   UNL A   1      42.475  29.189  28.338  1.00  0.00    -0.205 F 
ATOM     73  C   UNL A   1      40.656  26.311  26.984  1.00  0.00     0.022 A 
BRANCH  71  74
ATOM     74  S   UNL A   1      42.530  27.752  25.604  1.00  0.00     0.127 S 
ATOM     75  O   UNL A   1      43.869  27.877  26.177  1.00  0.00    -0.237 OA
ATOM     76  O   UNL A   1      42.324  26.553  24.789  1.00  0.00    -0.237 OA
ATOM     77  O   UNL A   1      41.974  28.972  25.034  1.00  0.00    -0.744 OA
ENDBRANCH  71  74
ENDBRANCH  53  67
BRANCH  54  78
ATOM     78  C   UNL A   1      40.226  33.652  37.426  1.00  0.00     0.023 A 
ATOM     79  C   UNL A   1      40.946  34.858  37.524  1.00  0.00     0.012 A 
ATOM     80  C   UNL A   1      39.398  33.263  38.496  1.00  0.00     0.148 A 
ATOM     81  C   UNL A   1      40.860  35.646  38.673  1.00  0.00     0.002 A 
ATOM     82  C   UNL A   1      39.277  34.078  39.616  1.00  0.00     0.091 A 
ATOM     83  F   UNL A   1      38.735  32.100  38.405  1.00  0.00    -0.205 F 
ATOM     84  C   UNL A   1      40.018  35.263  39.716  1.00  0.00     0.022 A 
BRANCH  82  85
ATOM     85  S   UNL A   1      38.104  33.667  40.913  1.00  0.00     0.127 S 
ATOM     86  O   UNL A   1      36.865  33.493  40.161  1.00  0.00    -0.237 OA
ATOM     87  O   UNL A   1      38.654  32.433  41.477  1.00  0.00    -0.237 OA
ATOM     88  O   UNL A   1      38.157  34.810  41.820  1.00  0.00    -0.744 OA
ENDBRANCH  82  85
ENDBRANCH  54  78
BRANCH  66  89
ATOM     89  C   UNL A   1      44.474  28.463  35.440  1.00  0.00     0.023 A 
ATOM     90  C   UNL A   1      45.791  28.842  35.118  1.00  0.00     0.012 A 
ATOM     91  C   UNL A   1      44.256  27.513  36.457  1.00  0.00     0.148 A 
ATOM     92  C   UNL A   1      46.875  28.270  35.783  1.00  0.00     0.002 A 
ATOM     93  C   UNL A   1      45.340  26.976  37.143  1.00  0.00     0.091 A 
ATOM     94  F   UNL A   1      42.995  27.149  36.736  1.00  0.00    -0.205 F 
ATOM     95  C   UNL A   1      46.650  27.348  36.804  1.00  0.00     0.022 A 
BRANCH  93  96
ATOM     96  S   UNL A   1      45.127  25.853  38.529  1.00  0.00     0.127 S 
ATOM     97  O   UNL A   1      46.461  25.858  39.127  1.00  0.00    -0.237 OA
ATOM     98  O   UNL A   1      44.099  26.524  39.327  1.00  0.00    -0.237 OA
ATOM     99  O   UNL A   1      44.700  24.586  37.948  1.00  0.00    -0.744 OA
ENDBRANCH  93  96
ENDBRANCH  66  89
ENDBRANCH  40  41
ENDBRANCH  33  35
ENDBRANCH  32  33
ENDBRANCH  31  32
ENDBRANCH  30  31
ENDBRANCH  29  30
ENDBRANCH  28  29
ENDBRANCH  27  28
ENDBRANCH  26  27
ENDBRANCH   1  26
TORSDOF 27
ENDMDL
MODEL 2
REMARK VINA RESULT:      -9.2      2.812      9.434
REMARK SMILES O=C(CCc1cccnc1)Nc1ccsc1C(=O)OCCOCCOCCOCCOC(=O)c1ccc(-c2c3nc(c(-c4cccc(S(=O)(=O)[O-])c4F)c4ccc([nH]4)c(-c4cccc(S(=O)(=O)[O-])c4F)c4nc(c(-c5cccc(S(=O)(=O)[O-])c5F)c5ccc2[nH]5)C=C4)C=C3)cc1
REMARK SMILES IDX 24 1 23 2 22 3 21 4 20 5 19 6 17 7 18 8 16 9 12 10 13 11
REMARK SMILES IDX 14 12 15 13 11 14 1 15 2 16 3 18 4 19 5 20 6 21 10 22 7 23
REMARK SMILES IDX 9 24 8 25 25 26 26 27 27 28 28 29 29 30 30 31 31 32 32 33
REMARK SMILES IDX 33 34 34 35 35 36 96 37 36 38 95 39 37 40 38 41 39 42 89 43
REMARK SMILES IDX 40 44 94 45 88 46 90 47 41 48 93 49 87 50 86 51 42 53 74 54
REMARK SMILES IDX 54 55 73 56 55 57 58 58 72 59 91 60 56 61 57 62 71 64 92 65
REMARK SMILES IDX 59 66 43 67 44 68 52 69 45 70 47 71 53 72 46 73 48 74 49 75
REMARK SMILES IDX 50 76 51 77 75 78 76 79 84 80 77 81 79 82 85 83 78 84 80 85
REMARK SMILES IDX 81 86 82 87 83 88 60 89 61 90 69 91 62 92 64 93 70 94 63 95
REMARK SMILES IDX 65 96 66 97 67 98 68 99
REMARK H PARENT 11 17 90 52 58 63
REMARK Flexibility Score: inf
ROOT
ATOM      1  C   UNL A   1      39.803  22.750  26.855  1.00  0.00     0.188 C 
ENDROOT
BRANCH   1   2
ATOM      2  C   UNL A   1      38.527  23.142  26.098  1.00  0.00     0.188 C 
BRANCH   2   3
ATOM      3  O   UNL A   1      37.731  22.094  25.548  1.00  0.00    -0.376 OA
BRANCH   3   4
ATOM      4  C   UNL A   1      36.326  22.294  25.394  1.00  0.00     0.202 C 
BRANCH   4   5
ATOM      5  C   UNL A   1      35.753  23.557  26.036  1.00  0.00     0.261 C 
BRANCH   5   6
ATOM      6  O   UNL A   1      35.368  24.470  24.992  1.00  0.00    -0.459 OA
BRANCH   6   7
ATOM      7  C   UNL A   1      34.314  25.280  25.285  1.00  0.00     0.350 C 
ATOM      8  O   UNL A   1      34.287  26.041  26.244  1.00  0.00    -0.245 OA
BRANCH   7   9
ATOM      9  C   UNL A   1      33.394  25.259  24.167  1.00  0.00     0.136 A 
ATOM     10  C   UNL A   1      32.663  24.238  23.568  1.00  0.00     0.066 A 
ATOM     11  C   UNL A   1      32.101  24.692  22.326  1.00  0.00     0.039 A 
ATOM     12  C   UNL A   1      32.374  26.011  22.050  1.00  0.00     0.068 A 
ATOM     13  S   UNL A   1      33.289  26.735  23.284  1.00  0.00    -0.135 S 
BRANCH  10  14
ATOM     14  N   UNL A   1      32.485  22.958  24.107  1.00  0.00    -0.325 N 
ATOM     15  O   UNL A   1      32.625  21.720  22.145  1.00  0.00    -0.275 OA
ATOM     16  C   UNL A   1      32.397  21.795  23.350  1.00  0.00     0.224 C 
ATOM     17  H   UNL A   1      32.419  22.875  25.085  1.00  0.00     0.169 HD
BRANCH  16  18
ATOM     18  C   UNL A   1      32.011  20.550  24.136  1.00  0.00     0.105 C 
BRANCH  18  19
ATOM     19  C   UNL A   1      33.133  20.048  25.047  1.00  0.00     0.047 C 
BRANCH  19  20
ATOM     20  C   UNL A   1      33.306  18.556  24.948  1.00  0.00    -0.029 A 
ATOM     21  C   UNL A   1      34.300  17.992  24.145  1.00  0.00     0.007 A 
ATOM     22  C   UNL A   1      32.536  17.687  25.718  1.00  0.00     0.114 A 
ATOM     23  C   UNL A   1      34.542  16.624  24.200  1.00  0.00     0.020 A 
ATOM     24  N   UNL A   1      32.723  16.349  25.740  1.00  0.00    -0.264 NA
ATOM     25  C   UNL A   1      33.734  15.849  25.009  1.00  0.00     0.111 A 
ENDBRANCH  19  20
ENDBRANCH  18  19
ENDBRANCH  16  18
ENDBRANCH  10  14
ENDBRANCH   7   9
ENDBRANCH   6   7
ENDBRANCH   5   6
ENDBRANCH   4   5
ENDBRANCH   3   4
ENDBRANCH   2   3
ENDBRANCH   1   2
BRANCH   1  26
ATOM     26  O   UNL A   1      40.180  21.390  26.697  1.00  0.00    -0.377 OA
BRANCH  26  27
ATOM     27  C   UNL A   1      41.332  20.986  27.433  1.00  0.00     0.188 C 
BRANCH  27  28
ATOM     28  C   UNL A   1      42.288  20.109  26.611  1.00  0.00     0.188 C 
BRANCH  28  29
ATOM     29  O   UNL A   1      42.814  20.610  25.381  1.00  0.00    -0.376 OA
BRANCH  29  30
ATOM     30  C   UNL A   1      43.748  21.679  25.446  1.00  0.00     0.202 C 
BRANCH  30  31
ATOM     31  C   UNL A   1      43.240  22.947  24.735  1.00  0.00     0.261 C 
BRANCH  31  32
ATOM     32  O   UNL A   1      44.247  23.956  24.557  1.00  0.00    -0.460 OA
BRANCH  32  33
ATOM     33  C   UNL A   1      44.870  24.341  25.700  1.00  0.00     0.338 C 
ATOM     34  O   UNL A   1      46.010  24.076  26.046  1.00  0.00    -0.246 OA
BRANCH  33  35
ATOM     35  C   UNL A   1      43.983  25.238  26.472  1.00  0.00     0.060 A 
ATOM     36  C   UNL A   1      44.256  26.612  26.470  1.00  0.00     0.016 A 
ATOM     37  C   UNL A   1      42.941  24.727  27.252  1.00  0.00     0.016 A 
ATOM     38  C   UNL A   1      43.533  27.469  27.303  1.00  0.00     0.010 A 
ATOM     39  C   UNL A   1      42.227  25.583  28.094  1.00  0.00     0.010 A 
ATOM     40  C   UNL A   1      42.550  26.949  28.156  1.00  0.00    -0.014 A 
BRANCH  40  41
ATOM     41  C   UNL A   1      42.002  27.788  29.249  1.00  0.00     0.031 A 
ATOM     42  C   UNL A   1      42.665  27.728  30.600  1.00  0.00     0.074 A 
ATOM     43  C   UNL A   1      40.930  28.575  29.054  1.00  0.00     0.049 A 
ATOM     44  N   UNL A   1      42.367  28.373  31.697  1.00  0.00    -0.248 NA
ATOM     45  C   UNL A   1      43.818  26.819  30.729  1.00  0.00     0.031 C 
ATOM     46  C   UNL A   1      40.199  28.714  27.797  1.00  0.00     0.029 A 
ATOM     47  N   UNL A   1      40.257  29.390  29.930  1.00  0.00    -0.354 N 
ATOM     48  C   UNL A   1      43.287  27.945  32.648  1.00  0.00     0.074 A 
ATOM     49  C   UNL A   1      44.144  26.974  32.005  1.00  0.00     0.031 C 
ATOM     50  C   UNL A   1      39.154  29.539  27.990  1.00  0.00     0.029 A 
ATOM     51  C   UNL A   1      39.139  29.976  29.386  1.00  0.00     0.049 A 
ATOM     52  H   UNL A   1      40.548  29.541  30.858  1.00  0.00     0.167 HD
ATOM     53  C   UNL A   1      43.423  28.341  33.934  1.00  0.00     0.034 A 
ATOM     54  C   UNL A   1      38.205  30.765  29.957  1.00  0.00     0.034 A 
ATOM     55  C   UNL A   1      42.580  29.313  34.574  1.00  0.00     0.049 A 
ATOM     56  C   UNL A   1      38.365  31.174  31.400  1.00  0.00     0.074 A 
ATOM     57  C   UNL A   1      42.666  29.813  35.860  1.00  0.00     0.029 A 
ATOM     58  N   UNL A   1      41.491  29.925  33.976  1.00  0.00    -0.354 N 
ATOM     59  N   UNL A   1      39.327  30.879  32.240  1.00  0.00    -0.248 NA
ATOM     60  C   UNL A   1      37.329  32.053  31.964  1.00  0.00     0.031 C 
ATOM     61  C   UNL A   1      41.618  30.720  36.046  1.00  0.00     0.029 A 
ATOM     62  C   UNL A   1      40.887  30.790  34.870  1.00  0.00     0.049 A 
ATOM     63  H   UNL A   1      41.190  29.767  33.052  1.00  0.00     0.167 HD
ATOM     64  C   UNL A   1      39.034  31.564  33.416  1.00  0.00     0.074 A 
ATOM     65  C   UNL A   1      37.811  32.301  33.175  1.00  0.00     0.031 C 
ATOM     66  C   UNL A   1      39.707  31.569  34.594  1.00  0.00     0.034 A 
BRANCH  53  67
ATOM     67  C   UNL A   1      44.559  27.754  34.725  1.00  0.00     0.023 A 
ATOM     68  C   UNL A   1      45.823  28.375  34.673  1.00  0.00     0.012 A 
ATOM     69  C   UNL A   1      44.370  26.631  35.552  1.00  0.00     0.148 A 
ATOM     70  C   UNL A   1      46.889  27.874  35.417  1.00  0.00     0.002 A 
ATOM     71  C   UNL A   1      45.430  26.155  36.316  1.00  0.00     0.091 A 
ATOM     72  F   UNL A   1      43.167  26.039  35.563  1.00  0.00    -0.205 F 
ATOM     73  C   UNL A   1      46.691  26.772  36.246  1.00  0.00     0.022 A 
BRANCH  71  74
ATOM     74  S   UNL A   1      45.257  24.777  37.455  1.00  0.00     0.127 S 
ATOM     75  O   UNL A   1      45.377  23.633  36.555  1.00  0.00    -0.237 OA
ATOM     76  O   UNL A   1      46.398  24.970  38.352  1.00  0.00    -0.237 OA
ATOM     77  O   UNL A   1      43.956  24.946  38.088  1.00  0.00    -0.744 OA
ENDBRANCH  71  74
ENDBRANCH  53  67
BRANCH  54  78
ATOM     78  C   UNL A   1      37.056  31.256  29.146  1.00  0.00     0.023 A 
ATOM     79  C   UNL A   1      36.932  32.630  28.867  1.00  0.00     0.012 A 
ATOM     80  C   UNL A   1      36.097  30.365  28.627  1.00  0.00     0.148 A 
ATOM     81  C   UNL A   1      35.862  33.107  28.108  1.00  0.00     0.002 A 
ATOM     82  C   UNL A   1      35.063  30.841  27.828  1.00  0.00     0.091 A 
ATOM     83  F   UNL A   1      36.208  29.059  28.918  1.00  0.00    -0.205 F 
ATOM     84  C   UNL A   1      34.933  32.213  27.578  1.00  0.00     0.022 A 
BRANCH  82  85
ATOM     85  S   UNL A   1      33.930  29.695  27.034  1.00  0.00     0.127 S 
ATOM     86  O   UNL A   1      34.789  29.051  26.045  1.00  0.00    -0.237 OA
ATOM     87  O   UNL A   1      33.511  28.828  28.136  1.00  0.00    -0.237 OA
ATOM     88  O   UNL A   1      32.866  30.547  26.511  1.00  0.00    -0.744 OA
ENDBRANCH  82  85
ENDBRANCH  54  78
BRANCH  66  89
ATOM     89  C   UNL A   1      39.161  32.413  35.714  1.00  0.00     0.023 A 
ATOM     90  C   UNL A   1      38.199  31.869  36.586  1.00  0.00     0.012 A 
ATOM     91  C   UNL A   1      39.674  33.702  35.964  1.00  0.00     0.148 A 
ATOM     92  C   UNL A   1      37.739  32.603  37.679  1.00  0.00     0.002 A 
ATOM     93  C   UNL A   1      39.239  34.411  37.078  1.00  0.00     0.091 A 
ATOM     94  F   UNL A   1      40.574  34.211  35.111  1.00  0.00    -0.205 F 
ATOM     95  C   UNL A   1      38.268  33.867  37.934  1.00  0.00     0.022 A 
BRANCH  93  96
ATOM     96  S   UNL A   1      39.939  36.005  37.524  1.00  0.00     0.127 S 
ATOM     97  O   UNL A   1      39.837  36.740  36.265  1.00  0.00    -0.237 OA
ATOM     98  O   UNL A   1      39.031  36.468  38.576  1.00  0.00    -0.237 OA
ATOM     99  O   UNL A   1      41.293  35.726  37.984  1.00  0.00    -0.744 OA
ENDBRANCH  93  96
ENDBRANCH  66  89
ENDBRANCH  40  41
ENDBRANCH  33  35
ENDBRANCH  32  33
ENDBRANCH  31  32
ENDBRANCH  30  31
ENDBRANCH  29  30
ENDBRANCH  28  29
ENDBRANCH  27  28
ENDBRANCH  26  27
ENDBRANCH   1  26
TORSDOF 27
ENDMDL
MODEL 3
REMARK VINA RESULT:      -8.9      2.517      3.248
REMARK SMILES O=C(CCc1cccnc1)Nc1ccsc1C(=O)OCCOCCOCCOCCOC(=O)c1ccc(-c2c3nc(c(-c4cccc(S(=O)(=O)[O-])c4F)c4ccc([nH]4)c(-c4cccc(S(=O)(=O)[O-])c4F)c4nc(c(-c5cccc(S(=O)(=O)[O-])c5F)c5ccc2[nH]5)C=C4)C=C3)cc1
REMARK SMILES IDX 24 1 23 2 22 3 21 4 20 5 19 6 17 7 18 8 16 9 12 10 13 11
REMARK SMILES IDX 14 12 15 13 11 14 1 15 2 16 3 18 4 19 5 20 6 21 10 22 7 23
REMARK SMILES IDX 9 24 8 25 25 26 26 27 27 28 28 29 29 30 30 31 31 32 32 33
REMARK SMILES IDX 33 34 34 35 35 36 96 37 36 38 95 39 37 40 38 41 39 42 89 43
REMARK SMILES IDX 40 44 94 45 88 46 90 47 41 48 93 49 87 50 86 51 42 53 74 54
REMARK SMILES IDX 54 55 73 56 55 57 58 58 72 59 91 60 56 61 57 62 71 64 92 65
REMARK SMILES IDX 59 66 43 67 44 68 52 69 45 70 47 71 53 72 46 73 48 74 49 75
REMARK SMILES IDX 50 76 51 77 75 78 76 79 84 80 77 81 79 82 85 83 78 84 80 85
REMARK SMILES IDX 81 86 82 87 83 88 60 89 61 90 69 91 62 92 64 93 70 94 63 95
REMARK SMILES IDX 65 96 66 97 67 98 68 99
REMARK H PARENT 11 17 90 52 58 63
REMARK Flexibility Score: inf
ROOT
ATOM      1  C   UNL A   1      31.000  25.143  26.124  1.00  0.00     0.188 C 
ENDROOT
BRANCH   1   2
ATOM      2  C   UNL A   1      30.231  25.299  24.805  1.00  0.00     0.188 C 
BRANCH   2   3
ATOM      3  O   UNL A   1      30.780  24.688  23.638  1.00  0.00    -0.376 OA
BRANCH   3   4
ATOM      4  C   UNL A   1      31.404  25.509  22.651  1.00  0.00     0.202 C 
BRANCH   4   5
ATOM      5  C   UNL A   1      32.904  25.751  22.828  1.00  0.00     0.261 C 
BRANCH   5   6
ATOM      6  O   UNL A   1      33.427  24.758  23.730  1.00  0.00    -0.459 OA
BRANCH   6   7
ATOM      7  C   UNL A   1      33.825  23.593  23.149  1.00  0.00     0.350 C 
ATOM      8  O   UNL A   1      33.745  23.371  21.947  1.00  0.00    -0.245 OA
BRANCH   7   9
ATOM      9  C   UNL A   1      34.553  22.817  24.129  1.00  0.00     0.136 A 
ATOM     10  C   UNL A   1      34.434  21.502  24.567  1.00  0.00     0.066 A 
ATOM     11  C   UNL A   1      35.230  21.296  25.745  1.00  0.00     0.039 A 
ATOM     12  C   UNL A   1      35.942  22.408  26.128  1.00  0.00     0.068 A 
ATOM     13  S   UNL A   1      35.686  23.712  25.070  1.00  0.00    -0.135 S 
BRANCH  10  14
ATOM     14  N   UNL A   1      33.663  20.515  23.939  1.00  0.00    -0.325 N 
ATOM     15  O   UNL A   1      31.763  20.643  25.270  1.00  0.00    -0.275 OA
ATOM     16  C   UNL A   1      32.414  20.097  24.383  1.00  0.00     0.224 C 
ATOM     17  H   UNL A   1      34.029  20.090  23.130  1.00  0.00     0.169 HD
BRANCH  16  18
ATOM     18  C   UNL A   1      31.853  18.883  23.658  1.00  0.00     0.105 C 
BRANCH  18  19
ATOM     19  C   UNL A   1      32.913  18.122  22.858  1.00  0.00     0.047 C 
BRANCH  19  20
ATOM     20  C   UNL A   1      33.663  17.140  23.718  1.00  0.00    -0.029 A 
ATOM     21  C   UNL A   1      34.987  17.371  24.099  1.00  0.00     0.007 A 
ATOM     22  C   UNL A   1      33.037  16.008  24.234  1.00  0.00     0.114 A 
ATOM     23  C   UNL A   1      35.598  16.533  25.024  1.00  0.00     0.020 A 
ATOM     24  N   UNL A   1      33.637  15.152  25.091  1.00  0.00    -0.264 NA
ATOM     25  C   UNL A   1      34.887  15.445  25.490  1.00  0.00     0.111 A 
ENDBRANCH  19  20
ENDBRANCH  18  19
ENDBRANCH  16  18
ENDBRANCH  10  14
ENDBRANCH   7   9
ENDBRANCH   6   7
ENDBRANCH   5   6
ENDBRANCH   4   5
ENDBRANCH   3   4
ENDBRANCH   2   3
ENDBRANCH   1   2
BRANCH   1  26
ATOM     26  O   UNL A   1      31.279  26.368  26.785  1.00  0.00    -0.377 OA
BRANCH  26  27
ATOM     27  C   UNL A   1      31.043  27.545  26.016  1.00  0.00     0.188 C 
BRANCH  27  28
ATOM     28  C   UNL A   1      31.934  28.723  26.439  1.00  0.00     0.188 C 
BRANCH  28  29
ATOM     29  O   UNL A   1      31.866  29.948  25.708  1.00  0.00    -0.376 OA
BRANCH  29  30
ATOM     30  C   UNL A   1      31.679  31.150  26.443  1.00  0.00     0.202 C 
BRANCH  30  31
ATOM     31  C   UNL A   1      32.923  31.538  27.261  1.00  0.00     0.261 C 
BRANCH  31  32
ATOM     32  O   UNL A   1      33.427  32.850  26.964  1.00  0.00    -0.460 OA
BRANCH  32  33
ATOM     33  C   UNL A   1      33.373  33.726  28.000  1.00  0.00     0.338 C 
ATOM     34  O   UNL A   1      32.524  34.579  28.204  1.00  0.00    -0.246 OA
BRANCH  33  35
ATOM     35  C   UNL A   1      34.478  33.449  28.944  1.00  0.00     0.060 A 
ATOM     36  C   UNL A   1      35.775  33.836  28.585  1.00  0.00     0.016 A 
ATOM     37  C   UNL A   1      34.253  32.747  30.132  1.00  0.00     0.016 A 
ATOM     38  C   UNL A   1      36.861  33.461  29.380  1.00  0.00     0.010 A 
ATOM     39  C   UNL A   1      35.341  32.361  30.920  1.00  0.00     0.010 A 
ATOM     40  C   UNL A   1      36.651  32.677  30.523  1.00  0.00    -0.014 A 
BRANCH  40  41
ATOM     41  C   UNL A   1      37.802  32.022  31.190  1.00  0.00     0.031 A 
ATOM     42  C   UNL A   1      38.553  30.954  30.439  1.00  0.00     0.074 A 
ATOM     43  C   UNL A   1      38.165  32.354  32.441  1.00  0.00     0.049 A 
ATOM     44  N   UNL A   1      39.590  30.252  30.814  1.00  0.00    -0.248 NA
ATOM     45  C   UNL A   1      38.070  30.638  29.083  1.00  0.00     0.031 C 
ATOM     46  C   UNL A   1      37.514  33.363  33.272  1.00  0.00     0.029 A 
ATOM     47  N   UNL A   1      39.164  31.850  33.238  1.00  0.00    -0.354 N 
ATOM     48  C   UNL A   1      39.880  29.408  29.749  1.00  0.00     0.074 A 
ATOM     49  C   UNL A   1      38.901  29.671  28.718  1.00  0.00     0.031 C 
ATOM     50  C   UNL A   1      38.109  33.383  34.479  1.00  0.00     0.029 A 
ATOM     51  C   UNL A   1      39.174  32.380  34.506  1.00  0.00     0.049 A 
ATOM     52  H   UNL A   1      39.811  31.175  32.931  1.00  0.00     0.167 HD
ATOM     53  C   UNL A   1      40.883  28.508  29.628  1.00  0.00     0.034 A 
ATOM     54  C   UNL A   1      39.947  32.078  35.570  1.00  0.00     0.034 A 
ATOM     55  C   UNL A   1      41.864  28.250  30.646  1.00  0.00     0.049 A 
ATOM     56  C   UNL A   1      41.045  31.055  35.418  1.00  0.00     0.074 A 
ATOM     57  C   UNL A   1      42.945  27.390  30.600  1.00  0.00     0.029 A 
ATOM     58  N   UNL A   1      41.874  28.844  31.897  1.00  0.00    -0.354 N 
ATOM     59  N   UNL A   1      41.399  30.375  34.354  1.00  0.00    -0.248 NA
ATOM     60  C   UNL A   1      41.872  30.781  36.603  1.00  0.00     0.031 C 
ATOM     61  C   UNL A   1      43.605  27.455  31.833  1.00  0.00     0.029 A 
ATOM     62  C   UNL A   1      42.937  28.362  32.640  1.00  0.00     0.049 A 
ATOM     63  H   UNL A   1      41.221  29.510  32.213  1.00  0.00     0.167 HD
ATOM     64  C   UNL A   1      42.510  29.625  34.730  1.00  0.00     0.074 A 
ATOM     65  C   UNL A   1      42.779  29.944  36.116  1.00  0.00     0.031 C 
ATOM     66  C   UNL A   1      43.231  28.740  33.998  1.00  0.00     0.034 A 
BRANCH  53  67
ATOM     67  C   UNL A   1      40.999  27.768  28.324  1.00  0.00     0.023 A 
ATOM     68  C   UNL A   1      41.491  28.448  27.192  1.00  0.00     0.012 A 
ATOM     69  C   UNL A   1      40.675  26.401  28.229  1.00  0.00     0.148 A 
ATOM     70  C   UNL A   1      41.639  27.783  25.976  1.00  0.00     0.002 A 
ATOM     71  C   UNL A   1      40.856  25.737  27.021  1.00  0.00     0.091 A 
ATOM     72  F   UNL A   1      40.183  25.783  29.311  1.00  0.00    -0.205 F 
ATOM     73  C   UNL A   1      41.332  26.427  25.893  1.00  0.00     0.022 A 
BRANCH  71  74
ATOM     74  S   UNL A   1      40.542  23.979  26.830  1.00  0.00     0.127 S 
ATOM     75  O   UNL A   1      40.852  23.477  28.167  1.00  0.00    -0.237 OA
ATOM     76  O   UNL A   1      39.120  23.952  26.483  1.00  0.00    -0.237 OA
ATOM     77  O   UNL A   1      41.431  23.530  25.768  1.00  0.00    -0.744 OA
ENDBRANCH  71  74
ENDBRANCH  53  67
BRANCH  54  78
ATOM     78  C   UNL A   1      39.737  32.788  36.862  1.00  0.00     0.023 A 
ATOM     79  C   UNL A   1      40.510  33.923  37.171  1.00  0.00     0.012 A 
ATOM     80  C   UNL A   1      38.756  32.361  37.777  1.00  0.00     0.148 A 
ATOM     81  C   UNL A   1      40.326  34.601  38.378  1.00  0.00     0.002 A 
ATOM     82  C   UNL A   1      38.542  33.072  38.953  1.00  0.00     0.091 A 
ATOM     83  F   UNL A   1      38.039  31.264  37.487  1.00  0.00    -0.205 F 
ATOM     84  C   UNL A   1      39.335  34.184  39.264  1.00  0.00     0.022 A 
BRANCH  82  85
ATOM     85  S   UNL A   1      37.189  32.627  40.048  1.00  0.00     0.127 S 
ATOM     86  O   UNL A   1      36.041  32.662  39.147  1.00  0.00    -0.237 OA
ATOM     87  O   UNL A   1      37.563  31.289  40.509  1.00  0.00    -0.237 OA
ATOM     88  O   UNL A   1      37.224  33.647  41.093  1.00  0.00    -0.744 OA
ENDBRANCH  82  85
ENDBRANCH  54  78
BRANCH  66  89
ATOM     89  C   UNL A   1      44.400  28.064  34.662  1.00  0.00     0.023 A 
ATOM     90  C   UNL A   1      45.600  28.777  34.846  1.00  0.00     0.012 A 
ATOM     91  C   UNL A   1      44.279  26.765  35.194  1.00  0.00     0.148 A 
ATOM     92  C   UNL A   1      46.669  28.200  35.530  1.00  0.00     0.002 A 
ATOM     93  C   UNL A   1      45.335  26.212  35.909  1.00  0.00     0.091 A 
ATOM     94  F   UNL A   1      43.136  26.092  34.991  1.00  0.00    -0.205 F 
ATOM     95  C   UNL A   1      46.533  26.925  36.073  1.00  0.00     0.022 A 
BRANCH  93  96
ATOM     96  S   UNL A   1      45.203  24.611  36.717  1.00  0.00     0.127 S 
ATOM     97  O   UNL A   1      44.076  24.824  37.622  1.00  0.00    -0.237 OA
ATOM     98  O   UNL A   1      44.924  23.711  35.596  1.00  0.00    -0.237 OA
ATOM     99  O   UNL A   1      46.494  24.386  37.356  1.00  0.00    -0.744 OA
ENDBRANCH  93  96
ENDBRANCH  66  89
ENDBRANCH  40  41
ENDBRANCH  33  35
ENDBRANCH  32  33
ENDBRANCH  31  32
ENDBRANCH  30  31
ENDBRANCH  29  30
ENDBRANCH  28  29
ENDBRANCH  27  28
ENDBRANCH  26  27
ENDBRANCH   1  26
TORSDOF 27
ENDMDL
