MODEL 1
REMARK VINA RESULT:     -10.0      0.000      0.000
REMARK SMILES C[C@H](O)Cn1c(C2CCCCC2)nc2cc(C(=O)OCCOCCOCCOCCOC(=O)c3ccc(-c4c5nc(c(-c6cccc(S(=O)(=O)[O-])c6F)c6ccc([nH]6)c(-c6cccc(S(=O)(=O)[O-])c6F)c6nc(c(-c7cccc(S(=O)(=O)[O-])c7F)c7ccc4[nH]7)C=C6)C=C5)cc3)ccc21
REMARK SMILES IDX 25 1 24 2 23 3 22 4 21 5 20 6 19 7 17 8 18 9 16 10 5 11 6 12
REMARK SMILES IDX 99 13 13 14 14 15 98 16 15 17 97 18 4 19 2 20 1 21 3 22 7 24
REMARK SMILES IDX 8 25 12 26 9 27 11 28 10 29 26 30 27 31 28 32 29 33 30 34
REMARK SMILES IDX 31 35 32 36 33 37 34 38 35 39 96 40 36 41 95 42 37 43 38 44
REMARK SMILES IDX 39 45 89 46 40 47 94 48 88 49 90 50 41 51 93 52 87 53 86 54
REMARK SMILES IDX 42 56 74 57 54 58 73 59 55 60 58 61 72 62 91 63 56 64 57 65
REMARK SMILES IDX 71 67 92 68 59 69 43 70 44 71 52 72 45 73 47 74 53 75 46 76
REMARK SMILES IDX 48 77 49 78 50 79 51 80 75 81 76 82 84 83 77 84 79 85 85 86
REMARK SMILES IDX 78 87 80 88 81 89 82 90 83 91 60 92 61 93 69 94 62 95 64 96
REMARK SMILES IDX 70 97 63 98 65 99 66 100 67 101 68 102
REMARK H PARENT 3 23 90 55 58 66
REMARK Flexibility Score: inf
ROOT
ATOM      1  O   UNL A   1      32.412  28.866  27.152  1.00  0.00    -0.377 OA
ENDROOT
BRANCH   1   2
ATOM      2  C   UNL A   1      32.813  27.918  26.184  1.00  0.00     0.188 C 
BRANCH   2   3
ATOM      3  C   UNL A   1      33.149  28.488  24.798  1.00  0.00     0.188 C 
BRANCH   3   4
ATOM      4  O   UNL A   1      32.216  29.448  24.343  1.00  0.00    -0.376 OA
BRANCH   4   5
ATOM      5  C   UNL A   1      30.952  29.037  23.845  1.00  0.00     0.202 C 
BRANCH   5   6
ATOM      6  C   UNL A   1      30.780  28.472  22.423  1.00  0.00     0.261 C 
BRANCH   6   7
ATOM      7  O   UNL A   1      30.222  27.160  22.320  1.00  0.00    -0.460 OA
BRANCH   7   8
ATOM      8  C   UNL A   1      29.475  26.738  23.358  1.00  0.00     0.338 C 
ATOM      9  O   UNL A   1      28.315  27.028  23.592  1.00  0.00    -0.246 OA
BRANCH   8  10
ATOM     10  C   UNL A   1      30.215  25.651  24.039  1.00  0.00     0.062 A 
ATOM     11  N   UNL A   1      32.314  22.381  25.427  1.00  0.00    -0.325 N 
ATOM     12  C   UNL A   1      32.556  21.792  24.190  1.00  0.00     0.113 A 
ATOM     13  C   UNL A   1      31.670  23.592  25.189  1.00  0.00     0.068 A 
ATOM     14  N   UNL A   1      32.005  22.509  23.228  1.00  0.00    -0.233 NA
ATOM     15  C   UNL A   1      31.423  23.583  23.823  1.00  0.00     0.090 A 
ATOM     16  C   UNL A   1      31.260  24.659  26.007  1.00  0.00     0.029 A 
ATOM     17  C   UNL A   1      30.665  24.598  23.234  1.00  0.00     0.046 A 
ATOM     18  C   UNL A   1      30.539  25.700  25.400  1.00  0.00     0.018 A 
BRANCH  11  19
ATOM     19  C   UNL A   1      32.585  21.881  26.776  1.00  0.00     0.155 C 
BRANCH  19  20
ATOM     20  C   UNL A   1      33.841  22.475  27.435  1.00  0.00     0.131 C 
ATOM     21  C   UNL A   1      34.782  23.180  26.461  1.00  0.00     0.040 C 
BRANCH  20  22
ATOM     22  O   UNL A   1      34.613  21.425  28.016  1.00  0.00    -0.392 OA
ATOM     23  H   UNL A   1      34.035  20.673  28.220  1.00  0.00     0.211 HD
ENDBRANCH  20  22
ENDBRANCH  19  20
ENDBRANCH  11  19
BRANCH  12  24
ATOM     24  C   UNL A   1      33.214  20.474  23.848  1.00  0.00     0.056 C 
ATOM     25  C   UNL A   1      34.344  20.040  24.779  1.00  0.00     0.011 C 
ATOM     26  C   UNL A   1      32.151  19.419  23.500  1.00  0.00     0.011 C 
ATOM     27  C   UNL A   1      34.856  18.643  24.446  1.00  0.00     0.001 C 
ATOM     28  C   UNL A   1      32.650  17.980  23.421  1.00  0.00     0.001 C 
ATOM     29  C   UNL A   1      33.728  17.622  24.435  1.00  0.00     0.000 C 
ENDBRANCH  12  24
ENDBRANCH   8  10
ENDBRANCH   7   8
ENDBRANCH   6   7
ENDBRANCH   5   6
ENDBRANCH   4   5
ENDBRANCH   3   4
ENDBRANCH   2   3
ENDBRANCH   1   2
BRANCH   1  30
ATOM     30  C   UNL A   1      33.384  29.779  27.657  1.00  0.00     0.188 C 
BRANCH  30  31
ATOM     31  C   UNL A   1      33.443  31.262  27.224  1.00  0.00     0.188 C 
BRANCH  31  32
ATOM     32  O   UNL A   1      33.992  32.110  28.222  1.00  0.00    -0.376 OA
BRANCH  32  33
ATOM     33  C   UNL A   1      35.339  32.516  28.031  1.00  0.00     0.202 C 
BRANCH  33  34
ATOM     34  C   UNL A   1      35.868  33.593  28.992  1.00  0.00     0.261 C 
BRANCH  34  35
ATOM     35  O   UNL A   1      36.786  33.093  29.980  1.00  0.00    -0.460 OA
BRANCH  35  36
ATOM     36  C   UNL A   1      36.465  31.977  30.683  1.00  0.00     0.338 C 
ATOM     37  O   UNL A   1      35.396  31.717  31.182  1.00  0.00    -0.246 OA
BRANCH  36  38
ATOM     38  C   UNL A   1      37.564  31.007  30.400  1.00  0.00     0.060 A 
ATOM     39  C   UNL A   1      37.448  29.654  30.734  1.00  0.00     0.016 A 
ATOM     40  C   UNL A   1      38.819  31.556  30.099  1.00  0.00     0.016 A 
ATOM     41  C   UNL A   1      38.606  28.891  30.887  1.00  0.00     0.010 A 
ATOM     42  C   UNL A   1      39.976  30.792  30.267  1.00  0.00     0.010 A 
ATOM     43  C   UNL A   1      39.877  29.469  30.701  1.00  0.00    -0.014 A 
BRANCH  43  44
ATOM     44  C   UNL A   1      41.043  28.567  30.698  1.00  0.00     0.031 A 
ATOM     45  C   UNL A   1      41.626  28.439  32.061  1.00  0.00     0.074 A 
ATOM     46  C   UNL A   1      41.493  27.771  29.702  1.00  0.00     0.049 A 
ATOM     47  N   UNL A   1      42.792  28.812  32.480  1.00  0.00    -0.248 NA
ATOM     48  C   UNL A   1      40.712  27.982  33.122  1.00  0.00     0.031 C 
ATOM     49  C   UNL A   1      40.841  27.506  28.420  1.00  0.00     0.029 A 
ATOM     50  N   UNL A   1      42.587  26.938  29.668  1.00  0.00    -0.354 N 
ATOM     51  C   UNL A   1      42.826  28.427  33.818  1.00  0.00     0.074 A 
ATOM     52  C   UNL A   1      41.478  28.104  34.203  1.00  0.00     0.031 C 
ATOM     53  C   UNL A   1      41.438  26.452  27.818  1.00  0.00     0.029 A 
ATOM     54  C   UNL A   1      42.564  26.011  28.623  1.00  0.00     0.049 A 
ATOM     55  H   UNL A   1      43.321  26.990  30.322  1.00  0.00     0.167 HD
ATOM     56  C   UNL A   1      43.986  28.116  34.450  1.00  0.00     0.034 A 
ATOM     57  C   UNL A   1      43.363  24.923  28.463  1.00  0.00     0.034 A 
ATOM     58  C   UNL A   1      45.145  28.538  33.727  1.00  0.00     0.049 A 
ATOM     59  C   UNL A   1      44.574  25.125  29.289  1.00  0.00     0.074 A 
ATOM     60  C   UNL A   1      45.789  29.725  33.464  1.00  0.00     0.029 A 
ATOM     61  N   UNL A   1      45.621  27.602  32.849  1.00  0.00    -0.354 N 
ATOM     62  N   UNL A   1      45.497  26.004  29.023  1.00  0.00    -0.248 NA
ATOM     63  C   UNL A   1      44.681  24.470  30.588  1.00  0.00     0.031 C 
ATOM     64  C   UNL A   1      46.520  29.516  32.260  1.00  0.00     0.029 A 
ATOM     65  C   UNL A   1      46.300  28.209  31.830  1.00  0.00     0.049 A 
ATOM     66  H   UNL A   1      45.493  26.630  32.941  1.00  0.00     0.167 HD
ATOM     67  C   UNL A   1      46.026  26.314  30.260  1.00  0.00     0.074 A 
ATOM     68  C   UNL A   1      45.633  25.226  31.139  1.00  0.00     0.031 C 
ATOM     69  C   UNL A   1      46.438  27.578  30.536  1.00  0.00     0.034 A 
BRANCH  56  70
ATOM     70  C   UNL A   1      44.076  27.030  35.490  1.00  0.00     0.023 A 
ATOM     71  C   UNL A   1      43.373  25.831  35.274  1.00  0.00     0.012 A 
ATOM     72  C   UNL A   1      44.603  27.253  36.783  1.00  0.00     0.148 A 
ATOM     73  C   UNL A   1      43.226  24.884  36.296  1.00  0.00     0.002 A 
ATOM     74  C   UNL A   1      44.533  26.275  37.764  1.00  0.00     0.091 A 
ATOM     75  F   UNL A   1      45.052  28.471  37.113  1.00  0.00    -0.205 F 
ATOM     76  C   UNL A   1      43.826  25.094  37.533  1.00  0.00     0.022 A 
BRANCH  74  77
ATOM     77  S   UNL A   1      45.346  26.490  39.350  1.00  0.00     0.127 S 
ATOM     78  O   UNL A   1      44.530  27.534  39.960  1.00  0.00    -0.237 OA
ATOM     79  O   UNL A   1      45.202  25.160  39.944  1.00  0.00    -0.237 OA
ATOM     80  O   UNL A   1      46.721  26.849  39.027  1.00  0.00    -0.744 OA
ENDBRANCH  74  77
ENDBRANCH  56  70
BRANCH  57  81
ATOM     81  C   UNL A   1      43.161  23.620  27.765  1.00  0.00     0.023 A 
ATOM     82  C   UNL A   1      41.890  23.000  27.818  1.00  0.00     0.012 A 
ATOM     83  C   UNL A   1      44.084  23.134  26.816  1.00  0.00     0.148 A 
ATOM     84  C   UNL A   1      41.526  21.995  26.913  1.00  0.00     0.002 A 
ATOM     85  C   UNL A   1      43.721  22.123  25.925  1.00  0.00     0.091 A 
ATOM     86  F   UNL A   1      45.281  23.724  26.712  1.00  0.00    -0.205 F 
ATOM     87  C   UNL A   1      42.437  21.567  25.955  1.00  0.00     0.022 A 
BRANCH  85  88
ATOM     88  S   UNL A   1      44.855  21.534  24.659  1.00  0.00     0.127 S 
ATOM     89  O   UNL A   1      44.757  22.581  23.641  1.00  0.00    -0.237 OA
ATOM     90  O   UNL A   1      46.123  21.502  25.382  1.00  0.00    -0.237 OA
ATOM     91  O   UNL A   1      44.323  20.245  24.236  1.00  0.00    -0.744 OA
ENDBRANCH  85  88
ENDBRANCH  57  81
BRANCH  69  92
ATOM     92  C   UNL A   1      46.838  28.446  29.384  1.00  0.00     0.023 A 
ATOM     93  C   UNL A   1      48.085  28.331  28.741  1.00  0.00     0.012 A 
ATOM     94  C   UNL A   1      45.865  29.314  28.862  1.00  0.00     0.148 A 
ATOM     95  C   UNL A   1      48.354  29.078  27.592  1.00  0.00     0.002 A 
ATOM     96  C   UNL A   1      46.121  30.018  27.697  1.00  0.00     0.091 A 
ATOM     97  F   UNL A   1      44.690  29.403  29.504  1.00  0.00    -0.205 F 
ATOM     98  C   UNL A   1      47.367  29.908  27.060  1.00  0.00     0.022 A 
BRANCH  96  99
ATOM     99  S   UNL A   1      44.860  31.013  26.900  1.00  0.00     0.127 S 
ATOM    100  O   UNL A   1      44.648  32.081  27.875  1.00  0.00    -0.237 OA
ATOM    101  O   UNL A   1      45.531  31.430  25.668  1.00  0.00    -0.237 OA
ATOM    102  O   UNL A   1      43.718  30.131  26.690  1.00  0.00    -0.744 OA
ENDBRANCH  96  99
ENDBRANCH  69  92
ENDBRANCH  43  44
ENDBRANCH  36  38
ENDBRANCH  35  36
ENDBRANCH  34  35
ENDBRANCH  33  34
ENDBRANCH  32  33
ENDBRANCH  31  32
ENDBRANCH  30  31
ENDBRANCH   1  30
TORSDOF 27
ENDMDL
MODEL 2
REMARK VINA RESULT:      -9.9      3.588      9.107
REMARK SMILES C[C@H](O)Cn1c(C2CCCCC2)nc2cc(C(=O)OCCOCCOCCOCCOC(=O)c3ccc(-c4c5nc(c(-c6cccc(S(=O)(=O)[O-])c6F)c6ccc([nH]6)c(-c6cccc(S(=O)(=O)[O-])c6F)c6nc(c(-c7cccc(S(=O)(=O)[O-])c7F)c7ccc4[nH]7)C=C6)C=C5)cc3)ccc21
REMARK SMILES IDX 25 1 24 2 23 3 22 4 21 5 20 6 19 7 17 8 18 9 16 10 5 11 6 12
REMARK SMILES IDX 99 13 13 14 14 15 98 16 15 17 97 18 4 19 2 20 1 21 3 22 7 24
REMARK SMILES IDX 8 25 12 26 9 27 11 28 10 29 26 30 27 31 28 32 29 33 30 34
REMARK SMILES IDX 31 35 32 36 33 37 34 38 35 39 96 40 36 41 95 42 37 43 38 44
REMARK SMILES IDX 39 45 89 46 40 47 94 48 88 49 90 50 41 51 93 52 87 53 86 54
REMARK SMILES IDX 42 56 74 57 54 58 73 59 55 60 58 61 72 62 91 63 56 64 57 65
REMARK SMILES IDX 71 67 92 68 59 69 43 70 44 71 52 72 45 73 47 74 53 75 46 76
REMARK SMILES IDX 48 77 49 78 50 79 51 80 75 81 76 82 84 83 77 84 79 85 85 86
REMARK SMILES IDX 78 87 80 88 81 89 82 90 83 91 60 92 61 93 69 94 62 95 64 96
REMARK SMILES IDX 70 97 63 98 65 99 66 100 67 101 68 102
REMARK H PARENT 3 23 90 55 58 66
REMARK Flexibility Score: inf
ROOT
ATOM      1  O   UNL A   1      38.859  23.363  26.692  1.00  0.00    -0.377 OA
ENDROOT
BRANCH   1   2
ATOM      2  C   UNL A   1      37.791  23.272  25.772  1.00  0.00     0.188 C 
BRANCH   2   3
ATOM      3  C   UNL A   1      37.391  21.848  25.360  1.00  0.00     0.188 C 
BRANCH   3   4
ATOM      4  O   UNL A   1      36.171  21.419  25.934  1.00  0.00    -0.376 OA
BRANCH   4   5
ATOM      5  C   UNL A   1      35.306  20.554  25.213  1.00  0.00     0.202 C 
BRANCH   5   6
ATOM      6  C   UNL A   1      33.962  21.039  24.639  1.00  0.00     0.261 C 
BRANCH   6   7
ATOM      7  O   UNL A   1      34.028  21.969  23.555  1.00  0.00    -0.460 OA
BRANCH   7   8
ATOM      8  C   UNL A   1      32.855  22.425  23.076  1.00  0.00     0.338 C 
ATOM      9  O   UNL A   1      31.913  21.758  22.687  1.00  0.00    -0.246 OA
BRANCH   8  10
ATOM     10  C   UNL A   1      32.793  23.881  23.338  1.00  0.00     0.062 A 
ATOM     11  N   UNL A   1      32.102  27.918  23.837  1.00  0.00    -0.325 N 
ATOM     12  C   UNL A   1      30.780  27.923  23.404  1.00  0.00     0.113 A 
ATOM     13  C   UNL A   1      32.531  26.594  23.838  1.00  0.00     0.068 A 
ATOM     14  N   UNL A   1      30.416  26.708  23.038  1.00  0.00    -0.233 NA
ATOM     15  C   UNL A   1      31.483  25.896  23.253  1.00  0.00     0.090 A 
ATOM     16  C   UNL A   1      33.708  25.948  24.253  1.00  0.00     0.029 A 
ATOM     17  C   UNL A   1      31.612  24.535  22.966  1.00  0.00     0.046 A 
ATOM     18  C   UNL A   1      33.812  24.570  24.005  1.00  0.00     0.018 A 
BRANCH  11  19
ATOM     19  C   UNL A   1      32.981  29.035  24.186  1.00  0.00     0.155 C 
BRANCH  19  20
ATOM     20  C   UNL A   1      33.022  29.368  25.688  1.00  0.00     0.131 C 
ATOM     21  C   UNL A   1      34.173  28.707  26.441  1.00  0.00     0.040 C 
BRANCH  20  22
ATOM     22  O   UNL A   1      31.833  28.886  26.311  1.00  0.00    -0.392 OA
ATOM     23  H   UNL A   1      31.075  29.413  26.015  1.00  0.00     0.211 HD
ENDBRANCH  20  22
ENDBRANCH  19  20
ENDBRANCH  11  19
BRANCH  12  24
ATOM     24  C   UNL A   1      29.823  29.077  23.201  1.00  0.00     0.056 C 
ATOM     25  C   UNL A   1      30.194  30.054  22.087  1.00  0.00     0.011 C 
ATOM     26  C   UNL A   1      28.369  28.578  23.237  1.00  0.00     0.011 C 
ATOM     27  C   UNL A   1      29.110  31.102  21.860  1.00  0.00     0.001 C 
ATOM     28  C   UNL A   1      27.317  29.574  22.759  1.00  0.00     0.001 C 
ATOM     29  C   UNL A   1      27.756  30.458  21.599  1.00  0.00     0.000 C 
ENDBRANCH  12  24
ENDBRANCH   8  10
ENDBRANCH   7   8
ENDBRANCH   6   7
ENDBRANCH   5   6
ENDBRANCH   4   5
ENDBRANCH   3   4
ENDBRANCH   2   3
ENDBRANCH   1   2
BRANCH   1  30
ATOM     30  C   UNL A   1      39.711  22.232  26.863  1.00  0.00     0.188 C 
BRANCH  30  31
ATOM     31  C   UNL A   1      41.239  22.358  27.066  1.00  0.00     0.188 C 
BRANCH  31  32
ATOM     32  O   UNL A   1      41.965  22.337  25.846  1.00  0.00    -0.376 OA
BRANCH  32  33
ATOM     33  C   UNL A   1      43.055  21.432  25.780  1.00  0.00     0.202 C 
BRANCH  33  34
ATOM     34  C   UNL A   1      44.380  22.000  25.245  1.00  0.00     0.261 C 
BRANCH  34  35
ATOM     35  O   UNL A   1      44.818  23.193  25.919  1.00  0.00    -0.460 OA
BRANCH  35  36
ATOM     36  C   UNL A   1      45.423  24.177  25.205  1.00  0.00     0.338 C 
ATOM     37  O   UNL A   1      45.975  24.063  24.136  1.00  0.00    -0.246 OA
BRANCH  36  38
ATOM     38  C   UNL A   1      44.957  25.452  25.824  1.00  0.00     0.060 A 
ATOM     39  C   UNL A   1      45.860  26.385  26.344  1.00  0.00     0.016 A 
ATOM     40  C   UNL A   1      43.597  25.524  26.157  1.00  0.00     0.016 A 
ATOM     41  C   UNL A   1      45.414  27.305  27.293  1.00  0.00     0.010 A 
ATOM     42  C   UNL A   1      43.158  26.438  27.118  1.00  0.00     0.010 A 
ATOM     43  C   UNL A   1      44.072  27.305  27.719  1.00  0.00    -0.014 A 
BRANCH  43  44
ATOM     44  C   UNL A   1      43.630  28.415  28.582  1.00  0.00     0.031 A 
ATOM     45  C   UNL A   1      43.557  27.992  30.007  1.00  0.00     0.074 A 
ATOM     46  C   UNL A   1      43.466  29.719  28.263  1.00  0.00     0.049 A 
ATOM     47  N   UNL A   1      42.518  27.904  30.772  1.00  0.00    -0.248 NA
ATOM     48  C   UNL A   1      44.794  27.443  30.588  1.00  0.00     0.031 C 
ATOM     49  C   UNL A   1      43.828  30.373  27.006  1.00  0.00     0.029 A 
ATOM     50  N   UNL A   1      43.036  30.768  29.042  1.00  0.00    -0.354 N 
ATOM     51  C   UNL A   1      43.021  27.493  32.003  1.00  0.00     0.074 A 
ATOM     52  C   UNL A   1      44.371  27.046  31.786  1.00  0.00     0.031 C 
ATOM     53  C   UNL A   1      43.782  31.716  27.165  1.00  0.00     0.029 A 
ATOM     54  C   UNL A   1      43.312  32.027  28.504  1.00  0.00     0.049 A 
ATOM     55  H   UNL A   1      42.575  30.643  29.903  1.00  0.00     0.167 HD
ATOM     56  C   UNL A   1      42.412  27.810  33.174  1.00  0.00     0.034 A 
ATOM     57  C   UNL A   1      43.228  33.231  29.129  1.00  0.00     0.034 A 
ATOM     58  C   UNL A   1      41.078  28.294  32.995  1.00  0.00     0.049 A 
ATOM     59  C   UNL A   1      42.344  33.072  30.303  1.00  0.00     0.074 A 
ATOM     60  C   UNL A   1      39.850  27.761  32.681  1.00  0.00     0.029 A 
ATOM     61  N   UNL A   1      40.999  29.650  32.833  1.00  0.00    -0.354 N 
ATOM     62  N   UNL A   1      41.059  32.876  30.225  1.00  0.00    -0.248 NA
ATOM     63  C   UNL A   1      42.926  32.914  31.632  1.00  0.00     0.031 C 
ATOM     64  C   UNL A   1      39.090  28.830  32.125  1.00  0.00     0.029 A 
ATOM     65  C   UNL A   1      39.879  29.978  32.122  1.00  0.00     0.049 A 
ATOM     66  H   UNL A   1      41.656  30.296  33.180  1.00  0.00     0.167 HD
ATOM     67  C   UNL A   1      40.760  32.168  31.372  1.00  0.00     0.074 A 
ATOM     68  C   UNL A   1      41.881  32.385  32.271  1.00  0.00     0.031 C 
ATOM     69  C   UNL A   1      39.804  31.203  31.357  1.00  0.00     0.034 A 
BRANCH  56  70
ATOM     70  C   UNL A   1      43.182  28.114  34.432  1.00  0.00     0.023 A 
ATOM     71  C   UNL A   1      42.914  27.353  35.585  1.00  0.00     0.012 A 
ATOM     72  C   UNL A   1      43.955  29.287  34.591  1.00  0.00     0.148 A 
ATOM     73  C   UNL A   1      43.419  27.732  36.836  1.00  0.00     0.002 A 
ATOM     74  C   UNL A   1      44.527  29.610  35.813  1.00  0.00     0.091 A 
ATOM     75  F   UNL A   1      44.024  30.174  33.590  1.00  0.00    -0.205 F 
ATOM     76  C   UNL A   1      44.245  28.846  36.946  1.00  0.00     0.022 A 
BRANCH  74  77
ATOM     77  S   UNL A   1      45.643  31.006  35.977  1.00  0.00     0.127 S 
ATOM     78  O   UNL A   1      44.763  32.125  35.660  1.00  0.00    -0.237 OA
ATOM     79  O   UNL A   1      46.044  30.907  37.381  1.00  0.00    -0.237 OA
ATOM     80  O   UNL A   1      46.722  30.744  35.032  1.00  0.00    -0.744 OA
ENDBRANCH  74  77
ENDBRANCH  56  70
BRANCH  57  81
ATOM     81  C   UNL A   1      43.936  34.528  28.915  1.00  0.00     0.023 A 
ATOM     82  C   UNL A   1      45.347  34.532  28.814  1.00  0.00     0.012 A 
ATOM     83  C   UNL A   1      43.250  35.692  28.514  1.00  0.00     0.148 A 
ATOM     84  C   UNL A   1      46.040  35.619  28.263  1.00  0.00     0.002 A 
ATOM     85  C   UNL A   1      43.945  36.777  27.979  1.00  0.00     0.091 A 
ATOM     86  F   UNL A   1      41.912  35.707  28.560  1.00  0.00    -0.205 F 
ATOM     87  C   UNL A   1      45.336  36.736  27.831  1.00  0.00     0.022 A 
BRANCH  85  88
ATOM     88  S   UNL A   1      43.088  38.246  27.395  1.00  0.00     0.127 S 
ATOM     89  O   UNL A   1      42.026  37.679  26.564  1.00  0.00    -0.237 OA
ATOM     90  O   UNL A   1      42.632  38.846  28.645  1.00  0.00    -0.237 OA
ATOM     91  O   UNL A   1      44.085  39.002  26.647  1.00  0.00    -0.744 OA
ENDBRANCH  85  88
ENDBRANCH  57  81
BRANCH  69  92
ATOM     92  C   UNL A   1      38.733  31.303  30.316  1.00  0.00     0.023 A 
ATOM     93  C   UNL A   1      38.711  30.492  29.165  1.00  0.00     0.012 A 
ATOM     94  C   UNL A   1      37.652  32.157  30.583  1.00  0.00     0.148 A 
ATOM     95  C   UNL A   1      37.622  30.539  28.293  1.00  0.00     0.002 A 
ATOM     96  C   UNL A   1      36.553  32.167  29.739  1.00  0.00     0.091 A 
ATOM     97  F   UNL A   1      37.708  32.921  31.685  1.00  0.00    -0.205 F 
ATOM     98  C   UNL A   1      36.535  31.363  28.588  1.00  0.00     0.022 A 
BRANCH  96  99
ATOM     99  S   UNL A   1      35.080  33.116  30.119  1.00  0.00     0.127 S 
ATOM    100  O   UNL A   1      34.403  33.164  28.824  1.00  0.00    -0.237 OA
ATOM    101  O   UNL A   1      34.424  32.276  31.122  1.00  0.00    -0.237 OA
ATOM    102  O   UNL A   1      35.543  34.402  30.624  1.00  0.00    -0.744 OA
ENDBRANCH  96  99
ENDBRANCH  69  92
ENDBRANCH  43  44
ENDBRANCH  36  38
ENDBRANCH  35  36
ENDBRANCH  34  35
ENDBRANCH  33  34
ENDBRANCH  32  33
ENDBRANCH  31  32
ENDBRANCH  30  31
ENDBRANCH   1  30
TORSDOF 27
ENDMDL
MODEL 3
REMARK VINA RESULT:      -9.8      3.334      8.864
REMARK SMILES C[C@H](O)Cn1c(C2CCCCC2)nc2cc(C(=O)OCCOCCOCCOCCOC(=O)c3ccc(-c4c5nc(c(-c6cccc(S(=O)(=O)[O-])c6F)c6ccc([nH]6)c(-c6cccc(S(=O)(=O)[O-])c6F)c6nc(c(-c7cccc(S(=O)(=O)[O-])c7F)c7ccc4[nH]7)C=C6)C=C5)cc3)ccc21
REMARK SMILES IDX 25 1 24 2 23 3 22 4 21 5 20 6 19 7 17 8 18 9 16 10 5 11 6 12
REMARK SMILES IDX 99 13 13 14 14 15 98 16 15 17 97 18 4 19 2 20 1 21 3 22 7 24
REMARK SMILES IDX 8 25 12 26 9 27 11 28 10 29 26 30 27 31 28 32 29 33 30 34
REMARK SMILES IDX 31 35 32 36 33 37 34 38 35 39 96 40 36 41 95 42 37 43 38 44
REMARK SMILES IDX 39 45 89 46 40 47 94 48 88 49 90 50 41 51 93 52 87 53 86 54
REMARK SMILES IDX 42 56 74 57 54 58 73 59 55 60 58 61 72 62 91 63 56 64 57 65
REMARK SMILES IDX 71 67 92 68 59 69 43 70 44 71 52 72 45 73 47 74 53 75 46 76
REMARK SMILES IDX 48 77 49 78 50 79 51 80 75 81 76 82 84 83 77 84 79 85 85 86
REMARK SMILES IDX 78 87 80 88 81 89 82 90 83 91 60 92 61 93 69 94 62 95 64 96
REMARK SMILES IDX 70 97 63 98 65 99 66 100 67 101 68 102
REMARK H PARENT 3 23 90 55 58 66
REMARK Flexibility Score: inf
ROOT
ATOM      1  O   UNL A   1      37.730  23.763  26.280  1.00  0.00    -0.377 OA
ENDROOT
BRANCH   1   2
ATOM      2  C   UNL A   1      36.593  23.924  25.456  1.00  0.00     0.188 C 
BRANCH   2   3
ATOM      3  C   UNL A   1      35.305  23.263  25.967  1.00  0.00     0.188 C 
BRANCH   3   4
ATOM      4  O   UNL A   1      35.080  21.977  25.423  1.00  0.00    -0.376 OA
BRANCH   4   5
ATOM      5  C   UNL A   1      34.102  21.790  24.410  1.00  0.00     0.202 C 
BRANCH   5   6
ATOM      6  C   UNL A   1      32.634  21.463  24.744  1.00  0.00     0.261 C 
BRANCH   6   7
ATOM      7  O   UNL A   1      31.665  22.455  24.399  1.00  0.00    -0.460 OA
BRANCH   7   8
ATOM      8  C   UNL A   1      30.931  22.959  25.408  1.00  0.00     0.338 C 
ATOM      9  O   UNL A   1      30.384  22.335  26.300  1.00  0.00    -0.246 OA
BRANCH   8  10
ATOM     10  C   UNL A   1      31.105  24.430  25.407  1.00  0.00     0.062 A 
ATOM     11  N   UNL A   1      31.253  28.528  24.954  1.00  0.00    -0.325 N 
ATOM     12  C   UNL A   1      30.323  28.623  23.923  1.00  0.00     0.113 A 
ATOM     13  C   UNL A   1      31.302  27.193  25.345  1.00  0.00     0.068 A 
ATOM     14  N   UNL A   1      29.889  27.421  23.590  1.00  0.00    -0.233 NA
ATOM     15  C   UNL A   1      30.508  26.536  24.414  1.00  0.00     0.090 A 
ATOM     16  C   UNL A   1      31.963  26.499  26.373  1.00  0.00     0.029 A 
ATOM     17  C   UNL A   1      30.423  25.142  24.414  1.00  0.00     0.046 A 
ATOM     18  C   UNL A   1      31.835  25.101  26.395  1.00  0.00     0.018 A 
BRANCH  11  19
ATOM     19  C   UNL A   1      32.111  29.557  25.542  1.00  0.00     0.155 C 
BRANCH  19  20
ATOM     20  C   UNL A   1      33.547  29.581  24.990  1.00  0.00     0.131 C 
ATOM     21  C   UNL A   1      33.731  28.790  23.698  1.00  0.00     0.040 C 
BRANCH  20  22
ATOM     22  O   UNL A   1      34.427  28.976  25.936  1.00  0.00    -0.392 OA
ATOM     23  H   UNL A   1      34.928  28.267  25.504  1.00  0.00     0.211 HD
ENDBRANCH  20  22
ENDBRANCH  19  20
ENDBRANCH  11  19
BRANCH  12  24
ATOM     24  C   UNL A   1      29.874  29.822  23.119  1.00  0.00     0.056 C 
ATOM     25  C   UNL A   1      29.068  29.509  21.861  1.00  0.00     0.011 C 
ATOM     26  C   UNL A   1      29.320  30.914  24.050  1.00  0.00     0.011 C 
ATOM     27  C   UNL A   1      28.540  30.772  21.189  1.00  0.00     0.001 C 
ATOM     28  C   UNL A   1      28.569  32.049  23.362  1.00  0.00     0.001 C 
ATOM     29  C   UNL A   1      27.737  31.627  22.158  1.00  0.00     0.000 C 
ENDBRANCH  12  24
ENDBRANCH   8  10
ENDBRANCH   7   8
ENDBRANCH   6   7
ENDBRANCH   5   6
ENDBRANCH   4   5
ENDBRANCH   3   4
ENDBRANCH   2   3
ENDBRANCH   1   2
BRANCH   1  30
ATOM     30  C   UNL A   1      38.558  22.619  26.083  1.00  0.00     0.188 C 
BRANCH  30  31
ATOM     31  C   UNL A   1      39.831  22.354  26.920  1.00  0.00     0.188 C 
BRANCH  31  32
ATOM     32  O   UNL A   1      40.295  21.016  26.818  1.00  0.00    -0.376 OA
BRANCH  32  33
ATOM     33  C   UNL A   1      41.699  20.830  26.889  1.00  0.00     0.202 C 
BRANCH  33  34
ATOM     34  C   UNL A   1      42.533  21.508  25.789  1.00  0.00     0.261 C 
BRANCH  34  35
ATOM     35  O   UNL A   1      43.695  22.199  26.278  1.00  0.00    -0.460 OA
BRANCH  35  36
ATOM     36  C   UNL A   1      44.100  23.339  25.662  1.00  0.00     0.338 C 
ATOM     37  O   UNL A   1      44.233  23.513  24.474  1.00  0.00    -0.246 OA
BRANCH  36  38
ATOM     38  C   UNL A   1      43.994  24.404  26.701  1.00  0.00     0.060 A 
ATOM     39  C   UNL A   1      42.815  24.604  27.425  1.00  0.00     0.016 A 
ATOM     40  C   UNL A   1      44.991  25.392  26.687  1.00  0.00     0.016 A 
ATOM     41  C   UNL A   1      42.589  25.843  28.027  1.00  0.00     0.010 A 
ATOM     42  C   UNL A   1      44.754  26.634  27.279  1.00  0.00     0.010 A 
ATOM     43  C   UNL A   1      43.537  26.879  27.916  1.00  0.00    -0.014 A 
BRANCH  43  44
ATOM     44  C   UNL A   1      43.319  28.092  28.724  1.00  0.00     0.031 A 
ATOM     45  C   UNL A   1      43.351  27.782  30.179  1.00  0.00     0.074 A 
ATOM     46  C   UNL A   1      43.271  29.381  28.316  1.00  0.00     0.049 A 
ATOM     47  N   UNL A   1      42.396  27.875  31.046  1.00  0.00    -0.248 NA
ATOM     48  C   UNL A   1      44.572  27.128  30.679  1.00  0.00     0.031 C 
ATOM     49  C   UNL A   1      43.570  29.897  26.981  1.00  0.00     0.029 A 
ATOM     50  N   UNL A   1      43.050  30.526  29.046  1.00  0.00    -0.354 N 
ATOM     51  C   UNL A   1      42.978  27.492  32.252  1.00  0.00     0.074 A 
ATOM     52  C   UNL A   1      44.238  26.870  31.941  1.00  0.00     0.031 C 
ATOM     53  C   UNL A   1      43.694  31.243  27.034  1.00  0.00     0.029 A 
ATOM     54  C   UNL A   1      43.408  31.702  28.382  1.00  0.00     0.049 A 
ATOM     55  H   UNL A   1      42.672  30.518  29.955  1.00  0.00     0.167 HD
ATOM     56  C   UNL A   1      42.538  27.962  33.447  1.00  0.00     0.034 A 
ATOM     57  C   UNL A   1      43.529  32.948  28.912  1.00  0.00     0.034 A 
ATOM     58  C   UNL A   1      41.256  28.591  33.360  1.00  0.00     0.049 A 
ATOM     59  C   UNL A   1      42.763  32.980  30.176  1.00  0.00     0.074 A 
ATOM     60  C   UNL A   1      39.948  28.191  33.212  1.00  0.00     0.029 A 
ATOM     61  N   UNL A   1      41.315  29.932  33.096  1.00  0.00    -0.354 N 
ATOM     62  N   UNL A   1      41.463  32.937  30.239  1.00  0.00    -0.248 NA
ATOM     63  C   UNL A   1      43.462  32.845  31.449  1.00  0.00     0.031 C 
ATOM     64  C   UNL A   1      39.260  29.303  32.648  1.00  0.00     0.029 A 
ATOM     65  C   UNL A   1      40.170  30.344  32.473  1.00  0.00     0.049 A 
ATOM     66  H   UNL A   1      42.074  30.516  33.324  1.00  0.00     0.167 HD
ATOM     67  C   UNL A   1      41.210  32.352  31.464  1.00  0.00     0.074 A 
ATOM     68  C   UNL A   1      42.438  32.493  32.229  1.00  0.00     0.031 C 
ATOM     69  C   UNL A   1      40.154  31.512  31.622  1.00  0.00     0.034 A 
BRANCH  56  70
ATOM     70  C   UNL A   1      43.467  28.257  34.595  1.00  0.00     0.023 A 
ATOM     71  C   UNL A   1      44.394  29.306  34.458  1.00  0.00     0.012 A 
ATOM     72  C   UNL A   1      43.640  27.372  35.685  1.00  0.00     0.148 A 
ATOM     73  C   UNL A   1      45.432  29.480  35.383  1.00  0.00     0.002 A 
ATOM     74  C   UNL A   1      44.613  27.600  36.646  1.00  0.00     0.091 A 
ATOM     75  F   UNL A   1      42.953  26.223  35.719  1.00  0.00    -0.205 F 
ATOM     76  C   UNL A   1      45.527  28.643  36.490  1.00  0.00     0.022 A 
BRANCH  74  77
ATOM     77  S   UNL A   1      44.726  26.575  38.116  1.00  0.00     0.127 S 
ATOM     78  O   UNL A   1      45.346  25.367  37.584  1.00  0.00    -0.237 OA
ATOM     79  O   UNL A   1      45.583  27.385  38.982  1.00  0.00    -0.237 OA
ATOM     80  O   UNL A   1      43.355  26.443  38.594  1.00  0.00    -0.744 OA
ENDBRANCH  74  77
ENDBRANCH  56  70
BRANCH  57  81
ATOM     81  C   UNL A   1      44.354  34.130  28.524  1.00  0.00     0.023 A 
ATOM     82  C   UNL A   1      45.634  33.921  27.959  1.00  0.00     0.012 A 
ATOM     83  C   UNL A   1      43.798  35.422  28.420  1.00  0.00     0.148 A 
ATOM     84  C   UNL A   1      46.298  34.932  27.252  1.00  0.00     0.002 A 
ATOM     85  C   UNL A   1      44.469  36.430  27.725  1.00  0.00     0.091 A 
ATOM     86  F   UNL A   1      42.572  35.644  28.908  1.00  0.00    -0.205 F 
ATOM     87  C   UNL A   1      45.707  36.183  27.122  1.00  0.00     0.022 A 
BRANCH  85  88
ATOM     88  S   UNL A   1      43.751  38.065  27.517  1.00  0.00     0.127 S 
ATOM     89  O   UNL A   1      43.277  38.372  28.868  1.00  0.00    -0.237 OA
ATOM     90  O   UNL A   1      44.904  38.848  27.082  1.00  0.00    -0.237 OA
ATOM     91  O   UNL A   1      42.683  37.896  26.539  1.00  0.00    -0.744 OA
ENDBRANCH  85  88
ENDBRANCH  57  81
BRANCH  69  92
ATOM     92  C   UNL A   1      38.997  31.668  30.686  1.00  0.00     0.023 A 
ATOM     93  C   UNL A   1      38.882  30.939  29.487  1.00  0.00     0.012 A 
ATOM     94  C   UNL A   1      37.935  32.487  31.104  1.00  0.00     0.148 A 
ATOM     95  C   UNL A   1      37.721  31.031  28.717  1.00  0.00     0.002 A 
ATOM     96  C   UNL A   1      36.768  32.539  30.360  1.00  0.00     0.091 A 
ATOM     97  F   UNL A   1      38.081  33.173  32.248  1.00  0.00    -0.205 F 
ATOM     98  C   UNL A   1      36.658  31.818  29.161  1.00  0.00     0.022 A 
BRANCH  96  99
ATOM     99  S   UNL A   1      35.325  33.439  30.930  1.00  0.00     0.127 S 
ATOM    100  O   UNL A   1      35.915  34.430  31.827  1.00  0.00    -0.237 OA
ATOM    101  O   UNL A   1      34.790  33.983  29.681  1.00  0.00    -0.237 OA
ATOM    102  O   UNL A   1      34.462  32.457  31.574  1.00  0.00    -0.744 OA
ENDBRANCH  96  99
ENDBRANCH  69  92
ENDBRANCH  43  44
ENDBRANCH  36  38
ENDBRANCH  35  36
ENDBRANCH  34  35
ENDBRANCH  33  34
ENDBRANCH  32  33
ENDBRANCH  31  32
ENDBRANCH  30  31
ENDBRANCH   1  30
TORSDOF 27
ENDMDL
