MODEL 1
REMARK VINA RESULT:      -9.6      0.000      0.000
REMARK SMILES Cc1cccc2nc(C(=O)NCC(=O)OCCOCCOCCOCCOC(=O)c3ccc(-c4c5nc(c(-c6cccc(S(=O)(=O)[O-])c6F)c6ccc([nH]6)c(-c6cccc(S(=O)(=O)[O-])c6F)c6nc(c(-c7cccc(S(=O)(=O)[O-])c7F)c7ccc4[nH]7)C=C6)C=C5)cc3)cn12
REMARK SMILES IDX 22 1 21 2 20 3 19 4 18 5 17 6 16 7 15 8 13 9 14 10 12 11
REMARK SMILES IDX 11 12 9 13 10 14 8 16 1 17 2 18 3 19 94 20 4 21 6 22 93 23
REMARK SMILES IDX 5 24 7 25 23 26 24 27 25 28 26 29 27 30 28 31 29 32 30 33
REMARK SMILES IDX 31 34 92 35 32 36 91 37 33 38 34 39 35 40 85 41 36 42 90 43
REMARK SMILES IDX 84 44 86 45 37 46 89 47 83 48 82 49 38 51 70 52 50 53 69 54
REMARK SMILES IDX 51 55 54 56 68 57 87 58 52 59 53 60 67 62 88 63 55 64 39 65
REMARK SMILES IDX 40 66 48 67 41 68 43 69 49 70 42 71 44 72 45 73 46 74 47 75
REMARK SMILES IDX 71 76 72 77 80 78 73 79 75 80 81 81 74 82 76 83 77 84 78 85
REMARK SMILES IDX 79 86 56 87 57 88 65 89 58 90 60 91 66 92 59 93 61 94 62 95
REMARK SMILES IDX 63 96 64 97
REMARK H PARENT 11 15 86 50 54 61
REMARK Flexibility Score: inf
ROOT
ATOM      1  C   UNL A   1      33.869  27.301  26.111  1.00  0.00     0.188 C 
ENDROOT
BRANCH   1   2
ATOM      2  O   UNL A   1      33.959  26.819  24.778  1.00  0.00    -0.377 OA
BRANCH   2   3
ATOM      3  C   UNL A   1      33.735  25.430  24.643  1.00  0.00     0.188 C 
BRANCH   3   4
ATOM      4  C   UNL A   1      33.778  24.891  23.196  1.00  0.00     0.188 C 
BRANCH   4   5
ATOM      5  O   UNL A   1      34.172  25.723  22.108  1.00  0.00    -0.376 OA
BRANCH   5   6
ATOM      6  C   UNL A   1      33.196  26.502  21.432  1.00  0.00     0.202 C 
BRANCH   6   7
ATOM      7  C   UNL A   1      31.709  26.126  21.574  1.00  0.00     0.261 C 
BRANCH   7   8
ATOM      8  O   UNL A   1      30.826  27.216  21.906  1.00  0.00    -0.462 OA
BRANCH   8   9
ATOM      9  C   UNL A   1      30.432  27.315  23.205  1.00  0.00     0.325 C 
ATOM     10  O   UNL A   1      30.036  28.354  23.729  1.00  0.00    -0.250 OA
BRANCH   9  11
ATOM     11  C   UNL A   1      30.302  25.949  23.911  1.00  0.00     0.239 C 
BRANCH  11  12
ATOM     12  N   UNL A   1      29.543  25.803  25.150  1.00  0.00    -0.340 N 
ATOM     13  C   UNL A   1      29.630  24.832  26.109  1.00  0.00     0.272 C 
ATOM     14  O   UNL A   1      28.945  24.940  27.128  1.00  0.00    -0.267 OA
ATOM     15  H   UNL A   1      28.873  26.504  25.320  1.00  0.00     0.164 HD
BRANCH  13  16
ATOM     16  C   UNL A   1      30.603  23.764  25.930  1.00  0.00     0.147 A 
ATOM     17  C   UNL A   1      34.289  22.364  27.825  1.00  0.00     0.065 C 
ATOM     18  C   UNL A   1      33.672  22.009  26.506  1.00  0.00     0.021 A 
ATOM     19  C   UNL A   1      34.283  21.195  25.618  1.00  0.00     0.022 A 
ATOM     20  N   UNL A   1      32.429  22.557  26.148  1.00  0.00    -0.304 N 
ATOM     21  C   UNL A   1      33.640  20.895  24.347  1.00  0.00     0.006 A 
ATOM     22  C   UNL A   1      31.798  22.290  24.937  1.00  0.00     0.137 A 
ATOM     23  C   UNL A   1      31.627  23.455  26.806  1.00  0.00     0.127 A 
ATOM     24  C   UNL A   1      32.443  21.414  24.028  1.00  0.00     0.048 A 
ATOM     25  N   UNL A   1      30.688  22.972  24.805  1.00  0.00    -0.223 NA
ENDBRANCH  13  16
ENDBRANCH  11  12
ENDBRANCH   9  11
ENDBRANCH   8   9
ENDBRANCH   7   8
ENDBRANCH   6   7
ENDBRANCH   5   6
ENDBRANCH   4   5
ENDBRANCH   3   4
ENDBRANCH   2   3
ENDBRANCH   1   2
BRANCH   1  26
ATOM     26  C   UNL A   1      32.467  27.772  26.565  1.00  0.00     0.188 C 
BRANCH  26  27
ATOM     27  O   UNL A   1      32.466  28.866  27.486  1.00  0.00    -0.376 OA
BRANCH  27  28
ATOM     28  C   UNL A   1      32.378  30.210  27.027  1.00  0.00     0.202 C 
BRANCH  28  29
ATOM     29  C   UNL A   1      33.645  31.065  27.152  1.00  0.00     0.261 C 
BRANCH  29  30
ATOM     30  O   UNL A   1      34.401  30.764  28.310  1.00  0.00    -0.460 OA
BRANCH  30  31
ATOM     31  C   UNL A   1      35.638  30.299  28.055  1.00  0.00     0.338 C 
ATOM     32  O   UNL A   1      36.065  29.842  27.010  1.00  0.00    -0.246 OA
BRANCH  31  33
ATOM     33  C   UNL A   1      36.440  30.430  29.269  1.00  0.00     0.060 A 
ATOM     34  C   UNL A   1      37.438  31.406  29.207  1.00  0.00     0.016 A 
ATOM     35  C   UNL A   1      36.520  29.280  30.054  1.00  0.00     0.016 A 
ATOM     36  C   UNL A   1      38.688  31.026  29.606  1.00  0.00     0.010 A 
ATOM     37  C   UNL A   1      37.774  28.876  30.388  1.00  0.00     0.010 A 
ATOM     38  C   UNL A   1      38.838  29.713  30.051  1.00  0.00    -0.014 A 
BRANCH  38  39
ATOM     39  C   UNL A   1      40.162  29.162  30.089  1.00  0.00     0.031 A 
ATOM     40  C   UNL A   1      40.758  29.204  31.431  1.00  0.00     0.074 A 
ATOM     41  C   UNL A   1      40.688  28.568  29.005  1.00  0.00     0.049 A 
ATOM     42  N   UNL A   1      41.695  29.992  31.834  1.00  0.00    -0.248 NA
ATOM     43  C   UNL A   1      40.092  28.442  32.497  1.00  0.00     0.031 C 
ATOM     44  C   UNL A   1      40.036  28.229  27.736  1.00  0.00     0.029 A 
ATOM     45  N   UNL A   1      41.908  27.993  28.889  1.00  0.00    -0.354 N 
ATOM     46  C   UNL A   1      41.878  29.655  33.166  1.00  0.00     0.074 A 
ATOM     47  C   UNL A   1      40.719  28.904  33.575  1.00  0.00     0.031 C 
ATOM     48  C   UNL A   1      40.783  27.295  27.100  1.00  0.00     0.029 A 
ATOM     49  C   UNL A   1      41.993  27.055  27.868  1.00  0.00     0.049 A 
ATOM     50  H   UNL A   1      42.666  28.220  29.475  1.00  0.00     0.167 HD
ATOM     51  C   UNL A   1      43.088  29.747  33.772  1.00  0.00     0.034 A 
ATOM     52  C   UNL A   1      42.943  26.091  27.776  1.00  0.00     0.034 A 
ATOM     53  C   UNL A   1      44.047  30.464  32.984  1.00  0.00     0.049 A 
ATOM     54  C   UNL A   1      44.074  26.528  28.643  1.00  0.00     0.074 A 
ATOM     55  C   UNL A   1      44.119  31.749  32.485  1.00  0.00     0.029 A 
ATOM     56  N   UNL A   1      44.921  29.705  32.241  1.00  0.00    -0.354 N 
ATOM     57  N   UNL A   1      44.813  27.575  28.393  1.00  0.00    -0.248 NA
ATOM     58  C   UNL A   1      44.105  26.065  30.024  1.00  0.00     0.031 C 
ATOM     59  C   UNL A   1      44.700  31.609  31.192  1.00  0.00     0.029 A 
ATOM     60  C   UNL A   1      44.987  30.257  30.987  1.00  0.00     0.049 A 
ATOM     61  H   UNL A   1      45.410  28.910  32.551  1.00  0.00     0.167 HD
ATOM     62  C   UNL A   1      45.042  28.152  29.638  1.00  0.00     0.074 A 
ATOM     63  C   UNL A   1      44.683  27.119  30.608  1.00  0.00     0.031 C 
ATOM     64  C   UNL A   1      45.206  29.501  29.771  1.00  0.00     0.034 A 
BRANCH  51  65
ATOM     65  C   UNL A   1      43.471  28.876  34.921  1.00  0.00     0.023 A 
ATOM     66  C   UNL A   1      43.905  29.485  36.109  1.00  0.00     0.012 A 
ATOM     67  C   UNL A   1      43.596  27.472  34.813  1.00  0.00     0.148 A 
ATOM     68  C   UNL A   1      44.411  28.718  37.161  1.00  0.00     0.002 A 
ATOM     69  C   UNL A   1      44.004  26.709  35.893  1.00  0.00     0.091 A 
ATOM     70  F   UNL A   1      43.433  26.883  33.620  1.00  0.00    -0.205 F 
ATOM     71  C   UNL A   1      44.433  27.329  37.066  1.00  0.00     0.022 A 
BRANCH  69  72
ATOM     72  S   UNL A   1      43.955  24.917  35.828  1.00  0.00     0.127 S 
ATOM     73  O   UNL A   1      44.920  24.632  34.772  1.00  0.00    -0.237 OA
ATOM     74  O   UNL A   1      44.383  24.551  37.179  1.00  0.00    -0.237 OA
ATOM     75  O   UNL A   1      42.563  24.586  35.539  1.00  0.00    -0.744 OA
ENDBRANCH  69  72
ENDBRANCH  51  65
BRANCH  52  76
ATOM     76  C   UNL A   1      42.853  24.714  27.226  1.00  0.00     0.023 A 
ATOM     77  C   UNL A   1      41.605  24.057  27.239  1.00  0.00     0.012 A 
ATOM     78  C   UNL A   1      43.890  24.134  26.460  1.00  0.00     0.148 A 
ATOM     79  C   UNL A   1      41.384  22.899  26.484  1.00  0.00     0.002 A 
ATOM     80  C   UNL A   1      43.672  22.970  25.726  1.00  0.00     0.091 A 
ATOM     81  F   UNL A   1      45.066  24.768  26.361  1.00  0.00    -0.205 F 
ATOM     82  C   UNL A   1      42.414  22.358  25.721  1.00  0.00     0.022 A 
BRANCH  80  83
ATOM     83  S   UNL A   1      44.967  22.226  24.720  1.00  0.00     0.127 S 
ATOM     84  O   UNL A   1      44.308  21.024  24.206  1.00  0.00    -0.237 OA
ATOM     85  O   UNL A   1      45.212  23.264  23.724  1.00  0.00    -0.237 OA
ATOM     86  O   UNL A   1      46.066  21.952  25.639  1.00  0.00    -0.744 OA
ENDBRANCH  80  83
ENDBRANCH  52  76
BRANCH  64  87
ATOM     87  C   UNL A   1      45.340  30.323  28.512  1.00  0.00     0.023 A 
ATOM     88  C   UNL A   1      44.210  30.714  27.763  1.00  0.00     0.012 A 
ATOM     89  C   UNL A   1      46.587  30.896  28.215  1.00  0.00     0.148 A 
ATOM     90  C   UNL A   1      44.320  31.654  26.736  1.00  0.00     0.002 A 
ATOM     91  C   UNL A   1      46.685  31.861  27.220  1.00  0.00     0.091 A 
ATOM     92  F   UNL A   1      47.645  30.523  28.950  1.00  0.00    -0.205 F 
ATOM     93  C   UNL A   1      45.556  32.239  26.475  1.00  0.00     0.022 A 
BRANCH  91  94
ATOM     94  S   UNL A   1      48.213  32.752  26.913  1.00  0.00     0.127 S 
ATOM     95  O   UNL A   1      49.110  31.682  26.484  1.00  0.00    -0.237 OA
ATOM     96  O   UNL A   1      47.822  33.685  25.855  1.00  0.00    -0.237 OA
ATOM     97  O   UNL A   1      48.567  33.394  28.173  1.00  0.00    -0.744 OA
ENDBRANCH  91  94
ENDBRANCH  64  87
ENDBRANCH  38  39
ENDBRANCH  31  33
ENDBRANCH  30  31
ENDBRANCH  29  30
ENDBRANCH  28  29
ENDBRANCH  27  28
ENDBRANCH  26  27
ENDBRANCH   1  26
TORSDOF 25
ENDMDL
MODEL 2
REMARK VINA RESULT:      -9.6      3.119      9.046
REMARK SMILES Cc1cccc2nc(C(=O)NCC(=O)OCCOCCOCCOCCOC(=O)c3ccc(-c4c5nc(c(-c6cccc(S(=O)(=O)[O-])c6F)c6ccc([nH]6)c(-c6cccc(S(=O)(=O)[O-])c6F)c6nc(c(-c7cccc(S(=O)(=O)[O-])c7F)c7ccc4[nH]7)C=C6)C=C5)cc3)cn12
REMARK SMILES IDX 22 1 21 2 20 3 19 4 18 5 17 6 16 7 15 8 13 9 14 10 12 11
REMARK SMILES IDX 11 12 9 13 10 14 8 16 1 17 2 18 3 19 94 20 4 21 6 22 93 23
REMARK SMILES IDX 5 24 7 25 23 26 24 27 25 28 26 29 27 30 28 31 29 32 30 33
REMARK SMILES IDX 31 34 92 35 32 36 91 37 33 38 34 39 35 40 85 41 36 42 90 43
REMARK SMILES IDX 84 44 86 45 37 46 89 47 83 48 82 49 38 51 70 52 50 53 69 54
REMARK SMILES IDX 51 55 54 56 68 57 87 58 52 59 53 60 67 62 88 63 55 64 39 65
REMARK SMILES IDX 40 66 48 67 41 68 43 69 49 70 42 71 44 72 45 73 46 74 47 75
REMARK SMILES IDX 71 76 72 77 80 78 73 79 75 80 81 81 74 82 76 83 77 84 78 85
REMARK SMILES IDX 79 86 56 87 57 88 65 89 58 90 60 91 66 92 59 93 61 94 62 95
REMARK SMILES IDX 63 96 64 97
REMARK H PARENT 11 15 86 50 54 61
REMARK Flexibility Score: inf
ROOT
ATOM      1  C   UNL A   1      41.830  20.413  27.347  1.00  0.00     0.188 C 
ENDROOT
BRANCH   1   2
ATOM      2  O   UNL A   1      40.440  20.695  27.424  1.00  0.00    -0.377 OA
BRANCH   2   3
ATOM      3  C   UNL A   1      40.047  21.877  26.756  1.00  0.00     0.188 C 
BRANCH   3   4
ATOM      4  C   UNL A   1      38.774  21.755  25.891  1.00  0.00     0.188 C 
BRANCH   4   5
ATOM      5  O   UNL A   1      37.698  22.680  26.021  1.00  0.00    -0.376 OA
BRANCH   5   6
ATOM      6  C   UNL A   1      36.859  22.943  24.906  1.00  0.00     0.202 C 
BRANCH   6   7
ATOM      7  C   UNL A   1      35.380  23.295  25.152  1.00  0.00     0.261 C 
BRANCH   7   8
ATOM      8  O   UNL A   1      34.495  23.052  24.040  1.00  0.00    -0.462 OA
BRANCH   8   9
ATOM      9  C   UNL A   1      33.399  22.282  24.283  1.00  0.00     0.325 C 
ATOM     10  O   UNL A   1      33.436  21.069  24.477  1.00  0.00    -0.250 OA
BRANCH   9  11
ATOM     11  C   UNL A   1      32.117  23.104  24.528  1.00  0.00     0.239 C 
BRANCH  11  12
ATOM     12  N   UNL A   1      31.253  22.840  25.676  1.00  0.00    -0.340 N 
ATOM     13  C   UNL A   1      30.570  23.724  26.467  1.00  0.00     0.272 C 
ATOM     14  O   UNL A   1      29.825  23.282  27.344  1.00  0.00    -0.267 OA
ATOM     15  H   UNL A   1      31.146  21.891  25.915  1.00  0.00     0.164 HD
BRANCH  13  16
ATOM     16  C   UNL A   1      30.673  25.145  26.171  1.00  0.00     0.147 A 
ATOM     17  C   UNL A   1      29.654  27.878  22.911  1.00  0.00     0.065 C 
ATOM     18  C   UNL A   1      30.522  28.075  24.117  1.00  0.00     0.021 A 
ATOM     19  C   UNL A   1      31.230  29.207  24.321  1.00  0.00     0.022 A 
ATOM     20  N   UNL A   1      30.640  27.047  25.067  1.00  0.00    -0.304 N 
ATOM     21  C   UNL A   1      32.064  29.338  25.506  1.00  0.00     0.006 A 
ATOM     22  C   UNL A   1      31.436  27.146  26.204  1.00  0.00     0.137 A 
ATOM     23  C   UNL A   1      30.106  25.783  25.084  1.00  0.00     0.127 A 
ATOM     24  C   UNL A   1      32.153  28.351  26.413  1.00  0.00     0.048 A 
ATOM     25  N   UNL A   1      31.439  26.034  26.896  1.00  0.00    -0.223 NA
ENDBRANCH  13  16
ENDBRANCH  11  12
ENDBRANCH   9  11
ENDBRANCH   8   9
ENDBRANCH   7   8
ENDBRANCH   6   7
ENDBRANCH   5   6
ENDBRANCH   4   5
ENDBRANCH   3   4
ENDBRANCH   2   3
ENDBRANCH   1   2
BRANCH   1  26
ATOM     26  C   UNL A   1      42.465  20.532  25.940  1.00  0.00     0.188 C 
BRANCH  26  27
ATOM     27  O   UNL A   1      43.774  21.108  25.916  1.00  0.00    -0.376 OA
BRANCH  27  28
ATOM     28  C   UNL A   1      44.295  21.692  24.727  1.00  0.00     0.202 C 
BRANCH  28  29
ATOM     29  C   UNL A   1      44.265  23.223  24.643  1.00  0.00     0.261 C 
BRANCH  29  30
ATOM     30  O   UNL A   1      43.839  23.834  25.846  1.00  0.00    -0.460 OA
BRANCH  30  31
ATOM     31  C   UNL A   1      42.916  24.800  25.677  1.00  0.00     0.338 C 
ATOM     32  O   UNL A   1      42.701  25.462  24.677  1.00  0.00    -0.246 OA
BRANCH  31  33
ATOM     33  C   UNL A   1      42.168  24.947  26.922  1.00  0.00     0.060 A 
ATOM     34  C   UNL A   1      40.901  25.518  26.779  1.00  0.00     0.016 A 
ATOM     35  C   UNL A   1      42.948  25.057  28.074  1.00  0.00     0.016 A 
ATOM     36  C   UNL A   1      40.595  26.544  27.627  1.00  0.00     0.010 A 
ATOM     37  C   UNL A   1      42.677  26.122  28.874  1.00  0.00     0.010 A 
ATOM     38  C   UNL A   1      41.566  26.905  28.560  1.00  0.00    -0.014 A 
BRANCH  38  39
ATOM     39  C   UNL A   1      41.462  28.197  29.176  1.00  0.00     0.031 A 
ATOM     40  C   UNL A   1      42.453  29.152  28.664  1.00  0.00     0.074 A 
ATOM     41  C   UNL A   1      40.458  28.471  30.025  1.00  0.00     0.049 A 
ATOM     42  N   UNL A   1      43.502  29.580  29.280  1.00  0.00    -0.248 NA
ATOM     43  C   UNL A   1      42.391  29.501  27.238  1.00  0.00     0.031 C 
ATOM     44  C   UNL A   1      39.276  27.664  30.343  1.00  0.00     0.029 A 
ATOM     45  N   UNL A   1      40.219  29.636  30.670  1.00  0.00    -0.354 N 
ATOM     46  C   UNL A   1      44.110  30.432  28.372  1.00  0.00     0.074 A 
ATOM     47  C   UNL A   1      43.543  30.148  27.080  1.00  0.00     0.031 C 
ATOM     48  C   UNL A   1      38.341  28.466  30.905  1.00  0.00     0.029 A 
ATOM     49  C   UNL A   1      38.899  29.798  31.070  1.00  0.00     0.049 A 
ATOM     50  H   UNL A   1      40.918  30.309  30.842  1.00  0.00     0.167 HD
ATOM     51  C   UNL A   1      44.819  31.519  28.768  1.00  0.00     0.034 A 
ATOM     52  C   UNL A   1      38.321  30.984  31.383  1.00  0.00     0.034 A 
ATOM     53  C   UNL A   1      45.083  31.521  30.177  1.00  0.00     0.049 A 
ATOM     54  C   UNL A   1      39.434  31.930  31.681  1.00  0.00     0.074 A 
ATOM     55  C   UNL A   1      45.760  30.678  31.034  1.00  0.00     0.029 A 
ATOM     56  N   UNL A   1      44.241  32.280  30.959  1.00  0.00    -0.354 N 
ATOM     57  N   UNL A   1      40.232  31.808  32.706  1.00  0.00    -0.248 NA
ATOM     58  C   UNL A   1      39.943  32.759  30.595  1.00  0.00     0.031 C 
ATOM     59  C   UNL A   1      44.984  30.663  32.227  1.00  0.00     0.029 A 
ATOM     60  C   UNL A   1      43.899  31.526  32.051  1.00  0.00     0.049 A 
ATOM     61  H   UNL A   1      43.939  33.196  30.768  1.00  0.00     0.167 HD
ATOM     62  C   UNL A   1      41.486  32.165  32.224  1.00  0.00     0.074 A 
ATOM     63  C   UNL A   1      41.227  32.849  30.958  1.00  0.00     0.031 C 
ATOM     64  C   UNL A   1      42.624  31.608  32.734  1.00  0.00     0.034 A 
BRANCH  51  65
ATOM     65  C   UNL A   1      44.954  32.735  27.915  1.00  0.00     0.023 A 
ATOM     66  C   UNL A   1      43.793  33.296  27.360  1.00  0.00     0.012 A 
ATOM     67  C   UNL A   1      46.203  33.240  27.489  1.00  0.00     0.148 A 
ATOM     68  C   UNL A   1      43.876  34.345  26.440  1.00  0.00     0.002 A 
ATOM     69  C   UNL A   1      46.278  34.343  26.656  1.00  0.00     0.091 A 
ATOM     70  F   UNL A   1      47.326  32.576  27.797  1.00  0.00    -0.205 F 
ATOM     71  C   UNL A   1      45.115  34.889  26.111  1.00  0.00     0.022 A 
BRANCH  69  72
ATOM     72  S   UNL A   1      47.853  35.119  26.289  1.00  0.00     0.127 S 
ATOM     73  O   UNL A   1      48.579  34.920  27.540  1.00  0.00    -0.237 OA
ATOM     74  O   UNL A   1      48.330  34.321  25.159  1.00  0.00    -0.237 OA
ATOM     75  O   UNL A   1      47.526  36.498  25.945  1.00  0.00    -0.744 OA
ENDBRANCH  69  72
ENDBRANCH  51  65
BRANCH  52  76
ATOM     76  C   UNL A   1      36.921  31.443  31.191  1.00  0.00     0.023 A 
ATOM     77  C   UNL A   1      36.186  31.872  32.315  1.00  0.00     0.012 A 
ATOM     78  C   UNL A   1      36.380  31.714  29.913  1.00  0.00     0.148 A 
ATOM     79  C   UNL A   1      34.988  32.583  32.175  1.00  0.00     0.002 A 
ATOM     80  C   UNL A   1      35.177  32.404  29.777  1.00  0.00     0.091 A 
ATOM     81  F   UNL A   1      37.084  31.390  28.820  1.00  0.00    -0.205 F 
ATOM     82  C   UNL A   1      34.486  32.855  30.906  1.00  0.00     0.022 A 
BRANCH  80  83
ATOM     83  S   UNL A   1      34.480  32.786  28.162  1.00  0.00     0.127 S 
ATOM     84  O   UNL A   1      33.358  33.660  28.508  1.00  0.00    -0.237 OA
ATOM     85  O   UNL A   1      35.596  33.455  27.500  1.00  0.00    -0.237 OA
ATOM     86  O   UNL A   1      34.079  31.503  27.596  1.00  0.00    -0.744 OA
ENDBRANCH  80  83
ENDBRANCH  52  76
BRANCH  64  87
ATOM     87  C   UNL A   1      42.496  30.756  33.973  1.00  0.00     0.023 A 
ATOM     88  C   UNL A   1      42.239  29.372  33.893  1.00  0.00     0.012 A 
ATOM     89  C   UNL A   1      42.868  31.310  35.210  1.00  0.00     0.148 A 
ATOM     90  C   UNL A   1      42.345  28.555  35.022  1.00  0.00     0.002 A 
ATOM     91  C   UNL A   1      43.013  30.488  36.321  1.00  0.00     0.091 A 
ATOM     92  F   UNL A   1      43.124  32.626  35.261  1.00  0.00    -0.205 F 
ATOM     93  C   UNL A   1      42.747  29.112  36.232  1.00  0.00     0.022 A 
BRANCH  91  94
ATOM     94  S   UNL A   1      43.650  31.108  37.880  1.00  0.00     0.127 S 
ATOM     95  O   UNL A   1      44.574  32.150  37.440  1.00  0.00    -0.237 OA
ATOM     96  O   UNL A   1      42.437  31.602  38.537  1.00  0.00    -0.237 OA
ATOM     97  O   UNL A   1      44.267  29.969  38.547  1.00  0.00    -0.744 OA
ENDBRANCH  91  94
ENDBRANCH  64  87
ENDBRANCH  38  39
ENDBRANCH  31  33
ENDBRANCH  30  31
ENDBRANCH  29  30
ENDBRANCH  28  29
ENDBRANCH  27  28
ENDBRANCH  26  27
ENDBRANCH   1  26
TORSDOF 25
ENDMDL
MODEL 3
REMARK VINA RESULT:      -9.4      2.973      9.313
REMARK SMILES Cc1cccc2nc(C(=O)NCC(=O)OCCOCCOCCOCCOC(=O)c3ccc(-c4c5nc(c(-c6cccc(S(=O)(=O)[O-])c6F)c6ccc([nH]6)c(-c6cccc(S(=O)(=O)[O-])c6F)c6nc(c(-c7cccc(S(=O)(=O)[O-])c7F)c7ccc4[nH]7)C=C6)C=C5)cc3)cn12
REMARK SMILES IDX 22 1 21 2 20 3 19 4 18 5 17 6 16 7 15 8 13 9 14 10 12 11
REMARK SMILES IDX 11 12 9 13 10 14 8 16 1 17 2 18 3 19 94 20 4 21 6 22 93 23
REMARK SMILES IDX 5 24 7 25 23 26 24 27 25 28 26 29 27 30 28 31 29 32 30 33
REMARK SMILES IDX 31 34 92 35 32 36 91 37 33 38 34 39 35 40 85 41 36 42 90 43
REMARK SMILES IDX 84 44 86 45 37 46 89 47 83 48 82 49 38 51 70 52 50 53 69 54
REMARK SMILES IDX 51 55 54 56 68 57 87 58 52 59 53 60 67 62 88 63 55 64 39 65
REMARK SMILES IDX 40 66 48 67 41 68 43 69 49 70 42 71 44 72 45 73 46 74 47 75
REMARK SMILES IDX 71 76 72 77 80 78 73 79 75 80 81 81 74 82 76 83 77 84 78 85
REMARK SMILES IDX 79 86 56 87 57 88 65 89 58 90 60 91 66 92 59 93 61 94 62 95
REMARK SMILES IDX 63 96 64 97
REMARK H PARENT 11 15 86 50 54 61
REMARK Flexibility Score: inf
ROOT
ATOM      1  C   UNL A   1      41.815  20.453  27.219  1.00  0.00     0.188 C 
ENDROOT
BRANCH   1   2
ATOM      2  O   UNL A   1      40.402  20.575  27.160  1.00  0.00    -0.377 OA
BRANCH   2   3
ATOM      3  C   UNL A   1      39.945  21.822  26.675  1.00  0.00     0.188 C 
BRANCH   3   4
ATOM      4  C   UNL A   1      38.696  21.760  25.767  1.00  0.00     0.188 C 
BRANCH   4   5
ATOM      5  O   UNL A   1      37.581  22.620  25.983  1.00  0.00    -0.376 OA
BRANCH   5   6
ATOM      6  C   UNL A   1      36.865  23.133  24.869  1.00  0.00     0.202 C 
BRANCH   6   7
ATOM      7  C   UNL A   1      35.372  23.473  25.034  1.00  0.00     0.261 C 
BRANCH   7   8
ATOM      8  O   UNL A   1      34.525  23.082  23.935  1.00  0.00    -0.462 OA
BRANCH   8   9
ATOM      9  C   UNL A   1      33.441  22.316  24.235  1.00  0.00     0.325 C 
ATOM     10  O   UNL A   1      33.487  21.107  24.452  1.00  0.00    -0.250 OA
BRANCH   9  11
ATOM     11  C   UNL A   1      32.168  23.142  24.515  1.00  0.00     0.239 C 
BRANCH  11  12
ATOM     12  N   UNL A   1      31.322  22.866  25.674  1.00  0.00    -0.340 N 
ATOM     13  C   UNL A   1      30.633  23.740  26.471  1.00  0.00     0.272 C 
ATOM     14  O   UNL A   1      29.907  23.288  27.358  1.00  0.00    -0.267 OA
ATOM     15  H   UNL A   1      31.234  21.916  25.917  1.00  0.00     0.164 HD
BRANCH  13  16
ATOM     16  C   UNL A   1      30.709  25.162  26.170  1.00  0.00     0.147 A 
ATOM     17  C   UNL A   1      29.498  27.886  22.969  1.00  0.00     0.065 C 
ATOM     18  C   UNL A   1      30.425  28.091  24.128  1.00  0.00     0.021 A 
ATOM     19  C   UNL A   1      31.133  29.229  24.295  1.00  0.00     0.022 A 
ATOM     20  N   UNL A   1      30.602  27.064  25.070  1.00  0.00    -0.304 N 
ATOM     21  C   UNL A   1      32.027  29.367  25.435  1.00  0.00     0.006 A 
ATOM     22  C   UNL A   1      31.455  27.169  26.164  1.00  0.00     0.137 A 
ATOM     23  C   UNL A   1      30.080  25.795  25.115  1.00  0.00     0.127 A 
ATOM     24  C   UNL A   1      32.172  28.381  26.336  1.00  0.00     0.048 A 
ATOM     25  N   UNL A   1      31.504  26.058  26.855  1.00  0.00    -0.223 NA
ENDBRANCH  13  16
ENDBRANCH  11  12
ENDBRANCH   9  11
ENDBRANCH   8   9
ENDBRANCH   7   8
ENDBRANCH   6   7
ENDBRANCH   5   6
ENDBRANCH   4   5
ENDBRANCH   3   4
ENDBRANCH   2   3
ENDBRANCH   1   2
BRANCH   1  26
ATOM     26  C   UNL A   1      42.571  20.709  25.893  1.00  0.00     0.188 C 
BRANCH  26  27
ATOM     27  O   UNL A   1      43.801  21.428  26.028  1.00  0.00    -0.376 OA
BRANCH  27  28
ATOM     28  C   UNL A   1      44.451  21.987  24.892  1.00  0.00     0.202 C 
BRANCH  28  29
ATOM     29  C   UNL A   1      44.344  23.506  24.717  1.00  0.00     0.261 C 
BRANCH  29  30
ATOM     30  O   UNL A   1      43.887  24.166  25.882  1.00  0.00    -0.460 OA
BRANCH  30  31
ATOM     31  C   UNL A   1      42.881  25.033  25.667  1.00  0.00     0.338 C 
ATOM     32  O   UNL A   1      42.563  25.565  24.618  1.00  0.00    -0.246 OA
BRANCH  31  33
ATOM     33  C   UNL A   1      42.184  25.256  26.931  1.00  0.00     0.060 A 
ATOM     34  C   UNL A   1      40.947  25.893  26.812  1.00  0.00     0.016 A 
ATOM     35  C   UNL A   1      43.008  25.352  28.053  1.00  0.00     0.016 A 
ATOM     36  C   UNL A   1      40.726  26.957  27.640  1.00  0.00     0.010 A 
ATOM     37  C   UNL A   1      42.823  26.452  28.832  1.00  0.00     0.010 A 
ATOM     38  C   UNL A   1      41.747  27.288  28.530  1.00  0.00    -0.014 A 
BRANCH  38  39
ATOM     39  C   UNL A   1      41.735  28.599  29.112  1.00  0.00     0.031 A 
ATOM     40  C   UNL A   1      42.774  29.477  28.558  1.00  0.00     0.074 A 
ATOM     41  C   UNL A   1      40.767  28.959  29.971  1.00  0.00     0.049 A 
ATOM     42  N   UNL A   1      43.859  29.854  29.143  1.00  0.00    -0.248 NA
ATOM     43  C   UNL A   1      42.706  29.791  27.123  1.00  0.00     0.031 C 
ATOM     44  C   UNL A   1      39.543  28.236  30.331  1.00  0.00     0.029 A 
ATOM     45  N   UNL A   1      40.613  30.153  30.588  1.00  0.00    -0.354 N 
ATOM     46  C   UNL A   1      44.501  30.642  28.202  1.00  0.00     0.074 A 
ATOM     47  C   UNL A   1      43.893  30.359  26.927  1.00  0.00     0.031 C 
ATOM     48  C   UNL A   1      38.671  29.110  30.887  1.00  0.00     0.029 A 
ATOM     49  C   UNL A   1      39.313  30.407  31.006  1.00  0.00     0.049 A 
ATOM     50  H   UNL A   1      41.356  30.785  30.729  1.00  0.00     0.167 HD
ATOM     51  C   UNL A   1      45.284  31.692  28.555  1.00  0.00     0.034 A 
ATOM     52  C   UNL A   1      38.817  31.636  31.296  1.00  0.00     0.034 A 
ATOM     53  C   UNL A   1      45.574  31.715  29.959  1.00  0.00     0.049 A 
ATOM     54  C   UNL A   1      39.992  32.518  31.548  1.00  0.00     0.074 A 
ATOM     55  C   UNL A   1      46.214  30.854  30.827  1.00  0.00     0.029 A 
ATOM     56  N   UNL A   1      44.797  32.545  30.733  1.00  0.00    -0.354 N 
ATOM     57  N   UNL A   1      40.800  32.373  32.563  1.00  0.00    -0.248 NA
ATOM     58  C   UNL A   1      40.531  33.284  30.432  1.00  0.00     0.031 C 
ATOM     59  C   UNL A   1      45.461  30.919  32.033  1.00  0.00     0.029 A 
ATOM     60  C   UNL A   1      44.429  31.843  31.852  1.00  0.00     0.049 A 
ATOM     61  H   UNL A   1      44.549  33.474  30.523  1.00  0.00     0.167 HD
ATOM     62  C   UNL A   1      42.064  32.638  32.049  1.00  0.00     0.074 A 
ATOM     63  C   UNL A   1      41.825  33.303  30.769  1.00  0.00     0.031 C 
ATOM     64  C   UNL A   1      43.175  32.024  32.555  1.00  0.00     0.034 A 
BRANCH  51  65
ATOM     65  C   UNL A   1      45.478  32.874  27.667  1.00  0.00     0.023 A 
ATOM     66  C   UNL A   1      44.349  33.456  27.068  1.00  0.00     0.012 A 
ATOM     67  C   UNL A   1      46.753  33.323  27.252  1.00  0.00     0.148 A 
ATOM     68  C   UNL A   1      44.488  34.470  26.117  1.00  0.00     0.002 A 
ATOM     69  C   UNL A   1      46.882  34.395  26.386  1.00  0.00     0.091 A 
ATOM     70  F   UNL A   1      47.845  32.632  27.606  1.00  0.00    -0.205 F 
ATOM     71  C   UNL A   1      45.751  34.961  25.798  1.00  0.00     0.022 A 
BRANCH  69  72
ATOM     72  S   UNL A   1      48.491  35.105  26.030  1.00  0.00     0.127 S 
ATOM     73  O   UNL A   1      49.074  35.201  27.363  1.00  0.00    -0.237 OA
ATOM     74  O   UNL A   1      49.087  34.090  25.161  1.00  0.00    -0.237 OA
ATOM     75  O   UNL A   1      48.207  36.368  25.356  1.00  0.00    -0.744 OA
ENDBRANCH  69  72
ENDBRANCH  51  65
BRANCH  52  76
ATOM     76  C   UNL A   1      37.444  32.176  31.116  1.00  0.00     0.023 A 
ATOM     77  C   UNL A   1      36.742  31.868  29.932  1.00  0.00     0.012 A 
ATOM     78  C   UNL A   1      36.715  32.764  32.175  1.00  0.00     0.148 A 
ATOM     79  C   UNL A   1      35.364  32.089  29.823  1.00  0.00     0.002 A 
ATOM     80  C   UNL A   1      35.347  33.002  32.056  1.00  0.00     0.091 A 
ATOM     81  F   UNL A   1      37.329  33.002  33.341  1.00  0.00    -0.205 F 
ATOM     82  C   UNL A   1      34.664  32.650  30.887  1.00  0.00     0.022 A 
BRANCH  80  83
ATOM     83  S   UNL A   1      34.389  33.723  33.398  1.00  0.00     0.127 S 
ATOM     84  O   UNL A   1      34.370  35.142  33.038  1.00  0.00    -0.237 OA
ATOM     85  O   UNL A   1      33.108  33.039  33.259  1.00  0.00    -0.237 OA
ATOM     86  O   UNL A   1      35.139  33.431  34.615  1.00  0.00    -0.744 OA
ENDBRANCH  80  83
ENDBRANCH  52  76
BRANCH  64  87
ATOM     87  C   UNL A   1      43.018  31.215  33.819  1.00  0.00     0.023 A 
ATOM     88  C   UNL A   1      43.011  31.826  35.090  1.00  0.00     0.012 A 
ATOM     89  C   UNL A   1      42.643  29.866  33.709  1.00  0.00     0.148 A 
ATOM     90  C   UNL A   1      42.643  31.108  36.231  1.00  0.00     0.002 A 
ATOM     91  C   UNL A   1      42.238  29.166  34.839  1.00  0.00     0.091 A 
ATOM     92  F   UNL A   1      42.641  29.308  32.489  1.00  0.00    -0.205 F 
ATOM     93  C   UNL A   1      42.241  29.781  36.102  1.00  0.00     0.022 A 
BRANCH  91  94
ATOM     94  S   UNL A   1      41.585  27.497  34.736  1.00  0.00     0.127 S 
ATOM     95  O   UNL A   1      42.730  26.753  34.215  1.00  0.00    -0.237 OA
ATOM     96  O   UNL A   1      41.250  27.207  36.131  1.00  0.00    -0.237 OA
ATOM     97  O   UNL A   1      40.432  27.568  33.847  1.00  0.00    -0.744 OA
ENDBRANCH  91  94
ENDBRANCH  64  87
ENDBRANCH  38  39
ENDBRANCH  31  33
ENDBRANCH  30  31
ENDBRANCH  29  30
ENDBRANCH  28  29
ENDBRANCH  27  28
ENDBRANCH  26  27
ENDBRANCH   1  26
TORSDOF 25
ENDMDL
