MODEL 1
REMARK VINA RESULT:      -6.9      0.000      0.000
REMARK SMILES O=C(OCCOCCOCCOCCOC(=O)[C@@H]1CCCC[C@@H]1NS(=O)(=O)c1ccc2ccccc2c1)c1ccc(-c2c3nc(c(-c4cccc(S(=O)(=O)[O-])c4F)c4ccc([nH]4)c(-c4cccc(S(=O)(=O)[O-])c4F)c4nc(c(-c5cccc(S(=O)(=O)[O-])c5F)c5ccc2[nH]5)C=C4)C=C3)cc1
REMARK SMILES IDX 9 1 8 2 7 3 6 4 5 5 4 6 3 7 2 8 1 9 38 10 39 11 100 12 40 13
REMARK SMILES IDX 99 14 41 15 42 16 43 17 93 18 44 19 98 20 92 21 94 22 45 23
REMARK SMILES IDX 97 24 91 25 90 26 46 28 78 29 58 30 77 31 59 32 62 33 76 34
REMARK SMILES IDX 95 35 60 36 61 37 75 39 96 40 63 41 47 42 48 43 56 44 49 45
REMARK SMILES IDX 51 46 57 47 50 48 52 49 53 50 54 51 55 52 79 53 80 54 88 55
REMARK SMILES IDX 81 56 83 57 89 58 82 59 84 60 85 61 86 62 87 63 64 64 65 65
REMARK SMILES IDX 73 66 66 67 68 68 74 69 67 70 69 71 70 72 71 73 72 74 10 75
REMARK SMILES IDX 11 76 12 77 13 78 14 79 15 80 16 81 17 82 18 83 19 84 23 85
REMARK SMILES IDX 20 86 22 87 21 88 24 89 25 91 26 92 27 93 28 94 29 95 37 96
REMARK SMILES IDX 30 97 36 98 31 99 35 100 32 101 34 102 33 103
REMARK H PARENT 94 27 62 38 24 90
REMARK Flexibility Score: inf
ROOT
ATOM      1  O   UNL A   1      44.022  27.741  29.585  1.00  0.00    -0.377 OA
ENDROOT
BRANCH   1   2
ATOM      2  C   UNL A   1      44.962  27.114  30.455  1.00  0.00     0.188 C 
BRANCH   2   3
ATOM      3  C   UNL A   1      44.504  25.952  31.307  1.00  0.00     0.188 C 
BRANCH   3   4
ATOM      4  O   UNL A   1      43.889  26.372  32.522  1.00  0.00    -0.376 OA
BRANCH   4   5
ATOM      5  C   UNL A   1      44.361  25.713  33.688  1.00  0.00     0.202 C 
BRANCH   5   6
ATOM      6  C   UNL A   1      44.067  26.526  34.947  1.00  0.00     0.261 C 
BRANCH   6   7
ATOM      7  O   UNL A   1      42.777  27.166  34.866  1.00  0.00    -0.460 OA
BRANCH   7   8
ATOM      8  C   UNL A   1      42.078  27.828  35.818  1.00  0.00     0.338 C 
ATOM      9  O   UNL A   1      41.192  27.217  36.414  1.00  0.00    -0.246 OA
BRANCH   8  10
ATOM     10  C   UNL A   1      42.181  29.308  36.041  1.00  0.00     0.060 A 
ATOM     11  C   UNL A   1      41.149  30.235  35.883  1.00  0.00     0.016 A 
ATOM     12  C   UNL A   1      43.441  29.798  36.442  1.00  0.00     0.016 A 
ATOM     13  C   UNL A   1      41.338  31.590  36.161  1.00  0.00     0.010 A 
ATOM     14  C   UNL A   1      43.664  31.165  36.639  1.00  0.00     0.010 A 
ATOM     15  C   UNL A   1      42.612  32.070  36.468  1.00  0.00    -0.014 A 
BRANCH  15  16
ATOM     16  C   UNL A   1      42.881  33.506  36.239  1.00  0.00     0.031 A 
ATOM     17  C   UNL A   1      43.047  33.932  34.804  1.00  0.00     0.074 A 
ATOM     18  C   UNL A   1      42.970  34.392  37.246  1.00  0.00     0.049 A 
ATOM     19  N   UNL A   1      43.213  35.126  34.305  1.00  0.00    -0.248 NA
ATOM     20  C   UNL A   1      42.983  32.862  33.787  1.00  0.00     0.031 C 
ATOM     21  C   UNL A   1      42.801  34.086  38.664  1.00  0.00     0.029 A 
ATOM     22  N   UNL A   1      43.250  35.735  37.222  1.00  0.00    -0.354 N 
ATOM     23  C   UNL A   1      43.280  34.946  32.929  1.00  0.00     0.074 A 
ATOM     24  C   UNL A   1      43.088  33.543  32.659  1.00  0.00     0.031 C 
ATOM     25  C   UNL A   1      43.022  35.203  39.379  1.00  0.00     0.029 A 
ATOM     26  C   UNL A   1      43.360  36.299  38.471  1.00  0.00     0.049 A 
ATOM     27  H   UNL A   1      43.362  36.247  36.388  1.00  0.00     0.167 HD
ATOM     28  C   UNL A   1      43.521  35.862  31.968  1.00  0.00     0.034 A 
ATOM     29  C   UNL A   1      43.721  37.550  38.826  1.00  0.00     0.034 A 
ATOM     30  C   UNL A   1      43.814  37.235  32.243  1.00  0.00     0.049 A 
ATOM     31  C   UNL A   1      44.058  38.536  37.732  1.00  0.00     0.074 A 
ATOM     32  C   UNL A   1      44.115  38.245  31.352  1.00  0.00     0.029 A 
ATOM     33  N   UNL A   1      43.903  37.770  33.518  1.00  0.00    -0.354 N 
ATOM     34  N   UNL A   1      43.971  38.391  36.430  1.00  0.00    -0.248 NA
ATOM     35  C   UNL A   1      44.542  39.861  38.151  1.00  0.00     0.031 C 
ATOM     36  C   UNL A   1      44.431  39.387  32.095  1.00  0.00     0.029 A 
ATOM     37  C   UNL A   1      44.296  39.091  33.445  1.00  0.00     0.049 A 
ATOM     38  H   UNL A   1      43.716  37.281  34.352  1.00  0.00     0.167 HD
ATOM     39  C   UNL A   1      44.385  39.599  35.878  1.00  0.00     0.074 A 
ATOM     40  C   UNL A   1      44.681  40.482  36.988  1.00  0.00     0.031 C 
ATOM     41  C   UNL A   1      44.541  39.945  34.576  1.00  0.00     0.034 A 
BRANCH  28  42
ATOM     42  C   UNL A   1      43.549  35.371  30.550  1.00  0.00     0.023 A 
ATOM     43  C   UNL A   1      42.345  35.248  29.829  1.00  0.00     0.012 A 
ATOM     44  C   UNL A   1      44.766  35.006  29.946  1.00  0.00     0.148 A 
ATOM     45  C   UNL A   1      42.351  34.747  28.528  1.00  0.00     0.002 A 
ATOM     46  C   UNL A   1      44.767  34.535  28.641  1.00  0.00     0.091 A 
ATOM     47  F   UNL A   1      45.889  35.101  30.670  1.00  0.00    -0.205 F 
ATOM     48  C   UNL A   1      43.561  34.396  27.933  1.00  0.00     0.022 A 
BRANCH  46  49
ATOM     49  S   UNL A   1      46.273  34.081  27.774  1.00  0.00     0.127 S 
ATOM     50  O   UNL A   1      45.739  33.415  26.586  1.00  0.00    -0.237 OA
ATOM     51  O   UNL A   1      46.880  35.386  27.522  1.00  0.00    -0.237 OA
ATOM     52  O   UNL A   1      47.018  33.220  28.681  1.00  0.00    -0.744 OA
ENDBRANCH  46  49
ENDBRANCH  28  42
BRANCH  29  53
ATOM     53  C   UNL A   1      43.802  37.947  40.265  1.00  0.00     0.023 A 
ATOM     54  C   UNL A   1      45.005  37.766  40.975  1.00  0.00     0.012 A 
ATOM     55  C   UNL A   1      42.690  38.484  40.943  1.00  0.00     0.148 A 
ATOM     56  C   UNL A   1      45.090  38.081  42.334  1.00  0.00     0.002 A 
ATOM     57  C   UNL A   1      42.799  38.853  42.281  1.00  0.00     0.091 A 
ATOM     58  F   UNL A   1      41.535  38.617  40.275  1.00  0.00    -0.205 F 
ATOM     59  C   UNL A   1      43.991  38.635  42.985  1.00  0.00     0.022 A 
BRANCH  57  60
ATOM     60  S   UNL A   1      41.464  39.707  43.128  1.00  0.00     0.127 S 
ATOM     61  O   UNL A   1      41.182  40.810  42.213  1.00  0.00    -0.237 OA
ATOM     62  O   UNL A   1      40.425  38.678  43.192  1.00  0.00    -0.237 OA
ATOM     63  O   UNL A   1      42.018  40.068  44.426  1.00  0.00    -0.744 OA
ENDBRANCH  57  60
ENDBRANCH  29  53
BRANCH  41  64
ATOM     64  C   UNL A   1      45.066  41.320  34.274  1.00  0.00     0.023 A 
ATOM     65  C   UNL A   1      46.457  41.524  34.196  1.00  0.00     0.012 A 
ATOM     66  C   UNL A   1      44.188  42.365  33.928  1.00  0.00     0.148 A 
ATOM     67  C   UNL A   1      46.968  42.755  33.788  1.00  0.00     0.002 A 
ATOM     68  C   UNL A   1      44.703  43.572  33.476  1.00  0.00     0.091 A 
ATOM     69  F   UNL A   1      42.868  42.148  34.025  1.00  0.00    -0.205 F 
ATOM     70  C   UNL A   1      46.093  43.772  33.412  1.00  0.00     0.022 A 
BRANCH  68  71
ATOM     71  S   UNL A   1      43.653  44.895  32.869  1.00  0.00     0.127 S 
ATOM     72  O   UNL A   1      43.945  45.967  33.818  1.00  0.00    -0.237 OA
ATOM     73  O   UNL A   1      44.176  45.114  31.520  1.00  0.00    -0.237 OA
ATOM     74  O   UNL A   1      42.290  44.377  32.910  1.00  0.00    -0.744 OA
ENDBRANCH  68  71
ENDBRANCH  41  64
ENDBRANCH  15  16
ENDBRANCH   8  10
ENDBRANCH   7   8
ENDBRANCH   6   7
ENDBRANCH   5   6
ENDBRANCH   4   5
ENDBRANCH   3   4
ENDBRANCH   2   3
ENDBRANCH   1   2
BRANCH   1  75
ATOM     75  C   UNL A   1      44.443  28.744  28.669  1.00  0.00     0.188 C 
BRANCH  75  76
ATOM     76  C   UNL A   1      43.525  29.215  27.499  1.00  0.00     0.188 C 
BRANCH  76  77
ATOM     77  O   UNL A   1      42.145  28.636  27.353  1.00  0.00    -0.376 OA
BRANCH  77  78
ATOM     78  C   UNL A   1      40.326  28.115  27.957  1.00  0.00     0.202 C 
BRANCH  78  79
ATOM     79  C   UNL A   1      38.836  28.890  27.895  1.00  0.00     0.261 C 
BRANCH  79  80
ATOM     80  O   UNL A   1      38.702  30.166  28.564  1.00  0.00    -0.463 OA
BRANCH  80  81
ATOM     81  C   UNL A   1      38.088  30.164  29.769  1.00  0.00     0.310 C 
ATOM     82  O   UNL A   1      38.459  29.499  30.731  1.00  0.00    -0.252 OA
BRANCH  81  83
ATOM     83  C   UNL A   1      36.948  31.177  29.887  1.00  0.00     0.117 C 
ATOM     84  C   UNL A   1      37.127  32.285  28.850  1.00  0.00     0.017 C 
ATOM     85  C   UNL A   1      36.525  31.732  31.272  1.00  0.00     0.084 C 
ATOM     86  C   UNL A   1      35.845  33.104  28.708  1.00  0.00     0.001 C 
ATOM     87  C   UNL A   1      35.248  32.590  31.109  1.00  0.00     0.021 C 
ATOM     88  C   UNL A   1      35.381  33.674  30.043  1.00  0.00     0.002 C 
BRANCH  85  89
ATOM     89  N   UNL A   1      37.570  32.558  31.893  1.00  0.00    -0.207 NA
ATOM     90  H   UNL A   1      37.122  33.443  32.131  1.00  0.00     0.141 HD
BRANCH  89  91
ATOM     91  S   UNL A   1      38.428  32.082  33.274  1.00  0.00     0.240 S 
ATOM     92  O   UNL A   1      37.735  30.914  33.792  1.00  0.00    -0.207 OA
ATOM     93  O   UNL A   1      39.771  31.922  32.770  1.00  0.00    -0.207 OA
BRANCH  91  94
ATOM     94  C   UNL A   1      38.447  33.284  34.587  1.00  0.00     0.083 A 
ATOM     95  C   UNL A   1      39.399  34.768  34.188  1.00  0.00     0.022 A 
ATOM     96  C   UNL A   1      37.940  32.997  36.315  1.00  0.00     0.030 A 
ATOM     97  C   UNL A   1      39.878  35.889  35.517  1.00  0.00     0.010 A 
ATOM     98  C   UNL A   1      38.486  34.098  37.657  1.00  0.00    -0.017 A 
ATOM     99  C   UNL A   1      39.413  35.582  37.247  1.00  0.00    -0.018 A 
ATOM    100  C   UNL A   1      38.296  33.836  39.009  1.00  0.00     0.009 A 
ATOM    101  C   UNL A   1      39.798  36.345  38.345  1.00  0.00     0.009 A 
ATOM    102  C   UNL A   1      38.840  34.699  39.968  1.00  0.00     0.001 A 
ATOM    103  C   UNL A   1      39.537  35.893  39.653  1.00  0.00     0.001 A 
ENDBRANCH  91  94
ENDBRANCH  89  91
ENDBRANCH  85  89
ENDBRANCH  81  83
ENDBRANCH  80  81
ENDBRANCH  79  80
ENDBRANCH  78  79
ENDBRANCH  77  78
ENDBRANCH  76  77
ENDBRANCH  75  76
ENDBRANCH   1  75
TORSDOF 26
ENDMDL
MODEL 2
REMARK VINA RESULT:      -6.8      5.237     11.663
REMARK SMILES O=C(OCCOCCOCCOCCOC(=O)[C@@H]1CCCC[C@@H]1NS(=O)(=O)c1ccc2ccccc2c1)c1ccc(-c2c3nc(c(-c4cccc(S(=O)(=O)[O-])c4F)c4ccc([nH]4)c(-c4cccc(S(=O)(=O)[O-])c4F)c4nc(c(-c5cccc(S(=O)(=O)[O-])c5F)c5ccc2[nH]5)C=C4)C=C3)cc1
REMARK SMILES IDX 9 1 8 2 7 3 6 4 5 5 4 6 3 7 2 8 1 9 38 10 39 11 100 12 40 13
REMARK SMILES IDX 99 14 41 15 42 16 43 17 93 18 44 19 98 20 92 21 94 22 45 23
REMARK SMILES IDX 97 24 91 25 90 26 46 28 78 29 58 30 77 31 59 32 62 33 76 34
REMARK SMILES IDX 95 35 60 36 61 37 75 39 96 40 63 41 47 42 48 43 56 44 49 45
REMARK SMILES IDX 51 46 57 47 50 48 52 49 53 50 54 51 55 52 79 53 80 54 88 55
REMARK SMILES IDX 81 56 83 57 89 58 82 59 84 60 85 61 86 62 87 63 64 64 65 65
REMARK SMILES IDX 73 66 66 67 68 68 74 69 67 70 69 71 70 72 71 73 72 74 10 75
REMARK SMILES IDX 11 76 12 77 13 78 14 79 15 80 16 81 17 82 18 83 19 84 23 85
REMARK SMILES IDX 20 86 22 87 21 88 24 89 25 91 26 92 27 93 28 94 29 95 37 96
REMARK SMILES IDX 30 97 36 98 31 99 35 100 32 101 34 102 33 103
REMARK H PARENT 94 27 62 38 24 90
REMARK Flexibility Score: inf
ROOT
ATOM      1  O   UNL A   1      50.008  35.067  27.100  1.00  0.00    -0.377 OA
ENDROOT
BRANCH   1   2
ATOM      2  C   UNL A   1      51.245  34.443  26.761  1.00  0.00     0.188 C 
BRANCH   2   3
ATOM      3  C   UNL A   1      51.995  33.686  27.832  1.00  0.00     0.188 C 
BRANCH   3   4
ATOM      4  O   UNL A   1      51.817  32.275  27.733  1.00  0.00    -0.376 OA
BRANCH   4   5
ATOM      5  C   UNL A   1      52.553  31.653  26.689  1.00  0.00     0.202 C 
BRANCH   5   6
ATOM      6  C   UNL A   1      51.670  30.719  25.864  1.00  0.00     0.261 C 
BRANCH   6   7
ATOM      7  O   UNL A   1      51.919  29.337  26.195  1.00  0.00    -0.460 OA
BRANCH   7   8
ATOM      8  C   UNL A   1      51.786  28.694  27.379  1.00  0.00     0.338 C 
ATOM      9  O   UNL A   1      52.658  27.887  27.700  1.00  0.00    -0.246 OA
BRANCH   8  10
ATOM     10  C   UNL A   1      50.544  28.752  28.218  1.00  0.00     0.060 A 
ATOM     11  C   UNL A   1      49.233  28.640  27.753  1.00  0.00     0.016 A 
ATOM     12  C   UNL A   1      50.729  28.946  29.603  1.00  0.00     0.016 A 
ATOM     13  C   UNL A   1      48.144  28.665  28.627  1.00  0.00     0.010 A 
ATOM     14  C   UNL A   1      49.642  29.058  30.477  1.00  0.00     0.010 A 
ATOM     15  C   UNL A   1      48.340  28.946  29.980  1.00  0.00    -0.014 A 
BRANCH  15  16
ATOM     16  C   UNL A   1      47.192  29.475  30.746  1.00  0.00     0.031 A 
ATOM     17  C   UNL A   1      46.522  28.514  31.694  1.00  0.00     0.074 A 
ATOM     18  C   UNL A   1      46.763  30.742  30.618  1.00  0.00     0.049 A 
ATOM     19  N   UNL A   1      45.551  28.721  32.540  1.00  0.00    -0.248 NA
ATOM     20  C   UNL A   1      47.046  27.132  31.709  1.00  0.00     0.031 C 
ATOM     21  C   UNL A   1      47.356  31.757  29.750  1.00  0.00     0.029 A 
ATOM     22  N   UNL A   1      45.704  31.384  31.210  1.00  0.00    -0.354 N 
ATOM     23  C   UNL A   1      45.348  27.502  33.175  1.00  0.00     0.074 A 
ATOM     24  C   UNL A   1      46.321  26.571  32.662  1.00  0.00     0.031 C 
ATOM     25  C   UNL A   1      46.626  32.883  29.835  1.00  0.00     0.029 A 
ATOM     26  C   UNL A   1      45.508  32.666  30.753  1.00  0.00     0.049 A 
ATOM     27  H   UNL A   1      45.137  30.965  31.898  1.00  0.00     0.167 HD
ATOM     28  C   UNL A   1      44.406  27.168  34.081  1.00  0.00     0.034 A 
ATOM     29  C   UNL A   1      44.519  33.541  31.030  1.00  0.00     0.034 A 
ATOM     30  C   UNL A   1      43.376  28.062  34.514  1.00  0.00     0.049 A 
ATOM     31  C   UNL A   1      43.434  33.115  31.992  1.00  0.00     0.074 A 
ATOM     32  C   UNL A   1      42.343  27.822  35.397  1.00  0.00     0.029 A 
ATOM     33  N   UNL A   1      43.219  29.355  34.038  1.00  0.00    -0.354 N 
ATOM     34  N   UNL A   1      43.340  32.012  32.699  1.00  0.00    -0.248 NA
ATOM     35  C   UNL A   1      42.318  34.051  32.200  1.00  0.00     0.031 C 
ATOM     36  C   UNL A   1      41.532  28.960  35.422  1.00  0.00     0.029 A 
ATOM     37  C   UNL A   1      42.079  29.916  34.577  1.00  0.00     0.049 A 
ATOM     38  H   UNL A   1      43.828  29.805  33.409  1.00  0.00     0.167 HD
ATOM     39  C   UNL A   1      42.163  32.123  33.433  1.00  0.00     0.074 A 
ATOM     40  C   UNL A   1      41.599  33.420  33.118  1.00  0.00     0.031 C 
ATOM     41  C   UNL A   1      41.577  31.228  34.266  1.00  0.00     0.034 A 
BRANCH  28  42
ATOM     42  C   UNL A   1      44.419  25.757  34.591  1.00  0.00     0.023 A 
ATOM     43  C   UNL A   1      43.622  24.779  33.965  1.00  0.00     0.012 A 
ATOM     44  C   UNL A   1      45.201  25.411  35.709  1.00  0.00     0.148 A 
ATOM     45  C   UNL A   1      43.589  23.476  34.458  1.00  0.00     0.002 A 
ATOM     46  C   UNL A   1      45.183  24.106  36.177  1.00  0.00     0.091 A 
ATOM     47  F   UNL A   1      45.920  26.373  36.304  1.00  0.00    -0.205 F 
ATOM     48  C   UNL A   1      44.372  23.138  35.560  1.00  0.00     0.022 A 
BRANCH  46  49
ATOM     49  S   UNL A   1      46.174  23.561  37.573  1.00  0.00     0.127 S 
ATOM     50  O   UNL A   1      45.805  24.538  38.596  1.00  0.00    -0.237 OA
ATOM     51  O   UNL A   1      45.657  22.213  37.800  1.00  0.00    -0.237 OA
ATOM     52  O   UNL A   1      47.561  23.622  37.133  1.00  0.00    -0.744 OA
ENDBRANCH  46  49
ENDBRANCH  28  42
BRANCH  29  53
ATOM     53  C   UNL A   1      44.486  34.891  30.390  1.00  0.00     0.023 A 
ATOM     54  C   UNL A   1      45.194  35.960  30.975  1.00  0.00     0.012 A 
ATOM     55  C   UNL A   1      43.743  35.132  29.218  1.00  0.00     0.148 A 
ATOM     56  C   UNL A   1      45.137  37.243  30.425  1.00  0.00     0.002 A 
ATOM     57  C   UNL A   1      43.740  36.398  28.641  1.00  0.00     0.091 A 
ATOM     58  F   UNL A   1      43.039  34.122  28.687  1.00  0.00    -0.205 F 
ATOM     59  C   UNL A   1      44.420  37.461  29.251  1.00  0.00     0.022 A 
BRANCH  57  60
ATOM     60  S   UNL A   1      42.958  36.700  27.051  1.00  0.00     0.127 S 
ATOM     61  O   UNL A   1      43.865  36.018  26.133  1.00  0.00    -0.237 OA
ATOM     62  O   UNL A   1      41.652  36.059  27.219  1.00  0.00    -0.237 OA
ATOM     63  O   UNL A   1      42.891  38.151  26.939  1.00  0.00    -0.744 OA
ENDBRANCH  57  60
ENDBRANCH  29  53
BRANCH  41  64
ATOM     64  C   UNL A   1      40.258  31.602  34.883  1.00  0.00     0.023 A 
ATOM     65  C   UNL A   1      39.065  31.199  34.255  1.00  0.00     0.012 A 
ATOM     66  C   UNL A   1      40.208  32.220  36.147  1.00  0.00     0.148 A 
ATOM     67  C   UNL A   1      37.834  31.417  34.872  1.00  0.00     0.002 A 
ATOM     68  C   UNL A   1      38.983  32.390  36.778  1.00  0.00     0.091 A 
ATOM     69  F   UNL A   1      41.359  32.607  36.716  1.00  0.00    -0.205 F 
ATOM     70  C   UNL A   1      37.794  31.996  36.139  1.00  0.00     0.022 A 
BRANCH  68  71
ATOM     71  S   UNL A   1      38.846  33.025  38.452  1.00  0.00     0.127 S 
ATOM     72  O   UNL A   1      37.554  32.485  38.871  1.00  0.00    -0.237 OA
ATOM     73  O   UNL A   1      40.005  32.419  39.109  1.00  0.00    -0.237 OA
ATOM     74  O   UNL A   1      38.909  34.477  38.337  1.00  0.00    -0.744 OA
ENDBRANCH  68  71
ENDBRANCH  41  64
ENDBRANCH  15  16
ENDBRANCH   8  10
ENDBRANCH   7   8
ENDBRANCH   6   7
ENDBRANCH   5   6
ENDBRANCH   4   5
ENDBRANCH   3   4
ENDBRANCH   2   3
ENDBRANCH   1   2
BRANCH   1  75
ATOM     75  C   UNL A   1      48.771  34.465  26.735  1.00  0.00     0.188 C 
BRANCH  75  76
ATOM     76  C   UNL A   1      48.627  32.918  26.601  1.00  0.00     0.188 C 
BRANCH  76  77
ATOM     77  O   UNL A   1      47.290  32.319  26.262  1.00  0.00    -0.376 OA
BRANCH  77  78
ATOM     78  C   UNL A   1      45.308  32.261  26.148  1.00  0.00     0.202 C 
BRANCH  78  79
ATOM     79  C   UNL A   1      44.131  31.517  27.091  1.00  0.00     0.261 C 
BRANCH  79  80
ATOM     80  O   UNL A   1      44.562  30.744  28.236  1.00  0.00    -0.463 OA
BRANCH  80  81
ATOM     81  C   UNL A   1      44.208  29.439  28.261  1.00  0.00     0.310 C 
ATOM     82  O   UNL A   1      44.982  28.509  28.056  1.00  0.00    -0.252 OA
BRANCH  81  83
ATOM     83  C   UNL A   1      42.764  29.195  28.705  1.00  0.00     0.117 C 
ATOM     84  C   UNL A   1      42.741  28.699  30.151  1.00  0.00     0.017 C 
ATOM     85  C   UNL A   1      41.781  28.409  27.799  1.00  0.00     0.084 C 
ATOM     86  C   UNL A   1      41.329  28.782  30.728  1.00  0.00     0.001 C 
ATOM     87  C   UNL A   1      40.363  28.470  28.414  1.00  0.00     0.021 C 
ATOM     88  C   UNL A   1      40.318  28.027  29.873  1.00  0.00     0.002 C 
BRANCH  85  89
ATOM     89  N   UNL A   1      42.164  27.000  27.638  1.00  0.00    -0.207 NA
ATOM     90  H   UNL A   1      41.322  26.458  27.831  1.00  0.00     0.141 HD
BRANCH  89  91
ATOM     91  S   UNL A   1      42.807  26.373  26.202  1.00  0.00     0.240 S 
ATOM     92  O   UNL A   1      41.950  25.257  25.835  1.00  0.00    -0.207 OA
ATOM     93  O   UNL A   1      42.840  27.530  25.340  1.00  0.00    -0.207 OA
BRANCH  91  94
ATOM     94  C   UNL A   1      44.455  25.718  26.349  1.00  0.00     0.083 A 
ATOM     95  C   UNL A   1      44.804  25.012  27.976  1.00  0.00     0.022 A 
ATOM     96  C   UNL A   1      45.841  26.022  25.203  1.00  0.00     0.030 A 
ATOM     97  C   UNL A   1      46.514  24.690  28.447  1.00  0.00     0.010 A 
ATOM     98  C   UNL A   1      47.567  25.757  25.713  1.00  0.00    -0.017 A 
ATOM     99  C   UNL A   1      47.902  25.034  27.324  1.00  0.00    -0.018 A 
ATOM    100  C   UNL A   1      48.672  26.144  24.963  1.00  0.00     0.009 A 
ATOM    101  C   UNL A   1      49.252  24.890  27.624  1.00  0.00     0.009 A 
ATOM    102  C   UNL A   1      49.960  25.983  25.487  1.00  0.00     0.001 A 
ATOM    103  C   UNL A   1      50.234  25.376  26.738  1.00  0.00     0.001 A 
ENDBRANCH  91  94
ENDBRANCH  89  91
ENDBRANCH  85  89
ENDBRANCH  81  83
ENDBRANCH  80  81
ENDBRANCH  79  80
ENDBRANCH  78  79
ENDBRANCH  77  78
ENDBRANCH  76  77
ENDBRANCH  75  76
ENDBRANCH   1  75
TORSDOF 26
ENDMDL
MODEL 3
REMARK VINA RESULT:      -6.8      6.469     12.353
REMARK SMILES O=C(OCCOCCOCCOCCOC(=O)[C@@H]1CCCC[C@@H]1NS(=O)(=O)c1ccc2ccccc2c1)c1ccc(-c2c3nc(c(-c4cccc(S(=O)(=O)[O-])c4F)c4ccc([nH]4)c(-c4cccc(S(=O)(=O)[O-])c4F)c4nc(c(-c5cccc(S(=O)(=O)[O-])c5F)c5ccc2[nH]5)C=C4)C=C3)cc1
REMARK SMILES IDX 9 1 8 2 7 3 6 4 5 5 4 6 3 7 2 8 1 9 38 10 39 11 100 12 40 13
REMARK SMILES IDX 99 14 41 15 42 16 43 17 93 18 44 19 98 20 92 21 94 22 45 23
REMARK SMILES IDX 97 24 91 25 90 26 46 28 78 29 58 30 77 31 59 32 62 33 76 34
REMARK SMILES IDX 95 35 60 36 61 37 75 39 96 40 63 41 47 42 48 43 56 44 49 45
REMARK SMILES IDX 51 46 57 47 50 48 52 49 53 50 54 51 55 52 79 53 80 54 88 55
REMARK SMILES IDX 81 56 83 57 89 58 82 59 84 60 85 61 86 62 87 63 64 64 65 65
REMARK SMILES IDX 73 66 66 67 68 68 74 69 67 70 69 71 70 72 71 73 72 74 10 75
REMARK SMILES IDX 11 76 12 77 13 78 14 79 15 80 16 81 17 82 18 83 19 84 23 85
REMARK SMILES IDX 20 86 22 87 21 88 24 89 25 91 26 92 27 93 28 94 29 95 37 96
REMARK SMILES IDX 30 97 36 98 31 99 35 100 32 101 34 102 33 103
REMARK H PARENT 94 27 62 38 24 90
REMARK Flexibility Score: inf
ROOT
ATOM      1  O   UNL A   1      47.572  37.978  27.067  1.00  0.00    -0.377 OA
ENDROOT
BRANCH   1   2
ATOM      2  C   UNL A   1      47.460  38.853  28.187  1.00  0.00     0.188 C 
BRANCH   2   3
ATOM      3  C   UNL A   1      46.552  40.057  28.082  1.00  0.00     0.188 C 
BRANCH   3   4
ATOM      4  O   UNL A   1      46.747  40.788  26.875  1.00  0.00    -0.376 OA
BRANCH   4   5
ATOM      5  C   UNL A   1      45.680  41.657  26.524  1.00  0.00     0.202 C 
BRANCH   5   6
ATOM      6  C   UNL A   1      44.453  40.874  26.061  1.00  0.00     0.261 C 
BRANCH   6   7
ATOM      7  O   UNL A   1      43.359  41.018  26.991  1.00  0.00    -0.460 OA
BRANCH   7   8
ATOM      8  C   UNL A   1      42.575  40.071  27.556  1.00  0.00     0.338 C 
ATOM      9  O   UNL A   1      41.429  40.386  27.878  1.00  0.00    -0.246 OA
BRANCH   8  10
ATOM     10  C   UNL A   1      43.083  38.731  28.000  1.00  0.00     0.060 A 
ATOM     11  C   UNL A   1      43.355  37.642  27.171  1.00  0.00     0.016 A 
ATOM     12  C   UNL A   1      43.294  38.566  29.384  1.00  0.00     0.016 A 
ATOM     13  C   UNL A   1      43.869  36.447  27.682  1.00  0.00     0.010 A 
ATOM     14  C   UNL A   1      43.727  37.345  29.916  1.00  0.00     0.010 A 
ATOM     15  C   UNL A   1      43.987  36.271  29.061  1.00  0.00    -0.014 A 
BRANCH  15  16
ATOM     16  C   UNL A   1      44.018  34.885  29.578  1.00  0.00     0.031 A 
ATOM     17  C   UNL A   1      42.684  34.207  29.749  1.00  0.00     0.074 A 
ATOM     18  C   UNL A   1      45.166  34.253  29.876  1.00  0.00     0.049 A 
ATOM     19  N   UNL A   1      42.413  32.983  30.106  1.00  0.00    -0.248 NA
ATOM     20  C   UNL A   1      41.488  35.019  29.441  1.00  0.00     0.031 C 
ATOM     21  C   UNL A   1      46.508  34.811  29.723  1.00  0.00     0.029 A 
ATOM     22  N   UNL A   1      45.379  33.002  30.397  1.00  0.00    -0.354 N 
ATOM     23  C   UNL A   1      41.028  32.885  30.073  1.00  0.00     0.074 A 
ATOM     24  C   UNL A   1      40.509  34.150  29.614  1.00  0.00     0.031 C 
ATOM     25  C   UNL A   1      47.404  33.918  30.179  1.00  0.00     0.029 A 
ATOM     26  C   UNL A   1      46.700  32.734  30.668  1.00  0.00     0.049 A 
ATOM     27  H   UNL A   1      44.654  32.356  30.560  1.00  0.00     0.167 HD
ATOM     28  C   UNL A   1      40.245  31.846  30.431  1.00  0.00     0.034 A 
ATOM     29  C   UNL A   1      47.259  31.662  31.270  1.00  0.00     0.034 A 
ATOM     30  C   UNL A   1      40.755  30.629  30.983  1.00  0.00     0.049 A 
ATOM     31  C   UNL A   1      46.352  30.544  31.728  1.00  0.00     0.074 A 
ATOM     32  C   UNL A   1      40.054  29.523  31.421  1.00  0.00     0.029 A 
ATOM     33  N   UNL A   1      42.097  30.390  31.231  1.00  0.00    -0.354 N 
ATOM     34  N   UNL A   1      45.058  30.402  31.553  1.00  0.00    -0.248 NA
ATOM     35  C   UNL A   1      46.977  29.436  32.467  1.00  0.00     0.031 C 
ATOM     36  C   UNL A   1      40.974  28.629  31.976  1.00  0.00     0.029 A 
ATOM     37  C   UNL A   1      42.248  29.169  31.856  1.00  0.00     0.049 A 
ATOM     38  H   UNL A   1      42.833  31.001  30.998  1.00  0.00     0.167 HD
ATOM     39  C   UNL A   1      44.717  29.194  32.154  1.00  0.00     0.074 A 
ATOM     40  C   UNL A   1      45.948  28.622  32.661  1.00  0.00     0.031 C 
ATOM     41  C   UNL A   1      43.499  28.619  32.307  1.00  0.00     0.034 A 
BRANCH  28  42
ATOM     42  C   UNL A   1      38.762  32.032  30.299  1.00  0.00     0.023 A 
ATOM     43  C   UNL A   1      38.126  31.739  29.076  1.00  0.00     0.012 A 
ATOM     44  C   UNL A   1      38.007  32.525  31.379  1.00  0.00     0.148 A 
ATOM     45  C   UNL A   1      36.757  31.954  28.925  1.00  0.00     0.002 A 
ATOM     46  C   UNL A   1      36.640  32.709  31.230  1.00  0.00     0.091 A 
ATOM     47  F   UNL A   1      38.647  32.827  32.517  1.00  0.00    -0.205 F 
ATOM     48  C   UNL A   1      36.014  32.434  30.002  1.00  0.00     0.022 A 
BRANCH  46  49
ATOM     49  S   UNL A   1      35.589  33.298  32.562  1.00  0.00     0.127 S 
ATOM     50  O   UNL A   1      35.979  34.704  32.646  1.00  0.00    -0.237 OA
ATOM     51  O   UNL A   1      34.253  33.066  32.014  1.00  0.00    -0.237 OA
ATOM     52  O   UNL A   1      35.923  32.493  33.728  1.00  0.00    -0.744 OA
ENDBRANCH  46  49
ENDBRANCH  28  42
BRANCH  29  53
ATOM     53  C   UNL A   1      48.735  31.589  31.492  1.00  0.00     0.023 A 
ATOM     54  C   UNL A   1      49.566  31.038  30.497  1.00  0.00     0.012 A 
ATOM     55  C   UNL A   1      49.322  32.041  32.689  1.00  0.00     0.148 A 
ATOM     56  C   UNL A   1      50.942  30.911  30.702  1.00  0.00     0.002 A 
ATOM     57  C   UNL A   1      50.701  31.969  32.863  1.00  0.00     0.091 A 
ATOM     58  F   UNL A   1      48.523  32.528  33.650  1.00  0.00    -0.205 F 
ATOM     59  C   UNL A   1      51.512  31.387  31.880  1.00  0.00     0.022 A 
BRANCH  57  60
ATOM     60  S   UNL A   1      51.504  32.701  34.294  1.00  0.00     0.127 S 
ATOM     61  O   UNL A   1      52.866  32.188  34.173  1.00  0.00    -0.237 OA
ATOM     62  O   UNL A   1      51.359  34.134  34.035  1.00  0.00    -0.237 OA
ATOM     63  O   UNL A   1      50.733  32.227  35.436  1.00  0.00    -0.744 OA
ENDBRANCH  57  60
ENDBRANCH  29  53
BRANCH  41  64
ATOM     64  C   UNL A   1      43.425  27.321  33.061  1.00  0.00     0.023 A 
ATOM     65  C   UNL A   1      44.004  26.166  32.502  1.00  0.00     0.012 A 
ATOM     66  C   UNL A   1      42.915  27.281  34.373  1.00  0.00     0.148 A 
ATOM     67  C   UNL A   1      44.067  24.983  33.236  1.00  0.00     0.002 A 
ATOM     68  C   UNL A   1      43.024  26.113  35.115  1.00  0.00     0.091 A 
ATOM     69  F   UNL A   1      42.355  28.392  34.875  1.00  0.00    -0.205 F 
ATOM     70  C   UNL A   1      43.593  24.960  34.546  1.00  0.00     0.022 A 
BRANCH  68  71
ATOM     71  S   UNL A   1      42.542  26.026  36.842  1.00  0.00     0.127 S 
ATOM     72  O   UNL A   1      42.818  27.387  37.298  1.00  0.00    -0.237 OA
ATOM     73  O   UNL A   1      41.121  25.688  36.751  1.00  0.00    -0.237 OA
ATOM     74  O   UNL A   1      43.371  24.986  37.439  1.00  0.00    -0.744 OA
ENDBRANCH  68  71
ENDBRANCH  41  64
ENDBRANCH  15  16
ENDBRANCH   8  10
ENDBRANCH   7   8
ENDBRANCH   6   7
ENDBRANCH   5   6
ENDBRANCH   4   5
ENDBRANCH   3   4
ENDBRANCH   2   3
ENDBRANCH   1   2
BRANCH   1  75
ATOM     75  C   UNL A   1      48.807  37.846  26.373  1.00  0.00     0.188 C 
BRANCH  75  76
ATOM     76  C   UNL A   1      48.991  36.802  25.229  1.00  0.00     0.188 C 
BRANCH  76  77
ATOM     77  O   UNL A   1      48.536  35.384  25.433  1.00  0.00    -0.376 OA
BRANCH  77  78
ATOM     78  C   UNL A   1      48.104  33.753  26.481  1.00  0.00     0.202 C 
BRANCH  78  79
ATOM     79  C   UNL A   1      48.986  32.373  26.862  1.00  0.00     0.261 C 
BRANCH  79  80
ATOM     80  O   UNL A   1      48.260  31.147  27.113  1.00  0.00    -0.463 OA
BRANCH  80  81
ATOM     81  C   UNL A   1      48.973  29.997  27.093  1.00  0.00     0.310 C 
ATOM     82  O   UNL A   1      49.966  29.814  26.396  1.00  0.00    -0.252 OA
BRANCH  81  83
ATOM     83  C   UNL A   1      48.516  28.964  28.123  1.00  0.00     0.117 C 
ATOM     84  C   UNL A   1      49.668  28.016  28.456  1.00  0.00     0.017 C 
ATOM     85  C   UNL A   1      47.171  28.214  27.947  1.00  0.00     0.084 C 
ATOM     86  C   UNL A   1      49.357  27.210  29.716  1.00  0.00     0.001 C 
ATOM     87  C   UNL A   1      46.886  27.372  29.213  1.00  0.00     0.021 C 
ATOM     88  C   UNL A   1      48.040  26.451  29.598  1.00  0.00     0.002 C 
BRANCH  85  89
ATOM     89  N   UNL A   1      47.170  27.322  26.780  1.00  0.00    -0.207 NA
ATOM     90  H   UNL A   1      47.822  26.569  27.002  1.00  0.00     0.141 HD
BRANCH  89  91
ATOM     91  S   UNL A   1      45.772  26.569  26.189  1.00  0.00     0.240 S 
ATOM     92  O   UNL A   1      45.543  27.132  24.868  1.00  0.00    -0.207 OA
ATOM     93  O   UNL A   1      46.100  25.168  26.294  1.00  0.00    -0.207 OA
BRANCH  91  94
ATOM     94  C   UNL A   1      44.299  26.888  27.136  1.00  0.00     0.083 A 
ATOM     95  C   UNL A   1      43.833  25.518  28.220  1.00  0.00     0.022 A 
ATOM     96  C   UNL A   1      43.100  28.230  26.843  1.00  0.00     0.030 A 
ATOM     97  C   UNL A   1      42.175  25.481  28.927  1.00  0.00     0.010 A 
ATOM     98  C   UNL A   1      41.407  28.149  27.506  1.00  0.00    -0.017 A 
ATOM     99  C   UNL A   1      40.961  26.794  28.600  1.00  0.00    -0.018 A 
ATOM    100  C   UNL A   1      40.392  29.036  27.168  1.00  0.00     0.009 A 
ATOM    101  C   UNL A   1      39.641  26.815  29.037  1.00  0.00     0.009 A 
ATOM    102  C   UNL A   1      39.096  28.831  27.658  1.00  0.00     0.001 A 
ATOM    103  C   UNL A   1      38.746  27.789  28.553  1.00  0.00     0.001 A 
ENDBRANCH  91  94
ENDBRANCH  89  91
ENDBRANCH  85  89
ENDBRANCH  81  83
ENDBRANCH  80  81
ENDBRANCH  79  80
ENDBRANCH  78  79
ENDBRANCH  77  78
ENDBRANCH  76  77
ENDBRANCH  75  76
ENDBRANCH   1  75
TORSDOF 26
ENDMDL
