MODEL 1
REMARK VINA RESULT:      -8.7      0.000      0.000
REMARK SMILES Cc1ccccc1/[NH+]=C1\S[C@@H](CC(=O)Nc2ccc(C(=O)OCCOCCOCCOCCOC(=O)c3ccc(-c4c5nc(c(-c6cccc(S(=O)(=O)[O-])c6F)c6ccc([nH]6)c(-c6cccc(S(=O)(=O)[O-])c6F)c6nc(c(-c7cccc(S(=O)(=O)[O-])c7F)c7ccc4[nH]7)C=C6)C=C5)cc3)cc2)C(=O)N1C
REMARK SMILES IDX 27 1 26 2 25 3 24 4 23 5 22 6 20 7 21 8 19 9 16 10 17 11
REMARK SMILES IDX 101 12 18 13 100 14 15 15 13 16 14 17 12 19 11 20 8 21 9 22
REMARK SMILES IDX 10 24 104 25 102 26 105 27 103 28 7 29 1 30 2 31 3 32 4 33
REMARK SMILES IDX 6 34 5 35 28 36 29 37 30 38 31 39 32 40 33 41 34 42 35 43
REMARK SMILES IDX 36 44 37 45 38 46 99 47 39 48 98 49 40 50 41 51 42 52 92 53
REMARK SMILES IDX 43 54 97 55 91 56 93 57 44 58 96 59 90 60 89 61 45 63 77 64
REMARK SMILES IDX 57 65 76 66 58 67 61 68 75 69 94 70 59 71 60 72 74 74 95 75
REMARK SMILES IDX 62 76 46 77 47 78 55 79 48 80 50 81 56 82 49 83 51 84 52 85
REMARK SMILES IDX 53 86 54 87 78 88 79 89 87 90 80 91 82 92 88 93 81 94 83 95
REMARK SMILES IDX 84 96 85 97 86 98 63 99 64 100 72 101 65 102 67 103 73 104
REMARK SMILES IDX 66 105 68 106 69 107 70 108 71 109
REMARK H PARENT 15 18 8 23 93 62 61 73
REMARK Flexibility Score: inf
ROOT
ATOM      1  C   UNL A   1      43.888  28.429  30.141  1.00  0.00     0.188 C 
ENDROOT
BRANCH   1   2
ATOM      2  C   UNL A   1      44.404  27.201  30.964  1.00  0.00     0.188 C 
BRANCH   2   3
ATOM      3  O   UNL A   1      44.608  26.099  30.073  1.00  0.00    -0.376 OA
BRANCH   3   4
ATOM      4  C   UNL A   1      45.430  26.337  28.946  1.00  0.00     0.202 C 
BRANCH   4   5
ATOM      5  C   UNL A   1      45.033  25.809  27.641  1.00  0.00     0.261 C 
BRANCH   5   6
ATOM      6  O   UNL A   1      43.674  25.928  27.466  1.00  0.00    -0.460 OA
BRANCH   6   7
ATOM      7  C   UNL A   1      43.289  25.276  26.369  1.00  0.00     0.338 C 
ATOM      8  O   UNL A   1      43.961  24.734  25.470  1.00  0.00    -0.246 OA
BRANCH   7   9
ATOM      9  C   UNL A   1      41.913  24.989  26.637  1.00  0.00     0.060 A 
ATOM     10  C   UNL A   1      39.362  24.097  26.696  1.00  0.00     0.041 A 
ATOM     11  C   UNL A   1      40.419  23.250  26.726  1.00  0.00     0.027 A 
ATOM     12  C   UNL A   1      39.592  25.400  26.271  1.00  0.00     0.027 A 
ATOM     13  C   UNL A   1      41.631  23.705  27.061  1.00  0.00     0.018 A 
ATOM     14  C   UNL A   1      40.914  25.822  26.145  1.00  0.00     0.018 A 
BRANCH  10  15
ATOM     15  N   UNL A   1      38.153  23.541  27.112  1.00  0.00    -0.326 N 
ATOM     16  C   UNL A   1      36.977  23.464  26.366  1.00  0.00     0.226 C 
ATOM     17  O   UNL A   1      35.939  23.123  26.941  1.00  0.00    -0.275 OA
ATOM     18  H   UNL A   1      38.127  23.165  28.022  1.00  0.00     0.169 HD
BRANCH  16  19
ATOM     19  C   UNL A   1      36.949  23.648  24.813  1.00  0.00     0.128 C 
BRANCH  19  20
ATOM     20  C   UNL A   1      35.571  23.898  24.171  1.00  0.00     0.183 C 
ATOM     21  N   UNL A   1      31.978  24.560  24.123  1.00  0.00    -0.234 N 
ATOM     22  C   UNL A   1      33.111  24.272  24.654  1.00  0.00     0.319 C 
ATOM     23  H   UNL A   1      31.383  23.784  24.020  1.00  0.00     0.313 HD
ATOM     24  S   UNL A   1      34.542  25.125  25.135  1.00  0.00    -0.022 SA
ATOM     25  N   UNL A   1      33.439  22.967  24.721  1.00  0.00    -0.193 N 
ATOM     26  C   UNL A   1      34.614  22.704  24.068  1.00  0.00     0.324 C 
ATOM     27  C   UNL A   1      32.921  22.163  25.800  1.00  0.00     0.301 C 
ATOM     28  O   UNL A   1      34.867  21.671  23.460  1.00  0.00    -0.245 OA
BRANCH  21  29
ATOM     29  C   UNL A   1      31.423  25.755  23.665  1.00  0.00     0.128 A 
ATOM     30  C   UNL A   1      32.378  25.799  21.280  1.00  0.00     0.049 C 
ATOM     31  C   UNL A   1      31.571  26.361  22.406  1.00  0.00    -0.004 A 
ATOM     32  C   UNL A   1      30.876  27.552  22.117  1.00  0.00     0.008 A 
ATOM     33  C   UNL A   1      29.915  28.057  22.985  1.00  0.00     0.001 A 
ATOM     34  C   UNL A   1      30.421  26.275  24.513  1.00  0.00     0.052 A 
ATOM     35  C   UNL A   1      29.657  27.394  24.173  1.00  0.00     0.004 A 
ENDBRANCH  21  29
ENDBRANCH  19  20
ENDBRANCH  16  19
ENDBRANCH  10  15
ENDBRANCH   7   9
ENDBRANCH   6   7
ENDBRANCH   5   6
ENDBRANCH   4   5
ENDBRANCH   3   4
ENDBRANCH   2   3
ENDBRANCH   1   2
BRANCH   1  36
ATOM     36  O   UNL A   1      42.692  28.347  29.333  1.00  0.00    -0.377 OA
BRANCH  36  37
ATOM     37  C   UNL A   1      41.484  29.129  29.411  1.00  0.00     0.188 C 
BRANCH  37  38
ATOM     38  C   UNL A   1      40.073  28.536  29.472  1.00  0.00     0.188 C 
BRANCH  38  39
ATOM     39  O   UNL A   1      39.104  29.485  29.102  1.00  0.00    -0.376 OA
BRANCH  39  40
ATOM     40  C   UNL A   1      37.891  28.955  28.608  1.00  0.00     0.202 C 
BRANCH  40  41
ATOM     41  C   UNL A   1      37.074  29.975  27.809  1.00  0.00     0.261 C 
BRANCH  41  42
ATOM     42  O   UNL A   1      35.699  29.966  28.254  1.00  0.00    -0.460 OA
BRANCH  42  43
ATOM     43  C   UNL A   1      35.050  31.165  28.180  1.00  0.00     0.338 C 
ATOM     44  O   UNL A   1      34.605  31.638  27.146  1.00  0.00    -0.246 OA
BRANCH  43  45
ATOM     45  C   UNL A   1      35.188  31.904  29.479  1.00  0.00     0.060 A 
ATOM     46  C   UNL A   1      35.395  33.281  29.432  1.00  0.00     0.016 A 
ATOM     47  C   UNL A   1      35.574  31.194  30.620  1.00  0.00     0.016 A 
ATOM     48  C   UNL A   1      36.264  33.856  30.357  1.00  0.00     0.010 A 
ATOM     49  C   UNL A   1      36.568  31.742  31.437  1.00  0.00     0.010 A 
ATOM     50  C   UNL A   1      37.014  33.050  31.224  1.00  0.00    -0.014 A 
BRANCH  50  51
ATOM     51  C   UNL A   1      38.259  33.631  31.829  1.00  0.00     0.031 A 
ATOM     52  C   UNL A   1      38.163  34.136  33.332  1.00  0.00     0.074 A 
ATOM     53  C   UNL A   1      39.304  33.693  30.926  1.00  0.00     0.049 A 
ATOM     54  N   UNL A   1      39.050  34.613  34.177  1.00  0.00    -0.248 NA
ATOM     55  C   UNL A   1      36.868  33.983  34.008  1.00  0.00     0.031 C 
ATOM     56  C   UNL A   1      40.125  32.531  30.496  1.00  0.00     0.029 A 
ATOM     57  N   UNL A   1      40.162  34.724  30.581  1.00  0.00    -0.354 N 
ATOM     58  C   UNL A   1      38.532  34.559  35.516  1.00  0.00     0.074 A 
ATOM     59  C   UNL A   1      37.140  34.260  35.283  1.00  0.00     0.031 C 
ATOM     60  C   UNL A   1      41.327  32.850  30.001  1.00  0.00     0.029 A 
ATOM     61  C   UNL A   1      41.405  34.272  30.129  1.00  0.00     0.049 A 
ATOM     62  H   UNL A   1      39.922  35.677  30.647  1.00  0.00     0.167 HD
ATOM     63  C   UNL A   1      39.251  34.666  36.716  1.00  0.00     0.034 A 
ATOM     64  C   UNL A   1      42.559  34.907  29.855  1.00  0.00     0.034 A 
ATOM     65  C   UNL A   1      40.722  35.027  36.583  1.00  0.00     0.049 A 
ATOM     66  C   UNL A   1      43.100  35.691  31.047  1.00  0.00     0.074 A 
ATOM     67  C   UNL A   1      41.896  34.505  37.139  1.00  0.00     0.029 A 
ATOM     68  N   UNL A   1      41.192  36.013  35.689  1.00  0.00    -0.354 N 
ATOM     69  N   UNL A   1      42.801  35.506  32.325  1.00  0.00    -0.248 NA
ATOM     70  C   UNL A   1      44.234  36.591  30.887  1.00  0.00     0.031 C 
ATOM     71  C   UNL A   1      43.028  35.012  36.428  1.00  0.00     0.029 A 
ATOM     72  C   UNL A   1      42.573  35.869  35.424  1.00  0.00     0.049 A 
ATOM     73  H   UNL A   1      40.627  36.717  35.297  1.00  0.00     0.167 HD
ATOM     74  C   UNL A   1      43.524  36.399  33.131  1.00  0.00     0.074 A 
ATOM     75  C   UNL A   1      44.489  36.935  32.160  1.00  0.00     0.031 C 
ATOM     76  C   UNL A   1      43.335  36.724  34.481  1.00  0.00     0.034 A 
BRANCH  63  77
ATOM     77  C   UNL A   1      38.702  34.247  38.199  1.00  0.00     0.023 A 
ATOM     78  C   UNL A   1      38.994  35.111  39.297  1.00  0.00     0.012 A 
ATOM     79  C   UNL A   1      37.959  33.102  38.615  1.00  0.00     0.148 A 
ATOM     80  C   UNL A   1      38.689  34.850  40.652  1.00  0.00     0.002 A 
ATOM     81  C   UNL A   1      37.594  32.861  39.967  1.00  0.00     0.091 A 
ATOM     82  F   UNL A   1      37.556  32.197  37.732  1.00  0.00    -0.205 F 
ATOM     83  C   UNL A   1      37.983  33.719  40.991  1.00  0.00     0.022 A 
BRANCH  81  84
ATOM     84  S   UNL A   1      36.562  31.463  40.490  1.00  0.00     0.127 S 
ATOM     85  O   UNL A   1      36.447  31.685  41.933  1.00  0.00    -0.237 OA
ATOM     86  O   UNL A   1      35.323  31.691  39.746  1.00  0.00    -0.237 OA
ATOM     87  O   UNL A   1      37.282  30.253  40.114  1.00  0.00    -0.744 OA
ENDBRANCH  81  84
ENDBRANCH  63  77
BRANCH  64  88
ATOM     88  C   UNL A   1      42.615  35.083  28.326  1.00  0.00     0.023 A 
ATOM     89  C   UNL A   1      42.139  36.325  27.796  1.00  0.00     0.012 A 
ATOM     90  C   UNL A   1      43.836  34.607  27.811  1.00  0.00     0.148 A 
ATOM     91  C   UNL A   1      43.010  37.202  27.114  1.00  0.00     0.002 A 
ATOM     92  C   UNL A   1      44.739  35.530  27.273  1.00  0.00     0.091 A 
ATOM     93  F   UNL A   1      44.207  33.368  28.156  1.00  0.00    -0.205 F 
ATOM     94  C   UNL A   1      44.337  36.831  26.934  1.00  0.00     0.022 A 
BRANCH  92  95
ATOM     95  S   UNL A   1      46.510  35.313  27.575  1.00  0.00     0.127 S 
ATOM     96  O   UNL A   1      46.634  33.876  27.773  1.00  0.00    -0.237 OA
ATOM     97  O   UNL A   1      47.063  35.821  26.322  1.00  0.00    -0.237 OA
ATOM     98  O   UNL A   1      46.801  36.161  28.721  1.00  0.00    -0.744 OA
ENDBRANCH  92  95
ENDBRANCH  64  88
BRANCH  76  99
ATOM     99  C   UNL A   1      43.892  37.997  35.171  1.00  0.00     0.023 A 
ATOM    100  C   UNL A   1      44.860  37.965  36.185  1.00  0.00     0.012 A 
ATOM    101  C   UNL A   1      43.594  39.301  34.657  1.00  0.00     0.148 A 
ATOM    102  C   UNL A   1      45.478  39.127  36.667  1.00  0.00     0.002 A 
ATOM    103  C   UNL A   1      44.291  40.432  35.052  1.00  0.00     0.091 A 
ATOM    104  F   UNL A   1      42.610  39.497  33.777  1.00  0.00    -0.205 F 
ATOM    105  C   UNL A   1      45.223  40.355  36.077  1.00  0.00     0.022 A 
BRANCH 103 106
ATOM    106  S   UNL A   1      44.123  41.990  34.160  1.00  0.00     0.127 S 
ATOM    107  O   UNL A   1      44.475  42.961  35.194  1.00  0.00    -0.237 OA
ATOM    108  O   UNL A   1      45.119  41.834  33.099  1.00  0.00    -0.237 OA
ATOM    109  O   UNL A   1      42.748  42.047  33.683  1.00  0.00    -0.744 OA
ENDBRANCH 103 106
ENDBRANCH  76  99
ENDBRANCH  50  51
ENDBRANCH  43  45
ENDBRANCH  42  43
ENDBRANCH  41  42
ENDBRANCH  40  41
ENDBRANCH  39  40
ENDBRANCH  38  39
ENDBRANCH  37  38
ENDBRANCH  36  37
ENDBRANCH   1  36
TORSDOF 27
ENDMDL
MODEL 2
REMARK VINA RESULT:      -8.3      7.697     12.850
REMARK SMILES Cc1ccccc1/[NH+]=C1\S[C@@H](CC(=O)Nc2ccc(C(=O)OCCOCCOCCOCCOC(=O)c3ccc(-c4c5nc(c(-c6cccc(S(=O)(=O)[O-])c6F)c6ccc([nH]6)c(-c6cccc(S(=O)(=O)[O-])c6F)c6nc(c(-c7cccc(S(=O)(=O)[O-])c7F)c7ccc4[nH]7)C=C6)C=C5)cc3)cc2)C(=O)N1C
REMARK SMILES IDX 27 1 26 2 25 3 24 4 23 5 22 6 20 7 21 8 19 9 16 10 17 11
REMARK SMILES IDX 101 12 18 13 100 14 15 15 13 16 14 17 12 19 11 20 8 21 9 22
REMARK SMILES IDX 10 24 104 25 102 26 105 27 103 28 7 29 1 30 2 31 3 32 4 33
REMARK SMILES IDX 6 34 5 35 28 36 29 37 30 38 31 39 32 40 33 41 34 42 35 43
REMARK SMILES IDX 36 44 37 45 38 46 99 47 39 48 98 49 40 50 41 51 42 52 92 53
REMARK SMILES IDX 43 54 97 55 91 56 93 57 44 58 96 59 90 60 89 61 45 63 77 64
REMARK SMILES IDX 57 65 76 66 58 67 61 68 75 69 94 70 59 71 60 72 74 74 95 75
REMARK SMILES IDX 62 76 46 77 47 78 55 79 48 80 50 81 56 82 49 83 51 84 52 85
REMARK SMILES IDX 53 86 54 87 78 88 79 89 87 90 80 91 82 92 88 93 81 94 83 95
REMARK SMILES IDX 84 96 85 97 86 98 63 99 64 100 72 101 65 102 67 103 73 104
REMARK SMILES IDX 66 105 68 106 69 107 70 108 71 109
REMARK H PARENT 15 18 8 23 93 62 61 73
REMARK Flexibility Score: inf
ROOT
ATOM      1  C   UNL A   1      44.756  31.140  35.890  1.00  0.00     0.188 C 
ENDROOT
BRANCH   1   2
ATOM      2  C   UNL A   1      44.752  29.983  36.945  1.00  0.00     0.188 C 
BRANCH   2   3
ATOM      3  O   UNL A   1      43.399  29.605  37.214  1.00  0.00    -0.376 OA
BRANCH   3   4
ATOM      4  C   UNL A   1      42.413  30.097  36.325  1.00  0.00     0.202 C 
BRANCH   4   5
ATOM      5  C   UNL A   1      41.397  29.185  35.800  1.00  0.00     0.261 C 
BRANCH   5   6
ATOM      6  O   UNL A   1      40.148  29.754  35.888  1.00  0.00    -0.460 OA
BRANCH   6   7
ATOM      7  C   UNL A   1      39.639  29.945  34.671  1.00  0.00     0.338 C 
ATOM      8  O   UNL A   1      39.701  29.236  33.647  1.00  0.00    -0.246 OA
BRANCH   7   9
ATOM      9  C   UNL A   1      38.665  30.970  34.890  1.00  0.00     0.060 A 
ATOM     10  C   UNL A   1      36.998  33.095  34.796  1.00  0.00     0.041 A 
ATOM     11  C   UNL A   1      37.034  32.166  33.809  1.00  0.00     0.027 A 
ATOM     12  C   UNL A   1      38.073  33.143  35.675  1.00  0.00     0.027 A 
ATOM     13  C   UNL A   1      37.577  30.966  34.041  1.00  0.00     0.018 A 
ATOM     14  C   UNL A   1      38.986  32.091  35.647  1.00  0.00     0.018 A 
BRANCH  10  15
ATOM     15  N   UNL A   1      35.856  33.895  34.805  1.00  0.00    -0.326 N 
ATOM     16  C   UNL A   1      35.410  34.712  33.766  1.00  0.00     0.226 C 
ATOM     17  O   UNL A   1      34.495  35.509  33.999  1.00  0.00    -0.275 OA
ATOM     18  H   UNL A   1      35.312  33.882  35.625  1.00  0.00     0.169 HD
BRANCH  16  19
ATOM     19  C   UNL A   1      35.917  34.560  32.295  1.00  0.00     0.128 C 
BRANCH  19  20
ATOM     20  C   UNL A   1      34.986  33.822  31.314  1.00  0.00     0.183 C 
ATOM     21  N   UNL A   1      33.818  32.652  28.056  1.00  0.00    -0.234 N 
ATOM     22  C   UNL A   1      34.545  33.331  28.866  1.00  0.00     0.319 C 
ATOM     23  H   UNL A   1      33.117  33.183  27.616  1.00  0.00     0.313 HD
ATOM     24  S   UNL A   1      35.915  33.043  29.891  1.00  0.00    -0.022 SA
ATOM     25  N   UNL A   1      34.091  34.550  29.220  1.00  0.00    -0.193 N 
ATOM     26  C   UNL A   1      33.934  34.660  30.576  1.00  0.00     0.324 C 
ATOM     27  C   UNL A   1      34.320  35.671  28.342  1.00  0.00     0.301 C 
ATOM     28  O   UNL A   1      33.061  35.313  31.134  1.00  0.00    -0.245 OA
BRANCH  21  29
ATOM     29  C   UNL A   1      33.825  31.310  27.674  1.00  0.00     0.128 A 
ATOM     30  C   UNL A   1      31.545  31.176  26.496  1.00  0.00     0.049 C 
ATOM     31  C   UNL A   1      32.835  30.595  26.980  1.00  0.00    -0.004 A 
ATOM     32  C   UNL A   1      33.058  29.247  26.637  1.00  0.00     0.008 A 
ATOM     33  C   UNL A   1      34.299  28.649  26.819  1.00  0.00     0.001 A 
ATOM     34  C   UNL A   1      35.083  30.687  27.820  1.00  0.00     0.052 A 
ATOM     35  C   UNL A   1      35.331  29.385  27.378  1.00  0.00     0.004 A 
ENDBRANCH  21  29
ENDBRANCH  19  20
ENDBRANCH  16  19
ENDBRANCH  10  15
ENDBRANCH   7   9
ENDBRANCH   6   7
ENDBRANCH   5   6
ENDBRANCH   4   5
ENDBRANCH   3   4
ENDBRANCH   2   3
ENDBRANCH   1   2
BRANCH   1  36
ATOM     36  O   UNL A   1      44.743  30.868  34.470  1.00  0.00    -0.377 OA
BRANCH  36  37
ATOM     37  C   UNL A   1      45.818  30.963  33.515  1.00  0.00     0.188 C 
BRANCH  37  38
ATOM     38  C   UNL A   1      45.649  30.779  32.004  1.00  0.00     0.188 C 
BRANCH  38  39
ATOM     39  O   UNL A   1      44.890  31.822  31.443  1.00  0.00    -0.376 OA
BRANCH  39  40
ATOM     40  C   UNL A   1      44.787  31.811  30.035  1.00  0.00     0.202 C 
BRANCH  40  41
ATOM     41  C   UNL A   1      43.456  31.241  29.536  1.00  0.00     0.261 C 
BRANCH  41  42
ATOM     42  O   UNL A   1      43.387  29.824  29.813  1.00  0.00    -0.460 OA
BRANCH  42  43
ATOM     43  C   UNL A   1      42.399  29.441  30.673  1.00  0.00     0.338 C 
ATOM     44  O   UNL A   1      41.487  30.169  31.033  1.00  0.00    -0.246 OA
BRANCH  43  45
ATOM     45  C   UNL A   1      42.736  28.113  31.284  1.00  0.00     0.060 A 
ATOM     46  C   UNL A   1      43.273  28.100  32.570  1.00  0.00     0.016 A 
ATOM     47  C   UNL A   1      42.958  27.020  30.441  1.00  0.00     0.016 A 
ATOM     48  C   UNL A   1      44.273  27.175  32.865  1.00  0.00     0.010 A 
ATOM     49  C   UNL A   1      44.070  26.208  30.685  1.00  0.00     0.010 A 
ATOM     50  C   UNL A   1      44.818  26.372  31.855  1.00  0.00    -0.014 A 
BRANCH  50  51
ATOM     51  C   UNL A   1      46.178  25.777  32.082  1.00  0.00     0.031 A 
ATOM     52  C   UNL A   1      46.339  24.794  33.318  1.00  0.00     0.074 A 
ATOM     53  C   UNL A   1      47.116  26.251  31.184  1.00  0.00     0.049 A 
ATOM     54  N   UNL A   1      47.335  24.055  33.755  1.00  0.00    -0.248 NA
ATOM     55  C   UNL A   1      45.141  24.539  34.131  1.00  0.00     0.031 C 
ATOM     56  C   UNL A   1      47.229  25.822  29.766  1.00  0.00     0.029 A 
ATOM     57  N   UNL A   1      48.386  26.774  31.370  1.00  0.00    -0.354 N 
ATOM     58  C   UNL A   1      46.848  23.068  34.677  1.00  0.00     0.074 A 
ATOM     59  C   UNL A   1      45.503  23.529  34.922  1.00  0.00     0.031 C 
ATOM     60  C   UNL A   1      48.429  26.032  29.213  1.00  0.00     0.029 A 
ATOM     61  C   UNL A   1      49.225  26.572  30.270  1.00  0.00     0.049 A 
ATOM     62  H   UNL A   1      48.669  27.238  32.191  1.00  0.00     0.167 HD
ATOM     63  C   UNL A   1      47.507  21.910  35.117  1.00  0.00     0.034 A 
ATOM     64  C   UNL A   1      50.544  26.761  30.087  1.00  0.00     0.034 A 
ATOM     65  C   UNL A   1      48.956  21.759  34.681  1.00  0.00     0.049 A 
ATOM     66  C   UNL A   1      51.398  25.981  31.082  1.00  0.00     0.074 A 
ATOM     67  C   UNL A   1      49.689  20.707  34.120  1.00  0.00     0.029 A 
ATOM     68  N   UNL A   1      49.876  22.831  34.693  1.00  0.00    -0.354 N 
ATOM     69  N   UNL A   1      51.032  24.918  31.784  1.00  0.00    -0.248 NA
ATOM     70  C   UNL A   1      52.835  26.207  31.159  1.00  0.00     0.031 C 
ATOM     71  C   UNL A   1      50.928  21.206  33.611  1.00  0.00     0.029 A 
ATOM     72  C   UNL A   1      50.989  22.578  33.861  1.00  0.00     0.049 A 
ATOM     73  H   UNL A   1      49.756  23.654  35.219  1.00  0.00     0.167 HD
ATOM     74  C   UNL A   1      52.103  24.458  32.566  1.00  0.00     0.074 A 
ATOM     75  C   UNL A   1      53.217  25.235  32.005  1.00  0.00     0.031 C 
ATOM     76  C   UNL A   1      52.092  23.542  33.628  1.00  0.00     0.034 A 
BRANCH  63  77
ATOM     77  C   UNL A   1      46.805  20.639  35.872  1.00  0.00     0.023 A 
ATOM     78  C   UNL A   1      46.048  19.720  35.085  1.00  0.00     0.012 A 
ATOM     79  C   UNL A   1      46.801  20.277  37.252  1.00  0.00     0.148 A 
ATOM     80  C   UNL A   1      45.294  18.635  35.587  1.00  0.00     0.002 A 
ATOM     81  C   UNL A   1      46.097  19.152  37.759  1.00  0.00     0.091 A 
ATOM     82  F   UNL A   1      47.483  20.987  38.142  1.00  0.00    -0.205 F 
ATOM     83  C   UNL A   1      45.320  18.346  36.932  1.00  0.00     0.022 A 
BRANCH  81  84
ATOM     84  S   UNL A   1      46.169  18.624  39.494  1.00  0.00     0.127 S 
ATOM     85  O   UNL A   1      45.826  19.855  40.207  1.00  0.00    -0.237 OA
ATOM     86  O   UNL A   1      45.137  17.589  39.549  1.00  0.00    -0.237 OA
ATOM     87  O   UNL A   1      47.525  18.142  39.724  1.00  0.00    -0.744 OA
ENDBRANCH  81  84
ENDBRANCH  63  77
BRANCH  64  88
ATOM     88  C   UNL A   1      50.700  28.100  29.340  1.00  0.00     0.023 A 
ATOM     89  C   UNL A   1      51.074  29.241  30.121  1.00  0.00     0.012 A 
ATOM     90  C   UNL A   1      51.385  27.920  28.124  1.00  0.00     0.148 A 
ATOM     91  C   UNL A   1      52.300  29.902  29.894  1.00  0.00     0.002 A 
ATOM     92  C   UNL A   1      52.664  28.470  27.989  1.00  0.00     0.091 A 
ATOM     93  F   UNL A   1      50.929  26.970  27.297  1.00  0.00    -0.205 F 
ATOM     94  C   UNL A   1      53.132  29.452  28.877  1.00  0.00     0.022 A 
BRANCH  92  95
ATOM     95  S   UNL A   1      53.941  27.535  27.114  1.00  0.00     0.127 S 
ATOM     96  O   UNL A   1      53.456  27.526  25.741  1.00  0.00    -0.237 OA
ATOM     97  O   UNL A   1      55.109  28.376  27.358  1.00  0.00    -0.237 OA
ATOM     98  O   UNL A   1      54.000  26.251  27.796  1.00  0.00    -0.744 OA
ENDBRANCH  92  95
ENDBRANCH  64  88
BRANCH  76  99
ATOM     99  C   UNL A   1      53.216  23.406  34.689  1.00  0.00     0.023 A 
ATOM    100  C   UNL A   1      54.367  22.628  34.497  1.00  0.00     0.012 A 
ATOM    101  C   UNL A   1      53.237  24.244  35.851  1.00  0.00     0.148 A 
ATOM    102  C   UNL A   1      55.449  22.660  35.387  1.00  0.00     0.002 A 
ATOM    103  C   UNL A   1      54.354  24.362  36.663  1.00  0.00     0.091 A 
ATOM    104  F   UNL A   1      52.165  24.946  36.223  1.00  0.00    -0.205 F 
ATOM    105  C   UNL A   1      55.460  23.552  36.448  1.00  0.00     0.022 A 
BRANCH 103 106
ATOM    106  S   UNL A   1      54.466  25.656  37.912  1.00  0.00     0.127 S 
ATOM    107  O   UNL A   1      55.828  25.469  38.409  1.00  0.00    -0.237 OA
ATOM    108  O   UNL A   1      54.265  26.863  37.110  1.00  0.00    -0.237 OA
ATOM    109  O   UNL A   1      53.403  25.395  38.873  1.00  0.00    -0.744 OA
ENDBRANCH 103 106
ENDBRANCH  76  99
ENDBRANCH  50  51
ENDBRANCH  43  45
ENDBRANCH  42  43
ENDBRANCH  41  42
ENDBRANCH  40  41
ENDBRANCH  39  40
ENDBRANCH  38  39
ENDBRANCH  37  38
ENDBRANCH  36  37
ENDBRANCH   1  36
TORSDOF 27
ENDMDL
MODEL 3
REMARK VINA RESULT:      -8.2      6.332     14.062
REMARK SMILES Cc1ccccc1/[NH+]=C1\S[C@@H](CC(=O)Nc2ccc(C(=O)OCCOCCOCCOCCOC(=O)c3ccc(-c4c5nc(c(-c6cccc(S(=O)(=O)[O-])c6F)c6ccc([nH]6)c(-c6cccc(S(=O)(=O)[O-])c6F)c6nc(c(-c7cccc(S(=O)(=O)[O-])c7F)c7ccc4[nH]7)C=C6)C=C5)cc3)cc2)C(=O)N1C
REMARK SMILES IDX 27 1 26 2 25 3 24 4 23 5 22 6 20 7 21 8 19 9 16 10 17 11
REMARK SMILES IDX 101 12 18 13 100 14 15 15 13 16 14 17 12 19 11 20 8 21 9 22
REMARK SMILES IDX 10 24 104 25 102 26 105 27 103 28 7 29 1 30 2 31 3 32 4 33
REMARK SMILES IDX 6 34 5 35 28 36 29 37 30 38 31 39 32 40 33 41 34 42 35 43
REMARK SMILES IDX 36 44 37 45 38 46 99 47 39 48 98 49 40 50 41 51 42 52 92 53
REMARK SMILES IDX 43 54 97 55 91 56 93 57 44 58 96 59 90 60 89 61 45 63 77 64
REMARK SMILES IDX 57 65 76 66 58 67 61 68 75 69 94 70 59 71 60 72 74 74 95 75
REMARK SMILES IDX 62 76 46 77 47 78 55 79 48 80 50 81 56 82 49 83 51 84 52 85
REMARK SMILES IDX 53 86 54 87 78 88 79 89 87 90 80 91 82 92 88 93 81 94 83 95
REMARK SMILES IDX 84 96 85 97 86 98 63 99 64 100 72 101 65 102 67 103 73 104
REMARK SMILES IDX 66 105 68 106 69 107 70 108 71 109
REMARK H PARENT 15 18 8 23 93 62 61 73
REMARK Flexibility Score: inf
ROOT
ATOM      1  C   UNL A   1      44.815  38.737  34.937  1.00  0.00     0.188 C 
ENDROOT
BRANCH   1   2
ATOM      2  C   UNL A   1      45.274  39.660  33.759  1.00  0.00     0.188 C 
BRANCH   2   3
ATOM      3  O   UNL A   1      44.361  40.756  33.646  1.00  0.00    -0.376 OA
BRANCH   3   4
ATOM      4  C   UNL A   1      43.564  40.802  32.477  1.00  0.00     0.202 C 
BRANCH   4   5
ATOM      5  C   UNL A   1      44.190  41.094  31.188  1.00  0.00     0.261 C 
BRANCH   5   6
ATOM      6  O   UNL A   1      43.295  40.899  30.163  1.00  0.00    -0.460 OA
BRANCH   6   7
ATOM      7  C   UNL A   1      43.853  40.176  29.191  1.00  0.00     0.338 C 
ATOM      8  O   UNL A   1      44.421  39.067  29.230  1.00  0.00    -0.246 OA
BRANCH   7   9
ATOM      9  C   UNL A   1      43.322  40.774  28.005  1.00  0.00     0.060 A 
ATOM     10  C   UNL A   1      42.394  41.385  25.542  1.00  0.00     0.041 A 
ATOM     11  C   UNL A   1      41.887  40.357  26.265  1.00  0.00     0.027 A 
ATOM     12  C   UNL A   1      43.631  41.892  25.921  1.00  0.00     0.027 A 
ATOM     13  C   UNL A   1      42.094  40.303  27.585  1.00  0.00     0.018 A 
ATOM     14  C   UNL A   1      44.150  41.492  27.150  1.00  0.00     0.018 A 
BRANCH  10  15
ATOM     15  N   UNL A   1      41.585  41.816  24.490  1.00  0.00    -0.326 N 
ATOM     16  C   UNL A   1      41.993  42.564  23.386  1.00  0.00     0.226 C 
ATOM     17  O   UNL A   1      41.126  43.035  22.644  1.00  0.00    -0.275 OA
ATOM     18  H   UNL A   1      40.634  41.567  24.531  1.00  0.00     0.169 HD
BRANCH  16  19
ATOM     19  C   UNL A   1      43.494  42.707  22.971  1.00  0.00     0.128 C 
BRANCH  19  20
ATOM     20  C   UNL A   1      43.838  43.853  22.000  1.00  0.00     0.183 C 
ATOM     21  N   UNL A   1      44.844  45.352  18.824  1.00  0.00    -0.234 N 
ATOM     22  C   UNL A   1      44.635  44.398  19.656  1.00  0.00     0.319 C 
ATOM     23  H   UNL A   1      45.794  45.584  18.721  1.00  0.00     0.313 HD
ATOM     24  S   UNL A   1      43.271  43.508  20.253  1.00  0.00    -0.022 SA
ATOM     25  N   UNL A   1      45.659  44.057  20.464  1.00  0.00    -0.193 N 
ATOM     26  C   UNL A   1      45.322  44.175  21.787  1.00  0.00     0.324 C 
ATOM     27  C   UNL A   1      46.685  43.173  19.970  1.00  0.00     0.301 C 
ATOM     28  O   UNL A   1      46.088  44.514  22.681  1.00  0.00    -0.245 OA
BRANCH  21  29
ATOM     29  C   UNL A   1      43.992  46.125  18.034  1.00  0.00     0.128 A 
ATOM     30  C   UNL A   1      42.835  44.269  16.686  1.00  0.00     0.049 C 
ATOM     31  C   UNL A   1      43.077  45.696  17.059  1.00  0.00    -0.004 A 
ATOM     32  C   UNL A   1      42.260  46.639  16.405  1.00  0.00     0.008 A 
ATOM     33  C   UNL A   1      42.215  47.966  16.815  1.00  0.00     0.001 A 
ATOM     34  C   UNL A   1      43.904  47.471  18.449  1.00  0.00     0.052 A 
ATOM     35  C   UNL A   1      43.013  48.378  17.870  1.00  0.00     0.004 A 
ENDBRANCH  21  29
ENDBRANCH  19  20
ENDBRANCH  16  19
ENDBRANCH  10  15
ENDBRANCH   7   9
ENDBRANCH   6   7
ENDBRANCH   5   6
ENDBRANCH   4   5
ENDBRANCH   3   4
ENDBRANCH   2   3
ENDBRANCH   1   2
BRANCH   1  36
ATOM     36  O   UNL A   1      45.225  37.353  35.016  1.00  0.00    -0.377 OA
BRANCH  36  37
ATOM     37  C   UNL A   1      44.892  36.359  36.004  1.00  0.00     0.188 C 
BRANCH  37  38
ATOM     38  C   UNL A   1      45.268  36.454  37.486  1.00  0.00     0.188 C 
BRANCH  38  39
ATOM     39  O   UNL A   1      44.145  36.745  38.281  1.00  0.00    -0.376 OA
BRANCH  39  40
ATOM     40  C   UNL A   1      44.107  36.106  39.540  1.00  0.00     0.202 C 
BRANCH  40  41
ATOM     41  C   UNL A   1      42.901  36.523  40.387  1.00  0.00     0.261 C 
BRANCH  41  42
ATOM     42  O   UNL A   1      41.762  36.782  39.535  1.00  0.00    -0.460 OA
BRANCH  42  43
ATOM     43  C   UNL A   1      40.551  36.411  40.045  1.00  0.00     0.338 C 
ATOM     44  O   UNL A   1      40.288  36.394  41.237  1.00  0.00    -0.246 OA
BRANCH  43  45
ATOM     45  C   UNL A   1      39.704  35.805  38.966  1.00  0.00     0.060 A 
ATOM     46  C   UNL A   1      39.283  34.486  39.124  1.00  0.00     0.016 A 
ATOM     47  C   UNL A   1      39.751  36.357  37.681  1.00  0.00     0.016 A 
ATOM     48  C   UNL A   1      39.243  33.661  38.002  1.00  0.00     0.010 A 
ATOM     49  C   UNL A   1      39.870  35.490  36.591  1.00  0.00     0.010 A 
ATOM     50  C   UNL A   1      39.742  34.109  36.772  1.00  0.00    -0.014 A 
BRANCH  50  51
ATOM     51  C   UNL A   1      40.139  33.080  35.752  1.00  0.00     0.031 A 
ATOM     52  C   UNL A   1      41.601  32.472  35.872  1.00  0.00     0.074 A 
ATOM     53  C   UNL A   1      39.154  32.871  34.804  1.00  0.00     0.049 A 
ATOM     54  N   UNL A   1      42.235  31.523  35.219  1.00  0.00    -0.248 NA
ATOM     55  C   UNL A   1      42.440  32.959  36.976  1.00  0.00     0.031 C 
ATOM     56  C   UNL A   1      37.912  32.087  35.028  1.00  0.00     0.029 A 
ATOM     57  N   UNL A   1      39.201  32.843  33.420  1.00  0.00    -0.354 N 
ATOM     58  C   UNL A   1      43.390  31.103  35.961  1.00  0.00     0.074 A 
ATOM     59  C   UNL A   1      43.484  32.129  36.971  1.00  0.00     0.031 C 
ATOM     60  C   UNL A   1      37.334  31.627  33.912  1.00  0.00     0.029 A 
ATOM     61  C   UNL A   1      38.208  32.035  32.857  1.00  0.00     0.049 A 
ATOM     62  H   UNL A   1      39.864  33.340  32.887  1.00  0.00     0.167 HD
ATOM     63  C   UNL A   1      44.140  29.930  35.785  1.00  0.00     0.034 A 
ATOM     64  C   UNL A   1      37.993  31.602  31.602  1.00  0.00     0.034 A 
ATOM     65  C   UNL A   1      43.777  29.081  34.577  1.00  0.00     0.049 A 
ATOM     66  C   UNL A   1      39.174  30.819  31.036  1.00  0.00     0.074 A 
ATOM     67  C   UNL A   1      43.537  27.714  34.396  1.00  0.00     0.029 A 
ATOM     68  N   UNL A   1      43.502  29.634  33.306  1.00  0.00    -0.354 N 
ATOM     69  N   UNL A   1      40.139  30.225  31.723  1.00  0.00    -0.248 NA
ATOM     70  C   UNL A   1      39.201  30.434  29.631  1.00  0.00     0.031 C 
ATOM     71  C   UNL A   1      42.922  27.500  33.124  1.00  0.00     0.029 A 
ATOM     72  C   UNL A   1      42.783  28.735  32.486  1.00  0.00     0.049 A 
ATOM     73  H   UNL A   1      43.778  30.536  33.025  1.00  0.00     0.167 HD
ATOM     74  C   UNL A   1      41.030  29.576  30.853  1.00  0.00     0.074 A 
ATOM     75  C   UNL A   1      40.286  29.644  29.587  1.00  0.00     0.031 C 
ATOM     76  C   UNL A   1      42.304  29.054  31.119  1.00  0.00     0.034 A 
BRANCH  63  77
ATOM     77  C   UNL A   1      45.210  29.309  36.856  1.00  0.00     0.023 A 
ATOM     78  C   UNL A   1      46.502  29.908  36.946  1.00  0.00     0.012 A 
ATOM     79  C   UNL A   1      45.079  28.205  37.752  1.00  0.00     0.148 A 
ATOM     80  C   UNL A   1      47.574  29.436  37.736  1.00  0.00     0.002 A 
ATOM     81  C   UNL A   1      46.131  27.760  38.596  1.00  0.00     0.091 A 
ATOM     82  F   UNL A   1      43.935  27.539  37.845  1.00  0.00    -0.205 F 
ATOM     83  C   UNL A   1      47.388  28.356  38.568  1.00  0.00     0.022 A 
BRANCH  81  84
ATOM     84  S   UNL A   1      45.942  26.426  39.811  1.00  0.00     0.127 S 
ATOM     85  O   UNL A   1      47.196  26.510  40.562  1.00  0.00    -0.237 OA
ATOM     86  O   UNL A   1      44.762  26.850  40.563  1.00  0.00    -0.237 OA
ATOM     87  O   UNL A   1      45.768  25.195  39.050  1.00  0.00    -0.744 OA
ENDBRANCH  81  84
ENDBRANCH  63  77
BRANCH  64  88
ATOM     88  C   UNL A   1      36.907  32.512  31.000  1.00  0.00     0.023 A 
ATOM     89  C   UNL A   1      37.349  33.707  30.345  1.00  0.00     0.012 A 
ATOM     90  C   UNL A   1      35.932  31.752  30.327  1.00  0.00     0.148 A 
ATOM     91  C   UNL A   1      37.129  33.899  28.964  1.00  0.00     0.002 A 
ATOM     92  C   UNL A   1      35.841  31.861  28.936  1.00  0.00     0.091 A 
ATOM     93  F   UNL A   1      35.375  30.736  30.998  1.00  0.00    -0.205 F 
ATOM     94  C   UNL A   1      36.447  32.924  28.247  1.00  0.00     0.022 A 
BRANCH  92  95
ATOM     95  S   UNL A   1      35.513  30.379  27.951  1.00  0.00     0.127 S 
ATOM     96  O   UNL A   1      34.220  30.669  27.347  1.00  0.00    -0.237 OA
ATOM     97  O   UNL A   1      36.650  30.403  27.036  1.00  0.00    -0.237 OA
ATOM     98  O   UNL A   1      35.560  29.279  28.903  1.00  0.00    -0.744 OA
ENDBRANCH  92  95
ENDBRANCH  64  88
BRANCH  76  99
ATOM     99  C   UNL A   1      43.371  28.736  30.040  1.00  0.00     0.023 A 
ATOM    100  C   UNL A   1      43.674  27.435  29.614  1.00  0.00     0.012 A 
ATOM    101  C   UNL A   1      43.966  29.783  29.263  1.00  0.00     0.148 A 
ATOM    102  C   UNL A   1      44.508  27.182  28.516  1.00  0.00     0.002 A 
ATOM    103  C   UNL A   1      44.692  29.532  28.110  1.00  0.00     0.091 A 
ATOM    104  F   UNL A   1      43.864  31.064  29.624  1.00  0.00    -0.205 F 
ATOM    105  C   UNL A   1      44.988  28.227  27.741  1.00  0.00     0.022 A 
BRANCH 103 106
ATOM    106  S   UNL A   1      45.144  30.865  26.983  1.00  0.00     0.127 S 
ATOM    107  O   UNL A   1      45.935  30.150  25.983  1.00  0.00    -0.237 OA
ATOM    108  O   UNL A   1      43.833  31.320  26.519  1.00  0.00    -0.237 OA
ATOM    109  O   UNL A   1      45.870  31.847  27.776  1.00  0.00    -0.744 OA
ENDBRANCH 103 106
ENDBRANCH  76  99
ENDBRANCH  50  51
ENDBRANCH  43  45
ENDBRANCH  42  43
ENDBRANCH  41  42
ENDBRANCH  40  41
ENDBRANCH  39  40
ENDBRANCH  38  39
ENDBRANCH  37  38
ENDBRANCH  36  37
ENDBRANCH   1  36
TORSDOF 27
ENDMDL
