MODEL 1
REMARK VINA RESULT:     -10.1      0.000      0.000
REMARK SMILES NC(=O)c1cc(NC(=O)/C=C\C(=O)OCCOCCOCCOCCOC(=O)c2ccc(-c3c4nc(c(-c5cccc(S(=O)(=O)[O-])c5F)c5ccc([nH]5)c(-c5cccc(S(=O)(=O)[O-])c5F)c5nc(c(-c6cccc(S(=O)(=O)[O-])c6F)c6ccc3[nH]6)C=C5)C=C4)cc2)ccc1N1CCOCC1
REMARK SMILES IDX 20 1 19 2 18 3 17 4 16 5 15 6 14 7 12 8 13 9 11 10 10 11
REMARK SMILES IDX 8 12 7 13 9 15 6 16 4 17 5 18 94 19 93 20 92 21 2 22 1 23
REMARK SMILES IDX 3 26 95 27 96 28 100 29 97 30 99 31 98 32 21 33 22 34 23 35
REMARK SMILES IDX 24 36 25 37 26 38 27 39 28 40 29 41 30 42 91 43 31 44 90 45
REMARK SMILES IDX 32 46 33 47 34 48 84 49 35 50 89 51 83 52 85 53 36 54 88 55
REMARK SMILES IDX 82 56 81 57 37 59 69 60 49 61 68 62 50 63 53 64 67 65 86 66
REMARK SMILES IDX 51 67 52 68 66 70 87 71 54 72 38 73 39 74 47 75 40 76 42 77
REMARK SMILES IDX 48 78 41 79 43 80 44 81 45 82 46 83 70 84 71 85 79 86 72 87
REMARK SMILES IDX 74 88 80 89 73 90 75 91 76 92 77 93 78 94 55 95 56 96 64 97
REMARK SMILES IDX 57 98 59 99 65 100 58 101 60 102 61 103 62 104 63 105
REMARK H PARENT 7 14 1 24 1 25 85 58 53 69
REMARK Flexibility Score: inf
ROOT
ATOM      1  O   UNL A   1      34.565  24.313  26.383  1.00  0.00    -0.377 OA
ENDROOT
BRANCH   1   2
ATOM      2  C   UNL A   1      33.404  23.680  26.893  1.00  0.00     0.188 C 
BRANCH   2   3
ATOM      3  C   UNL A   1      32.070  24.069  26.247  1.00  0.00     0.188 C 
BRANCH   3   4
ATOM      4  O   UNL A   1      31.396  25.158  26.871  1.00  0.00    -0.376 OA
BRANCH   4   5
ATOM      5  C   UNL A   1      31.020  26.249  26.041  1.00  0.00     0.202 C 
BRANCH   5   6
ATOM      6  C   UNL A   1      32.105  27.006  25.264  1.00  0.00     0.261 C 
BRANCH   6   7
ATOM      7  O   UNL A   1      32.146  26.966  23.821  1.00  0.00    -0.460 OA
BRANCH   7   8
ATOM      8  C   UNL A   1      33.266  26.801  23.106  1.00  0.00     0.331 C 
ATOM      9  O   UNL A   1      33.697  27.474  22.187  1.00  0.00    -0.247 OA
BRANCH   8  10
ATOM     10  C   UNL A   1      33.997  25.616  23.546  1.00  0.00     0.099 C 
ATOM     11  C   UNL A   1      33.963  24.438  22.910  1.00  0.00     0.079 C 
BRANCH  11  12
ATOM     12  C   UNL A   1      33.100  24.039  21.773  1.00  0.00     0.248 C 
ATOM     13  N   UNL A   1      32.541  22.802  21.619  1.00  0.00    -0.322 N 
ATOM     14  H   UNL A   1      32.108  22.681  20.742  1.00  0.00     0.170 HD
ATOM     15  O   UNL A   1      32.902  24.892  20.908  1.00  0.00    -0.270 OA
BRANCH  13  16
ATOM     16  C   UNL A   1      32.451  21.666  22.441  1.00  0.00     0.042 A 
ATOM     17  C   UNL A   1      33.198  20.315  24.311  1.00  0.00     0.064 A 
ATOM     18  C   UNL A   1      33.002  21.577  23.712  1.00  0.00     0.042 A 
ATOM     19  C   UNL A   1      32.780  19.121  23.673  1.00  0.00     0.050 A 
ATOM     20  C   UNL A   1      32.021  19.272  22.502  1.00  0.00     0.029 A 
ATOM     21  C   UNL A   1      31.854  20.527  21.894  1.00  0.00     0.028 A 
BRANCH  17  22
ATOM     22  C   UNL A   1      34.056  20.338  25.526  1.00  0.00     0.250 C 
ATOM     23  N   UNL A   1      35.383  20.081  25.335  1.00  0.00    -0.366 N 
ATOM     24  H   UNL A   1      35.999  20.082  26.103  1.00  0.00     0.159 HD
ATOM     25  H   UNL A   1      35.723  19.894  24.430  1.00  0.00     0.159 HD
ATOM     26  O   UNL A   1      33.611  20.644  26.625  1.00  0.00    -0.269 OA
ENDBRANCH  17  22
BRANCH  19  27
ATOM     27  N   UNL A   1      33.158  17.862  24.116  1.00  0.00    -0.366 N 
ATOM     28  C   UNL A   1      32.154  17.012  24.766  1.00  0.00     0.145 C 
ATOM     29  C   UNL A   1      34.276  17.113  23.516  1.00  0.00     0.145 C 
ATOM     30  C   UNL A   1      32.850  16.071  25.764  1.00  0.00     0.181 C 
ATOM     31  C   UNL A   1      34.893  16.191  24.583  1.00  0.00     0.181 C 
ATOM     32  O   UNL A   1      33.905  15.310  25.147  1.00  0.00    -0.378 OA
ENDBRANCH  19  27
ENDBRANCH  13  16
ENDBRANCH  11  12
ENDBRANCH   8  10
ENDBRANCH   7   8
ENDBRANCH   6   7
ENDBRANCH   5   6
ENDBRANCH   4   5
ENDBRANCH   3   4
ENDBRANCH   2   3
ENDBRANCH   1   2
BRANCH   1  33
ATOM     33  C   UNL A   1      35.637  23.502  25.910  1.00  0.00     0.188 C 
BRANCH  33  34
ATOM     34  C   UNL A   1      37.052  23.713  26.469  1.00  0.00     0.188 C 
BRANCH  34  35
ATOM     35  O   UNL A   1      38.087  23.208  25.639  1.00  0.00    -0.376 OA
BRANCH  35  36
ATOM     36  C   UNL A   1      38.297  21.803  25.688  1.00  0.00     0.202 C 
BRANCH  36  37
ATOM     37  C   UNL A   1      39.544  21.336  26.454  1.00  0.00     0.261 C 
BRANCH  37  38
ATOM     38  O   UNL A   1      40.070  20.035  26.130  1.00  0.00    -0.460 OA
BRANCH  38  39
ATOM     39  C   UNL A   1      41.405  19.822  26.145  1.00  0.00     0.338 C 
ATOM     40  O   UNL A   1      41.990  18.804  25.826  1.00  0.00    -0.246 OA
BRANCH  39  41
ATOM     41  C   UNL A   1      42.068  21.128  26.387  1.00  0.00     0.060 A 
ATOM     42  C   UNL A   1      42.370  21.501  27.707  1.00  0.00     0.016 A 
ATOM     43  C   UNL A   1      42.438  21.955  25.322  1.00  0.00     0.016 A 
ATOM     44  C   UNL A   1      42.979  22.731  27.967  1.00  0.00     0.010 A 
ATOM     45  C   UNL A   1      43.020  23.198  25.586  1.00  0.00     0.010 A 
ATOM     46  C   UNL A   1      43.242  23.613  26.911  1.00  0.00    -0.014 A 
BRANCH  46  47
ATOM     47  C   UNL A   1      43.406  25.061  27.194  1.00  0.00     0.031 A 
ATOM     48  C   UNL A   1      44.768  25.654  26.930  1.00  0.00     0.074 A 
ATOM     49  C   UNL A   1      42.419  25.827  27.691  1.00  0.00     0.049 A 
ATOM     50  N   UNL A   1      45.205  26.865  27.146  1.00  0.00    -0.248 NA
ATOM     51  C   UNL A   1      45.775  24.747  26.348  1.00  0.00     0.031 C 
ATOM     52  C   UNL A   1      41.059  25.383  27.982  1.00  0.00     0.029 A 
ATOM     53  N   UNL A   1      42.432  27.149  28.066  1.00  0.00    -0.354 N 
ATOM     54  C   UNL A   1      46.537  26.858  26.752  1.00  0.00     0.074 A 
ATOM     55  C   UNL A   1      46.843  25.523  26.291  1.00  0.00     0.031 C 
ATOM     56  C   UNL A   1      40.375  26.408  28.524  1.00  0.00     0.029 A 
ATOM     57  C   UNL A   1      41.255  27.572  28.639  1.00  0.00     0.049 A 
ATOM     58  H   UNL A   1      43.210  27.738  27.937  1.00  0.00     0.167 HD
ATOM     59  C   UNL A   1      47.432  27.871  26.758  1.00  0.00     0.034 A 
ATOM     60  C   UNL A   1      40.940  28.754  29.208  1.00  0.00     0.034 A 
ATOM     61  C   UNL A   1      47.139  29.199  27.212  1.00  0.00     0.049 A 
ATOM     62  C   UNL A   1      41.970  29.859  29.242  1.00  0.00     0.074 A 
ATOM     63  C   UNL A   1      47.970  30.304  27.231  1.00  0.00     0.029 A 
ATOM     64  N   UNL A   1      45.924  29.598  27.744  1.00  0.00    -0.354 N 
ATOM     65  N   UNL A   1      43.186  29.875  28.753  1.00  0.00    -0.248 NA
ATOM     66  C   UNL A   1      41.571  31.123  29.885  1.00  0.00     0.031 C 
ATOM     67  C   UNL A   1      47.261  31.370  27.795  1.00  0.00     0.029 A 
ATOM     68  C   UNL A   1      45.983  30.931  28.104  1.00  0.00     0.049 A 
ATOM     69  H   UNL A   1      45.135  29.018  27.850  1.00  0.00     0.167 HD
ATOM     70  C   UNL A   1      43.681  31.155  28.991  1.00  0.00     0.074 A 
ATOM     71  C   UNL A   1      42.626  31.892  29.655  1.00  0.00     0.031 C 
ATOM     72  C   UNL A   1      44.901  31.670  28.703  1.00  0.00     0.034 A 
BRANCH  59  73
ATOM     73  C   UNL A   1      48.811  27.575  26.236  1.00  0.00     0.023 A 
ATOM     74  C   UNL A   1      49.026  27.500  24.845  1.00  0.00     0.012 A 
ATOM     75  C   UNL A   1      49.893  27.395  27.117  1.00  0.00     0.148 A 
ATOM     76  C   UNL A   1      50.293  27.220  24.338  1.00  0.00     0.002 A 
ATOM     77  C   UNL A   1      51.162  27.157  26.603  1.00  0.00     0.091 A 
ATOM     78  F   UNL A   1      49.658  27.436  28.436  1.00  0.00    -0.205 F 
ATOM     79  C   UNL A   1      51.362  27.059  25.216  1.00  0.00     0.022 A 
BRANCH  77  80
ATOM     80  S   UNL A   1      52.613  27.006  27.649  1.00  0.00     0.127 S 
ATOM     81  O   UNL A   1      52.669  28.329  28.270  1.00  0.00    -0.237 OA
ATOM     82  O   UNL A   1      52.230  25.923  28.553  1.00  0.00    -0.237 OA
ATOM     83  O   UNL A   1      53.720  26.688  26.756  1.00  0.00    -0.744 OA
ENDBRANCH  77  80
ENDBRANCH  59  73
BRANCH  60  84
ATOM     84  C   UNL A   1      39.579  28.979  29.777  1.00  0.00     0.023 A 
ATOM     85  C   UNL A   1      39.287  28.518  31.076  1.00  0.00     0.012 A 
ATOM     86  C   UNL A   1      38.573  29.631  29.039  1.00  0.00     0.148 A 
ATOM     87  C   UNL A   1      38.009  28.671  31.617  1.00  0.00     0.002 A 
ATOM     88  C   UNL A   1      37.316  29.827  29.604  1.00  0.00     0.091 A 
ATOM     89  F   UNL A   1      38.863  30.042  27.797  1.00  0.00    -0.205 F 
ATOM     90  C   UNL A   1      37.028  29.334  30.885  1.00  0.00     0.022 A 
BRANCH  88  91
ATOM     91  S   UNL A   1      36.024  30.768  28.785  1.00  0.00     0.127 S 
ATOM     92  O   UNL A   1      35.348  29.733  28.008  1.00  0.00    -0.237 OA
ATOM     93  O   UNL A   1      35.262  31.279  29.926  1.00  0.00    -0.237 OA
ATOM     94  O   UNL A   1      36.715  31.791  28.011  1.00  0.00    -0.744 OA
ENDBRANCH  88  91
ENDBRANCH  60  84
BRANCH  72  95
ATOM     95  C   UNL A   1      45.165  33.112  29.055  1.00  0.00     0.023 A 
ATOM     96  C   UNL A   1      45.762  33.434  30.289  1.00  0.00     0.012 A 
ATOM     97  C   UNL A   1      44.912  34.136  28.119  1.00  0.00     0.148 A 
ATOM     98  C   UNL A   1      46.079  34.757  30.597  1.00  0.00     0.002 A 
ATOM     99  C   UNL A   1      45.274  35.444  28.414  1.00  0.00     0.091 A 
ATOM    100  F   UNL A   1      44.328  33.810  26.957  1.00  0.00    -0.205 F 
ATOM    101  C   UNL A   1      45.848  35.759  29.657  1.00  0.00     0.022 A 
BRANCH  99 102
ATOM    102  S   UNL A   1      45.104  36.780  27.224  1.00  0.00     0.127 S 
ATOM    103  O   UNL A   1      45.974  36.326  26.141  1.00  0.00    -0.237 OA
ATOM    104  O   UNL A   1      43.674  36.742  26.914  1.00  0.00    -0.237 OA
ATOM    105  O   UNL A   1      45.539  37.987  27.914  1.00  0.00    -0.744 OA
ENDBRANCH  99 102
ENDBRANCH  72  95
ENDBRANCH  46  47
ENDBRANCH  39  41
ENDBRANCH  38  39
ENDBRANCH  37  38
ENDBRANCH  36  37
ENDBRANCH  35  36
ENDBRANCH  34  35
ENDBRANCH  33  34
ENDBRANCH   1  33
TORSDOF 27
ENDMDL
MODEL 2
REMARK VINA RESULT:      -9.6      3.822      5.846
REMARK SMILES NC(=O)c1cc(NC(=O)/C=C\C(=O)OCCOCCOCCOCCOC(=O)c2ccc(-c3c4nc(c(-c5cccc(S(=O)(=O)[O-])c5F)c5ccc([nH]5)c(-c5cccc(S(=O)(=O)[O-])c5F)c5nc(c(-c6cccc(S(=O)(=O)[O-])c6F)c6ccc3[nH]6)C=C5)C=C4)cc2)ccc1N1CCOCC1
REMARK SMILES IDX 20 1 19 2 18 3 17 4 16 5 15 6 14 7 12 8 13 9 11 10 10 11
REMARK SMILES IDX 8 12 7 13 9 15 6 16 4 17 5 18 94 19 93 20 92 21 2 22 1 23
REMARK SMILES IDX 3 26 95 27 96 28 100 29 97 30 99 31 98 32 21 33 22 34 23 35
REMARK SMILES IDX 24 36 25 37 26 38 27 39 28 40 29 41 30 42 91 43 31 44 90 45
REMARK SMILES IDX 32 46 33 47 34 48 84 49 35 50 89 51 83 52 85 53 36 54 88 55
REMARK SMILES IDX 82 56 81 57 37 59 69 60 49 61 68 62 50 63 53 64 67 65 86 66
REMARK SMILES IDX 51 67 52 68 66 70 87 71 54 72 38 73 39 74 47 75 40 76 42 77
REMARK SMILES IDX 48 78 41 79 43 80 44 81 45 82 46 83 70 84 71 85 79 86 72 87
REMARK SMILES IDX 74 88 80 89 73 90 75 91 76 92 77 93 78 94 55 95 56 96 64 97
REMARK SMILES IDX 57 98 59 99 65 100 58 101 60 102 61 103 62 104 63 105
REMARK H PARENT 7 14 1 24 1 25 85 58 53 69
REMARK Flexibility Score: inf
ROOT
ATOM      1  O   UNL A   1      34.286  25.331  26.105  1.00  0.00    -0.377 OA
ENDROOT
BRANCH   1   2
ATOM      2  C   UNL A   1      33.576  26.440  25.582  1.00  0.00     0.188 C 
BRANCH   2   3
ATOM      3  C   UNL A   1      34.219  27.819  25.772  1.00  0.00     0.188 C 
BRANCH   3   4
ATOM      4  O   UNL A   1      34.013  28.404  27.055  1.00  0.00    -0.376 OA
BRANCH   4   5
ATOM      5  C   UNL A   1      32.828  29.168  27.235  1.00  0.00     0.202 C 
BRANCH   5   6
ATOM      6  C   UNL A   1      32.135  29.776  26.009  1.00  0.00     0.261 C 
BRANCH   6   7
ATOM      7  O   UNL A   1      31.204  29.001  25.224  1.00  0.00    -0.460 OA
BRANCH   7   8
ATOM      8  C   UNL A   1      30.617  29.442  24.105  1.00  0.00     0.331 C 
ATOM      9  O   UNL A   1      29.898  30.413  23.944  1.00  0.00    -0.247 OA
BRANCH   8  10
ATOM     10  C   UNL A   1      30.917  28.566  22.976  1.00  0.00     0.099 C 
ATOM     11  C   UNL A   1      30.263  27.427  22.719  1.00  0.00     0.079 C 
BRANCH  11  12
ATOM     12  C   UNL A   1      29.250  26.745  23.558  1.00  0.00     0.248 C 
ATOM     13  N   UNL A   1      29.437  25.544  24.180  1.00  0.00    -0.322 N 
ATOM     14  H   UNL A   1      28.614  25.187  24.586  1.00  0.00     0.170 HD
ATOM     15  O   UNL A   1      28.164  27.312  23.675  1.00  0.00    -0.270 OA
BRANCH  13  16
ATOM     16  C   UNL A   1      30.552  24.708  24.366  1.00  0.00     0.042 A 
ATOM     17  C   UNL A   1      32.337  23.303  23.517  1.00  0.00     0.064 A 
ATOM     18  C   UNL A   1      31.483  24.419  23.379  1.00  0.00     0.042 A 
ATOM     19  C   UNL A   1      32.318  22.498  24.682  1.00  0.00     0.050 A 
ATOM     20  C   UNL A   1      31.531  22.961  25.748  1.00  0.00     0.029 A 
ATOM     21  C   UNL A   1      30.661  24.053  25.596  1.00  0.00     0.028 A 
BRANCH  17  22
ATOM     22  C   UNL A   1      33.070  22.934  22.276  1.00  0.00     0.250 C 
ATOM     23  N   UNL A   1      32.456  22.030  21.457  1.00  0.00    -0.366 N 
ATOM     24  H   UNL A   1      32.895  21.747  20.622  1.00  0.00     0.159 HD
ATOM     25  H   UNL A   1      31.577  21.661  21.702  1.00  0.00     0.159 HD
ATOM     26  O   UNL A   1      34.129  23.466  21.969  1.00  0.00    -0.269 OA
ENDBRANCH  17  22
BRANCH  19  27
ATOM     27  N   UNL A   1      32.967  21.274  24.758  1.00  0.00    -0.366 N 
ATOM     28  C   UNL A   1      34.194  21.175  25.558  1.00  0.00     0.145 C 
ATOM     29  C   UNL A   1      32.264  19.992  24.582  1.00  0.00     0.145 C 
ATOM     30  C   UNL A   1      35.094  20.071  24.977  1.00  0.00     0.181 C 
ATOM     31  C   UNL A   1      33.248  18.953  24.016  1.00  0.00     0.181 C 
ATOM     32  O   UNL A   1      34.404  18.813  24.860  1.00  0.00    -0.378 OA
ENDBRANCH  19  27
ENDBRANCH  13  16
ENDBRANCH  11  12
ENDBRANCH   8  10
ENDBRANCH   7   8
ENDBRANCH   6   7
ENDBRANCH   5   6
ENDBRANCH   4   5
ENDBRANCH   3   4
ENDBRANCH   2   3
ENDBRANCH   1   2
BRANCH   1  33
ATOM     33  C   UNL A   1      35.305  24.732  25.311  1.00  0.00     0.188 C 
BRANCH  33  34
ATOM     34  C   UNL A   1      36.308  23.768  25.963  1.00  0.00     0.188 C 
BRANCH  34  35
ATOM     35  O   UNL A   1      37.668  24.068  25.689  1.00  0.00    -0.376 OA
BRANCH  35  36
ATOM     36  C   UNL A   1      38.461  24.449  26.805  1.00  0.00     0.202 C 
BRANCH  36  37
ATOM     37  C   UNL A   1      39.975  24.531  26.557  1.00  0.00     0.261 C 
BRANCH  37  38
ATOM     38  O   UNL A   1      40.517  25.816  26.196  1.00  0.00    -0.460 OA
BRANCH  38  39
ATOM     39  C   UNL A   1      41.835  25.942  25.920  1.00  0.00     0.338 C 
ATOM     40  O   UNL A   1      42.489  25.274  25.142  1.00  0.00    -0.246 OA
BRANCH  39  41
ATOM     41  C   UNL A   1      42.310  27.201  26.549  1.00  0.00     0.060 A 
ATOM     42  C   UNL A   1      43.086  27.123  27.716  1.00  0.00     0.016 A 
ATOM     43  C   UNL A   1      42.039  28.442  25.966  1.00  0.00     0.016 A 
ATOM     44  C   UNL A   1      43.533  28.291  28.340  1.00  0.00     0.010 A 
ATOM     45  C   UNL A   1      42.462  29.610  26.606  1.00  0.00     0.010 A 
ATOM     46  C   UNL A   1      43.163  29.540  27.823  1.00  0.00    -0.014 A 
BRANCH  46  47
ATOM     47  C   UNL A   1      43.190  30.731  28.708  1.00  0.00     0.031 A 
ATOM     48  C   UNL A   1      44.465  31.537  28.723  1.00  0.00     0.074 A 
ATOM     49  C   UNL A   1      42.157  31.084  29.494  1.00  0.00     0.049 A 
ATOM     50  N   UNL A   1      44.783  32.579  29.443  1.00  0.00    -0.248 NA
ATOM     51  C   UNL A   1      45.527  31.097  27.799  1.00  0.00     0.031 C 
ATOM     52  C   UNL A   1      40.869  30.400  29.569  1.00  0.00     0.029 A 
ATOM     53  N   UNL A   1      42.052  32.106  30.408  1.00  0.00    -0.354 N 
ATOM     54  C   UNL A   1      46.085  32.901  29.079  1.00  0.00     0.074 A 
ATOM     55  C   UNL A   1      46.503  31.943  28.082  1.00  0.00     0.031 C 
ATOM     56  C   UNL A   1      40.112  31.002  30.506  1.00  0.00     0.029 A 
ATOM     57  C   UNL A   1      40.870  32.096  31.113  1.00  0.00     0.049 A 
ATOM     58  H   UNL A   1      42.755  32.780  30.544  1.00  0.00     0.167 HD
ATOM     59  C   UNL A   1      46.868  33.910  29.522  1.00  0.00     0.034 A 
ATOM     60  C   UNL A   1      40.465  32.870  32.141  1.00  0.00     0.034 A 
ATOM     61  C   UNL A   1      46.463  34.866  30.511  1.00  0.00     0.049 A 
ATOM     62  C   UNL A   1      41.374  33.966  32.648  1.00  0.00     0.074 A 
ATOM     63  C   UNL A   1      47.173  35.945  31.005  1.00  0.00     0.029 A 
ATOM     64  N   UNL A   1      45.244  34.849  31.168  1.00  0.00    -0.354 N 
ATOM     65  N   UNL A   1      42.553  34.336  32.209  1.00  0.00    -0.248 NA
ATOM     66  C   UNL A   1      40.881  34.770  33.779  1.00  0.00     0.031 C 
ATOM     67  C   UNL A   1      46.389  36.569  31.981  1.00  0.00     0.029 A 
ATOM     68  C   UNL A   1      45.183  35.892  32.073  1.00  0.00     0.049 A 
ATOM     69  H   UNL A   1      44.528  34.190  31.015  1.00  0.00     0.167 HD
ATOM     70  C   UNL A   1      42.923  35.435  32.980  1.00  0.00     0.074 A 
ATOM     71  C   UNL A   1      41.836  35.683  33.903  1.00  0.00     0.031 C 
ATOM     72  C   UNL A   1      44.065  36.165  32.939  1.00  0.00     0.034 A 
BRANCH  59  73
ATOM     73  C   UNL A   1      48.239  34.034  28.917  1.00  0.00     0.023 A 
ATOM     74  C   UNL A   1      49.332  33.397  29.538  1.00  0.00     0.012 A 
ATOM     75  C   UNL A   1      48.441  34.759  27.728  1.00  0.00     0.148 A 
ATOM     76  C   UNL A   1      50.614  33.504  29.001  1.00  0.00     0.002 A 
ATOM     77  C   UNL A   1      49.714  34.826  27.175  1.00  0.00     0.091 A 
ATOM     78  F   UNL A   1      47.393  35.385  27.174  1.00  0.00    -0.205 F 
ATOM     79  C   UNL A   1      50.802  34.208  27.815  1.00  0.00     0.022 A 
BRANCH  77  80
ATOM     80  S   UNL A   1      50.046  35.649  25.615  1.00  0.00     0.127 S 
ATOM     81  O   UNL A   1      49.156  34.929  24.706  1.00  0.00    -0.237 OA
ATOM     82  O   UNL A   1      49.642  37.026  25.901  1.00  0.00    -0.237 OA
ATOM     83  O   UNL A   1      51.470  35.476  25.365  1.00  0.00    -0.744 OA
ENDBRANCH  77  80
ENDBRANCH  59  73
BRANCH  60  84
ATOM     84  C   UNL A   1      39.122  32.664  32.757  1.00  0.00     0.023 A 
ATOM     85  C   UNL A   1      38.965  31.692  33.765  1.00  0.00     0.012 A 
ATOM     86  C   UNL A   1      38.002  33.410  32.345  1.00  0.00     0.148 A 
ATOM     87  C   UNL A   1      37.711  31.443  34.327  1.00  0.00     0.002 A 
ATOM     88  C   UNL A   1      36.766  33.195  32.945  1.00  0.00     0.091 A 
ATOM     89  F   UNL A   1      38.167  34.315  31.369  1.00  0.00    -0.205 F 
ATOM     90  C   UNL A   1      36.615  32.200  33.924  1.00  0.00     0.022 A 
BRANCH  88  91
ATOM     91  S   UNL A   1      35.322  34.196  32.575  1.00  0.00     0.127 S 
ATOM     92  O   UNL A   1      35.761  35.522  33.002  1.00  0.00    -0.237 OA
ATOM     93  O   UNL A   1      35.204  34.022  31.127  1.00  0.00    -0.237 OA
ATOM     94  O   UNL A   1      34.232  33.612  33.345  1.00  0.00    -0.744 OA
ENDBRANCH  88  91
ENDBRANCH  60  84
BRANCH  72  95
ATOM     95  C   UNL A   1      44.195  37.334  33.883  1.00  0.00     0.023 A 
ATOM     96  C   UNL A   1      44.836  37.163  35.125  1.00  0.00     0.012 A 
ATOM     97  C   UNL A   1      43.771  38.620  33.493  1.00  0.00     0.148 A 
ATOM     98  C   UNL A   1      45.029  38.250  35.977  1.00  0.00     0.002 A 
ATOM     99  C   UNL A   1      44.010  39.706  34.326  1.00  0.00     0.091 A 
ATOM    100  F   UNL A   1      43.149  38.759  32.313  1.00  0.00    -0.205 F 
ATOM    101  C   UNL A   1      44.629  39.523  35.573  1.00  0.00     0.022 A 
BRANCH  99 102
ATOM    102  S   UNL A   1      43.618  41.392  33.842  1.00  0.00     0.127 S 
ATOM    103  O   UNL A   1      44.437  41.557  32.643  1.00  0.00    -0.237 OA
ATOM    104  O   UNL A   1      42.178  41.319  33.592  1.00  0.00    -0.237 OA
ATOM    105  O   UNL A   1      43.990  42.229  34.975  1.00  0.00    -0.744 OA
ENDBRANCH  99 102
ENDBRANCH  72  95
ENDBRANCH  46  47
ENDBRANCH  39  41
ENDBRANCH  38  39
ENDBRANCH  37  38
ENDBRANCH  36  37
ENDBRANCH  35  36
ENDBRANCH  34  35
ENDBRANCH  33  34
ENDBRANCH   1  33
TORSDOF 27
ENDMDL
MODEL 3
REMARK VINA RESULT:      -8.8      4.834      8.595
REMARK SMILES NC(=O)c1cc(NC(=O)/C=C\C(=O)OCCOCCOCCOCCOC(=O)c2ccc(-c3c4nc(c(-c5cccc(S(=O)(=O)[O-])c5F)c5ccc([nH]5)c(-c5cccc(S(=O)(=O)[O-])c5F)c5nc(c(-c6cccc(S(=O)(=O)[O-])c6F)c6ccc3[nH]6)C=C5)C=C4)cc2)ccc1N1CCOCC1
REMARK SMILES IDX 20 1 19 2 18 3 17 4 16 5 15 6 14 7 12 8 13 9 11 10 10 11
REMARK SMILES IDX 8 12 7 13 9 15 6 16 4 17 5 18 94 19 93 20 92 21 2 22 1 23
REMARK SMILES IDX 3 26 95 27 96 28 100 29 97 30 99 31 98 32 21 33 22 34 23 35
REMARK SMILES IDX 24 36 25 37 26 38 27 39 28 40 29 41 30 42 91 43 31 44 90 45
REMARK SMILES IDX 32 46 33 47 34 48 84 49 35 50 89 51 83 52 85 53 36 54 88 55
REMARK SMILES IDX 82 56 81 57 37 59 69 60 49 61 68 62 50 63 53 64 67 65 86 66
REMARK SMILES IDX 51 67 52 68 66 70 87 71 54 72 38 73 39 74 47 75 40 76 42 77
REMARK SMILES IDX 48 78 41 79 43 80 44 81 45 82 46 83 70 84 71 85 79 86 72 87
REMARK SMILES IDX 74 88 80 89 73 90 75 91 76 92 77 93 78 94 55 95 56 96 64 97
REMARK SMILES IDX 57 98 59 99 65 100 58 101 60 102 61 103 62 104 63 105
REMARK H PARENT 7 14 1 24 1 25 85 58 53 69
REMARK Flexibility Score: inf
ROOT
ATOM      1  O   UNL A   1      39.670  25.052  27.392  1.00  0.00    -0.377 OA
ENDROOT
BRANCH   1   2
ATOM      2  C   UNL A   1      40.404  25.613  28.466  1.00  0.00     0.188 C 
BRANCH   2   3
ATOM      3  C   UNL A   1      40.042  27.045  28.873  1.00  0.00     0.188 C 
BRANCH   3   4
ATOM      4  O   UNL A   1      39.897  27.957  27.788  1.00  0.00    -0.376 OA
BRANCH   4   5
ATOM      5  C   UNL A   1      39.842  29.341  28.108  1.00  0.00     0.202 C 
BRANCH   5   6
ATOM      6  C   UNL A   1      39.872  29.770  29.581  1.00  0.00     0.261 C 
BRANCH   6   7
ATOM      7  O   UNL A   1      38.671  30.217  30.246  1.00  0.00    -0.460 OA
BRANCH   7   8
ATOM      8  C   UNL A   1      37.637  29.420  30.543  1.00  0.00     0.331 C 
ATOM      9  O   UNL A   1      37.605  28.207  30.644  1.00  0.00    -0.247 OA
BRANCH   8  10
ATOM     10  C   UNL A   1      36.416  30.198  30.736  1.00  0.00     0.099 C 
ATOM     11  C   UNL A   1      35.811  30.893  29.765  1.00  0.00     0.079 C 
BRANCH  11  12
ATOM     12  C   UNL A   1      36.297  31.153  28.389  1.00  0.00     0.248 C 
ATOM     13  N   UNL A   1      35.779  30.582  27.262  1.00  0.00    -0.322 N 
ATOM     14  H   UNL A   1      36.311  30.773  26.454  1.00  0.00     0.170 HD
ATOM     15  O   UNL A   1      37.247  31.928  28.280  1.00  0.00    -0.270 OA
BRANCH  13  16
ATOM     16  C   UNL A   1      34.652  29.782  27.006  1.00  0.00     0.042 A 
ATOM     17  C   UNL A   1      33.586  27.848  26.004  1.00  0.00     0.064 A 
ATOM     18  C   UNL A   1      34.713  28.458  26.595  1.00  0.00     0.042 A 
ATOM     19  C   UNL A   1      32.354  28.537  25.878  1.00  0.00     0.050 A 
ATOM     20  C   UNL A   1      32.269  29.786  26.513  1.00  0.00     0.029 A 
ATOM     21  C   UNL A   1      33.401  30.400  27.074  1.00  0.00     0.028 A 
BRANCH  17  22
ATOM     22  C   UNL A   1      33.867  26.543  25.347  1.00  0.00     0.250 C 
ATOM     23  N   UNL A   1      33.654  25.427  26.104  1.00  0.00    -0.366 N 
ATOM     24  H   UNL A   1      33.824  24.535  25.722  1.00  0.00     0.159 HD
ATOM     25  H   UNL A   1      33.332  25.514  27.030  1.00  0.00     0.159 HD
ATOM     26  O   UNL A   1      34.199  26.470  24.171  1.00  0.00    -0.269 OA
ENDBRANCH  17  22
BRANCH  19  27
ATOM     27  N   UNL A   1      31.305  28.062  25.104  1.00  0.00    -0.366 N 
ATOM     28  C   UNL A   1      30.457  26.995  25.647  1.00  0.00     0.145 C 
ATOM     29  C   UNL A   1      30.649  28.880  24.071  1.00  0.00     0.145 C 
ATOM     30  C   UNL A   1      29.888  26.156  24.488  1.00  0.00     0.181 C 
ATOM     31  C   UNL A   1      30.099  27.955  22.970  1.00  0.00     0.181 C 
ATOM     32  O   UNL A   1      29.205  26.968  23.515  1.00  0.00    -0.378 OA
ENDBRANCH  19  27
ENDBRANCH  13  16
ENDBRANCH  11  12
ENDBRANCH   8  10
ENDBRANCH   7   8
ENDBRANCH   6   7
ENDBRANCH   5   6
ENDBRANCH   4   5
ENDBRANCH   3   4
ENDBRANCH   2   3
ENDBRANCH   1   2
BRANCH   1  33
ATOM     33  C   UNL A   1      39.651  23.635  27.239  1.00  0.00     0.188 C 
BRANCH  33  34
ATOM     34  C   UNL A   1      40.798  22.938  26.491  1.00  0.00     0.188 C 
BRANCH  34  35
ATOM     35  O   UNL A   1      42.032  22.932  27.192  1.00  0.00    -0.376 OA
BRANCH  35  36
ATOM     36  C   UNL A   1      43.021  22.033  26.708  1.00  0.00     0.202 C 
BRANCH  36  37
ATOM     37  C   UNL A   1      43.502  22.272  25.269  1.00  0.00     0.261 C 
BRANCH  37  38
ATOM     38  O   UNL A   1      43.718  23.637  24.862  1.00  0.00    -0.460 OA
BRANCH  38  39
ATOM     39  C   UNL A   1      44.916  24.225  25.073  1.00  0.00     0.338 C 
ATOM     40  O   UNL A   1      45.964  23.981  24.507  1.00  0.00    -0.246 OA
BRANCH  39  41
ATOM     41  C   UNL A   1      44.693  25.403  25.951  1.00  0.00     0.060 A 
ATOM     42  C   UNL A   1      45.790  25.963  26.624  1.00  0.00     0.016 A 
ATOM     43  C   UNL A   1      43.427  25.982  26.068  1.00  0.00     0.016 A 
ATOM     44  C   UNL A   1      45.609  27.060  27.470  1.00  0.00     0.010 A 
ATOM     45  C   UNL A   1      43.241  27.061  26.936  1.00  0.00     0.010 A 
ATOM     46  C   UNL A   1      44.320  27.569  27.681  1.00  0.00    -0.014 A 
BRANCH  46  47
ATOM     47  C   UNL A   1      44.041  28.361  28.905  1.00  0.00     0.031 A 
ATOM     48  C   UNL A   1      44.015  27.607  30.211  1.00  0.00     0.074 A 
ATOM     49  C   UNL A   1      43.788  29.682  28.881  1.00  0.00     0.049 A 
ATOM     50  N   UNL A   1      43.737  28.033  31.413  1.00  0.00    -0.248 NA
ATOM     51  C   UNL A   1      44.344  26.171  30.143  1.00  0.00     0.031 C 
ATOM     52  C   UNL A   1      43.790  30.530  27.692  1.00  0.00     0.029 A 
ATOM     53  N   UNL A   1      43.449  30.534  29.905  1.00  0.00    -0.354 N 
ATOM     54  C   UNL A   1      43.832  26.917  32.236  1.00  0.00     0.074 A 
ATOM     55  C   UNL A   1      44.184  25.793  31.399  1.00  0.00     0.031 C 
ATOM     56  C   UNL A   1      43.433  31.778  28.049  1.00  0.00     0.029 A 
ATOM     57  C   UNL A   1      43.156  31.811  29.486  1.00  0.00     0.049 A 
ATOM     58  H   UNL A   1      43.420  30.257  30.849  1.00  0.00     0.167 HD
ATOM     59  C   UNL A   1      43.654  26.828  33.573  1.00  0.00     0.034 A 
ATOM     60  C   UNL A   1      42.696  32.871  30.183  1.00  0.00     0.034 A 
ATOM     61  C   UNL A   1      43.305  27.936  34.413  1.00  0.00     0.049 A 
ATOM     62  C   UNL A   1      42.465  32.738  31.670  1.00  0.00     0.074 A 
ATOM     63  C   UNL A   1      43.131  27.955  35.784  1.00  0.00     0.029 A 
ATOM     64  N   UNL A   1      43.060  29.221  33.957  1.00  0.00    -0.354 N 
ATOM     65  N   UNL A   1      42.678  31.708  32.454  1.00  0.00    -0.248 NA
ATOM     66  C   UNL A   1      41.953  33.926  32.374  1.00  0.00     0.031 C 
ATOM     67  C   UNL A   1      42.759  29.251  36.157  1.00  0.00     0.029 A 
ATOM     68  C   UNL A   1      42.726  30.042  35.018  1.00  0.00     0.049 A 
ATOM     69  H   UNL A   1      43.115  29.508  33.016  1.00  0.00     0.167 HD
ATOM     70  C   UNL A   1      42.366  32.134  33.743  1.00  0.00     0.074 A 
ATOM     71  C   UNL A   1      41.965  33.521  33.638  1.00  0.00     0.031 C 
ATOM     72  C   UNL A   1      42.394  31.439  34.906  1.00  0.00     0.034 A 
BRANCH  59  73
ATOM     73  C   UNL A   1      43.856  25.479  34.207  1.00  0.00     0.023 A 
ATOM     74  C   UNL A   1      42.750  24.626  34.390  1.00  0.00     0.012 A 
ATOM     75  C   UNL A   1      45.139  25.049  34.597  1.00  0.00     0.148 A 
ATOM     76  C   UNL A   1      42.911  23.374  34.982  1.00  0.00     0.002 A 
ATOM     77  C   UNL A   1      45.298  23.783  35.147  1.00  0.00     0.091 A 
ATOM     78  F   UNL A   1      46.170  25.892  34.444  1.00  0.00    -0.205 F 
ATOM     79  C   UNL A   1      44.185  22.949  35.350  1.00  0.00     0.022 A 
BRANCH  77  80
ATOM     80  S   UNL A   1      46.906  23.119  35.588  1.00  0.00     0.127 S 
ATOM     81  O   UNL A   1      47.310  24.018  36.668  1.00  0.00    -0.237 OA
ATOM     82  O   UNL A   1      46.571  21.761  36.017  1.00  0.00    -0.237 OA
ATOM     83  O   UNL A   1      47.715  23.190  34.379  1.00  0.00    -0.744 OA
ENDBRANCH  77  80
ENDBRANCH  59  73
BRANCH  60  84
ATOM     84  C   UNL A   1      42.443  34.172  29.498  1.00  0.00     0.023 A 
ATOM     85  C   UNL A   1      41.126  34.518  29.135  1.00  0.00     0.012 A 
ATOM     86  C   UNL A   1      43.492  35.059  29.192  1.00  0.00     0.148 A 
ATOM     87  C   UNL A   1      40.863  35.706  28.451  1.00  0.00     0.002 A 
ATOM     88  C   UNL A   1      43.218  36.266  28.557  1.00  0.00     0.091 A 
ATOM     89  F   UNL A   1      44.741  34.703  29.526  1.00  0.00    -0.205 F 
ATOM     90  C   UNL A   1      41.907  36.584  28.171  1.00  0.00     0.022 A 
BRANCH  88  91
ATOM     91  S   UNL A   1      44.478  37.510  28.257  1.00  0.00     0.127 S 
ATOM     92  O   UNL A   1      45.621  36.689  27.870  1.00  0.00    -0.237 OA
ATOM     93  O   UNL A   1      43.877  38.283  27.169  1.00  0.00    -0.237 OA
ATOM     94  O   UNL A   1      44.617  38.237  29.511  1.00  0.00    -0.744 OA
ENDBRANCH  88  91
ENDBRANCH  60  84
BRANCH  72  95
ATOM     95  C   UNL A   1      42.026  32.163  36.176  1.00  0.00     0.023 A 
ATOM     96  C   UNL A   1      43.020  32.833  36.913  1.00  0.00     0.012 A 
ATOM     97  C   UNL A   1      40.679  32.261  36.580  1.00  0.00     0.148 A 
ATOM     98  C   UNL A   1      42.683  33.568  38.050  1.00  0.00     0.002 A 
ATOM     99  C   UNL A   1      40.345  33.033  37.685  1.00  0.00     0.091 A 
ATOM    100  F   UNL A   1      39.749  31.602  35.873  1.00  0.00    -0.205 F 
ATOM    101  C   UNL A   1      41.347  33.680  38.428  1.00  0.00     0.022 A 
BRANCH  99 102
ATOM    102  S   UNL A   1      38.642  33.313  38.184  1.00  0.00     0.127 S 
ATOM    103  O   UNL A   1      38.072  33.911  36.978  1.00  0.00    -0.237 OA
ATOM    104  O   UNL A   1      38.173  31.956  38.471  1.00  0.00    -0.237 OA
ATOM    105  O   UNL A   1      38.705  34.186  39.348  1.00  0.00    -0.744 OA
ENDBRANCH  99 102
ENDBRANCH  72  95
ENDBRANCH  46  47
ENDBRANCH  39  41
ENDBRANCH  38  39
ENDBRANCH  37  38
ENDBRANCH  36  37
ENDBRANCH  35  36
ENDBRANCH  34  35
ENDBRANCH  33  34
ENDBRANCH   1  33
TORSDOF 27
ENDMDL
