MODEL 1
REMARK VINA RESULT:      -7.0      0.000      0.000
REMARK SMILES CCOC(=O)C1=NN(c2ccc([N+](=O)[O-])cc2C(F)(F)F)[C@@](C)(C(=O)OCCOCCOCCOCCOC(=O)c2ccc(-c3c4nc(c(-c5cccc(S(=O)(=O)[O-])c5F)c5ccc([nH]5)c(-c5cccc(S(=O)(=O)[O-])c5F)c5nc(c(-c6cccc(S(=O)(=O)[O-])c6F)c6ccc3[nH]6)C=C5)C=C4)cc2)C1
REMARK SMILES IDX 32 1 31 2 30 3 29 4 28 5 27 6 26 7 24 8 25 9 22 10 6 11 7 12
REMARK SMILES IDX 104 13 8 14 23 15 4 16 5 17 3 18 2 19 1 20 9 21 10 22 17 23
REMARK SMILES IDX 11 24 16 25 12 26 18 27 19 28 20 29 21 30 13 31 14 32 15 33
REMARK SMILES IDX 33 34 34 35 35 36 36 37 37 38 38 39 39 40 40 41 41 42 42 43
REMARK SMILES IDX 103 44 43 45 102 46 44 47 45 48 46 49 96 50 47 51 101 52
REMARK SMILES IDX 95 53 97 54 48 55 100 56 94 57 93 58 49 60 81 61 61 62 80 63
REMARK SMILES IDX 62 64 65 65 79 66 98 67 63 68 64 69 78 71 99 72 66 73 50 74
REMARK SMILES IDX 51 75 59 76 52 77 54 78 60 79 53 80 55 81 56 82 57 83 58 84
REMARK SMILES IDX 82 85 83 86 91 87 84 88 86 89 92 90 85 91 87 92 88 93 89 94
REMARK SMILES IDX 90 95 67 96 68 97 76 98 69 99 71 100 77 101 70 102 72 103
REMARK SMILES IDX 73 104 74 105 75 106
REMARK H PARENT 97 59 65 70
REMARK Flexibility Score: inf
ROOT
ATOM      1  O   UNL A   1      48.053  39.702  29.686  1.00  0.00    -0.377 OA
ENDROOT
BRANCH   1   2
ATOM      2  C   UNL A   1      47.853  39.514  28.292  1.00  0.00     0.188 C 
BRANCH   2   3
ATOM      3  C   UNL A   1      48.050  40.781  27.447  1.00  0.00     0.188 C 
BRANCH   3   4
ATOM      4  O   UNL A   1      48.574  41.964  28.060  1.00  0.00    -0.376 OA
BRANCH   4   5
ATOM      5  C   UNL A   1      48.235  43.220  27.491  1.00  0.00     0.202 C 
BRANCH   5   6
ATOM      6  C   UNL A   1      47.585  43.099  26.097  1.00  0.00     0.261 C 
BRANCH   6   7
ATOM      7  O   UNL A   1      47.183  44.341  25.471  1.00  0.00    -0.461 OA
BRANCH   7   8
ATOM      8  C   UNL A   1      47.029  44.277  24.123  1.00  0.00     0.334 C 
ATOM      9  O   UNL A   1      47.974  44.317  23.333  1.00  0.00    -0.249 OA
BRANCH   8  10
ATOM     10  C   UNL A   1      45.570  44.335  23.614  1.00  0.00     0.163 C 
ATOM     11  C   UNL A   1      45.397  43.439  21.481  1.00  0.00     0.149 C 
ATOM     12  N   UNL A   1      44.885  42.517  22.231  1.00  0.00    -0.169 NA
ATOM     13  C   UNL A   1      45.637  44.761  22.123  1.00  0.00     0.108 C 
ATOM     14  N   UNL A   1      44.802  43.046  23.502  1.00  0.00    -0.247 N 
ATOM     15  C   UNL A   1      44.947  45.414  24.486  1.00  0.00     0.050 C 
BRANCH  11  16
ATOM     16  C   UNL A   1      45.743  43.215  20.033  1.00  0.00     0.354 C 
ATOM     17  O   UNL A   1      46.894  43.036  19.679  1.00  0.00    -0.245 OA
BRANCH  16  18
ATOM     18  O   UNL A   1      44.635  43.234  19.270  1.00  0.00    -0.461 OA
BRANCH  18  19
ATOM     19  C   UNL A   1      44.118  44.541  18.978  1.00  0.00     0.230 C 
ATOM     20  C   UNL A   1      44.095  44.797  17.481  1.00  0.00     0.049 C 
ENDBRANCH  18  19
ENDBRANCH  16  18
ENDBRANCH  11  16
BRANCH  14  21
ATOM     21  C   UNL A   1      44.016  42.309  24.382  1.00  0.00     0.073 A 
ATOM     22  C   UNL A   1      44.680  41.444  25.292  1.00  0.00     0.036 A 
ATOM     23  C   UNL A   1      42.614  42.167  24.312  1.00  0.00     0.088 A 
ATOM     24  C   UNL A   1      44.019  40.544  26.140  1.00  0.00     0.088 A 
ATOM     25  C   UNL A   1      41.934  41.308  25.220  1.00  0.00     0.101 A 
ATOM     26  C   UNL A   1      42.634  40.490  26.110  1.00  0.00     0.270 A 
BRANCH  23  27
ATOM     27  C   UNL A   1      41.758  42.756  23.220  1.00  0.00     0.418 C 
ATOM     28  F   UNL A   1      42.132  44.030  22.888  1.00  0.00    -0.166 F 
ATOM     29  F   UNL A   1      41.834  42.058  22.054  1.00  0.00    -0.166 F 
ATOM     30  F   UNL A   1      40.435  42.863  23.526  1.00  0.00    -0.166 F 
ENDBRANCH  23  27
BRANCH  26  31
ATOM     31  N   UNL A   1      41.915  39.499  26.922  1.00  0.00     0.062 N 
ATOM     32  O   UNL A   1      41.461  39.869  28.013  1.00  0.00    -0.258 OA
ATOM     33  O   UNL A   1      41.855  38.340  26.487  1.00  0.00    -0.258 OA
ENDBRANCH  26  31
ENDBRANCH  14  21
ENDBRANCH   8  10
ENDBRANCH   7   8
ENDBRANCH   6   7
ENDBRANCH   5   6
ENDBRANCH   4   5
ENDBRANCH   3   4
ENDBRANCH   2   3
ENDBRANCH   1   2
BRANCH   1  34
ATOM     34  C   UNL A   1      49.293  39.260  30.210  1.00  0.00     0.188 C 
BRANCH  34  35
ATOM     35  C   UNL A   1      50.102  40.331  30.951  1.00  0.00     0.188 C 
BRANCH  35  36
ATOM     36  O   UNL A   1      50.177  40.086  32.357  1.00  0.00    -0.376 OA
BRANCH  36  37
ATOM     37  C   UNL A   1      49.867  41.171  33.224  1.00  0.00     0.202 C 
BRANCH  37  38
ATOM     38  C   UNL A   1      48.371  41.503  33.346  1.00  0.00     0.261 C 
BRANCH  38  39
ATOM     39  O   UNL A   1      47.470  40.391  33.206  1.00  0.00    -0.460 OA
BRANCH  39  40
ATOM     40  C   UNL A   1      46.180  40.665  32.928  1.00  0.00     0.338 C 
ATOM     41  O   UNL A   1      45.761  41.556  32.200  1.00  0.00    -0.246 OA
BRANCH  40  42
ATOM     42  C   UNL A   1      45.341  39.574  33.459  1.00  0.00     0.060 A 
ATOM     43  C   UNL A   1      44.004  39.861  33.763  1.00  0.00     0.016 A 
ATOM     44  C   UNL A   1      45.857  38.292  33.670  1.00  0.00     0.016 A 
ATOM     45  C   UNL A   1      43.198  38.884  34.342  1.00  0.00     0.010 A 
ATOM     46  C   UNL A   1      45.051  37.318  34.271  1.00  0.00     0.010 A 
ATOM     47  C   UNL A   1      43.735  37.629  34.654  1.00  0.00    -0.014 A 
BRANCH  47  48
ATOM     48  C   UNL A   1      42.979  36.750  35.578  1.00  0.00     0.031 A 
ATOM     49  C   UNL A   1      43.254  36.865  37.054  1.00  0.00     0.074 A 
ATOM     50  C   UNL A   1      42.029  35.911  35.130  1.00  0.00     0.049 A 
ATOM     51  N   UNL A   1      42.645  36.290  38.057  1.00  0.00    -0.248 NA
ATOM     52  C   UNL A   1      44.363  37.751  37.453  1.00  0.00     0.031 C 
ATOM     53  C   UNL A   1      41.682  35.693  33.727  1.00  0.00     0.029 A 
ATOM     54  N   UNL A   1      41.189  35.072  35.819  1.00  0.00    -0.354 N 
ATOM     55  C   UNL A   1      43.305  36.726  39.200  1.00  0.00     0.074 A 
ATOM     56  C   UNL A   1      44.369  37.604  38.769  1.00  0.00     0.031 C 
ATOM     57  C   UNL A   1      40.719  34.758  33.657  1.00  0.00     0.029 A 
ATOM     58  C   UNL A   1      40.380  34.312  35.008  1.00  0.00     0.049 A 
ATOM     59  H   UNL A   1      41.168  35.020  36.802  1.00  0.00     0.167 HD
ATOM     60  C   UNL A   1      43.039  36.437  40.495  1.00  0.00     0.034 A 
ATOM     61  C   UNL A   1      39.476  33.363  35.324  1.00  0.00     0.034 A 
ATOM     62  C   UNL A   1      41.969  35.581  40.927  1.00  0.00     0.049 A 
ATOM     63  C   UNL A   1      39.186  33.076  36.777  1.00  0.00     0.074 A 
ATOM     64  C   UNL A   1      41.578  35.280  42.220  1.00  0.00     0.029 A 
ATOM     65  N   UNL A   1      41.133  34.873  40.079  1.00  0.00    -0.354 N 
ATOM     66  N   UNL A   1      39.704  33.627  37.850  1.00  0.00    -0.248 NA
ATOM     67  C   UNL A   1      38.152  32.071  37.063  1.00  0.00     0.031 C 
ATOM     68  C   UNL A   1      40.520  34.367  42.153  1.00  0.00     0.029 A 
ATOM     69  C   UNL A   1      40.235  34.123  40.819  1.00  0.00     0.049 A 
ATOM     70  H   UNL A   1      41.172  34.899  39.096  1.00  0.00     0.167 HD
ATOM     71  C   UNL A   1      39.037  33.059  38.931  1.00  0.00     0.074 A 
ATOM     72  C   UNL A   1      38.055  32.147  38.383  1.00  0.00     0.031 C 
ATOM     73  C   UNL A   1      39.229  33.259  40.259  1.00  0.00     0.034 A 
BRANCH  60  74
ATOM     74  C   UNL A   1      43.906  37.073  41.547  1.00  0.00     0.023 A 
ATOM     75  C   UNL A   1      43.528  38.308  42.111  1.00  0.00     0.012 A 
ATOM     76  C   UNL A   1      45.056  36.415  42.024  1.00  0.00     0.148 A 
ATOM     77  C   UNL A   1      44.293  38.889  43.122  1.00  0.00     0.002 A 
ATOM     78  C   UNL A   1      45.789  36.980  43.060  1.00  0.00     0.091 A 
ATOM     79  F   UNL A   1      45.411  35.256  41.453  1.00  0.00    -0.205 F 
ATOM     80  C   UNL A   1      45.414  38.220  43.604  1.00  0.00     0.022 A 
BRANCH  78  81
ATOM     81  S   UNL A   1      47.205  36.162  43.803  1.00  0.00     0.127 S 
ATOM     82  O   UNL A   1      47.593  37.124  44.833  1.00  0.00    -0.237 OA
ATOM     83  O   UNL A   1      46.611  34.927  44.315  1.00  0.00    -0.237 OA
ATOM     84  O   UNL A   1      48.171  35.973  42.729  1.00  0.00    -0.744 OA
ENDBRANCH  78  81
ENDBRANCH  60  74
BRANCH  61  85
ATOM     85  C   UNL A   1      38.744  32.637  34.247  1.00  0.00     0.023 A 
ATOM     86  C   UNL A   1      39.239  31.411  33.762  1.00  0.00     0.012 A 
ATOM     87  C   UNL A   1      37.560  33.164  33.696  1.00  0.00     0.148 A 
ATOM     88  C   UNL A   1      38.591  30.745  32.721  1.00  0.00     0.002 A 
ATOM     89  C   UNL A   1      36.888  32.465  32.701  1.00  0.00     0.091 A 
ATOM     90  F   UNL A   1      37.115  34.344  34.153  1.00  0.00    -0.205 F 
ATOM     91  C   UNL A   1      37.412  31.265  32.197  1.00  0.00     0.022 A 
BRANCH  89  92
ATOM     92  S   UNL A   1      35.292  32.999  32.072  1.00  0.00     0.127 S 
ATOM     93  O   UNL A   1      34.467  32.963  33.274  1.00  0.00    -0.237 OA
ATOM     94  O   UNL A   1      35.596  34.341  31.571  1.00  0.00    -0.237 OA
ATOM     95  O   UNL A   1      34.947  32.041  31.030  1.00  0.00    -0.744 OA
ENDBRANCH  89  92
ENDBRANCH  61  85
BRANCH  73  96
ATOM     96  C   UNL A   1      38.344  32.502  41.216  1.00  0.00     0.023 A 
ATOM     97  C   UNL A   1      38.777  31.269  41.745  1.00  0.00     0.012 A 
ATOM     98  C   UNL A   1      37.106  33.033  41.630  1.00  0.00     0.148 A 
ATOM     99  C   UNL A   1      37.973  30.557  42.634  1.00  0.00     0.002 A 
ATOM    100  C   UNL A   1      36.333  32.342  42.556  1.00  0.00     0.091 A 
ATOM    101  F   UNL A   1      36.698  34.197  41.104  1.00  0.00    -0.205 F 
ATOM    102  C   UNL A   1      36.757  31.096  43.047  1.00  0.00     0.022 A 
BRANCH 100 103
ATOM    103  S   UNL A   1      34.804  33.019  43.212  1.00  0.00     0.127 S 
ATOM    104  O   UNL A   1      34.572  32.165  44.374  1.00  0.00    -0.237 OA
ATOM    105  O   UNL A   1      35.180  34.397  43.533  1.00  0.00    -0.237 OA
ATOM    106  O   UNL A   1      33.830  32.901  42.135  1.00  0.00    -0.744 OA
ENDBRANCH 100 103
ENDBRANCH  73  96
ENDBRANCH  47  48
ENDBRANCH  40  42
ENDBRANCH  39  40
ENDBRANCH  38  39
ENDBRANCH  37  38
ENDBRANCH  36  37
ENDBRANCH  35  36
ENDBRANCH  34  35
ENDBRANCH   1  34
TORSDOF 29
ENDMDL
MODEL 2
REMARK VINA RESULT:      -6.8      3.221      8.081
REMARK SMILES CCOC(=O)C1=NN(c2ccc([N+](=O)[O-])cc2C(F)(F)F)[C@@](C)(C(=O)OCCOCCOCCOCCOC(=O)c2ccc(-c3c4nc(c(-c5cccc(S(=O)(=O)[O-])c5F)c5ccc([nH]5)c(-c5cccc(S(=O)(=O)[O-])c5F)c5nc(c(-c6cccc(S(=O)(=O)[O-])c6F)c6ccc3[nH]6)C=C5)C=C4)cc2)C1
REMARK SMILES IDX 32 1 31 2 30 3 29 4 28 5 27 6 26 7 24 8 25 9 22 10 6 11 7 12
REMARK SMILES IDX 104 13 8 14 23 15 4 16 5 17 3 18 2 19 1 20 9 21 10 22 17 23
REMARK SMILES IDX 11 24 16 25 12 26 18 27 19 28 20 29 21 30 13 31 14 32 15 33
REMARK SMILES IDX 33 34 34 35 35 36 36 37 37 38 38 39 39 40 40 41 41 42 42 43
REMARK SMILES IDX 103 44 43 45 102 46 44 47 45 48 46 49 96 50 47 51 101 52
REMARK SMILES IDX 95 53 97 54 48 55 100 56 94 57 93 58 49 60 81 61 61 62 80 63
REMARK SMILES IDX 62 64 65 65 79 66 98 67 63 68 64 69 78 71 99 72 66 73 50 74
REMARK SMILES IDX 51 75 59 76 52 77 54 78 60 79 53 80 55 81 56 82 57 83 58 84
REMARK SMILES IDX 82 85 83 86 91 87 84 88 86 89 92 90 85 91 87 92 88 93 89 94
REMARK SMILES IDX 90 95 67 96 68 97 76 98 69 99 71 100 77 101 70 102 72 103
REMARK SMILES IDX 73 104 74 105 75 106
REMARK H PARENT 97 59 65 70
REMARK Flexibility Score: inf
ROOT
ATOM      1  O   UNL A   1      47.947  42.090  34.498  1.00  0.00    -0.377 OA
ENDROOT
BRANCH   1   2
ATOM      2  C   UNL A   1      48.198  43.446  34.840  1.00  0.00     0.188 C 
BRANCH   2   3
ATOM      3  C   UNL A   1      46.973  44.365  34.732  1.00  0.00     0.188 C 
BRANCH   3   4
ATOM      4  O   UNL A   1      45.967  44.090  33.752  1.00  0.00    -0.376 OA
BRANCH   4   5
ATOM      5  C   UNL A   1      44.739  43.527  34.191  1.00  0.00     0.202 C 
BRANCH   5   6
ATOM      6  C   UNL A   1      43.705  43.370  33.057  1.00  0.00     0.261 C 
BRANCH   6   7
ATOM      7  O   UNL A   1      43.374  42.012  32.680  1.00  0.00    -0.461 OA
BRANCH   7   8
ATOM      8  C   UNL A   1      44.055  41.536  31.605  1.00  0.00     0.334 C 
ATOM      9  O   UNL A   1      45.234  41.179  31.658  1.00  0.00    -0.249 OA
BRANCH   8  10
ATOM     10  C   UNL A   1      43.319  41.634  30.250  1.00  0.00     0.163 C 
ATOM     11  C   UNL A   1      44.695  42.549  28.620  1.00  0.00     0.149 C 
ATOM     12  N   UNL A   1      44.667  41.291  28.313  1.00  0.00    -0.169 NA
ATOM     13  C   UNL A   1      43.705  43.005  29.634  1.00  0.00     0.108 C 
ATOM     14  N   UNL A   1      43.735  40.704  29.142  1.00  0.00    -0.247 N 
ATOM     15  C   UNL A   1      41.853  41.585  30.653  1.00  0.00     0.050 C 
BRANCH  11  16
ATOM     16  C   UNL A   1      45.665  43.519  28.002  1.00  0.00     0.354 C 
ATOM     17  O   UNL A   1      46.805  43.624  28.417  1.00  0.00    -0.245 OA
BRANCH  16  18
ATOM     18  O   UNL A   1      45.090  44.184  26.983  1.00  0.00    -0.461 OA
BRANCH  18  19
ATOM     19  C   UNL A   1      45.045  43.469  25.738  1.00  0.00     0.230 C 
ATOM     20  C   UNL A   1      44.438  44.323  24.639  1.00  0.00     0.049 C 
ENDBRANCH  18  19
ENDBRANCH  16  18
ENDBRANCH  11  16
BRANCH  14  21
ATOM     21  C   UNL A   1      43.361  39.418  28.768  1.00  0.00     0.073 A 
ATOM     22  C   UNL A   1      44.041  38.330  29.378  1.00  0.00     0.036 A 
ATOM     23  C   UNL A   1      42.527  39.088  27.680  1.00  0.00     0.088 A 
ATOM     24  C   UNL A   1      43.867  36.991  29.004  1.00  0.00     0.088 A 
ATOM     25  C   UNL A   1      42.293  37.724  27.343  1.00  0.00     0.101 A 
ATOM     26  C   UNL A   1      42.974  36.690  27.987  1.00  0.00     0.270 A 
BRANCH  23  27
ATOM     27  C   UNL A   1      41.959  40.095  26.713  1.00  0.00     0.418 C 
ATOM     28  F   UNL A   1      40.925  39.589  25.974  1.00  0.00    -0.166 F 
ATOM     29  F   UNL A   1      41.438  41.189  27.335  1.00  0.00    -0.166 F 
ATOM     30  F   UNL A   1      42.843  40.557  25.784  1.00  0.00    -0.166 F 
ENDBRANCH  23  27
BRANCH  26  31
ATOM     31  N   UNL A   1      42.833  35.306  27.513  1.00  0.00     0.062 N 
ATOM     32  O   UNL A   1      43.238  34.400  28.252  1.00  0.00    -0.258 OA
ATOM     33  O   UNL A   1      42.365  35.137  26.377  1.00  0.00    -0.258 OA
ENDBRANCH  26  31
ENDBRANCH  14  21
ENDBRANCH   8  10
ENDBRANCH   7   8
ENDBRANCH   6   7
ENDBRANCH   5   6
ENDBRANCH   4   5
ENDBRANCH   3   4
ENDBRANCH   2   3
ENDBRANCH   1   2
BRANCH   1  34
ATOM     34  C   UNL A   1      48.993  41.403  33.833  1.00  0.00     0.188 C 
BRANCH  34  35
ATOM     35  C   UNL A   1      49.177  41.772  32.357  1.00  0.00     0.188 C 
BRANCH  35  36
ATOM     36  O   UNL A   1      49.393  40.629  31.528  1.00  0.00    -0.376 OA
BRANCH  36  37
ATOM     37  C   UNL A   1      48.966  39.369  32.033  1.00  0.00     0.202 C 
BRANCH  37  38
ATOM     38  C   UNL A   1      47.949  38.623  31.152  1.00  0.00     0.261 C 
BRANCH  38  39
ATOM     39  O   UNL A   1      46.644  38.433  31.726  1.00  0.00    -0.460 OA
BRANCH  39  40
ATOM     40  C   UNL A   1      46.209  37.168  31.881  1.00  0.00     0.338 C 
ATOM     41  O   UNL A   1      46.594  36.180  31.267  1.00  0.00    -0.246 OA
BRANCH  40  42
ATOM     42  C   UNL A   1      45.348  37.108  33.077  1.00  0.00     0.060 A 
ATOM     43  C   UNL A   1      45.668  36.177  34.073  1.00  0.00     0.016 A 
ATOM     44  C   UNL A   1      44.234  37.941  33.217  1.00  0.00     0.016 A 
ATOM     45  C   UNL A   1      44.837  36.030  35.181  1.00  0.00     0.010 A 
ATOM     46  C   UNL A   1      43.389  37.779  34.321  1.00  0.00     0.010 A 
ATOM     47  C   UNL A   1      43.663  36.788  35.279  1.00  0.00    -0.014 A 
BRANCH  47  48
ATOM     48  C   UNL A   1      42.634  36.366  36.260  1.00  0.00     0.031 A 
ATOM     49  C   UNL A   1      41.629  35.329  35.834  1.00  0.00     0.074 A 
ATOM     50  C   UNL A   1      42.623  36.844  37.516  1.00  0.00     0.049 A 
ATOM     51  N   UNL A   1      40.713  34.723  36.543  1.00  0.00    -0.248 NA
ATOM     52  C   UNL A   1      41.663  34.915  34.419  1.00  0.00     0.031 C 
ATOM     53  C   UNL A   1      43.527  37.863  38.044  1.00  0.00     0.029 A 
ATOM     54  N   UNL A   1      41.804  36.539  38.574  1.00  0.00    -0.354 N 
ATOM     55  C   UNL A   1      40.051  33.876  35.661  1.00  0.00     0.074 A 
ATOM     56  C   UNL A   1      40.660  34.052  34.363  1.00  0.00     0.031 C 
ATOM     57  C   UNL A   1      43.195  38.119  39.322  1.00  0.00     0.029 A 
ATOM     58  C   UNL A   1      42.057  37.283  39.702  1.00  0.00     0.049 A 
ATOM     59  H   UNL A   1      41.101  35.850  38.530  1.00  0.00     0.167 HD
ATOM     60  C   UNL A   1      39.039  33.014  35.913  1.00  0.00     0.034 A 
ATOM     61  C   UNL A   1      41.437  37.289  40.898  1.00  0.00     0.034 A 
ATOM     62  C   UNL A   1      38.445  32.823  37.207  1.00  0.00     0.049 A 
ATOM     63  C   UNL A   1      40.324  36.303  41.156  1.00  0.00     0.074 A 
ATOM     64  C   UNL A   1      37.460  31.924  37.576  1.00  0.00     0.029 A 
ATOM     65  N   UNL A   1      38.767  33.553  38.339  1.00  0.00    -0.354 N 
ATOM     66  N   UNL A   1      39.826  35.388  40.359  1.00  0.00    -0.248 NA
ATOM     67  C   UNL A   1      39.720  36.318  42.497  1.00  0.00     0.031 C 
ATOM     68  C   UNL A   1      37.166  32.131  38.928  1.00  0.00     0.029 A 
ATOM     69  C   UNL A   1      37.989  33.137  39.406  1.00  0.00     0.049 A 
ATOM     70  H   UNL A   1      39.448  34.263  38.379  1.00  0.00     0.167 HD
ATOM     71  C   UNL A   1      38.877  34.701  41.109  1.00  0.00     0.074 A 
ATOM     72  C   UNL A   1      38.894  35.283  42.434  1.00  0.00     0.031 C 
ATOM     73  C   UNL A   1      38.052  33.692  40.733  1.00  0.00     0.034 A 
BRANCH  60  74
ATOM     74  C   UNL A   1      38.521  32.189  34.767  1.00  0.00     0.023 A 
ATOM     75  C   UNL A   1      38.952  30.856  34.614  1.00  0.00     0.012 A 
ATOM     76  C   UNL A   1      37.556  32.712  33.884  1.00  0.00     0.148 A 
ATOM     77  C   UNL A   1      38.446  30.061  33.587  1.00  0.00     0.002 A 
ATOM     78  C   UNL A   1      37.025  31.900  32.889  1.00  0.00     0.091 A 
ATOM     79  F   UNL A   1      37.182  33.990  34.032  1.00  0.00    -0.205 F 
ATOM     80  C   UNL A   1      37.475  30.578  32.734  1.00  0.00     0.022 A 
BRANCH  78  81
ATOM     81  S   UNL A   1      35.716  32.448  31.788  1.00  0.00     0.127 S 
ATOM     82  O   UNL A   1      35.555  31.282  30.920  1.00  0.00    -0.237 OA
ATOM     83  O   UNL A   1      34.610  32.674  32.717  1.00  0.00    -0.237 OA
ATOM     84  O   UNL A   1      36.217  33.648  31.132  1.00  0.00    -0.744 OA
ENDBRANCH  78  81
ENDBRANCH  60  74
BRANCH  61  85
ATOM     85  C   UNL A   1      41.875  38.234  41.965  1.00  0.00     0.023 A 
ATOM     86  C   UNL A   1      42.829  37.826  42.918  1.00  0.00     0.012 A 
ATOM     87  C   UNL A   1      41.343  39.535  42.043  1.00  0.00     0.148 A 
ATOM     88  C   UNL A   1      43.213  38.683  43.951  1.00  0.00     0.002 A 
ATOM     89  C   UNL A   1      41.774  40.403  43.039  1.00  0.00     0.091 A 
ATOM     90  F   UNL A   1      40.418  39.899  41.142  1.00  0.00    -0.205 F 
ATOM     91  C   UNL A   1      42.694  39.972  44.007  1.00  0.00     0.022 A 
BRANCH  89  92
ATOM     92  S   UNL A   1      41.257  42.122  43.096  1.00  0.00     0.127 S 
ATOM     93  O   UNL A   1      42.123  42.661  44.139  1.00  0.00    -0.237 OA
ATOM     94  O   UNL A   1      41.566  42.579  41.740  1.00  0.00    -0.237 OA
ATOM     95  O   UNL A   1      39.833  42.087  43.401  1.00  0.00    -0.744 OA
ENDBRANCH  89  92
ENDBRANCH  61  85
BRANCH  73  96
ATOM     96  C   UNL A   1      37.118  33.128  41.774  1.00  0.00     0.023 A 
ATOM     97  C   UNL A   1      35.749  33.462  41.740  1.00  0.00     0.012 A 
ATOM     98  C   UNL A   1      37.584  32.230  42.753  1.00  0.00     0.148 A 
ATOM     99  C   UNL A   1      34.869  32.946  42.692  1.00  0.00     0.002 A 
ATOM    100  C   UNL A   1      36.692  31.680  43.667  1.00  0.00     0.091 A 
ATOM    101  F   UNL A   1      38.892  31.935  42.785  1.00  0.00    -0.205 F 
ATOM    102  C   UNL A   1      35.337  32.049  43.648  1.00  0.00     0.022 A 
BRANCH 100 103
ATOM    103  S   UNL A   1      37.201  30.442  44.865  1.00  0.00     0.127 S 
ATOM    104  O   UNL A   1      35.919  30.030  45.434  1.00  0.00    -0.237 OA
ATOM    105  O   UNL A   1      37.846  29.433  44.023  1.00  0.00    -0.237 OA
ATOM    106  O   UNL A   1      38.107  31.127  45.777  1.00  0.00    -0.744 OA
ENDBRANCH 100 103
ENDBRANCH  73  96
ENDBRANCH  47  48
ENDBRANCH  40  42
ENDBRANCH  39  40
ENDBRANCH  38  39
ENDBRANCH  37  38
ENDBRANCH  36  37
ENDBRANCH  35  36
ENDBRANCH  34  35
ENDBRANCH   1  34
TORSDOF 29
ENDMDL
MODEL 3
REMARK VINA RESULT:      -6.8      8.327     13.272
REMARK SMILES CCOC(=O)C1=NN(c2ccc([N+](=O)[O-])cc2C(F)(F)F)[C@@](C)(C(=O)OCCOCCOCCOCCOC(=O)c2ccc(-c3c4nc(c(-c5cccc(S(=O)(=O)[O-])c5F)c5ccc([nH]5)c(-c5cccc(S(=O)(=O)[O-])c5F)c5nc(c(-c6cccc(S(=O)(=O)[O-])c6F)c6ccc3[nH]6)C=C5)C=C4)cc2)C1
REMARK SMILES IDX 32 1 31 2 30 3 29 4 28 5 27 6 26 7 24 8 25 9 22 10 6 11 7 12
REMARK SMILES IDX 104 13 8 14 23 15 4 16 5 17 3 18 2 19 1 20 9 21 10 22 17 23
REMARK SMILES IDX 11 24 16 25 12 26 18 27 19 28 20 29 21 30 13 31 14 32 15 33
REMARK SMILES IDX 33 34 34 35 35 36 36 37 37 38 38 39 39 40 40 41 41 42 42 43
REMARK SMILES IDX 103 44 43 45 102 46 44 47 45 48 46 49 96 50 47 51 101 52
REMARK SMILES IDX 95 53 97 54 48 55 100 56 94 57 93 58 49 60 81 61 61 62 80 63
REMARK SMILES IDX 62 64 65 65 79 66 98 67 63 68 64 69 78 71 99 72 66 73 50 74
REMARK SMILES IDX 51 75 59 76 52 77 54 78 60 79 53 80 55 81 56 82 57 83 58 84
REMARK SMILES IDX 82 85 83 86 91 87 84 88 86 89 92 90 85 91 87 92 88 93 89 94
REMARK SMILES IDX 90 95 67 96 68 97 76 98 69 99 71 100 77 101 70 102 72 103
REMARK SMILES IDX 73 104 74 105 75 106
REMARK H PARENT 97 59 65 70
REMARK Flexibility Score: inf
ROOT
ATOM      1  O   UNL A   1      47.801  39.756  32.599  1.00  0.00    -0.377 OA
ENDROOT
BRANCH   1   2
ATOM      2  C   UNL A   1      47.600  39.318  33.936  1.00  0.00     0.188 C 
BRANCH   2   3
ATOM      3  C   UNL A   1      46.538  38.219  34.089  1.00  0.00     0.188 C 
BRANCH   3   4
ATOM      4  O   UNL A   1      45.772  37.813  32.951  1.00  0.00    -0.376 OA
BRANCH   4   5
ATOM      5  C   UNL A   1      46.278  36.760  32.143  1.00  0.00     0.202 C 
BRANCH   5   6
ATOM      6  C   UNL A   1      45.616  36.692  30.751  1.00  0.00     0.261 C 
BRANCH   6   7
ATOM      7  O   UNL A   1      45.697  37.892  29.947  1.00  0.00    -0.461 OA
BRANCH   7   8
ATOM      8  C   UNL A   1      44.545  38.608  29.872  1.00  0.00     0.334 C 
ATOM      9  O   UNL A   1      43.450  38.163  30.223  1.00  0.00    -0.249 OA
BRANCH   8  10
ATOM     10  C   UNL A   1      44.650  39.968  29.145  1.00  0.00     0.163 C 
ATOM     11  C   UNL A   1      42.895  40.251  27.653  1.00  0.00     0.149 C 
ATOM     12  N   UNL A   1      42.576  41.031  28.635  1.00  0.00    -0.169 NA
ATOM     13  C   UNL A   1      44.281  39.706  27.660  1.00  0.00     0.108 C 
ATOM     14  N   UNL A   1      43.655  41.043  29.493  1.00  0.00    -0.247 N 
ATOM     15  C   UNL A   1      46.117  40.331  29.310  1.00  0.00     0.050 C 
BRANCH  11  16
ATOM     16  C   UNL A   1      41.936  39.895  26.549  1.00  0.00     0.354 C 
ATOM     17  O   UNL A   1      41.464  38.776  26.458  1.00  0.00    -0.245 OA
BRANCH  16  18
ATOM     18  O   UNL A   1      41.706  40.958  25.756  1.00  0.00    -0.461 OA
BRANCH  18  19
ATOM     19  C   UNL A   1      42.864  41.480  25.085  1.00  0.00     0.230 C 
ATOM     20  C   UNL A   1      42.466  42.418  23.959  1.00  0.00     0.049 C 
ENDBRANCH  18  19
ENDBRANCH  16  18
ENDBRANCH  11  16
BRANCH  14  21
ATOM     21  C   UNL A   1      43.614  42.044  30.458  1.00  0.00     0.073 A 
ATOM     22  C   UNL A   1      42.675  41.903  31.515  1.00  0.00     0.036 A 
ATOM     23  C   UNL A   1      44.256  43.297  30.371  1.00  0.00     0.088 A 
ATOM     24  C   UNL A   1      42.426  42.891  32.477  1.00  0.00     0.088 A 
ATOM     25  C   UNL A   1      44.059  44.276  31.386  1.00  0.00     0.101 A 
ATOM     26  C   UNL A   1      43.137  44.079  32.416  1.00  0.00     0.270 A 
BRANCH  23  27
ATOM     27  C   UNL A   1      45.045  43.762  29.174  1.00  0.00     0.418 C 
ATOM     28  F   UNL A   1      46.324  43.275  29.167  1.00  0.00    -0.166 F 
ATOM     29  F   UNL A   1      44.509  43.346  27.993  1.00  0.00    -0.166 F 
ATOM     30  F   UNL A   1      45.198  45.112  29.080  1.00  0.00    -0.166 F 
ENDBRANCH  23  27
BRANCH  26  31
ATOM     31  N   UNL A   1      42.839  45.168  33.356  1.00  0.00     0.062 N 
ATOM     32  O   UNL A   1      41.651  45.467  33.533  1.00  0.00    -0.258 OA
ATOM     33  O   UNL A   1      43.801  45.756  33.872  1.00  0.00    -0.258 OA
ENDBRANCH  26  31
ENDBRANCH  14  21
ENDBRANCH   8  10
ENDBRANCH   7   8
ENDBRANCH   6   7
ENDBRANCH   5   6
ENDBRANCH   4   5
ENDBRANCH   3   4
ENDBRANCH   2   3
ENDBRANCH   1   2
BRANCH   1  34
ATOM     34  C   UNL A   1      49.075  39.496  32.036  1.00  0.00     0.188 C 
BRANCH  34  35
ATOM     35  C   UNL A   1      49.574  40.553  31.044  1.00  0.00     0.188 C 
BRANCH  35  36
ATOM     36  O   UNL A   1      50.392  39.995  30.013  1.00  0.00    -0.376 OA
BRANCH  36  37
ATOM     37  C   UNL A   1      51.802  40.048  30.202  1.00  0.00     0.202 C 
BRANCH  37  38
ATOM     38  C   UNL A   1      52.625  40.254  28.919  1.00  0.00     0.261 C 
BRANCH  38  39
ATOM     39  O   UNL A   1      52.046  39.727  27.712  1.00  0.00    -0.460 OA
BRANCH  39  40
ATOM     40  C   UNL A   1      52.843  39.002  26.904  1.00  0.00     0.338 C 
ATOM     41  O   UNL A   1      53.920  39.346  26.435  1.00  0.00    -0.246 OA
BRANCH  40  42
ATOM     42  C   UNL A   1      52.324  37.621  26.846  1.00  0.00     0.060 A 
ATOM     43  C   UNL A   1      51.657  37.217  25.682  1.00  0.00     0.016 A 
ATOM     44  C   UNL A   1      52.476  36.739  27.918  1.00  0.00     0.016 A 
ATOM     45  C   UNL A   1      51.081  35.952  25.615  1.00  0.00     0.010 A 
ATOM     46  C   UNL A   1      51.880  35.474  27.857  1.00  0.00     0.010 A 
ATOM     47  C   UNL A   1      51.138  35.098  26.724  1.00  0.00    -0.014 A 
BRANCH  47  48
ATOM     48  C   UNL A   1      50.228  33.928  26.758  1.00  0.00     0.031 A 
ATOM     49  C   UNL A   1      50.781  32.585  26.363  1.00  0.00     0.074 A 
ATOM     50  C   UNL A   1      48.957  34.039  27.184  1.00  0.00     0.049 A 
ATOM     51  N   UNL A   1      50.216  31.408  26.421  1.00  0.00    -0.248 NA
ATOM     52  C   UNL A   1      52.157  32.565  25.836  1.00  0.00     0.031 C 
ATOM     53  C   UNL A   1      48.299  35.283  27.575  1.00  0.00     0.029 A 
ATOM     54  N   UNL A   1      47.989  33.080  27.345  1.00  0.00    -0.354 N 
ATOM     55  C   UNL A   1      51.156  30.513  25.920  1.00  0.00     0.074 A 
ATOM     56  C   UNL A   1      52.323  31.282  25.553  1.00  0.00     0.031 C 
ATOM     57  C   UNL A   1      47.023  35.015  27.905  1.00  0.00     0.029 A 
ATOM     58  C   UNL A   1      46.775  33.583  27.750  1.00  0.00     0.049 A 
ATOM     59  H   UNL A   1      48.149  32.121  27.186  1.00  0.00     0.167 HD
ATOM     60  C   UNL A   1      51.064  29.169  25.795  1.00  0.00     0.034 A 
ATOM     61  C   UNL A   1      45.602  32.956  27.964  1.00  0.00     0.034 A 
ATOM     62  C   UNL A   1      49.912  28.400  26.179  1.00  0.00     0.049 A 
ATOM     63  C   UNL A   1      45.534  31.454  27.836  1.00  0.00     0.074 A 
ATOM     64  C   UNL A   1      49.748  27.026  26.153  1.00  0.00     0.029 A 
ATOM     65  N   UNL A   1      48.722  28.938  26.640  1.00  0.00    -0.354 N 
ATOM     66  N   UNL A   1      46.485  30.605  27.526  1.00  0.00    -0.248 NA
ATOM     67  C   UNL A   1      44.241  30.819  28.134  1.00  0.00     0.031 C 
ATOM     68  C   UNL A   1      48.447  26.735  26.573  1.00  0.00     0.029 A 
ATOM     69  C   UNL A   1      47.811  27.925  26.888  1.00  0.00     0.049 A 
ATOM     70  H   UNL A   1      48.548  29.898  26.771  1.00  0.00     0.167 HD
ATOM     71  C   UNL A   1      45.916  29.339  27.624  1.00  0.00     0.074 A 
ATOM     72  C   UNL A   1      44.547  29.531  28.054  1.00  0.00     0.031 C 
ATOM     73  C   UNL A   1      46.468  28.127  27.365  1.00  0.00     0.034 A 
BRANCH  60  74
ATOM     74  C   UNL A   1      52.253  28.434  25.240  1.00  0.00     0.023 A 
ATOM     75  C   UNL A   1      53.189  27.854  26.120  1.00  0.00     0.012 A 
ATOM     76  C   UNL A   1      52.406  28.260  23.851  1.00  0.00     0.148 A 
ATOM     77  C   UNL A   1      54.271  27.127  25.625  1.00  0.00     0.002 A 
ATOM     78  C   UNL A   1      53.463  27.499  23.367  1.00  0.00     0.091 A 
ATOM     79  F   UNL A   1      51.519  28.844  23.034  1.00  0.00    -0.205 F 
ATOM     80  C   UNL A   1      54.400  26.940  24.252  1.00  0.00     0.022 A 
BRANCH  78  81
ATOM     81  S   UNL A   1      53.675  27.135  21.622  1.00  0.00     0.127 S 
ATOM     82  O   UNL A   1      53.261  28.395  21.007  1.00  0.00    -0.237 OA
ATOM     83  O   UNL A   1      55.109  26.859  21.539  1.00  0.00    -0.237 OA
ATOM     84  O   UNL A   1      52.817  25.992  21.341  1.00  0.00    -0.744 OA
ENDBRANCH  78  81
ENDBRANCH  60  74
BRANCH  61  85
ATOM     85  C   UNL A   1      44.396  33.738  28.362  1.00  0.00     0.023 A 
ATOM     86  C   UNL A   1      43.683  34.474  27.396  1.00  0.00     0.012 A 
ATOM     87  C   UNL A   1      43.959  33.760  29.701  1.00  0.00     0.148 A 
ATOM     88  C   UNL A   1      42.582  35.249  27.763  1.00  0.00     0.002 A 
ATOM     89  C   UNL A   1      42.826  34.487  30.048  1.00  0.00     0.091 A 
ATOM     90  F   UNL A   1      44.663  33.073  30.612  1.00  0.00    -0.205 F 
ATOM     91  C   UNL A   1      42.148  35.249  29.085  1.00  0.00     0.022 A 
BRANCH  89  92
ATOM     92  S   UNL A   1      42.124  34.427  31.700  1.00  0.00     0.127 S 
ATOM     93  O   UNL A   1      40.702  34.270  31.417  1.00  0.00    -0.237 OA
ATOM     94  O   UNL A   1      42.775  33.243  32.265  1.00  0.00    -0.237 OA
ATOM     95  O   UNL A   1      42.517  35.679  32.333  1.00  0.00    -0.744 OA
ENDBRANCH  89  92
ENDBRANCH  61  85
BRANCH  73  96
ATOM     96  C   UNL A   1      45.604  26.908  27.566  1.00  0.00     0.023 A 
ATOM     97  C   UNL A   1      45.489  26.335  28.849  1.00  0.00     0.012 A 
ATOM     98  C   UNL A   1      44.866  26.360  26.498  1.00  0.00     0.148 A 
ATOM     99  C   UNL A   1      44.691  25.211  29.055  1.00  0.00     0.002 A 
ATOM    100  C   UNL A   1      44.033  25.270  26.723  1.00  0.00     0.091 A 
ATOM    101  F   UNL A   1      44.999  26.904  25.280  1.00  0.00    -0.205 F 
ATOM    102  C   UNL A   1      43.956  24.684  27.996  1.00  0.00     0.022 A 
BRANCH 100 103
ATOM    103  S   UNL A   1      42.979  24.598  25.432  1.00  0.00     0.127 S 
ATOM    104  O   UNL A   1      43.961  24.066  24.490  1.00  0.00    -0.237 OA
ATOM    105  O   UNL A   1      42.210  23.580  26.149  1.00  0.00    -0.237 OA
ATOM    106  O   UNL A   1      42.183  25.719  24.951  1.00  0.00    -0.744 OA
ENDBRANCH 100 103
ENDBRANCH  73  96
ENDBRANCH  47  48
ENDBRANCH  40  42
ENDBRANCH  39  40
ENDBRANCH  38  39
ENDBRANCH  37  38
ENDBRANCH  36  37
ENDBRANCH  35  36
ENDBRANCH  34  35
ENDBRANCH   1  34
TORSDOF 29
ENDMDL
