MODEL 1
REMARK VINA RESULT:     -10.8      0.000      0.000
REMARK SMILES O=C1C[C@H](c2cn[nH]c2C(=O)OCCOCCOCCOCCOC(=O)c2ccc(-c3c4nc(c(-c5cccc(S(=O)(=O)[O-])c5F)c5ccc([nH]5)c(-c5cccc(S(=O)(=O)[O-])c5F)c5nc(c(-c6cccc(S(=O)(=O)[O-])c6F)c6ccc3[nH]6)C=C5)C=C4)cc2)c2c(-c3cccs3)n[nH]c2N1
REMARK SMILES IDX 19 1 18 2 17 3 16 4 15 5 14 6 13 7 12 8 10 9 11 10 9 11 5 12
REMARK SMILES IDX 6 13 7 14 8 15 4 17 1 18 2 19 3 20 100 21 99 22 90 24 98 25
REMARK SMILES IDX 91 26 97 27 92 29 93 30 96 31 94 32 95 33 20 34 21 35 22 36
REMARK SMILES IDX 23 37 24 38 25 39 26 40 27 41 28 42 89 43 29 44 88 45 30 46
REMARK SMILES IDX 31 47 32 48 82 49 33 50 87 51 81 52 83 53 34 54 86 55 80 56
REMARK SMILES IDX 79 57 35 59 67 60 47 61 66 62 48 63 51 64 65 65 84 66 49 67
REMARK SMILES IDX 50 68 64 70 85 71 52 72 36 73 37 74 45 75 38 76 40 77 46 78
REMARK SMILES IDX 39 79 41 80 42 81 43 82 44 83 68 84 69 85 77 86 70 87 72 88
REMARK SMILES IDX 78 89 71 90 73 91 74 92 75 93 76 94 53 95 54 96 62 97 55 98
REMARK SMILES IDX 57 99 63 100 56 101 58 102 59 103 60 104 61 105
REMARK H PARENT 8 16 100 23 98 28 83 58 51 69
REMARK Flexibility Score: inf
ROOT
ATOM      1  C   UNL A   1      32.983  35.547  29.980  1.00  0.00     0.188 C 
ENDROOT
BRANCH   1   2
ATOM      2  O   UNL A   1      32.565  35.113  28.710  1.00  0.00    -0.377 OA
BRANCH   2   3
ATOM      3  C   UNL A   1      33.179  33.934  28.233  1.00  0.00     0.188 C 
BRANCH   3   4
ATOM      4  C   UNL A   1      32.384  33.025  27.266  1.00  0.00     0.188 C 
BRANCH   4   5
ATOM      5  O   UNL A   1      32.836  31.712  27.002  1.00  0.00    -0.376 OA
BRANCH   5   6
ATOM      6  C   UNL A   1      31.999  30.596  26.780  1.00  0.00     0.202 C 
BRANCH   6   7
ATOM      7  C   UNL A   1      32.234  29.200  27.359  1.00  0.00     0.261 C 
BRANCH   7   8
ATOM      8  O   UNL A   1      32.581  28.181  26.424  1.00  0.00    -0.459 OA
BRANCH   8   9
ATOM      9  C   UNL A   1      33.801  28.291  25.847  1.00  0.00     0.356 C 
ATOM     10  O   UNL A   1      34.845  28.478  26.473  1.00  0.00    -0.244 OA
BRANCH   9  11
ATOM     11  C   UNL A   1      33.781  27.944  24.449  1.00  0.00     0.147 A 
ATOM     12  C   UNL A   1      33.438  26.851  23.641  1.00  0.00     0.013 A 
ATOM     13  C   UNL A   1      33.690  27.344  22.321  1.00  0.00     0.140 A 
ATOM     14  N   UNL A   1      34.181  28.578  22.295  1.00  0.00    -0.183 NA
ATOM     15  N   UNL A   1      34.222  28.914  23.582  1.00  0.00    -0.271 N 
ATOM     16  H   UNL A   1      34.545  29.791  23.889  1.00  0.00     0.190 HD
BRANCH  12  17
ATOM     17  C   UNL A   1      32.825  25.468  23.866  1.00  0.00     0.069 C 
ATOM     18  O   UNL A   1      35.224  23.176  25.600  1.00  0.00    -0.275 OA
ATOM     19  C   UNL A   1      34.183  23.787  25.366  1.00  0.00     0.226 C 
ATOM     20  C   UNL A   1      33.892  24.345  23.977  1.00  0.00     0.114 C 
ATOM     21  N   UNL A   1      33.212  23.873  26.330  1.00  0.00    -0.311 N 
ATOM     22  C   UNL A   1      32.087  24.606  26.089  1.00  0.00     0.132 A 
ATOM     23  H   UNL A   1      33.325  23.407  27.190  1.00  0.00     0.171 HD
ATOM     24  C   UNL A   1      31.836  25.345  24.965  1.00  0.00     0.031 A 
ATOM     25  N   UNL A   1      31.037  24.791  26.931  1.00  0.00    -0.262 N 
ATOM     26  C   UNL A   1      30.564  25.925  25.199  1.00  0.00     0.108 A 
ATOM     27  N   UNL A   1      30.121  25.655  26.441  1.00  0.00    -0.173 NA
ATOM     28  H   UNL A   1      30.952  24.343  27.805  1.00  0.00     0.192 HD
BRANCH  26  29
ATOM     29  C   UNL A   1      29.882  26.891  24.282  1.00  0.00     0.055 A 
ATOM     30  C   UNL A   1      28.648  26.661  23.710  1.00  0.00     0.022 A 
ATOM     31  S   UNL A   1      30.469  28.452  23.922  1.00  0.00    -0.142 S 
ATOM     32  C   UNL A   1      28.115  27.842  23.112  1.00  0.00     0.012 A 
ATOM     33  C   UNL A   1      29.028  28.872  23.107  1.00  0.00     0.065 A 
ENDBRANCH  26  29
ENDBRANCH  12  17
ENDBRANCH   9  11
ENDBRANCH   8   9
ENDBRANCH   7   8
ENDBRANCH   6   7
ENDBRANCH   5   6
ENDBRANCH   4   5
ENDBRANCH   3   4
ENDBRANCH   2   3
ENDBRANCH   1   2
BRANCH   1  34
ATOM     34  C   UNL A   1      34.077  34.661  30.602  1.00  0.00     0.188 C 
BRANCH  34  35
ATOM     35  O   UNL A   1      33.854  33.805  31.720  1.00  0.00    -0.376 OA
BRANCH  35  36
ATOM     36  C   UNL A   1      34.693  33.715  32.866  1.00  0.00     0.202 C 
BRANCH  36  37
ATOM     37  C   UNL A   1      35.837  32.713  33.009  1.00  0.00     0.261 C 
BRANCH  37  38
ATOM     38  O   UNL A   1      36.459  32.393  31.791  1.00  0.00    -0.460 OA
BRANCH  38  39
ATOM     39  C   UNL A   1      36.340  31.097  31.464  1.00  0.00     0.338 C 
ATOM     40  O   UNL A   1      35.893  30.197  32.156  1.00  0.00    -0.246 OA
BRANCH  39  41
ATOM     41  C   UNL A   1      36.900  30.917  30.112  1.00  0.00     0.060 A 
ATOM     42  C   UNL A   1      36.812  29.594  29.693  1.00  0.00     0.016 A 
ATOM     43  C   UNL A   1      37.969  31.758  29.770  1.00  0.00     0.016 A 
ATOM     44  C   UNL A   1      38.002  28.979  29.434  1.00  0.00     0.010 A 
ATOM     45  C   UNL A   1      39.161  31.145  29.520  1.00  0.00     0.010 A 
ATOM     46  C   UNL A   1      39.165  29.756  29.499  1.00  0.00    -0.014 A 
BRANCH  46  47
ATOM     47  C   UNL A   1      40.418  29.053  29.486  1.00  0.00     0.031 A 
ATOM     48  C   UNL A   1      40.937  28.909  30.855  1.00  0.00     0.074 A 
ATOM     49  C   UNL A   1      40.946  28.572  28.347  1.00  0.00     0.049 A 
ATOM     50  N   UNL A   1      41.914  29.555  31.398  1.00  0.00    -0.248 NA
ATOM     51  C   UNL A   1      40.090  28.174  31.809  1.00  0.00     0.031 C 
ATOM     52  C   UNL A   1      40.316  28.428  27.031  1.00  0.00     0.029 A 
ATOM     53  N   UNL A   1      42.141  27.958  28.178  1.00  0.00    -0.354 N 
ATOM     54  C   UNL A   1      41.946  29.095  32.709  1.00  0.00     0.074 A 
ATOM     55  C   UNL A   1      40.663  28.503  32.964  1.00  0.00     0.031 C 
ATOM     56  C   UNL A   1      41.018  27.522  26.309  1.00  0.00     0.029 A 
ATOM     57  C   UNL A   1      42.197  27.131  27.066  1.00  0.00     0.049 A 
ATOM     58  H   UNL A   1      42.901  28.086  28.791  1.00  0.00     0.167 HD
ATOM     59  C   UNL A   1      43.125  28.939  33.364  1.00  0.00     0.034 A 
ATOM     60  C   UNL A   1      43.081  26.120  26.881  1.00  0.00     0.034 A 
ATOM     61  C   UNL A   1      44.183  29.661  32.706  1.00  0.00     0.049 A 
ATOM     62  C   UNL A   1      44.195  26.328  27.846  1.00  0.00     0.074 A 
ATOM     63  C   UNL A   1      44.414  30.989  32.408  1.00  0.00     0.029 A 
ATOM     64  N   UNL A   1      45.008  28.931  31.882  1.00  0.00    -0.354 N 
ATOM     65  N   UNL A   1      45.017  27.339  27.789  1.00  0.00    -0.248 NA
ATOM     66  C   UNL A   1      44.082  25.688  29.150  1.00  0.00     0.031 C 
ATOM     67  C   UNL A   1      45.021  30.976  31.119  1.00  0.00     0.029 A 
ATOM     68  C   UNL A   1      45.189  29.645  30.728  1.00  0.00     0.049 A 
ATOM     69  H   UNL A   1      45.397  28.051  32.086  1.00  0.00     0.167 HD
ATOM     70  C   UNL A   1      45.177  27.736  29.112  1.00  0.00     0.074 A 
ATOM     71  C   UNL A   1      44.652  26.628  29.910  1.00  0.00     0.031 C 
ATOM     72  C   UNL A   1      45.426  29.040  29.433  1.00  0.00     0.034 A 
BRANCH  59  73
ATOM     73  C   UNL A   1      43.413  27.821  34.339  1.00  0.00     0.023 A 
ATOM     74  C   UNL A   1      43.880  28.201  35.615  1.00  0.00     0.012 A 
ATOM     75  C   UNL A   1      43.514  26.449  34.004  1.00  0.00     0.148 A 
ATOM     76  C   UNL A   1      44.477  27.279  36.480  1.00  0.00     0.002 A 
ATOM     77  C   UNL A   1      44.036  25.523  34.896  1.00  0.00     0.091 A 
ATOM     78  F   UNL A   1      43.240  26.026  32.769  1.00  0.00    -0.205 F 
ATOM     79  C   UNL A   1      44.552  25.939  36.123  1.00  0.00     0.022 A 
BRANCH  77  80
ATOM     80  S   UNL A   1      44.112  23.773  34.493  1.00  0.00     0.127 S 
ATOM     81  O   UNL A   1      44.929  23.256  35.586  1.00  0.00    -0.237 OA
ATOM     82  O   UNL A   1      42.699  23.395  34.540  1.00  0.00    -0.237 OA
ATOM     83  O   UNL A   1      44.701  23.699  33.162  1.00  0.00    -0.744 OA
ENDBRANCH  77  80
ENDBRANCH  59  73
BRANCH  60  84
ATOM     84  C   UNL A   1      42.865  24.818  26.202  1.00  0.00     0.023 A 
ATOM     85  C   UNL A   1      43.798  24.356  25.254  1.00  0.00     0.012 A 
ATOM     86  C   UNL A   1      41.886  23.911  26.669  1.00  0.00     0.148 A 
ATOM     87  C   UNL A   1      43.763  23.033  24.792  1.00  0.00     0.002 A 
ATOM     88  C   UNL A   1      41.847  22.601  26.199  1.00  0.00     0.091 A 
ATOM     89  F   UNL A   1      41.051  24.306  27.637  1.00  0.00    -0.205 F 
ATOM     90  C   UNL A   1      42.792  22.155  25.266  1.00  0.00     0.022 A 
BRANCH  88  91
ATOM     91  S   UNL A   1      40.636  21.405  26.781  1.00  0.00     0.127 S 
ATOM     92  O   UNL A   1      40.781  21.514  28.233  1.00  0.00    -0.237 OA
ATOM     93  O   UNL A   1      39.392  21.950  26.247  1.00  0.00    -0.237 OA
ATOM     94  O   UNL A   1      41.048  20.119  26.231  1.00  0.00    -0.744 OA
ENDBRANCH  88  91
ENDBRANCH  60  84
BRANCH  72  95
ATOM     95  C   UNL A   1      45.746  30.000  28.315  1.00  0.00     0.023 A 
ATOM     96  C   UNL A   1      44.751  30.748  27.649  1.00  0.00     0.012 A 
ATOM     97  C   UNL A   1      47.096  30.312  28.091  1.00  0.00     0.148 A 
ATOM     98  C   UNL A   1      45.101  31.780  26.773  1.00  0.00     0.002 A 
ATOM     99  C   UNL A   1      47.438  31.370  27.260  1.00  0.00     0.091 A 
ATOM    100  F   UNL A   1      48.025  29.590  28.736  1.00  0.00    -0.205 F 
ATOM    101  C   UNL A   1      46.445  32.103  26.592  1.00  0.00     0.022 A 
BRANCH  99 102
ATOM    102  S   UNL A   1      49.137  31.924  27.109  1.00  0.00     0.127 S 
ATOM    103  O   UNL A   1      49.792  30.749  26.539  1.00  0.00    -0.237 OA
ATOM    104  O   UNL A   1      49.016  33.062  26.196  1.00  0.00    -0.237 OA
ATOM    105  O   UNL A   1      49.562  32.288  28.456  1.00  0.00    -0.744 OA
ENDBRANCH  99 102
ENDBRANCH  72  95
ENDBRANCH  46  47
ENDBRANCH  39  41
ENDBRANCH  38  39
ENDBRANCH  37  38
ENDBRANCH  36  37
ENDBRANCH  35  36
ENDBRANCH  34  35
ENDBRANCH   1  34
TORSDOF 25
ENDMDL
MODEL 2
REMARK VINA RESULT:     -10.4      2.320      3.602
REMARK SMILES O=C1C[C@H](c2cn[nH]c2C(=O)OCCOCCOCCOCCOC(=O)c2ccc(-c3c4nc(c(-c5cccc(S(=O)(=O)[O-])c5F)c5ccc([nH]5)c(-c5cccc(S(=O)(=O)[O-])c5F)c5nc(c(-c6cccc(S(=O)(=O)[O-])c6F)c6ccc3[nH]6)C=C5)C=C4)cc2)c2c(-c3cccs3)n[nH]c2N1
REMARK SMILES IDX 19 1 18 2 17 3 16 4 15 5 14 6 13 7 12 8 10 9 11 10 9 11 5 12
REMARK SMILES IDX 6 13 7 14 8 15 4 17 1 18 2 19 3 20 100 21 99 22 90 24 98 25
REMARK SMILES IDX 91 26 97 27 92 29 93 30 96 31 94 32 95 33 20 34 21 35 22 36
REMARK SMILES IDX 23 37 24 38 25 39 26 40 27 41 28 42 89 43 29 44 88 45 30 46
REMARK SMILES IDX 31 47 32 48 82 49 33 50 87 51 81 52 83 53 34 54 86 55 80 56
REMARK SMILES IDX 79 57 35 59 67 60 47 61 66 62 48 63 51 64 65 65 84 66 49 67
REMARK SMILES IDX 50 68 64 70 85 71 52 72 36 73 37 74 45 75 38 76 40 77 46 78
REMARK SMILES IDX 39 79 41 80 42 81 43 82 44 83 68 84 69 85 77 86 70 87 72 88
REMARK SMILES IDX 78 89 71 90 73 91 74 92 75 93 76 94 53 95 54 96 62 97 55 98
REMARK SMILES IDX 57 99 63 100 56 101 58 102 59 103 60 104 61 105
REMARK H PARENT 8 16 100 23 98 28 83 58 51 69
REMARK Flexibility Score: inf
ROOT
ATOM      1  C   UNL A   1      34.309  33.473  29.336  1.00  0.00     0.188 C 
ENDROOT
BRANCH   1   2
ATOM      2  O   UNL A   1      34.483  32.946  28.044  1.00  0.00    -0.377 OA
BRANCH   2   3
ATOM      3  C   UNL A   1      35.219  31.744  27.968  1.00  0.00     0.188 C 
BRANCH   3   4
ATOM      4  C   UNL A   1      34.508  30.473  27.444  1.00  0.00     0.188 C 
BRANCH   4   5
ATOM      5  O   UNL A   1      33.643  30.559  26.330  1.00  0.00    -0.376 OA
BRANCH   5   6
ATOM      6  C   UNL A   1      32.245  30.366  26.372  1.00  0.00     0.202 C 
BRANCH   6   7
ATOM      7  C   UNL A   1      31.510  29.166  25.771  1.00  0.00     0.261 C 
BRANCH   7   8
ATOM      8  O   UNL A   1      31.434  28.001  26.589  1.00  0.00    -0.459 OA
BRANCH   8   9
ATOM      9  C   UNL A   1      32.305  27.008  26.294  1.00  0.00     0.356 C 
ATOM     10  O   UNL A   1      33.530  27.138  26.311  1.00  0.00    -0.244 OA
BRANCH   9  11
ATOM     11  C   UNL A   1      31.659  25.726  26.178  1.00  0.00     0.147 A 
ATOM     12  C   UNL A   1      30.933  24.995  25.228  1.00  0.00     0.013 A 
ATOM     13  C   UNL A   1      30.671  23.764  25.910  1.00  0.00     0.140 A 
ATOM     14  N   UNL A   1      31.127  23.735  27.157  1.00  0.00    -0.183 NA
ATOM     15  N   UNL A   1      31.717  24.921  27.290  1.00  0.00    -0.271 N 
ATOM     16  H   UNL A   1      32.160  25.200  28.123  1.00  0.00     0.190 HD
BRANCH  12  17
ATOM     17  C   UNL A   1      30.526  25.192  23.767  1.00  0.00     0.069 C 
ATOM     18  O   UNL A   1      29.153  28.627  23.184  1.00  0.00    -0.275 OA
ATOM     19  C   UNL A   1      29.853  27.627  23.031  1.00  0.00     0.226 C 
ATOM     20  C   UNL A   1      29.425  26.273  23.587  1.00  0.00     0.114 C 
ATOM     21  N   UNL A   1      30.979  27.696  22.252  1.00  0.00    -0.311 N 
ATOM     22  C   UNL A   1      31.787  26.603  22.138  1.00  0.00     0.132 A 
ATOM     23  H   UNL A   1      31.202  28.529  21.777  1.00  0.00     0.171 HD
ATOM     24  C   UNL A   1      31.621  25.411  22.790  1.00  0.00     0.031 A 
ATOM     25  N   UNL A   1      32.930  26.504  21.411  1.00  0.00    -0.262 N 
ATOM     26  C   UNL A   1      32.712  24.616  22.357  1.00  0.00     0.108 A 
ATOM     27  N   UNL A   1      33.558  25.320  21.584  1.00  0.00    -0.173 NA
ATOM     28  H   UNL A   1      33.264  27.218  20.820  1.00  0.00     0.192 HD
BRANCH  26  29
ATOM     29  C   UNL A   1      33.017  23.238  22.855  1.00  0.00     0.055 A 
ATOM     30  C   UNL A   1      34.055  22.949  23.716  1.00  0.00     0.022 A 
ATOM     31  S   UNL A   1      32.054  21.866  22.536  1.00  0.00    -0.142 S 
ATOM     32  C   UNL A   1      33.952  21.626  24.242  1.00  0.00     0.012 A 
ATOM     33  C   UNL A   1      32.943  20.910  23.639  1.00  0.00     0.065 A 
ENDBRANCH  26  29
ENDBRANCH  12  17
ENDBRANCH   9  11
ENDBRANCH   8   9
ENDBRANCH   7   8
ENDBRANCH   6   7
ENDBRANCH   5   6
ENDBRANCH   4   5
ENDBRANCH   3   4
ENDBRANCH   2   3
ENDBRANCH   1   2
BRANCH   1  34
ATOM     34  C   UNL A   1      34.660  32.480  30.456  1.00  0.00     0.188 C 
BRANCH  34  35
ATOM     35  O   UNL A   1      34.358  32.706  31.832  1.00  0.00    -0.376 OA
BRANCH  35  36
ATOM     36  C   UNL A   1      35.319  32.898  32.863  1.00  0.00     0.202 C 
BRANCH  36  37
ATOM     37  C   UNL A   1      36.829  32.884  32.635  1.00  0.00     0.261 C 
BRANCH  37  38
ATOM     38  O   UNL A   1      37.469  31.756  33.175  1.00  0.00    -0.460 OA
BRANCH  38  39
ATOM     39  C   UNL A   1      37.344  30.664  32.407  1.00  0.00     0.338 C 
ATOM     40  O   UNL A   1      36.640  29.688  32.614  1.00  0.00    -0.246 OA
BRANCH  39  41
ATOM     41  C   UNL A   1      38.261  30.807  31.260  1.00  0.00     0.060 A 
ATOM     42  C   UNL A   1      38.203  29.705  30.416  1.00  0.00     0.016 A 
ATOM     43  C   UNL A   1      39.442  31.525  31.502  1.00  0.00     0.016 A 
ATOM     44  C   UNL A   1      39.369  29.009  30.277  1.00  0.00     0.010 A 
ATOM     45  C   UNL A   1      40.607  30.828  31.372  1.00  0.00     0.010 A 
ATOM     46  C   UNL A   1      40.515  29.528  30.890  1.00  0.00    -0.014 A 
BRANCH  46  47
ATOM     47  C   UNL A   1      41.661  28.666  30.959  1.00  0.00     0.031 A 
ATOM     48  C   UNL A   1      42.146  28.572  32.346  1.00  0.00     0.074 A 
ATOM     49  C   UNL A   1      42.129  28.023  29.876  1.00  0.00     0.049 A 
ATOM     50  N   UNL A   1      43.197  29.127  32.851  1.00  0.00    -0.248 NA
ATOM     51  C   UNL A   1      41.201  28.042  33.342  1.00  0.00     0.031 C 
ATOM     52  C   UNL A   1      41.495  27.851  28.565  1.00  0.00     0.029 A 
ATOM     53  N   UNL A   1      43.232  27.243  29.783  1.00  0.00    -0.354 N 
ATOM     54  C   UNL A   1      43.157  28.781  34.196  1.00  0.00     0.074 A 
ATOM     55  C   UNL A   1      41.804  28.390  34.476  1.00  0.00     0.031 C 
ATOM     56  C   UNL A   1      42.075  26.801  27.935  1.00  0.00     0.029 A 
ATOM     57  C   UNL A   1      43.184  26.323  28.745  1.00  0.00     0.049 A 
ATOM     58  H   UNL A   1      43.998  27.320  30.396  1.00  0.00     0.167 HD
ATOM     59  C   UNL A   1      44.299  28.527  34.885  1.00  0.00     0.034 A 
ATOM     60  C   UNL A   1      43.926  25.190  28.664  1.00  0.00     0.034 A 
ATOM     61  C   UNL A   1      45.450  29.042  34.189  1.00  0.00     0.049 A 
ATOM     62  C   UNL A   1      45.050  25.330  29.629  1.00  0.00     0.074 A 
ATOM     63  C   UNL A   1      45.859  30.297  33.784  1.00  0.00     0.029 A 
ATOM     64  N   UNL A   1      46.175  28.140  33.446  1.00  0.00    -0.354 N 
ATOM     65  N   UNL A   1      46.002  26.214  29.502  1.00  0.00    -0.248 NA
ATOM     66  C   UNL A   1      44.842  24.826  30.980  1.00  0.00     0.031 C 
ATOM     67  C   UNL A   1      46.469  30.091  32.512  1.00  0.00     0.029 A 
ATOM     68  C   UNL A   1      46.460  28.721  32.238  1.00  0.00     0.049 A 
ATOM     69  H   UNL A   1      46.441  27.237  33.730  1.00  0.00     0.167 HD
ATOM     70  C   UNL A   1      46.203  26.699  30.790  1.00  0.00     0.074 A 
ATOM     71  C   UNL A   1      45.528  25.744  31.668  1.00  0.00     0.031 C 
ATOM     72  C   UNL A   1      46.623  27.980  31.004  1.00  0.00     0.034 A 
BRANCH  59  73
ATOM     73  C   UNL A   1      44.426  27.469  35.956  1.00  0.00     0.023 A 
ATOM     74  C   UNL A   1      44.583  27.927  37.281  1.00  0.00     0.012 A 
ATOM     75  C   UNL A   1      44.671  26.094  35.723  1.00  0.00     0.148 A 
ATOM     76  C   UNL A   1      45.026  27.081  38.301  1.00  0.00     0.002 A 
ATOM     77  C   UNL A   1      45.034  25.239  36.754  1.00  0.00     0.091 A 
ATOM     78  F   UNL A   1      44.695  25.606  34.482  1.00  0.00    -0.205 F 
ATOM     79  C   UNL A   1      45.247  25.735  38.040  1.00  0.00     0.022 A 
BRANCH  77  80
ATOM     80  S   UNL A   1      45.290  23.483  36.469  1.00  0.00     0.127 S 
ATOM     81  O   UNL A   1      46.534  23.487  35.706  1.00  0.00    -0.237 OA
ATOM     82  O   UNL A   1      45.400  22.973  37.836  1.00  0.00    -0.237 OA
ATOM     83  O   UNL A   1      44.104  23.020  35.759  1.00  0.00    -0.744 OA
ENDBRANCH  77  80
ENDBRANCH  59  73
BRANCH  60  84
ATOM     84  C   UNL A   1      43.542  23.876  28.093  1.00  0.00     0.023 A 
ATOM     85  C   UNL A   1      42.321  23.279  28.461  1.00  0.00     0.012 A 
ATOM     86  C   UNL A   1      44.245  23.328  26.995  1.00  0.00     0.148 A 
ATOM     87  C   UNL A   1      41.813  22.180  27.755  1.00  0.00     0.002 A 
ATOM     88  C   UNL A   1      43.743  22.230  26.303  1.00  0.00     0.091 A 
ATOM     89  F   UNL A   1      45.360  23.940  26.574  1.00  0.00    -0.205 F 
ATOM     90  C   UNL A   1      42.520  21.658  26.675  1.00  0.00     0.022 A 
BRANCH  88  91
ATOM     91  S   UNL A   1      44.589  21.515  24.885  1.00  0.00     0.127 S 
ATOM     92  O   UNL A   1      45.986  21.555  25.319  1.00  0.00    -0.237 OA
ATOM     93  O   UNL A   1      44.004  20.179  24.827  1.00  0.00    -0.237 OA
ATOM     94  O   UNL A   1      44.285  22.387  23.758  1.00  0.00    -0.744 OA
ENDBRANCH  88  91
ENDBRANCH  60  84
BRANCH  72  95
ATOM     95  C   UNL A   1      47.077  28.790  29.816  1.00  0.00     0.023 A 
ATOM     96  C   UNL A   1      48.383  28.695  29.287  1.00  0.00     0.012 A 
ATOM     97  C   UNL A   1      46.099  29.488  29.091  1.00  0.00     0.148 A 
ATOM     98  C   UNL A   1      48.702  29.292  28.063  1.00  0.00     0.002 A 
ATOM     99  C   UNL A   1      46.406  30.035  27.853  1.00  0.00     0.091 A 
ATOM    100  F   UNL A   1      44.864  29.563  29.610  1.00  0.00    -0.205 F 
ATOM    101  C   UNL A   1      47.709  29.947  27.338  1.00  0.00     0.022 A 
BRANCH  99 102
ATOM    102  S   UNL A   1      45.137  30.755  26.811  1.00  0.00     0.127 S 
ATOM    103  O   UNL A   1      44.185  29.654  26.685  1.00  0.00    -0.237 OA
ATOM    104  O   UNL A   1      44.667  31.882  27.620  1.00  0.00    -0.237 OA
ATOM    105  O   UNL A   1      45.806  31.150  25.577  1.00  0.00    -0.744 OA
ENDBRANCH  99 102
ENDBRANCH  72  95
ENDBRANCH  46  47
ENDBRANCH  39  41
ENDBRANCH  38  39
ENDBRANCH  37  38
ENDBRANCH  36  37
ENDBRANCH  35  36
ENDBRANCH  34  35
ENDBRANCH   1  34
TORSDOF 25
ENDMDL
MODEL 3
REMARK VINA RESULT:     -10.1      2.863      8.308
REMARK SMILES O=C1C[C@H](c2cn[nH]c2C(=O)OCCOCCOCCOCCOC(=O)c2ccc(-c3c4nc(c(-c5cccc(S(=O)(=O)[O-])c5F)c5ccc([nH]5)c(-c5cccc(S(=O)(=O)[O-])c5F)c5nc(c(-c6cccc(S(=O)(=O)[O-])c6F)c6ccc3[nH]6)C=C5)C=C4)cc2)c2c(-c3cccs3)n[nH]c2N1
REMARK SMILES IDX 19 1 18 2 17 3 16 4 15 5 14 6 13 7 12 8 10 9 11 10 9 11 5 12
REMARK SMILES IDX 6 13 7 14 8 15 4 17 1 18 2 19 3 20 100 21 99 22 90 24 98 25
REMARK SMILES IDX 91 26 97 27 92 29 93 30 96 31 94 32 95 33 20 34 21 35 22 36
REMARK SMILES IDX 23 37 24 38 25 39 26 40 27 41 28 42 89 43 29 44 88 45 30 46
REMARK SMILES IDX 31 47 32 48 82 49 33 50 87 51 81 52 83 53 34 54 86 55 80 56
REMARK SMILES IDX 79 57 35 59 67 60 47 61 66 62 48 63 51 64 65 65 84 66 49 67
REMARK SMILES IDX 50 68 64 70 85 71 52 72 36 73 37 74 45 75 38 76 40 77 46 78
REMARK SMILES IDX 39 79 41 80 42 81 43 82 44 83 68 84 69 85 77 86 70 87 72 88
REMARK SMILES IDX 78 89 71 90 73 91 74 92 75 93 76 94 53 95 54 96 62 97 55 98
REMARK SMILES IDX 57 99 63 100 56 101 58 102 59 103 60 104 61 105
REMARK H PARENT 8 16 100 23 98 28 83 58 51 69
REMARK Flexibility Score: inf
ROOT
ATOM      1  C   UNL A   1      42.013  19.695  27.038  1.00  0.00     0.188 C 
ENDROOT
BRANCH   1   2
ATOM      2  O   UNL A   1      40.761  20.182  27.456  1.00  0.00    -0.377 OA
BRANCH   2   3
ATOM      3  C   UNL A   1      40.668  21.584  27.600  1.00  0.00     0.188 C 
BRANCH   3   4
ATOM      4  C   UNL A   1      39.697  22.359  26.678  1.00  0.00     0.188 C 
BRANCH   4   5
ATOM      5  O   UNL A   1      38.557  21.711  26.151  1.00  0.00    -0.376 OA
BRANCH   5   6
ATOM      6  C   UNL A   1      37.680  22.265  25.192  1.00  0.00     0.202 C 
BRANCH   6   7
ATOM      7  C   UNL A   1      36.755  23.457  25.441  1.00  0.00     0.261 C 
BRANCH   7   8
ATOM      8  O   UNL A   1      35.848  23.781  24.391  1.00  0.00    -0.459 OA
BRANCH   8   9
ATOM      9  C   UNL A   1      34.634  24.244  24.773  1.00  0.00     0.356 C 
ATOM     10  O   UNL A   1      34.315  24.456  25.944  1.00  0.00    -0.244 OA
BRANCH   9  11
ATOM     11  C   UNL A   1      33.834  24.678  23.656  1.00  0.00     0.147 A 
ATOM     12  C   UNL A   1      32.542  24.484  23.150  1.00  0.00     0.013 A 
ATOM     13  C   UNL A   1      32.531  25.321  21.988  1.00  0.00     0.140 A 
ATOM     14  N   UNL A   1      33.688  25.930  21.756  1.00  0.00    -0.183 NA
ATOM     15  N   UNL A   1      34.449  25.530  22.771  1.00  0.00    -0.271 N 
ATOM     16  H   UNL A   1      35.382  25.822  22.879  1.00  0.00     0.190 HD
BRANCH  12  17
ATOM     17  C   UNL A   1      31.284  23.743  23.603  1.00  0.00     0.069 C 
ATOM     18  O   UNL A   1      32.123  20.404  25.078  1.00  0.00    -0.275 OA
ATOM     19  C   UNL A   1      31.632  21.528  24.980  1.00  0.00     0.226 C 
ATOM     20  C   UNL A   1      31.465  22.200  23.621  1.00  0.00     0.114 C 
ATOM     21  N   UNL A   1      31.117  22.145  26.091  1.00  0.00    -0.311 N 
ATOM     22  C   UNL A   1      30.633  23.417  25.991  1.00  0.00     0.132 A 
ATOM     23  H   UNL A   1      31.096  21.673  26.955  1.00  0.00     0.171 HD
ATOM     24  C   UNL A   1      30.657  24.198  24.868  1.00  0.00     0.031 A 
ATOM     25  N   UNL A   1      30.092  24.165  26.987  1.00  0.00    -0.262 N 
ATOM     26  C   UNL A   1      30.059  25.419  25.273  1.00  0.00     0.108 A 
ATOM     27  N   UNL A   1      29.798  25.424  26.593  1.00  0.00    -0.173 NA
ATOM     28  H   UNL A   1      29.930  23.826  27.898  1.00  0.00     0.192 HD
BRANCH  26  29
ATOM     29  C   UNL A   1      29.925  26.634  24.410  1.00  0.00     0.055 A 
ATOM     30  C   UNL A   1      28.813  26.906  23.642  1.00  0.00     0.022 A 
ATOM     31  S   UNL A   1      31.062  27.905  24.358  1.00  0.00    -0.142 S 
ATOM     32  C   UNL A   1      28.831  28.243  23.142  1.00  0.00     0.012 A 
ATOM     33  C   UNL A   1      30.023  28.876  23.411  1.00  0.00     0.065 A 
ENDBRANCH  26  29
ENDBRANCH  12  17
ENDBRANCH   9  11
ENDBRANCH   8   9
ENDBRANCH   7   8
ENDBRANCH   6   7
ENDBRANCH   5   6
ENDBRANCH   4   5
ENDBRANCH   3   4
ENDBRANCH   2   3
ENDBRANCH   1   2
BRANCH   1  34
ATOM     34  C   UNL A   1      42.785  20.677  26.140  1.00  0.00     0.188 C 
BRANCH  34  35
ATOM     35  O   UNL A   1      44.152  20.500  25.774  1.00  0.00    -0.376 OA
BRANCH  35  36
ATOM     36  C   UNL A   1      44.745  20.961  24.566  1.00  0.00     0.202 C 
BRANCH  36  37
ATOM     37  C   UNL A   1      45.402  22.331  24.408  1.00  0.00     0.261 C 
BRANCH  37  38
ATOM     38  O   UNL A   1      44.484  23.371  24.188  1.00  0.00    -0.460 OA
BRANCH  38  39
ATOM     39  C   UNL A   1      44.757  24.473  24.903  1.00  0.00     0.338 C 
ATOM     40  O   UNL A   1      45.856  24.892  25.228  1.00  0.00    -0.246 OA
BRANCH  39  41
ATOM     41  C   UNL A   1      43.475  25.090  25.293  1.00  0.00     0.060 A 
ATOM     42  C   UNL A   1      43.560  26.477  25.319  1.00  0.00     0.016 A 
ATOM     43  C   UNL A   1      42.685  24.354  26.189  1.00  0.00     0.016 A 
ATOM     44  C   UNL A   1      43.328  27.057  26.532  1.00  0.00     0.010 A 
ATOM     45  C   UNL A   1      42.460  24.930  27.405  1.00  0.00     0.010 A 
ATOM     46  C   UNL A   1      42.919  26.229  27.584  1.00  0.00    -0.014 A 
BRANCH  46  47
ATOM     47  C   UNL A   1      42.933  26.798  28.902  1.00  0.00     0.031 A 
ATOM     48  C   UNL A   1      41.831  27.761  29.055  1.00  0.00     0.074 A 
ATOM     49  C   UNL A   1      43.824  26.410  29.830  1.00  0.00     0.049 A 
ATOM     50  N   UNL A   1      41.908  29.049  29.074  1.00  0.00    -0.248 NA
ATOM     51  C   UNL A   1      40.467  27.236  28.872  1.00  0.00     0.031 C 
ATOM     52  C   UNL A   1      44.724  25.251  29.813  1.00  0.00     0.029 A 
ATOM     53  N   UNL A   1      43.997  26.906  31.078  1.00  0.00    -0.354 N 
ATOM     54  C   UNL A   1      40.588  29.473  29.168  1.00  0.00     0.074 A 
ATOM     55  C   UNL A   1      39.775  28.367  28.749  1.00  0.00     0.031 C 
ATOM     56  C   UNL A   1      45.111  24.982  31.083  1.00  0.00     0.029 A 
ATOM     57  C   UNL A   1      44.588  26.015  31.962  1.00  0.00     0.049 A 
ATOM     58  H   UNL A   1      43.725  27.817  31.335  1.00  0.00     0.167 HD
ATOM     59  C   UNL A   1      40.259  30.573  29.893  1.00  0.00     0.034 A 
ATOM     60  C   UNL A   1      44.515  26.084  33.315  1.00  0.00     0.034 A 
ATOM     61  C   UNL A   1      41.418  31.386  30.156  1.00  0.00     0.049 A 
ATOM     62  C   UNL A   1      44.068  27.460  33.662  1.00  0.00     0.074 A 
ATOM     63  C   UNL A   1      42.332  32.059  29.369  1.00  0.00     0.029 A 
ATOM     64  N   UNL A   1      42.003  31.243  31.392  1.00  0.00    -0.354 N 
ATOM     65  N   UNL A   1      44.784  28.528  33.436  1.00  0.00    -0.248 NA
ATOM     66  C   UNL A   1      42.636  27.687  33.800  1.00  0.00     0.031 C 
ATOM     67  C   UNL A   1      43.583  31.884  30.030  1.00  0.00     0.029 A 
ATOM     68  C   UNL A   1      43.358  31.174  31.212  1.00  0.00     0.049 A 
ATOM     69  H   UNL A   1      41.530  31.198  32.255  1.00  0.00     0.167 HD
ATOM     70  C   UNL A   1      43.874  29.467  32.966  1.00  0.00     0.074 A 
ATOM     71  C   UNL A   1      42.557  28.924  33.299  1.00  0.00     0.031 C 
ATOM     72  C   UNL A   1      44.252  30.437  32.082  1.00  0.00     0.034 A 
BRANCH  59  73
ATOM     73  C   UNL A   1      38.994  30.704  30.709  1.00  0.00     0.023 A 
ATOM     74  C   UNL A   1      38.714  29.658  31.613  1.00  0.00     0.012 A 
ATOM     75  C   UNL A   1      37.949  31.626  30.456  1.00  0.00     0.148 A 
ATOM     76  C   UNL A   1      37.446  29.499  32.180  1.00  0.00     0.002 A 
ATOM     77  C   UNL A   1      36.716  31.510  31.082  1.00  0.00     0.091 A 
ATOM     78  F   UNL A   1      38.072  32.553  29.506  1.00  0.00    -0.205 F 
ATOM     79  C   UNL A   1      36.447  30.427  31.918  1.00  0.00     0.022 A 
BRANCH  77  80
ATOM     80  S   UNL A   1      35.408  32.712  30.805  1.00  0.00     0.127 S 
ATOM     81  O   UNL A   1      34.388  32.258  31.745  1.00  0.00    -0.237 OA
ATOM     82  O   UNL A   1      36.074  33.964  31.168  1.00  0.00    -0.237 OA
ATOM     83  O   UNL A   1      35.069  32.610  29.391  1.00  0.00    -0.744 OA
ENDBRANCH  77  80
ENDBRANCH  59  73
BRANCH  60  84
ATOM     84  C   UNL A   1      44.452  24.970  34.292  1.00  0.00     0.023 A 
ATOM     85  C   UNL A   1      43.723  23.805  33.985  1.00  0.00     0.012 A 
ATOM     86  C   UNL A   1      45.315  24.938  35.412  1.00  0.00     0.148 A 
ATOM     87  C   UNL A   1      43.855  22.645  34.761  1.00  0.00     0.002 A 
ATOM     88  C   UNL A   1      45.434  23.788  36.187  1.00  0.00     0.091 A 
ATOM     89  F   UNL A   1      46.084  26.005  35.663  1.00  0.00    -0.205 F 
ATOM     90  C   UNL A   1      44.712  22.635  35.858  1.00  0.00     0.022 A 
BRANCH  88  91
ATOM     91  S   UNL A   1      46.537  23.693  37.606  1.00  0.00     0.127 S 
ATOM     92  O   UNL A   1      46.002  24.742  38.473  1.00  0.00    -0.237 OA
ATOM     93  O   UNL A   1      46.304  22.331  38.078  1.00  0.00    -0.237 OA
ATOM     94  O   UNL A   1      47.874  23.961  37.091  1.00  0.00    -0.744 OA
ENDBRANCH  88  91
ENDBRANCH  60  84
BRANCH  72  95
ATOM     95  C   UNL A   1      45.723  30.606  31.796  1.00  0.00     0.023 A 
ATOM     96  C   UNL A   1      46.584  31.331  32.649  1.00  0.00     0.012 A 
ATOM     97  C   UNL A   1      46.280  29.831  30.767  1.00  0.00     0.148 A 
ATOM     98  C   UNL A   1      47.970  31.286  32.469  1.00  0.00     0.002 A 
ATOM     99  C   UNL A   1      47.658  29.748  30.624  1.00  0.00     0.091 A 
ATOM    100  F   UNL A   1      45.444  29.147  29.970  1.00  0.00    -0.205 F 
ATOM    101  C   UNL A   1      48.508  30.480  31.468  1.00  0.00     0.022 A 
BRANCH  99 102
ATOM    102  S   UNL A   1      48.407  28.613  29.455  1.00  0.00     0.127 S 
ATOM    103  O   UNL A   1      49.770  28.501  29.969  1.00  0.00    -0.237 OA
ATOM    104  O   UNL A   1      47.590  27.408  29.618  1.00  0.00    -0.237 OA
ATOM    105  O   UNL A   1      48.280  29.242  28.146  1.00  0.00    -0.744 OA
ENDBRANCH  99 102
ENDBRANCH  72  95
ENDBRANCH  46  47
ENDBRANCH  39  41
ENDBRANCH  38  39
ENDBRANCH  37  38
ENDBRANCH  36  37
ENDBRANCH  35  36
ENDBRANCH  34  35
ENDBRANCH   1  34
TORSDOF 25
ENDMDL
