MODEL 1
REMARK VINA RESULT:      -8.4      0.000      0.000
REMARK SMILES C[C@@H](C(=O)OCCOCCOCCOCCOC(=O)c1ccc(-c2c3nc(c(-c4cccc(S(=O)(=O)[O-])c4F)c4ccc([nH]4)c(-c4cccc(S(=O)(=O)[O-])c4F)c4nc(c(-c5cccc(S(=O)(=O)[O-])c5F)c5ccc2[nH]5)C=C4)C=C3)cc1)c1ccc(Cc2ccoc2)cc1F
REMARK SMILES IDX 11 1 10 2 9 3 8 4 7 5 6 6 5 7 3 8 4 9 2 10 1 11 83 12 84 13
REMARK SMILES IDX 94 14 85 15 93 16 95 17 86 18 87 19 88 20 89 21 92 22 90 23
REMARK SMILES IDX 91 24 12 25 13 26 14 27 15 28 16 29 17 30 18 31 19 32 20 33
REMARK SMILES IDX 21 34 82 35 22 36 81 37 23 38 24 39 25 40 75 41 26 42 80 43
REMARK SMILES IDX 74 44 76 45 27 46 79 47 73 48 72 49 28 51 60 52 40 53 59 54
REMARK SMILES IDX 41 55 44 56 58 57 77 58 42 59 43 60 57 62 78 63 45 64 29 65
REMARK SMILES IDX 30 66 38 67 31 68 33 69 39 70 32 71 34 72 35 73 36 74 37 75
REMARK SMILES IDX 61 76 62 77 70 78 63 79 65 80 71 81 64 82 66 83 67 84 68 85
REMARK SMILES IDX 69 86 46 87 47 88 55 89 48 90 50 91 56 92 49 93 51 94 52 95
REMARK SMILES IDX 53 96 54 97
REMARK H PARENT 76 50 44 61
REMARK Flexibility Score: inf
ROOT
ATOM      1  O   UNL A   1      35.598  31.652  27.878  1.00  0.00    -0.377 OA
ENDROOT
BRANCH   1   2
ATOM      2  C   UNL A   1      35.052  30.353  27.926  1.00  0.00     0.188 C 
BRANCH   2   3
ATOM      3  C   UNL A   1      34.041  30.029  26.806  1.00  0.00     0.188 C 
BRANCH   3   4
ATOM      4  O   UNL A   1      32.645  30.095  27.064  1.00  0.00    -0.376 OA
BRANCH   4   5
ATOM      5  C   UNL A   1      31.947  28.910  27.425  1.00  0.00     0.202 C 
BRANCH   5   6
ATOM      6  C   UNL A   1      32.076  27.628  26.576  1.00  0.00     0.261 C 
BRANCH   6   7
ATOM      7  O   UNL A   1      31.570  27.664  25.224  1.00  0.00    -0.463 OA
BRANCH   7   8
ATOM      8  C   UNL A   1      32.242  26.941  24.288  1.00  0.00     0.313 C 
ATOM      9  O   UNL A   1      33.387  27.202  23.925  1.00  0.00    -0.252 OA
BRANCH   8  10
ATOM     10  C   UNL A   1      31.429  25.779  23.674  1.00  0.00     0.129 C 
ATOM     11  C   UNL A   1      29.909  25.733  23.865  1.00  0.00     0.025 C 
BRANCH  10  12
ATOM     12  C   UNL A   1      32.086  24.428  23.969  1.00  0.00     0.002 A 
ATOM     13  C   UNL A   1      32.657  23.701  22.919  1.00  0.00     0.008 A 
ATOM     14  C   UNL A   1      32.224  23.901  25.260  1.00  0.00     0.127 A 
ATOM     15  C   UNL A   1      33.397  22.540  23.170  1.00  0.00     0.004 A 
ATOM     16  C   UNL A   1      32.977  22.758  25.523  1.00  0.00     0.043 A 
ATOM     17  F   UNL A   1      31.623  24.476  26.304  1.00  0.00    -0.207 F 
ATOM     18  C   UNL A   1      33.591  22.068  24.477  1.00  0.00    -0.041 A 
BRANCH  18  19
ATOM     19  C   UNL A   1      34.455  20.864  24.752  1.00  0.00     0.074 C 
BRANCH  19  20
ATOM     20  C   UNL A   1      33.565  19.669  24.753  1.00  0.00    -0.005 A 
ATOM     21  C   UNL A   1      33.331  18.738  23.697  1.00  0.00     0.046 A 
ATOM     22  C   UNL A   1      32.823  19.194  25.817  1.00  0.00     0.198 A 
ATOM     23  C   UNL A   1      32.470  17.788  24.190  1.00  0.00     0.195 A 
ATOM     24  O   UNL A   1      32.162  18.056  25.483  1.00  0.00    -0.472 OA
ENDBRANCH  19  20
ENDBRANCH  18  19
ENDBRANCH  10  12
ENDBRANCH   8  10
ENDBRANCH   7   8
ENDBRANCH   6   7
ENDBRANCH   5   6
ENDBRANCH   4   5
ENDBRANCH   3   4
ENDBRANCH   2   3
ENDBRANCH   1   2
BRANCH   1  25
ATOM     25  C   UNL A   1      34.674  32.721  27.968  1.00  0.00     0.188 C 
BRANCH  25  26
ATOM     26  C   UNL A   1      34.524  33.414  29.335  1.00  0.00     0.188 C 
BRANCH  26  27
ATOM     27  O   UNL A   1      34.336  32.518  30.427  1.00  0.00    -0.376 OA
BRANCH  27  28
ATOM     28  C   UNL A   1      35.251  32.538  31.510  1.00  0.00     0.202 C 
BRANCH  28  29
ATOM     29  C   UNL A   1      36.690  32.058  31.257  1.00  0.00     0.261 C 
BRANCH  29  30
ATOM     30  O   UNL A   1      37.602  33.010  30.691  1.00  0.00    -0.460 OA
BRANCH  30  31
ATOM     31  C   UNL A   1      38.077  33.995  31.487  1.00  0.00     0.338 C 
ATOM     32  O   UNL A   1      37.585  34.404  32.514  1.00  0.00    -0.246 OA
BRANCH  31  33
ATOM     33  C   UNL A   1      39.436  34.333  31.000  1.00  0.00     0.060 A 
ATOM     34  C   UNL A   1      39.602  34.670  29.649  1.00  0.00     0.016 A 
ATOM     35  C   UNL A   1      40.525  34.358  31.873  1.00  0.00     0.016 A 
ATOM     36  C   UNL A   1      40.863  35.004  29.161  1.00  0.00     0.010 A 
ATOM     37  C   UNL A   1      41.795  34.661  31.376  1.00  0.00     0.010 A 
ATOM     38  C   UNL A   1      41.973  34.950  30.011  1.00  0.00    -0.014 A 
BRANCH  38  39
ATOM     39  C   UNL A   1      43.337  34.969  29.430  1.00  0.00     0.031 A 
ATOM     40  C   UNL A   1      43.926  36.304  29.064  1.00  0.00     0.074 A 
ATOM     41  C   UNL A   1      44.040  33.839  29.239  1.00  0.00     0.049 A 
ATOM     42  N   UNL A   1      45.078  36.579  28.512  1.00  0.00    -0.248 NA
ATOM     43  C   UNL A   1      43.101  37.488  29.360  1.00  0.00     0.031 C 
ATOM     44  C   UNL A   1      43.585  32.491  29.575  1.00  0.00     0.029 A 
ATOM     45  N   UNL A   1      45.283  33.650  28.689  1.00  0.00    -0.354 N 
ATOM     46  C   UNL A   1      45.101  37.960  28.359  1.00  0.00     0.074 A 
ATOM     47  C   UNL A   1      43.847  38.467  28.872  1.00  0.00     0.031 C 
ATOM     48  C   UNL A   1      44.528  31.609  29.197  1.00  0.00     0.029 A 
ATOM     49  C   UNL A   1      45.635  32.327  28.566  1.00  0.00     0.049 A 
ATOM     50  H   UNL A   1      45.867  34.391  28.409  1.00  0.00     0.167 HD
ATOM     51  C   UNL A   1      46.080  38.739  27.846  1.00  0.00     0.034 A 
ATOM     52  C   UNL A   1      46.714  31.763  27.985  1.00  0.00     0.034 A 
ATOM     53  C   UNL A   1      47.329  38.234  27.347  1.00  0.00     0.049 A 
ATOM     54  C   UNL A   1      47.773  32.653  27.383  1.00  0.00     0.074 A 
ATOM     55  C   UNL A   1      48.406  38.944  26.850  1.00  0.00     0.029 A 
ATOM     56  N   UNL A   1      47.659  36.891  27.260  1.00  0.00    -0.354 N 
ATOM     57  N   UNL A   1      47.832  33.963  27.345  1.00  0.00    -0.248 NA
ATOM     58  C   UNL A   1      48.932  31.985  26.769  1.00  0.00     0.031 C 
ATOM     59  C   UNL A   1      49.370  38.028  26.420  1.00  0.00     0.029 A 
ATOM     60  C   UNL A   1      48.915  36.748  26.698  1.00  0.00     0.049 A 
ATOM     61  H   UNL A   1      47.086  36.147  27.556  1.00  0.00     0.167 HD
ATOM     62  C   UNL A   1      49.049  34.274  26.744  1.00  0.00     0.074 A 
ATOM     63  C   UNL A   1      49.702  33.016  26.449  1.00  0.00     0.031 C 
ATOM     64  C   UNL A   1      49.575  35.491  26.456  1.00  0.00     0.034 A 
BRANCH  51  65
ATOM     65  C   UNL A   1      45.836  40.224  27.791  1.00  0.00     0.023 A 
ATOM     66  C   UNL A   1      46.167  41.036  28.895  1.00  0.00     0.012 A 
ATOM     67  C   UNL A   1      45.317  40.819  26.626  1.00  0.00     0.148 A 
ATOM     68  C   UNL A   1      45.955  42.414  28.851  1.00  0.00     0.002 A 
ATOM     69  C   UNL A   1      45.156  42.198  26.570  1.00  0.00     0.091 A 
ATOM     70  F   UNL A   1      44.984  40.026  25.598  1.00  0.00    -0.205 F 
ATOM     71  C   UNL A   1      45.461  42.994  27.686  1.00  0.00     0.022 A 
BRANCH  69  72
ATOM     72  S   UNL A   1      44.604  43.048  25.089  1.00  0.00     0.127 S 
ATOM     73  O   UNL A   1      43.222  42.582  24.978  1.00  0.00    -0.237 OA
ATOM     74  O   UNL A   1      44.744  44.454  25.474  1.00  0.00    -0.237 OA
ATOM     75  O   UNL A   1      45.495  42.618  24.021  1.00  0.00    -0.744 OA
ENDBRANCH  69  72
ENDBRANCH  51  65
BRANCH  52  76
ATOM     76  C   UNL A   1      46.865  30.280  27.960  1.00  0.00     0.023 A 
ATOM     77  C   UNL A   1      47.429  29.618  29.068  1.00  0.00     0.012 A 
ATOM     78  C   UNL A   1      46.458  29.524  26.843  1.00  0.00     0.148 A 
ATOM     79  C   UNL A   1      47.617  28.235  29.051  1.00  0.00     0.002 A 
ATOM     80  C   UNL A   1      46.596  28.141  26.856  1.00  0.00     0.091 A 
ATOM     81  F   UNL A   1      45.938  30.175  25.792  1.00  0.00    -0.205 F 
ATOM     82  C   UNL A   1      47.193  27.496  27.949  1.00  0.00     0.022 A 
BRANCH  80  83
ATOM     83  S   UNL A   1      45.970  27.096  25.535  1.00  0.00     0.127 S 
ATOM     84  O   UNL A   1      47.084  27.107  24.591  1.00  0.00    -0.237 OA
ATOM     85  O   UNL A   1      45.766  25.826  26.232  1.00  0.00    -0.237 OA
ATOM     86  O   UNL A   1      44.745  27.733  25.072  1.00  0.00    -0.744 OA
ENDBRANCH  80  83
ENDBRANCH  52  76
BRANCH  64  87
ATOM     87  C   UNL A   1      50.949  35.537  25.837  1.00  0.00     0.023 A 
ATOM     88  C   UNL A   1      51.097  35.559  24.436  1.00  0.00     0.012 A 
ATOM     89  C   UNL A   1      52.094  35.636  26.654  1.00  0.00     0.148 A 
ATOM     90  C   UNL A   1      52.364  35.644  23.859  1.00  0.00     0.002 A 
ATOM     91  C   UNL A   1      53.348  35.776  26.072  1.00  0.00     0.091 A 
ATOM     92  F   UNL A   1      51.934  35.598  27.985  1.00  0.00    -0.205 F 
ATOM     93  C   UNL A   1      53.487  35.765  24.675  1.00  0.00     0.022 A 
BRANCH  91  94
ATOM     94  S   UNL A   1      54.838  36.039  27.042  1.00  0.00     0.127 S 
ATOM     95  O   UNL A   1      55.862  35.459  26.175  1.00  0.00    -0.237 OA
ATOM     96  O   UNL A   1      54.883  37.498  27.148  1.00  0.00    -0.237 OA
ATOM     97  O   UNL A   1      54.625  35.346  28.305  1.00  0.00    -0.744 OA
ENDBRANCH  91  94
ENDBRANCH  64  87
ENDBRANCH  38  39
ENDBRANCH  31  33
ENDBRANCH  30  31
ENDBRANCH  29  30
ENDBRANCH  28  29
ENDBRANCH  27  28
ENDBRANCH  26  27
ENDBRANCH  25  26
ENDBRANCH   1  25
TORSDOF 26
ENDMDL
MODEL 2
REMARK VINA RESULT:      -8.3      8.952     13.478
REMARK SMILES C[C@@H](C(=O)OCCOCCOCCOCCOC(=O)c1ccc(-c2c3nc(c(-c4cccc(S(=O)(=O)[O-])c4F)c4ccc([nH]4)c(-c4cccc(S(=O)(=O)[O-])c4F)c4nc(c(-c5cccc(S(=O)(=O)[O-])c5F)c5ccc2[nH]5)C=C4)C=C3)cc1)c1ccc(Cc2ccoc2)cc1F
REMARK SMILES IDX 11 1 10 2 9 3 8 4 7 5 6 6 5 7 3 8 4 9 2 10 1 11 83 12 84 13
REMARK SMILES IDX 94 14 85 15 93 16 95 17 86 18 87 19 88 20 89 21 92 22 90 23
REMARK SMILES IDX 91 24 12 25 13 26 14 27 15 28 16 29 17 30 18 31 19 32 20 33
REMARK SMILES IDX 21 34 82 35 22 36 81 37 23 38 24 39 25 40 75 41 26 42 80 43
REMARK SMILES IDX 74 44 76 45 27 46 79 47 73 48 72 49 28 51 60 52 40 53 59 54
REMARK SMILES IDX 41 55 44 56 58 57 77 58 42 59 43 60 57 62 78 63 45 64 29 65
REMARK SMILES IDX 30 66 38 67 31 68 33 69 39 70 32 71 34 72 35 73 36 74 37 75
REMARK SMILES IDX 61 76 62 77 70 78 63 79 65 80 71 81 64 82 66 83 67 84 68 85
REMARK SMILES IDX 69 86 46 87 47 88 55 89 48 90 50 91 56 92 49 93 51 94 52 95
REMARK SMILES IDX 53 96 54 97
REMARK H PARENT 76 50 44 61
REMARK Flexibility Score: inf
ROOT
ATOM      1  O   UNL A   1      41.316  27.279  28.464  1.00  0.00    -0.377 OA
ENDROOT
BRANCH   1   2
ATOM      2  C   UNL A   1      41.273  25.909  28.797  1.00  0.00     0.188 C 
BRANCH   2   3
ATOM      3  C   UNL A   1      42.615  25.162  28.654  1.00  0.00     0.188 C 
BRANCH   3   4
ATOM      4  O   UNL A   1      42.663  23.748  28.800  1.00  0.00    -0.376 OA
BRANCH   4   5
ATOM      5  C   UNL A   1      43.262  23.189  29.962  1.00  0.00     0.202 C 
BRANCH   5   6
ATOM      6  C   UNL A   1      44.328  23.973  30.756  1.00  0.00     0.261 C 
BRANCH   6   7
ATOM      7  O   UNL A   1      43.943  24.520  32.036  1.00  0.00    -0.463 OA
BRANCH   7   8
ATOM      8  C   UNL A   1      44.687  24.159  33.116  1.00  0.00     0.313 C 
ATOM      9  O   UNL A   1      45.904  24.318  33.184  1.00  0.00    -0.252 OA
BRANCH   8  10
ATOM     10  C   UNL A   1      43.883  23.483  34.250  1.00  0.00     0.129 C 
ATOM     11  C   UNL A   1      42.735  24.244  34.922  1.00  0.00     0.025 C 
BRANCH  10  12
ATOM     12  C   UNL A   1      44.813  22.826  35.273  1.00  0.00     0.002 A 
ATOM     13  C   UNL A   1      44.960  23.407  36.537  1.00  0.00     0.008 A 
ATOM     14  C   UNL A   1      45.479  21.614  35.045  1.00  0.00     0.127 A 
ATOM     15  C   UNL A   1      45.680  22.756  37.546  1.00  0.00     0.004 A 
ATOM     16  C   UNL A   1      46.180  20.948  36.050  1.00  0.00     0.043 A 
ATOM     17  F   UNL A   1      45.476  21.044  33.838  1.00  0.00    -0.207 F 
ATOM     18  C   UNL A   1      46.275  21.505  37.325  1.00  0.00    -0.041 A 
BRANCH  18  19
ATOM     19  C   UNL A   1      46.981  20.770  38.435  1.00  0.00     0.074 C 
BRANCH  19  20
ATOM     20  C   UNL A   1      48.430  20.731  38.092  1.00  0.00    -0.005 A 
ATOM     21  C   UNL A   1      49.250  19.592  37.838  1.00  0.00     0.046 A 
ATOM     22  C   UNL A   1      49.260  21.818  37.895  1.00  0.00     0.198 A 
ATOM     23  C   UNL A   1      50.501  20.065  37.522  1.00  0.00     0.195 A 
ATOM     24  O   UNL A   1      50.511  21.421  37.548  1.00  0.00    -0.472 OA
ENDBRANCH  19  20
ENDBRANCH  18  19
ENDBRANCH  10  12
ENDBRANCH   8  10
ENDBRANCH   7   8
ENDBRANCH   6   7
ENDBRANCH   5   6
ENDBRANCH   4   5
ENDBRANCH   3   4
ENDBRANCH   2   3
ENDBRANCH   1   2
BRANCH   1  25
ATOM     25  C   UNL A   1      40.376  27.717  27.500  1.00  0.00     0.188 C 
BRANCH  25  26
ATOM     26  C   UNL A   1      39.525  28.951  27.851  1.00  0.00     0.188 C 
BRANCH  26  27
ATOM     27  O   UNL A   1      39.216  29.074  29.236  1.00  0.00    -0.376 OA
BRANCH  27  28
ATOM     28  C   UNL A   1      38.039  29.760  29.630  1.00  0.00     0.202 C 
BRANCH  28  29
ATOM     29  C   UNL A   1      38.174  30.937  30.611  1.00  0.00     0.261 C 
BRANCH  29  30
ATOM     30  O   UNL A   1      37.964  30.651  32.000  1.00  0.00    -0.460 OA
BRANCH  30  31
ATOM     31  C   UNL A   1      38.828  31.175  32.901  1.00  0.00     0.338 C 
ATOM     32  O   UNL A   1      38.570  31.948  33.795  1.00  0.00    -0.246 OA
BRANCH  31  33
ATOM     33  C   UNL A   1      40.113  30.452  32.743  1.00  0.00     0.060 A 
ATOM     34  C   UNL A   1      40.092  29.054  32.653  1.00  0.00     0.016 A 
ATOM     35  C   UNL A   1      41.319  31.149  32.644  1.00  0.00     0.016 A 
ATOM     36  C   UNL A   1      41.281  28.345  32.492  1.00  0.00     0.010 A 
ATOM     37  C   UNL A   1      42.514  30.436  32.516  1.00  0.00     0.010 A 
ATOM     38  C   UNL A   1      42.501  29.030  32.476  1.00  0.00    -0.014 A 
BRANCH  38  39
ATOM     39  C   UNL A   1      43.763  28.272  32.648  1.00  0.00     0.031 A 
ATOM     40  C   UNL A   1      44.202  27.948  34.050  1.00  0.00     0.074 A 
ATOM     41  C   UNL A   1      44.499  27.874  31.596  1.00  0.00     0.049 A 
ATOM     42  N   UNL A   1      45.278  27.332  34.462  1.00  0.00    -0.248 NA
ATOM     43  C   UNL A   1      43.303  28.380  35.135  1.00  0.00     0.031 C 
ATOM     44  C   UNL A   1      44.165  28.108  30.191  1.00  0.00     0.029 A 
ATOM     45  N   UNL A   1      45.697  27.206  31.553  1.00  0.00    -0.354 N 
ATOM     46  C   UNL A   1      45.206  27.336  35.849  1.00  0.00     0.074 A 
ATOM     47  C   UNL A   1      43.984  28.019  36.211  1.00  0.00     0.031 C 
ATOM     48  C   UNL A   1      45.153  27.615  29.424  1.00  0.00     0.029 A 
ATOM     49  C   UNL A   1      46.199  27.060  30.281  1.00  0.00     0.049 A 
ATOM     50  H   UNL A   1      46.152  26.864  32.355  1.00  0.00     0.167 HD
ATOM     51  C   UNL A   1      46.075  26.810  36.743  1.00  0.00     0.034 A 
ATOM     52  C   UNL A   1      47.381  26.560  29.865  1.00  0.00     0.034 A 
ATOM     53  C   UNL A   1      47.282  26.123  36.380  1.00  0.00     0.049 A 
ATOM     54  C   UNL A   1      48.351  26.018  30.886  1.00  0.00     0.074 A 
ATOM     55  C   UNL A   1      48.206  25.512  37.209  1.00  0.00     0.029 A 
ATOM     56  N   UNL A   1      47.747  25.974  35.083  1.00  0.00    -0.354 N 
ATOM     57  N   UNL A   1      48.220  25.928  32.188  1.00  0.00    -0.248 NA
ATOM     58  C   UNL A   1      49.621  25.478  30.375  1.00  0.00     0.031 C 
ATOM     59  C   UNL A   1      49.253  25.034  36.416  1.00  0.00     0.029 A 
ATOM     60  C   UNL A   1      48.955  25.300  35.089  1.00  0.00     0.049 A 
ATOM     61  H   UNL A   1      47.285  26.298  34.276  1.00  0.00     0.167 HD
ATOM     62  C   UNL A   1      49.368  25.286  32.645  1.00  0.00     0.074 A 
ATOM     63  C   UNL A   1      50.175  24.996  31.479  1.00  0.00     0.031 C 
ATOM     64  C   UNL A   1      49.725  24.972  33.916  1.00  0.00     0.034 A 
BRANCH  51  65
ATOM     65  C   UNL A   1      45.752  26.967  38.206  1.00  0.00     0.023 A 
ATOM     66  C   UNL A   1      44.966  25.999  38.864  1.00  0.00     0.012 A 
ATOM     67  C   UNL A   1      46.266  28.055  38.938  1.00  0.00     0.148 A 
ATOM     68  C   UNL A   1      44.670  26.128  40.221  1.00  0.00     0.002 A 
ATOM     69  C   UNL A   1      46.009  28.150  40.299  1.00  0.00     0.091 A 
ATOM     70  F   UNL A   1      46.988  28.977  38.288  1.00  0.00    -0.205 F 
ATOM     71  C   UNL A   1      45.201  27.196  40.939  1.00  0.00     0.022 A 
BRANCH  69  72
ATOM     72  S   UNL A   1      46.713  29.442  41.328  1.00  0.00     0.127 S 
ATOM     73  O   UNL A   1      47.846  29.882  40.515  1.00  0.00    -0.237 OA
ATOM     74  O   UNL A   1      45.611  30.401  41.410  1.00  0.00    -0.237 OA
ATOM     75  O   UNL A   1      47.062  28.807  42.591  1.00  0.00    -0.744 OA
ENDBRANCH  69  72
ENDBRANCH  51  65
BRANCH  52  76
ATOM     76  C   UNL A   1      47.712  26.526  28.411  1.00  0.00     0.023 A 
ATOM     77  C   UNL A   1      48.711  27.381  27.905  1.00  0.00     0.012 A 
ATOM     78  C   UNL A   1      47.041  25.657  27.530  1.00  0.00     0.148 A 
ATOM     79  C   UNL A   1      49.010  27.396  26.541  1.00  0.00     0.002 A 
ATOM     80  C   UNL A   1      47.383  25.636  26.183  1.00  0.00     0.091 A 
ATOM     81  F   UNL A   1      46.083  24.863  28.029  1.00  0.00    -0.205 F 
ATOM     82  C   UNL A   1      48.353  26.518  25.683  1.00  0.00     0.022 A 
BRANCH  80  83
ATOM     83  S   UNL A   1      46.678  24.458  25.024  1.00  0.00     0.127 S 
ATOM     84  O   UNL A   1      47.570  24.596  23.876  1.00  0.00    -0.237 OA
ATOM     85  O   UNL A   1      46.810  23.201  25.760  1.00  0.00    -0.237 OA
ATOM     86  O   UNL A   1      45.304  24.890  24.808  1.00  0.00    -0.744 OA
ENDBRANCH  80  83
ENDBRANCH  52  76
BRANCH  64  87
ATOM     87  C   UNL A   1      51.019  24.228  34.121  1.00  0.00     0.023 A 
ATOM     88  C   UNL A   1      52.158  24.902  34.605  1.00  0.00     0.012 A 
ATOM     89  C   UNL A   1      51.081  22.835  33.906  1.00  0.00     0.148 A 
ATOM     90  C   UNL A   1      53.347  24.209  34.836  1.00  0.00     0.002 A 
ATOM     91  C   UNL A   1      52.251  22.143  34.191  1.00  0.00     0.091 A 
ATOM     92  F   UNL A   1      49.991  22.214  33.431  1.00  0.00    -0.205 F 
ATOM     93  C   UNL A   1      53.389  22.830  34.642  1.00  0.00     0.022 A 
BRANCH  91  94
ATOM     94  S   UNL A   1      52.368  20.354  34.068  1.00  0.00     0.127 S 
ATOM     95  O   UNL A   1      53.084  20.190  32.804  1.00  0.00    -0.237 OA
ATOM     96  O   UNL A   1      53.146  20.014  35.259  1.00  0.00    -0.237 OA
ATOM     97  O   UNL A   1      50.998  19.859  34.077  1.00  0.00    -0.744 OA
ENDBRANCH  91  94
ENDBRANCH  64  87
ENDBRANCH  38  39
ENDBRANCH  31  33
ENDBRANCH  30  31
ENDBRANCH  29  30
ENDBRANCH  28  29
ENDBRANCH  27  28
ENDBRANCH  26  27
ENDBRANCH  25  26
ENDBRANCH   1  25
TORSDOF 26
ENDMDL
MODEL 3
REMARK VINA RESULT:      -8.1      3.151      4.680
REMARK SMILES C[C@@H](C(=O)OCCOCCOCCOCCOC(=O)c1ccc(-c2c3nc(c(-c4cccc(S(=O)(=O)[O-])c4F)c4ccc([nH]4)c(-c4cccc(S(=O)(=O)[O-])c4F)c4nc(c(-c5cccc(S(=O)(=O)[O-])c5F)c5ccc2[nH]5)C=C4)C=C3)cc1)c1ccc(Cc2ccoc2)cc1F
REMARK SMILES IDX 11 1 10 2 9 3 8 4 7 5 6 6 5 7 3 8 4 9 2 10 1 11 83 12 84 13
REMARK SMILES IDX 94 14 85 15 93 16 95 17 86 18 87 19 88 20 89 21 92 22 90 23
REMARK SMILES IDX 91 24 12 25 13 26 14 27 15 28 16 29 17 30 18 31 19 32 20 33
REMARK SMILES IDX 21 34 82 35 22 36 81 37 23 38 24 39 25 40 75 41 26 42 80 43
REMARK SMILES IDX 74 44 76 45 27 46 79 47 73 48 72 49 28 51 60 52 40 53 59 54
REMARK SMILES IDX 41 55 44 56 58 57 77 58 42 59 43 60 57 62 78 63 45 64 29 65
REMARK SMILES IDX 30 66 38 67 31 68 33 69 39 70 32 71 34 72 35 73 36 74 37 75
REMARK SMILES IDX 61 76 62 77 70 78 63 79 65 80 71 81 64 82 66 83 67 84 68 85
REMARK SMILES IDX 69 86 46 87 47 88 55 89 48 90 50 91 56 92 49 93 51 94 52 95
REMARK SMILES IDX 53 96 54 97
REMARK H PARENT 76 50 44 61
REMARK Flexibility Score: inf
ROOT
ATOM      1  O   UNL A   1      36.613  31.397  30.737  1.00  0.00    -0.377 OA
ENDROOT
BRANCH   1   2
ATOM      2  C   UNL A   1      35.811  32.232  29.931  1.00  0.00     0.188 C 
BRANCH   2   3
ATOM      3  C   UNL A   1      35.353  31.605  28.598  1.00  0.00     0.188 C 
BRANCH   3   4
ATOM      4  O   UNL A   1      33.967  31.516  28.291  1.00  0.00    -0.376 OA
BRANCH   4   5
ATOM      5  C   UNL A   1      33.561  30.887  27.083  1.00  0.00     0.202 C 
BRANCH   5   6
ATOM      6  C   UNL A   1      33.593  29.350  26.944  1.00  0.00     0.261 C 
BRANCH   6   7
ATOM      7  O   UNL A   1      34.269  28.794  25.795  1.00  0.00    -0.463 OA
BRANCH   7   8
ATOM      8  C   UNL A   1      33.698  27.713  25.200  1.00  0.00     0.313 C 
ATOM      9  O   UNL A   1      33.547  26.631  25.762  1.00  0.00    -0.252 OA
BRANCH   8  10
ATOM     10  C   UNL A   1      33.287  27.936  23.726  1.00  0.00     0.129 C 
ATOM     11  C   UNL A   1      34.163  28.809  22.820  1.00  0.00     0.025 C 
BRANCH  10  12
ATOM     12  C   UNL A   1      31.804  28.299  23.614  1.00  0.00     0.002 A 
ATOM     13  C   UNL A   1      31.290  29.332  24.405  1.00  0.00     0.008 A 
ATOM     14  C   UNL A   1      30.930  27.703  22.695  1.00  0.00     0.127 A 
ATOM     15  C   UNL A   1      29.981  29.792  24.222  1.00  0.00     0.004 A 
ATOM     16  C   UNL A   1      29.632  28.168  22.490  1.00  0.00     0.043 A 
ATOM     17  F   UNL A   1      31.308  26.645  21.974  1.00  0.00    -0.207 F 
ATOM     18  C   UNL A   1      29.144  29.236  23.244  1.00  0.00    -0.041 A 
BRANCH  18  19
ATOM     19  C   UNL A   1      27.763  29.786  22.994  1.00  0.00     0.074 C 
BRANCH  19  20
ATOM     20  C   UNL A   1      27.918  31.028  22.187  1.00  0.00    -0.005 A 
ATOM     21  C   UNL A   1      27.910  31.169  20.767  1.00  0.00     0.046 A 
ATOM     22  C   UNL A   1      28.045  32.316  22.671  1.00  0.00     0.198 A 
ATOM     23  C   UNL A   1      28.043  32.510  20.500  1.00  0.00     0.195 A 
ATOM     24  O   UNL A   1      28.118  33.215  21.656  1.00  0.00    -0.472 OA
ENDBRANCH  19  20
ENDBRANCH  18  19
ENDBRANCH  10  12
ENDBRANCH   8  10
ENDBRANCH   7   8
ENDBRANCH   6   7
ENDBRANCH   5   6
ENDBRANCH   4   5
ENDBRANCH   3   4
ENDBRANCH   2   3
ENDBRANCH   1   2
BRANCH   1  25
ATOM     25  C   UNL A   1      36.225  31.281  32.093  1.00  0.00     0.188 C 
BRANCH  25  26
ATOM     26  C   UNL A   1      35.336  32.395  32.675  1.00  0.00     0.188 C 
BRANCH  26  27
ATOM     27  O   UNL A   1      35.645  32.748  34.020  1.00  0.00    -0.376 OA
BRANCH  27  28
ATOM     28  C   UNL A   1      36.990  32.682  34.467  1.00  0.00     0.202 C 
BRANCH  28  29
ATOM     29  C   UNL A   1      37.755  34.000  34.670  1.00  0.00     0.261 C 
BRANCH  29  30
ATOM     30  O   UNL A   1      38.901  34.221  33.836  1.00  0.00    -0.460 OA
BRANCH  30  31
ATOM     31  C   UNL A   1      38.701  34.434  32.514  1.00  0.00     0.338 C 
ATOM     32  O   UNL A   1      37.681  34.809  31.982  1.00  0.00    -0.246 OA
BRANCH  31  33
ATOM     33  C   UNL A   1      40.025  34.347  31.853  1.00  0.00     0.060 A 
ATOM     34  C   UNL A   1      41.179  34.442  32.643  1.00  0.00     0.016 A 
ATOM     35  C   UNL A   1      40.126  34.134  30.477  1.00  0.00     0.016 A 
ATOM     36  C   UNL A   1      42.439  34.353  32.055  1.00  0.00     0.010 A 
ATOM     37  C   UNL A   1      41.390  34.077  29.884  1.00  0.00     0.010 A 
ATOM     38  C   UNL A   1      42.549  34.223  30.666  1.00  0.00    -0.014 A 
BRANCH  38  39
ATOM     39  C   UNL A   1      43.857  34.468  30.014  1.00  0.00     0.031 A 
ATOM     40  C   UNL A   1      44.266  35.896  29.775  1.00  0.00     0.074 A 
ATOM     41  C   UNL A   1      44.667  33.459  29.650  1.00  0.00     0.049 A 
ATOM     42  N   UNL A   1      45.337  36.367  29.194  1.00  0.00    -0.248 NA
ATOM     43  C   UNL A   1      43.337  36.933  30.256  1.00  0.00     0.031 C 
ATOM     44  C   UNL A   1      44.392  32.037  29.850  1.00  0.00     0.029 A 
ATOM     45  N   UNL A   1      45.881  33.482  29.010  1.00  0.00    -0.354 N 
ATOM     46  C   UNL A   1      45.194  37.749  29.205  1.00  0.00     0.074 A 
ATOM     47  C   UNL A   1      43.931  38.042  29.845  1.00  0.00     0.031 C 
ATOM     48  C   UNL A   1      45.398  31.321  29.316  1.00  0.00     0.029 A 
ATOM     49  C   UNL A   1      46.369  32.232  28.712  1.00  0.00     0.049 A 
ATOM     50  H   UNL A   1      46.357  34.314  28.787  1.00  0.00     0.167 HD
ATOM     51  C   UNL A   1      46.042  38.691  28.731  1.00  0.00     0.034 A 
ATOM     52  C   UNL A   1      47.461  31.869  28.007  1.00  0.00     0.034 A 
ATOM     53  C   UNL A   1      47.300  38.397  28.105  1.00  0.00     0.049 A 
ATOM     54  C   UNL A   1      48.368  32.940  27.454  1.00  0.00     0.074 A 
ATOM     55  C   UNL A   1      48.253  39.282  27.634  1.00  0.00     0.029 A 
ATOM     56  N   UNL A   1      47.772  37.121  27.841  1.00  0.00    -0.354 N 
ATOM     57  N   UNL A   1      48.277  34.243  27.568  1.00  0.00    -0.248 NA
ATOM     58  C   UNL A   1      49.548  32.488  26.699  1.00  0.00     0.031 C 
ATOM     59  C   UNL A   1      49.281  38.541  27.044  1.00  0.00     0.029 A 
ATOM     60  C   UNL A   1      48.992  37.193  27.194  1.00  0.00     0.049 A 
ATOM     61  H   UNL A   1      47.308  36.286  28.079  1.00  0.00     0.167 HD
ATOM     62  C   UNL A   1      49.406  34.763  26.939  1.00  0.00     0.074 A 
ATOM     63  C   UNL A   1      50.173  33.632  26.460  1.00  0.00     0.031 C 
ATOM     64  C   UNL A   1      49.771  36.058  26.767  1.00  0.00     0.034 A 
BRANCH  51  65
ATOM     65  C   UNL A   1      45.629  40.133  28.867  1.00  0.00     0.023 A 
ATOM     66  C   UNL A   1      44.991  40.790  27.796  1.00  0.00     0.012 A 
ATOM     67  C   UNL A   1      45.837  40.824  30.077  1.00  0.00     0.148 A 
ATOM     68  C   UNL A   1      44.594  42.122  27.915  1.00  0.00     0.002 A 
ATOM     69  C   UNL A   1      45.394  42.134  30.206  1.00  0.00     0.091 A 
ATOM     70  F   UNL A   1      46.469  40.190  31.074  1.00  0.00    -0.205 F 
ATOM     71  C   UNL A   1      44.785  42.788  29.122  1.00  0.00     0.022 A 
BRANCH  69  72
ATOM     72  S   UNL A   1      45.520  43.051  31.744  1.00  0.00     0.127 S 
ATOM     73  O   UNL A   1      46.968  43.100  31.941  1.00  0.00    -0.237 OA
ATOM     74  O   UNL A   1      44.908  44.332  31.387  1.00  0.00    -0.237 OA
ATOM     75  O   UNL A   1      44.782  42.280  32.735  1.00  0.00    -0.744 OA
ENDBRANCH  69  72
ENDBRANCH  51  65
BRANCH  52  76
ATOM     76  C   UNL A   1      47.775  30.426  27.797  1.00  0.00     0.023 A 
ATOM     77  C   UNL A   1      48.555  29.738  28.748  1.00  0.00     0.012 A 
ATOM     78  C   UNL A   1      47.310  29.736  26.661  1.00  0.00     0.148 A 
ATOM     79  C   UNL A   1      48.895  28.398  28.553  1.00  0.00     0.002 A 
ATOM     80  C   UNL A   1      47.605  28.387  26.501  1.00  0.00     0.091 A 
ATOM     81  F   UNL A   1      46.583  30.414  25.761  1.00  0.00    -0.205 F 
ATOM     82  C   UNL A   1      48.413  27.721  27.435  1.00  0.00     0.022 A 
BRANCH  80  83
ATOM     83  S   UNL A   1      46.930  27.403  25.158  1.00  0.00     0.127 S 
ATOM     84  O   UNL A   1      45.493  27.571  25.356  1.00  0.00    -0.237 OA
ATOM     85  O   UNL A   1      47.475  28.086  23.985  1.00  0.00    -0.237 OA
ATOM     86  O   UNL A   1      47.440  26.053  25.361  1.00  0.00    -0.744 OA
ENDBRANCH  80  83
ENDBRANCH  52  76
BRANCH  64  87
ATOM     87  C   UNL A   1      51.083  36.336  26.079  1.00  0.00     0.023 A 
ATOM     88  C   UNL A   1      51.129  36.523  24.684  1.00  0.00     0.012 A 
ATOM     89  C   UNL A   1      52.264  36.489  26.835  1.00  0.00     0.148 A 
ATOM     90  C   UNL A   1      52.334  36.822  24.048  1.00  0.00     0.002 A 
ATOM     91  C   UNL A   1      53.449  36.841  26.202  1.00  0.00     0.091 A 
ATOM     92  F   UNL A   1      52.203  36.293  28.161  1.00  0.00    -0.205 F 
ATOM     93  C   UNL A   1      53.490  36.993  24.807  1.00  0.00     0.022 A 
BRANCH  91  94
ATOM     94  S   UNL A   1      54.963  37.181  27.108  1.00  0.00     0.127 S 
ATOM     95  O   UNL A   1      54.444  37.763  28.345  1.00  0.00    -0.237 OA
ATOM     96  O   UNL A   1      55.541  35.845  27.257  1.00  0.00    -0.237 OA
ATOM     97  O   UNL A   1      55.739  38.087  26.271  1.00  0.00    -0.744 OA
ENDBRANCH  91  94
ENDBRANCH  64  87
ENDBRANCH  38  39
ENDBRANCH  31  33
ENDBRANCH  30  31
ENDBRANCH  29  30
ENDBRANCH  28  29
ENDBRANCH  27  28
ENDBRANCH  26  27
ENDBRANCH  25  26
ENDBRANCH   1  25
TORSDOF 26
ENDMDL
