MODEL 1
REMARK VINA RESULT:      -9.4      0.000      0.000
REMARK SMILES O=C(OCCOCCOCCOCCOC(=O)c1cc(Cl)cn(Cc2ccc(Cl)cc2)c1=O)c1ccc(-c2c3nc(c(-c4cccc(S(=O)(=O)[O-])c4F)c4ccc([nH]4)c(-c4cccc(S(=O)(=O)[O-])c4F)c4nc(c(-c5cccc(S(=O)(=O)[O-])c5F)c5ccc2[nH]5)C=C4)C=C3)cc1
REMARK SMILES IDX 8 1 7 2 6 3 5 4 4 5 3 6 2 7 1 8 34 9 35 10 96 11 36 12 95 13
REMARK SMILES IDX 37 14 38 15 39 16 89 17 40 18 94 19 88 20 90 21 41 22 93 23
REMARK SMILES IDX 87 24 86 25 42 27 74 28 54 29 73 30 55 31 58 32 72 33 91 34
REMARK SMILES IDX 56 35 57 36 71 38 92 39 59 40 43 41 44 42 52 43 45 44 47 45
REMARK SMILES IDX 53 46 46 47 48 48 49 49 50 50 51 51 75 52 76 53 84 54 77 55
REMARK SMILES IDX 79 56 85 57 78 58 80 59 81 60 82 61 83 62 60 63 61 64 69 65
REMARK SMILES IDX 62 66 64 67 70 68 63 69 65 70 66 71 67 72 68 73 9 74 10 75
REMARK SMILES IDX 11 76 12 77 13 78 14 79 15 80 16 81 17 82 18 83 19 84 32 85
REMARK SMILES IDX 20 86 23 87 33 88 21 89 22 90 24 91 25 92 26 93 31 94 27 95
REMARK SMILES IDX 30 96 28 97 29 98
REMARK H PARENT 90 26 58 37
REMARK Flexibility Score: inf
ROOT
ATOM      1  C   UNL A   1      38.685  21.615  25.621  1.00  0.00     0.188 C 
ENDROOT
BRANCH   1   2
ATOM      2  C   UNL A   1      40.010  21.519  26.372  1.00  0.00     0.188 C 
BRANCH   2   3
ATOM      3  O   UNL A   1      40.852  20.514  25.799  1.00  0.00    -0.376 OA
BRANCH   3   4
ATOM      4  C   UNL A   1      41.378  19.572  26.731  1.00  0.00     0.202 C 
BRANCH   4   5
ATOM      5  C   UNL A   1      42.386  18.592  26.135  1.00  0.00     0.261 C 
BRANCH   5   6
ATOM      6  O   UNL A   1      43.050  19.107  24.975  1.00  0.00    -0.460 OA
BRANCH   6   7
ATOM      7  C   UNL A   1      44.140  19.909  24.904  1.00  0.00     0.338 C 
ATOM      8  O   UNL A   1      45.201  19.372  24.581  1.00  0.00    -0.246 OA
BRANCH   7   9
ATOM      9  C   UNL A   1      44.180  21.380  25.239  1.00  0.00     0.060 A 
ATOM     10  C   UNL A   1      44.178  21.699  26.613  1.00  0.00     0.016 A 
ATOM     11  C   UNL A   1      44.207  22.452  24.340  1.00  0.00     0.016 A 
ATOM     12  C   UNL A   1      44.241  23.023  27.062  1.00  0.00     0.010 A 
ATOM     13  C   UNL A   1      44.262  23.777  24.777  1.00  0.00     0.010 A 
ATOM     14  C   UNL A   1      44.310  24.068  26.139  1.00  0.00    -0.014 A 
BRANCH  14  15
ATOM     15  C   UNL A   1      44.680  25.435  26.550  1.00  0.00     0.031 A 
ATOM     16  C   UNL A   1      46.101  25.896  26.585  1.00  0.00     0.074 A 
ATOM     17  C   UNL A   1      43.682  26.203  27.028  1.00  0.00     0.049 A 
ATOM     18  N   UNL A   1      46.563  27.077  26.900  1.00  0.00    -0.248 NA
ATOM     19  C   UNL A   1      47.142  24.913  26.244  1.00  0.00     0.031 C 
ATOM     20  C   UNL A   1      42.283  25.774  27.148  1.00  0.00     0.029 A 
ATOM     21  N   UNL A   1      43.684  27.473  27.536  1.00  0.00    -0.354 N 
ATOM     22  C   UNL A   1      47.944  26.988  26.794  1.00  0.00     0.074 A 
ATOM     23  C   UNL A   1      48.251  25.627  26.410  1.00  0.00     0.031 C 
ATOM     24  C   UNL A   1      41.567  26.758  27.708  1.00  0.00     0.029 A 
ATOM     25  C   UNL A   1      42.449  27.888  27.972  1.00  0.00     0.049 A 
ATOM     26  H   UNL A   1      44.492  28.035  27.583  1.00  0.00     0.167 HD
ATOM     27  C   UNL A   1      48.857  27.971  26.981  1.00  0.00     0.034 A 
ATOM     28  C   UNL A   1      42.064  29.061  28.507  1.00  0.00     0.034 A 
ATOM     29  C   UNL A   1      48.510  29.317  27.357  1.00  0.00     0.049 A 
ATOM     30  C   UNL A   1      43.080  30.153  28.629  1.00  0.00     0.074 A 
ATOM     31  C   UNL A   1      49.339  30.419  27.469  1.00  0.00     0.029 A 
ATOM     32  N   UNL A   1      47.233  29.740  27.698  1.00  0.00    -0.354 N 
ATOM     33  N   UNL A   1      44.358  30.111  28.338  1.00  0.00    -0.248 NA
ATOM     34  C   UNL A   1      42.606  31.458  29.100  1.00  0.00     0.031 C 
ATOM     35  C   UNL A   1      48.563  31.506  27.887  1.00  0.00     0.029 A 
ATOM     36  C   UNL A   1      47.250  31.083  28.026  1.00  0.00     0.049 A 
ATOM     37  H   UNL A   1      46.432  29.167  27.705  1.00  0.00     0.167 HD
ATOM     38  C   UNL A   1      44.842  31.390  28.571  1.00  0.00     0.074 A 
ATOM     39  C   UNL A   1      43.714  32.186  29.015  1.00  0.00     0.031 C 
ATOM     40  C   UNL A   1      46.106  31.856  28.439  1.00  0.00     0.034 A 
BRANCH  27  41
ATOM     41  C   UNL A   1      50.306  27.673  26.695  1.00  0.00     0.023 A 
ATOM     42  C   UNL A   1      51.082  27.063  27.701  1.00  0.00     0.012 A 
ATOM     43  C   UNL A   1      50.858  27.859  25.412  1.00  0.00     0.148 A 
ATOM     44  C   UNL A   1      52.386  26.647  27.440  1.00  0.00     0.002 A 
ATOM     45  C   UNL A   1      52.152  27.417  25.152  1.00  0.00     0.091 A 
ATOM     46  F   UNL A   1      50.104  28.443  24.470  1.00  0.00    -0.205 F 
ATOM     47  C   UNL A   1      52.917  26.813  26.164  1.00  0.00     0.022 A 
BRANCH  45  48
ATOM     48  S   UNL A   1      52.920  27.530  23.530  1.00  0.00     0.127 S 
ATOM     49  O   UNL A   1      54.340  27.453  23.871  1.00  0.00    -0.237 OA
ATOM     50  O   UNL A   1      52.390  26.343  22.859  1.00  0.00    -0.237 OA
ATOM     51  O   UNL A   1      52.492  28.801  22.966  1.00  0.00    -0.744 OA
ENDBRANCH  45  48
ENDBRANCH  27  41
BRANCH  28  52
ATOM     52  C   UNL A   1      40.625  29.260  28.820  1.00  0.00     0.023 A 
ATOM     53  C   UNL A   1      39.703  29.322  27.757  1.00  0.00     0.012 A 
ATOM     54  C   UNL A   1      40.152  29.230  30.145  1.00  0.00     0.148 A 
ATOM     55  C   UNL A   1      38.332  29.351  28.010  1.00  0.00     0.002 A 
ATOM     56  C   UNL A   1      38.783  29.221  30.390  1.00  0.00     0.091 A 
ATOM     57  F   UNL A   1      41.051  29.163  31.138  1.00  0.00    -0.205 F 
ATOM     58  C   UNL A   1      37.872  29.288  29.323  1.00  0.00     0.022 A 
BRANCH  56  59
ATOM     59  S   UNL A   1      38.093  29.017  32.036  1.00  0.00     0.127 S 
ATOM     60  O   UNL A   1      38.404  27.619  32.319  1.00  0.00    -0.237 OA
ATOM     61  O   UNL A   1      38.866  29.989  32.810  1.00  0.00    -0.237 OA
ATOM     62  O   UNL A   1      36.677  29.336  31.913  1.00  0.00    -0.744 OA
ENDBRANCH  56  59
ENDBRANCH  28  52
BRANCH  40  63
ATOM     63  C   UNL A   1      46.349  33.295  28.791  1.00  0.00     0.023 A 
ATOM     64  C   UNL A   1      46.782  33.620  30.090  1.00  0.00     0.012 A 
ATOM     65  C   UNL A   1      46.256  34.301  27.811  1.00  0.00     0.148 A 
ATOM     66  C   UNL A   1      47.110  34.933  30.415  1.00  0.00     0.002 A 
ATOM     67  C   UNL A   1      46.618  35.603  28.133  1.00  0.00     0.091 A 
ATOM     68  F   UNL A   1      45.831  33.963  26.585  1.00  0.00    -0.205 F 
ATOM     69  C   UNL A   1      47.039  35.922  29.435  1.00  0.00     0.022 A 
BRANCH  67  70
ATOM     70  S   UNL A   1      46.629  36.931  26.924  1.00  0.00     0.127 S 
ATOM     71  O   UNL A   1      47.336  36.308  25.806  1.00  0.00    -0.237 OA
ATOM     72  O   UNL A   1      45.201  37.152  26.696  1.00  0.00    -0.237 OA
ATOM     73  O   UNL A   1      47.325  38.045  27.554  1.00  0.00    -0.744 OA
ENDBRANCH  67  70
ENDBRANCH  40  63
ENDBRANCH  14  15
ENDBRANCH   7   9
ENDBRANCH   6   7
ENDBRANCH   5   6
ENDBRANCH   4   5
ENDBRANCH   3   4
ENDBRANCH   2   3
ENDBRANCH   1   2
BRANCH   1  74
ATOM     74  O   UNL A   1      37.670  22.346  26.300  1.00  0.00    -0.377 OA
BRANCH  74  75
ATOM     75  C   UNL A   1      36.434  22.525  25.619  1.00  0.00     0.188 C 
BRANCH  75  76
ATOM     76  C   UNL A   1      35.948  21.443  24.630  1.00  0.00     0.188 C 
BRANCH  76  77
ATOM     77  O   UNL A   1      35.444  20.263  25.239  1.00  0.00    -0.376 OA
BRANCH  77  78
ATOM     78  C   UNL A   1      34.284  19.705  24.627  1.00  0.00     0.202 C 
BRANCH  78  79
ATOM     79  C   UNL A   1      33.023  19.852  25.486  1.00  0.00     0.261 C 
BRANCH  79  80
ATOM     80  O   UNL A   1      32.367  21.126  25.358  1.00  0.00    -0.459 OA
BRANCH  80  81
ATOM     81  C   UNL A   1      32.687  22.099  26.252  1.00  0.00     0.343 C 
ATOM     82  O   UNL A   1      33.262  21.957  27.307  1.00  0.00    -0.246 OA
BRANCH  81  83
ATOM     83  C   UNL A   1      32.470  23.391  25.573  1.00  0.00     0.126 A 
ATOM     84  C   UNL A   1      33.033  23.539  24.360  1.00  0.00     0.043 A 
ATOM     85  C   UNL A   1      31.515  24.408  26.094  1.00  0.00     0.265 A 
ATOM     86  C   UNL A   1      32.596  24.593  23.481  1.00  0.00     0.058 A 
ATOM     87  N   UNL A   1      31.211  25.453  25.209  1.00  0.00    -0.309 N 
ATOM     88  O   UNL A   1      31.085  24.344  27.243  1.00  0.00    -0.268 OA
ATOM     89  Cl  UNL A   1      33.183  24.631  21.866  1.00  0.00    -0.083 Cl
ATOM     90  C   UNL A   1      31.697  25.485  23.909  1.00  0.00     0.110 A 
BRANCH  87  91
ATOM     91  C   UNL A   1      30.539  26.640  25.740  1.00  0.00     0.161 C 
BRANCH  91  92
ATOM     92  C   UNL A   1      31.579  27.721  25.978  1.00  0.00    -0.028 A 
ATOM     93  C   UNL A   1      32.623  27.514  26.895  1.00  0.00     0.007 A 
ATOM     94  C   UNL A   1      31.406  28.999  25.424  1.00  0.00     0.007 A 
ATOM     95  C   UNL A   1      33.448  28.570  27.283  1.00  0.00     0.021 A 
ATOM     96  C   UNL A   1      32.244  30.051  25.798  1.00  0.00     0.021 A 
ATOM     97  C   UNL A   1      33.252  29.835  26.736  1.00  0.00     0.041 A 
ATOM     98  Cl  UNL A   1      34.247  31.144  27.241  1.00  0.00    -0.084 Cl
ENDBRANCH  91  92
ENDBRANCH  87  91
ENDBRANCH  81  83
ENDBRANCH  80  81
ENDBRANCH  79  80
ENDBRANCH  78  79
ENDBRANCH  77  78
ENDBRANCH  76  77
ENDBRANCH  75  76
ENDBRANCH  74  75
ENDBRANCH   1  74
TORSDOF 25
ENDMDL
MODEL 2
REMARK VINA RESULT:      -9.1      1.645      2.189
REMARK SMILES O=C(OCCOCCOCCOCCOC(=O)c1cc(Cl)cn(Cc2ccc(Cl)cc2)c1=O)c1ccc(-c2c3nc(c(-c4cccc(S(=O)(=O)[O-])c4F)c4ccc([nH]4)c(-c4cccc(S(=O)(=O)[O-])c4F)c4nc(c(-c5cccc(S(=O)(=O)[O-])c5F)c5ccc2[nH]5)C=C4)C=C3)cc1
REMARK SMILES IDX 8 1 7 2 6 3 5 4 4 5 3 6 2 7 1 8 34 9 35 10 96 11 36 12 95 13
REMARK SMILES IDX 37 14 38 15 39 16 89 17 40 18 94 19 88 20 90 21 41 22 93 23
REMARK SMILES IDX 87 24 86 25 42 27 74 28 54 29 73 30 55 31 58 32 72 33 91 34
REMARK SMILES IDX 56 35 57 36 71 38 92 39 59 40 43 41 44 42 52 43 45 44 47 45
REMARK SMILES IDX 53 46 46 47 48 48 49 49 50 50 51 51 75 52 76 53 84 54 77 55
REMARK SMILES IDX 79 56 85 57 78 58 80 59 81 60 82 61 83 62 60 63 61 64 69 65
REMARK SMILES IDX 62 66 64 67 70 68 63 69 65 70 66 71 67 72 68 73 9 74 10 75
REMARK SMILES IDX 11 76 12 77 13 78 14 79 15 80 16 81 17 82 18 83 19 84 32 85
REMARK SMILES IDX 20 86 23 87 33 88 21 89 22 90 24 91 25 92 26 93 31 94 27 95
REMARK SMILES IDX 30 96 28 97 29 98
REMARK H PARENT 90 26 58 37
REMARK Flexibility Score: inf
ROOT
ATOM      1  C   UNL A   1      38.026  21.737  25.508  1.00  0.00     0.188 C 
ENDROOT
BRANCH   1   2
ATOM      2  C   UNL A   1      39.397  21.927  26.152  1.00  0.00     0.188 C 
BRANCH   2   3
ATOM      3  O   UNL A   1      40.307  20.907  25.727  1.00  0.00    -0.376 OA
BRANCH   3   4
ATOM      4  C   UNL A   1      40.852  20.115  26.778  1.00  0.00     0.202 C 
BRANCH   4   5
ATOM      5  C   UNL A   1      41.878  19.081  26.321  1.00  0.00     0.261 C 
BRANCH   5   6
ATOM      6  O   UNL A   1      42.616  19.496  25.166  1.00  0.00    -0.460 OA
BRANCH   6   7
ATOM      7  C   UNL A   1      43.722  20.277  25.096  1.00  0.00     0.338 C 
ATOM      8  O   UNL A   1      44.765  19.726  24.738  1.00  0.00    -0.246 OA
BRANCH   7   9
ATOM      9  C   UNL A   1      43.801  21.736  25.473  1.00  0.00     0.060 A 
ATOM     10  C   UNL A   1      44.065  22.008  26.832  1.00  0.00     0.016 A 
ATOM     11  C   UNL A   1      43.631  22.837  24.627  1.00  0.00     0.016 A 
ATOM     12  C   UNL A   1      44.192  23.317  27.309  1.00  0.00     0.010 A 
ATOM     13  C   UNL A   1      43.748  24.148  25.095  1.00  0.00     0.010 A 
ATOM     14  C   UNL A   1      44.059  24.394  26.431  1.00  0.00    -0.014 A 
BRANCH  14  15
ATOM     15  C   UNL A   1      44.478  25.755  26.813  1.00  0.00     0.031 A 
ATOM     16  C   UNL A   1      45.895  26.214  26.686  1.00  0.00     0.074 A 
ATOM     17  C   UNL A   1      43.545  26.518  27.415  1.00  0.00     0.049 A 
ATOM     18  N   UNL A   1      46.394  27.391  26.959  1.00  0.00    -0.248 NA
ATOM     19  C   UNL A   1      46.886  25.235  26.212  1.00  0.00     0.031 C 
ATOM     20  C   UNL A   1      42.169  26.089  27.693  1.00  0.00     0.029 A 
ATOM     21  N   UNL A   1      43.610  27.782  27.934  1.00  0.00    -0.354 N 
ATOM     22  C   UNL A   1      47.752  27.301  26.691  1.00  0.00     0.074 A 
ATOM     23  C   UNL A   1      48.009  25.945  26.256  1.00  0.00     0.031 C 
ATOM     24  C   UNL A   1      41.527  27.067  28.345  1.00  0.00     0.029 A 
ATOM     25  C   UNL A   1      42.436  28.192  28.518  1.00  0.00     0.049 A 
ATOM     26  H   UNL A   1      44.420  28.342  27.894  1.00  0.00     0.167 HD
ATOM     27  C   UNL A   1      48.684  28.281  26.781  1.00  0.00     0.034 A 
ATOM     28  C   UNL A   1      42.120  29.358  29.110  1.00  0.00     0.034 A 
ATOM     29  C   UNL A   1      48.387  29.622  27.213  1.00  0.00     0.049 A 
ATOM     30  C   UNL A   1      43.146  30.448  29.125  1.00  0.00     0.074 A 
ATOM     31  C   UNL A   1      49.226  30.722  27.240  1.00  0.00     0.029 A 
ATOM     32  N   UNL A   1      47.160  30.042  27.706  1.00  0.00    -0.354 N 
ATOM     33  N   UNL A   1      44.381  30.408  28.685  1.00  0.00    -0.248 NA
ATOM     34  C   UNL A   1      42.735  31.747  29.665  1.00  0.00     0.031 C 
ATOM     35  C   UNL A   1      48.508  31.804  27.760  1.00  0.00     0.029 A 
ATOM     36  C   UNL A   1      47.220  31.380  28.048  1.00  0.00     0.049 A 
ATOM     37  H   UNL A   1      46.364  29.470  27.801  1.00  0.00     0.167 HD
ATOM     38  C   UNL A   1      44.893  31.683  28.876  1.00  0.00     0.074 A 
ATOM     39  C   UNL A   1      43.827  32.475  29.460  1.00  0.00     0.031 C 
ATOM     40  C   UNL A   1      46.134  32.149  28.602  1.00  0.00     0.034 A 
BRANCH  27  41
ATOM     41  C   UNL A   1      50.088  27.985  26.323  1.00  0.00     0.023 A 
ATOM     42  C   UNL A   1      50.380  28.057  24.947  1.00  0.00     0.012 A 
ATOM     43  C   UNL A   1      51.136  27.779  27.243  1.00  0.00     0.148 A 
ATOM     44  C   UNL A   1      51.689  27.924  24.488  1.00  0.00     0.002 A 
ATOM     45  C   UNL A   1      52.444  27.672  26.780  1.00  0.00     0.091 A 
ATOM     46  F   UNL A   1      50.837  27.711  28.548  1.00  0.00    -0.205 F 
ATOM     47  C   UNL A   1      52.722  27.743  25.405  1.00  0.00     0.022 A 
BRANCH  45  48
ATOM     48  S   UNL A   1      53.860  27.492  27.873  1.00  0.00     0.127 S 
ATOM     49  O   UNL A   1      54.925  28.106  27.079  1.00  0.00    -0.237 OA
ATOM     50  O   UNL A   1      53.446  28.269  29.040  1.00  0.00    -0.237 OA
ATOM     51  O   UNL A   1      54.014  26.063  28.105  1.00  0.00    -0.744 OA
ENDBRANCH  45  48
ENDBRANCH  27  41
BRANCH  28  52
ATOM     52  C   UNL A   1      40.728  29.556  29.592  1.00  0.00     0.023 A 
ATOM     53  C   UNL A   1      39.742  29.957  28.671  1.00  0.00     0.012 A 
ATOM     54  C   UNL A   1      40.349  29.201  30.901  1.00  0.00     0.148 A 
ATOM     55  C   UNL A   1      38.400  30.002  29.045  1.00  0.00     0.002 A 
ATOM     56  C   UNL A   1      39.005  29.211  31.256  1.00  0.00     0.091 A 
ATOM     57  F   UNL A   1      41.307  28.815  31.756  1.00  0.00    -0.205 F 
ATOM     58  C   UNL A   1      38.030  29.618  30.331  1.00  0.00     0.022 A 
BRANCH  56  59
ATOM     59  S   UNL A   1      38.418  28.617  32.848  1.00  0.00     0.127 S 
ATOM     60  O   UNL A   1      39.017  29.582  33.766  1.00  0.00    -0.237 OA
ATOM     61  O   UNL A   1      36.968  28.730  32.696  1.00  0.00    -0.237 OA
ATOM     62  O   UNL A   1      38.907  27.250  32.963  1.00  0.00    -0.744 OA
ENDBRANCH  56  59
ENDBRANCH  28  52
BRANCH  40  63
ATOM     63  C   UNL A   1      46.421  33.583  28.941  1.00  0.00     0.023 A 
ATOM     64  C   UNL A   1      47.023  33.889  30.175  1.00  0.00     0.012 A 
ATOM     65  C   UNL A   1      46.196  34.605  27.999  1.00  0.00     0.148 A 
ATOM     66  C   UNL A   1      47.391  35.198  30.474  1.00  0.00     0.002 A 
ATOM     67  C   UNL A   1      46.596  35.903  28.290  1.00  0.00     0.091 A 
ATOM     68  F   UNL A   1      45.611  34.284  26.835  1.00  0.00    -0.205 F 
ATOM     69  C   UNL A   1      47.188  36.202  29.529  1.00  0.00     0.022 A 
BRANCH  67  70
ATOM     70  S   UNL A   1      46.444  37.249  27.111  1.00  0.00     0.127 S 
ATOM     71  O   UNL A   1      47.123  38.337  27.815  1.00  0.00    -0.237 OA
ATOM     72  O   UNL A   1      47.166  36.727  25.952  1.00  0.00    -0.237 OA
ATOM     73  O   UNL A   1      45.015  37.444  26.903  1.00  0.00    -0.744 OA
ENDBRANCH  67  70
ENDBRANCH  40  63
ENDBRANCH  14  15
ENDBRANCH   7   9
ENDBRANCH   6   7
ENDBRANCH   5   6
ENDBRANCH   4   5
ENDBRANCH   3   4
ENDBRANCH   2   3
ENDBRANCH   1   2
BRANCH   1  74
ATOM     74  O   UNL A   1      36.963  22.419  26.165  1.00  0.00    -0.377 OA
BRANCH  74  75
ATOM     75  C   UNL A   1      36.436  23.572  25.520  1.00  0.00     0.188 C 
BRANCH  75  76
ATOM     76  C   UNL A   1      36.077  23.506  24.020  1.00  0.00     0.188 C 
BRANCH  76  77
ATOM     77  O   UNL A   1      35.096  22.536  23.683  1.00  0.00    -0.376 OA
BRANCH  77  78
ATOM     78  C   UNL A   1      34.015  23.009  22.884  1.00  0.00     0.202 C 
BRANCH  78  79
ATOM     79  C   UNL A   1      32.685  23.061  23.644  1.00  0.00     0.261 C 
BRANCH  79  80
ATOM     80  O   UNL A   1      32.325  24.372  24.115  1.00  0.00    -0.459 OA
BRANCH  80  81
ATOM     81  C   UNL A   1      32.723  24.730  25.364  1.00  0.00     0.343 C 
ATOM     82  O   UNL A   1      33.072  23.991  26.257  1.00  0.00    -0.246 OA
BRANCH  81  83
ATOM     83  C   UNL A   1      32.931  26.192  25.344  1.00  0.00     0.126 A 
ATOM     84  C   UNL A   1      33.645  26.686  24.317  1.00  0.00     0.043 A 
ATOM     85  C   UNL A   1      32.226  27.104  26.285  1.00  0.00     0.265 A 
ATOM     86  C   UNL A   1      33.602  28.094  24.014  1.00  0.00     0.058 A 
ATOM     87  N   UNL A   1      32.309  28.469  25.972  1.00  0.00    -0.309 N 
ATOM     88  O   UNL A   1      31.669  26.671  27.291  1.00  0.00    -0.268 OA
ATOM     89  Cl  UNL A   1      34.355  28.663  22.578  1.00  0.00    -0.083 Cl
ATOM     90  C   UNL A   1      32.928  28.924  24.816  1.00  0.00     0.110 A 
BRANCH  87  91
ATOM     91  C   UNL A   1      31.918  29.442  26.993  1.00  0.00     0.161 C 
BRANCH  91  92
ATOM     92  C   UNL A   1      33.066  30.416  27.200  1.00  0.00    -0.028 A 
ATOM     93  C   UNL A   1      34.379  29.943  27.361  1.00  0.00     0.007 A 
ATOM     94  C   UNL A   1      32.804  31.777  27.413  1.00  0.00     0.007 A 
ATOM     95  C   UNL A   1      35.399  30.803  27.768  1.00  0.00     0.021 A 
ATOM     96  C   UNL A   1      33.829  32.642  27.802  1.00  0.00     0.021 A 
ATOM     97  C   UNL A   1      35.119  32.148  27.991  1.00  0.00     0.041 A 
ATOM     98  Cl  UNL A   1      36.370  33.201  28.527  1.00  0.00    -0.084 Cl
ENDBRANCH  91  92
ENDBRANCH  87  91
ENDBRANCH  81  83
ENDBRANCH  80  81
ENDBRANCH  79  80
ENDBRANCH  78  79
ENDBRANCH  77  78
ENDBRANCH  76  77
ENDBRANCH  75  76
ENDBRANCH  74  75
ENDBRANCH   1  74
TORSDOF 25
ENDMDL
MODEL 3
REMARK VINA RESULT:      -8.6      3.815      9.096
REMARK SMILES O=C(OCCOCCOCCOCCOC(=O)c1cc(Cl)cn(Cc2ccc(Cl)cc2)c1=O)c1ccc(-c2c3nc(c(-c4cccc(S(=O)(=O)[O-])c4F)c4ccc([nH]4)c(-c4cccc(S(=O)(=O)[O-])c4F)c4nc(c(-c5cccc(S(=O)(=O)[O-])c5F)c5ccc2[nH]5)C=C4)C=C3)cc1
REMARK SMILES IDX 8 1 7 2 6 3 5 4 4 5 3 6 2 7 1 8 34 9 35 10 96 11 36 12 95 13
REMARK SMILES IDX 37 14 38 15 39 16 89 17 40 18 94 19 88 20 90 21 41 22 93 23
REMARK SMILES IDX 87 24 86 25 42 27 74 28 54 29 73 30 55 31 58 32 72 33 91 34
REMARK SMILES IDX 56 35 57 36 71 38 92 39 59 40 43 41 44 42 52 43 45 44 47 45
REMARK SMILES IDX 53 46 46 47 48 48 49 49 50 50 51 51 75 52 76 53 84 54 77 55
REMARK SMILES IDX 79 56 85 57 78 58 80 59 81 60 82 61 83 62 60 63 61 64 69 65
REMARK SMILES IDX 62 66 64 67 70 68 63 69 65 70 66 71 67 72 68 73 9 74 10 75
REMARK SMILES IDX 11 76 12 77 13 78 14 79 15 80 16 81 17 82 18 83 19 84 32 85
REMARK SMILES IDX 20 86 23 87 33 88 21 89 22 90 24 91 25 92 26 93 31 94 27 95
REMARK SMILES IDX 30 96 28 97 29 98
REMARK H PARENT 90 26 58 37
REMARK Flexibility Score: inf
ROOT
ATOM      1  C   UNL A   1      37.904  22.483  25.510  1.00  0.00     0.188 C 
ENDROOT
BRANCH   1   2
ATOM      2  C   UNL A   1      37.773  23.770  26.318  1.00  0.00     0.188 C 
BRANCH   2   3
ATOM      3  O   UNL A   1      39.022  24.467  26.377  1.00  0.00    -0.376 OA
BRANCH   3   4
ATOM      4  C   UNL A   1      39.873  24.078  27.452  1.00  0.00     0.202 C 
BRANCH   4   5
ATOM      5  C   UNL A   1      41.270  23.638  27.020  1.00  0.00     0.261 C 
BRANCH   5   6
ATOM      6  O   UNL A   1      41.741  24.328  25.857  1.00  0.00    -0.460 OA
BRANCH   6   7
ATOM      7  C   UNL A   1      42.600  25.374  25.777  1.00  0.00     0.338 C 
ATOM      8  O   UNL A   1      43.561  25.243  25.017  1.00  0.00    -0.246 OA
BRANCH   7   9
ATOM      9  C   UNL A   1      42.514  26.653  26.575  1.00  0.00     0.060 A 
ATOM     10  C   UNL A   1      43.153  26.637  27.832  1.00  0.00     0.016 A 
ATOM     11  C   UNL A   1      41.866  27.837  26.207  1.00  0.00     0.016 A 
ATOM     12  C   UNL A   1      43.175  27.765  28.661  1.00  0.00     0.010 A 
ATOM     13  C   UNL A   1      41.875  28.965  27.030  1.00  0.00     0.010 A 
ATOM     14  C   UNL A   1      42.554  28.945  28.246  1.00  0.00    -0.014 A 
BRANCH  14  15
ATOM     15  C   UNL A   1      42.803  30.227  28.930  1.00  0.00     0.031 A 
ATOM     16  C   UNL A   1      41.894  30.748  29.996  1.00  0.00     0.074 A 
ATOM     17  C   UNL A   1      43.814  30.974  28.445  1.00  0.00     0.049 A 
ATOM     18  N   UNL A   1      42.011  31.845  30.697  1.00  0.00    -0.248 NA
ATOM     19  C   UNL A   1      40.694  29.957  30.311  1.00  0.00     0.031 C 
ATOM     20  C   UNL A   1      44.667  30.589  27.314  1.00  0.00     0.029 A 
ATOM     21  N   UNL A   1      44.273  32.212  28.800  1.00  0.00    -0.354 N 
ATOM     22  C   UNL A   1      40.907  31.881  31.537  1.00  0.00     0.074 A 
ATOM     23  C   UNL A   1      40.114  30.706  31.244  1.00  0.00     0.031 C 
ATOM     24  C   UNL A   1      45.535  31.578  27.060  1.00  0.00     0.029 A 
ATOM     25  C   UNL A   1      45.310  32.655  28.015  1.00  0.00     0.049 A 
ATOM     26  H   UNL A   1      43.897  32.735  29.546  1.00  0.00     0.167 HD
ATOM     27  C   UNL A   1      40.611  32.806  32.481  1.00  0.00     0.034 A 
ATOM     28  C   UNL A   1      46.018  33.798  28.072  1.00  0.00     0.034 A 
ATOM     29  C   UNL A   1      41.430  33.960  32.748  1.00  0.00     0.049 A 
ATOM     30  C   UNL A   1      45.717  34.765  29.173  1.00  0.00     0.074 A 
ATOM     31  C   UNL A   1      41.287  34.903  33.750  1.00  0.00     0.029 A 
ATOM     32  N   UNL A   1      42.538  34.334  32.000  1.00  0.00    -0.354 N 
ATOM     33  N   UNL A   1      44.783  34.688  30.091  1.00  0.00    -0.248 NA
ATOM     34  C   UNL A   1      46.584  35.942  29.286  1.00  0.00     0.031 C 
ATOM     35  C   UNL A   1      42.302  35.854  33.601  1.00  0.00     0.029 A 
ATOM     36  C   UNL A   1      43.083  35.497  32.512  1.00  0.00     0.049 A 
ATOM     37  H   UNL A   1      42.883  33.845  31.220  1.00  0.00     0.167 HD
ATOM     38  C   UNL A   1      44.959  35.797  30.905  1.00  0.00     0.074 A 
ATOM     39  C   UNL A   1      46.099  36.522  30.378  1.00  0.00     0.031 C 
ATOM     40  C   UNL A   1      44.235  36.182  31.983  1.00  0.00     0.034 A 
BRANCH  27  41
ATOM     41  C   UNL A   1      39.411  32.578  33.363  1.00  0.00     0.023 A 
ATOM     42  C   UNL A   1      39.569  31.811  34.534  1.00  0.00     0.012 A 
ATOM     43  C   UNL A   1      38.182  33.224  33.119  1.00  0.00     0.148 A 
ATOM     44  C   UNL A   1      38.524  31.684  35.449  1.00  0.00     0.002 A 
ATOM     45  C   UNL A   1      37.153  33.114  34.050  1.00  0.00     0.091 A 
ATOM     46  F   UNL A   1      38.052  33.947  31.998  1.00  0.00    -0.205 F 
ATOM     47  C   UNL A   1      37.321  32.344  35.212  1.00  0.00     0.022 A 
BRANCH  45  48
ATOM     48  S   UNL A   1      35.578  33.965  33.876  1.00  0.00     0.127 S 
ATOM     49  O   UNL A   1      35.156  34.089  35.271  1.00  0.00    -0.237 OA
ATOM     50  O   UNL A   1      35.979  35.223  33.247  1.00  0.00    -0.237 OA
ATOM     51  O   UNL A   1      34.740  33.103  33.054  1.00  0.00    -0.744 OA
ENDBRANCH  45  48
ENDBRANCH  27  41
BRANCH  28  52
ATOM     52  C   UNL A   1      47.152  33.979  27.128  1.00  0.00     0.023 A 
ATOM     53  C   UNL A   1      46.964  34.788  25.991  1.00  0.00     0.012 A 
ATOM     54  C   UNL A   1      48.439  33.492  27.427  1.00  0.00     0.148 A 
ATOM     55  C   UNL A   1      48.041  35.110  25.166  1.00  0.00     0.002 A 
ATOM     56  C   UNL A   1      49.515  33.849  26.622  1.00  0.00     0.091 A 
ATOM     57  F   UNL A   1      48.591  32.731  28.520  1.00  0.00    -0.205 F 
ATOM     58  C   UNL A   1      49.317  34.652  25.487  1.00  0.00     0.022 A 
BRANCH  56  59
ATOM     59  S   UNL A   1      51.212  33.412  27.021  1.00  0.00     0.127 S 
ATOM     60  O   UNL A   1      51.946  34.030  25.921  1.00  0.00    -0.237 OA
ATOM     61  O   UNL A   1      51.391  34.057  28.322  1.00  0.00    -0.237 OA
ATOM     62  O   UNL A   1      51.245  31.956  27.062  1.00  0.00    -0.744 OA
ENDBRANCH  56  59
ENDBRANCH  28  52
BRANCH  40  63
ATOM     63  C   UNL A   1      44.642  37.456  32.665  1.00  0.00     0.023 A 
ATOM     64  C   UNL A   1      45.427  37.390  33.830  1.00  0.00     0.012 A 
ATOM     65  C   UNL A   1      44.341  38.707  32.094  1.00  0.00     0.148 A 
ATOM     66  C   UNL A   1      45.902  38.554  34.427  1.00  0.00     0.002 A 
ATOM     67  C   UNL A   1      44.845  39.863  32.675  1.00  0.00     0.091 A 
ATOM     68  F   UNL A   1      43.581  38.739  30.989  1.00  0.00    -0.205 F 
ATOM     69  C   UNL A   1      45.621  39.789  33.844  1.00  0.00     0.022 A 
BRANCH  67  70
ATOM     70  S   UNL A   1      44.599  41.492  31.961  1.00  0.00     0.127 S 
ATOM     71  O   UNL A   1      45.114  42.360  33.019  1.00  0.00    -0.237 OA
ATOM     72  O   UNL A   1      45.432  41.431  30.761  1.00  0.00    -0.237 OA
ATOM     73  O   UNL A   1      43.169  41.609  31.705  1.00  0.00    -0.744 OA
ENDBRANCH  67  70
ENDBRANCH  40  63
ENDBRANCH  14  15
ENDBRANCH   7   9
ENDBRANCH   6   7
ENDBRANCH   5   6
ENDBRANCH   4   5
ENDBRANCH   3   4
ENDBRANCH   2   3
ENDBRANCH   1   2
BRANCH   1  74
ATOM     74  O   UNL A   1      36.865  21.535  25.731  1.00  0.00    -0.377 OA
BRANCH  74  75
ATOM     75  C   UNL A   1      35.584  22.047  26.078  1.00  0.00     0.188 C 
BRANCH  75  76
ATOM     76  C   UNL A   1      34.609  22.475  24.960  1.00  0.00     0.188 C 
BRANCH  76  77
ATOM     77  O   UNL A   1      33.453  21.661  24.834  1.00  0.00    -0.376 OA
BRANCH  77  78
ATOM     78  C   UNL A   1      32.404  22.205  24.036  1.00  0.00     0.202 C 
BRANCH  78  79
ATOM     79  C   UNL A   1      31.471  23.132  24.822  1.00  0.00     0.261 C 
BRANCH  79  80
ATOM     80  O   UNL A   1      31.888  24.509  24.844  1.00  0.00    -0.459 OA
BRANCH  80  81
ATOM     81  C   UNL A   1      31.442  25.292  25.862  1.00  0.00     0.343 C 
ATOM     82  O   UNL A   1      30.829  24.933  26.842  1.00  0.00    -0.246 OA
BRANCH  81  83
ATOM     83  C   UNL A   1      32.087  26.610  25.702  1.00  0.00     0.126 A 
ATOM     84  C   UNL A   1      32.817  26.794  24.586  1.00  0.00     0.043 A 
ATOM     85  C   UNL A   1      31.792  27.751  26.611  1.00  0.00     0.265 A 
ATOM     86  C   UNL A   1      33.181  28.123  24.169  1.00  0.00     0.058 A 
ATOM     87  N   UNL A   1      32.261  29.000  26.177  1.00  0.00    -0.309 N 
ATOM     88  O   UNL A   1      31.227  27.575  27.687  1.00  0.00    -0.268 OA
ATOM     89  Cl  UNL A   1      33.931  28.343  22.638  1.00  0.00    -0.083 Cl
ATOM     90  C   UNL A   1      32.877  29.169  24.944  1.00  0.00     0.110 A 
BRANCH  87  91
ATOM     91  C   UNL A   1      32.289  30.104  27.136  1.00  0.00     0.161 C 
BRANCH  91  92
ATOM     92  C   UNL A   1      33.737  30.496  27.383  1.00  0.00    -0.028 A 
ATOM     93  C   UNL A   1      34.721  29.508  27.552  1.00  0.00     0.007 A 
ATOM     94  C   UNL A   1      34.071  31.837  27.624  1.00  0.00     0.007 A 
ATOM     95  C   UNL A   1      36.000  29.849  27.995  1.00  0.00     0.021 A 
ATOM     96  C   UNL A   1      35.357  32.180  28.048  1.00  0.00     0.021 A 
ATOM     97  C   UNL A   1      36.311  31.182  28.245  1.00  0.00     0.041 A 
ATOM     98  Cl  UNL A   1      37.877  31.597  28.824  1.00  0.00    -0.084 Cl
ENDBRANCH  91  92
ENDBRANCH  87  91
ENDBRANCH  81  83
ENDBRANCH  80  81
ENDBRANCH  79  80
ENDBRANCH  78  79
ENDBRANCH  77  78
ENDBRANCH  76  77
ENDBRANCH  75  76
ENDBRANCH  74  75
ENDBRANCH   1  74
TORSDOF 25
ENDMDL
