MODEL 1
REMARK VINA RESULT:      -8.7      0.000      0.000
REMARK SMILES O=C(Cc1ccccc1-c1ccn(C(F)F)c(=O)c1)OCCOCCOCCOCCOC(=O)c1ccc(-c2c3nc(c(-c4cccc(S(=O)(=O)[O-])c4F)c4ccc([nH]4)c(-c4cccc(S(=O)(=O)[O-])c4F)c4nc(c(-c5cccc(S(=O)(=O)[O-])c5F)c5ccc2[nH]5)C=C4)C=C3)cc1
REMARK SMILES IDX 26 1 25 2 24 3 23 4 22 5 21 6 20 7 2 8 1 9 3 10 4 11 5 12
REMARK SMILES IDX 9 13 6 14 8 15 7 16 10 17 11 18 19 19 12 20 17 21 13 22
REMARK SMILES IDX 18 23 14 24 15 25 16 26 27 27 28 28 29 29 30 30 31 31 32 32
REMARK SMILES IDX 33 33 34 34 35 35 36 36 97 37 37 38 96 39 38 40 39 41 40 42
REMARK SMILES IDX 90 43 41 44 95 45 89 46 91 47 42 48 94 49 88 50 87 51 43 53
REMARK SMILES IDX 75 54 55 55 74 56 56 57 59 58 73 59 92 60 57 61 58 62 72 64
REMARK SMILES IDX 93 65 60 66 44 67 45 68 53 69 46 70 48 71 54 72 47 73 49 74
REMARK SMILES IDX 50 75 51 76 52 77 76 78 77 79 85 80 78 81 80 82 86 83 79 84
REMARK SMILES IDX 81 85 82 86 83 87 84 88 61 89 62 90 70 91 63 92 65 93 71 94
REMARK SMILES IDX 64 95 66 96 67 97 68 98 69 99
REMARK H PARENT 91 52 59 63
REMARK Flexibility Score: inf
ROOT
ATOM      1  O   UNL A   1      42.040  21.650  26.598  1.00  0.00    -0.377 OA
ENDROOT
BRANCH   1   2
ATOM      2  C   UNL A   1      41.286  22.849  26.513  1.00  0.00     0.188 C 
BRANCH   2   3
ATOM      3  C   UNL A   1      39.838  22.769  27.008  1.00  0.00     0.188 C 
BRANCH   3   4
ATOM      4  O   UNL A   1      39.106  23.980  26.963  1.00  0.00    -0.376 OA
BRANCH   4   5
ATOM      5  C   UNL A   1      37.896  24.176  26.259  1.00  0.00     0.202 C 
BRANCH   5   6
ATOM      6  C   UNL A   1      37.336  23.057  25.393  1.00  0.00     0.261 C 
BRANCH   6   7
ATOM      7  O   UNL A   1      36.712  21.946  26.064  1.00  0.00    -0.463 OA
BRANCH   7   8
ATOM      8  C   UNL A   1      36.008  20.928  25.538  1.00  0.00     0.310 C 
ATOM      9  O   UNL A   1      36.596  20.048  24.909  1.00  0.00    -0.252 OA
BRANCH   8  10
ATOM     10  C   UNL A   1      34.506  20.947  25.566  1.00  0.00     0.158 C 
BRANCH  10  11
ATOM     11  C   UNL A   1      33.701  20.161  24.569  1.00  0.00    -0.029 A 
ATOM     12  C   UNL A   1      33.617  18.762  24.660  1.00  0.00     0.005 A 
ATOM     13  C   UNL A   1      32.971  20.847  23.557  1.00  0.00    -0.014 A 
ATOM     14  C   UNL A   1      32.821  18.040  23.779  1.00  0.00     0.000 A 
ATOM     15  C   UNL A   1      32.218  20.086  22.647  1.00  0.00     0.009 A 
ATOM     16  C   UNL A   1      32.135  18.697  22.764  1.00  0.00     0.001 A 
BRANCH  13  17
ATOM     17  C   UNL A   1      32.907  22.342  23.464  1.00  0.00    -0.011 A 
ATOM     18  C   UNL A   1      33.929  23.171  22.840  1.00  0.00     0.027 A 
ATOM     19  C   UNL A   1      31.866  22.972  24.045  1.00  0.00     0.080 A 
ATOM     20  C   UNL A   1      33.903  24.506  22.949  1.00  0.00     0.095 A 
ATOM     21  C   UNL A   1      31.760  24.460  24.071  1.00  0.00     0.255 A 
ATOM     22  N   UNL A   1      32.854  25.150  23.577  1.00  0.00    -0.258 N 
ATOM     23  O   UNL A   1      30.740  24.970  24.522  1.00  0.00    -0.269 OA
BRANCH  22  24
ATOM     24  C   UNL A   1      32.820  26.588  23.662  1.00  0.00     0.451 C 
ATOM     25  F   UNL A   1      33.945  27.067  24.250  1.00  0.00    -0.185 F 
ATOM     26  F   UNL A   1      32.713  27.159  22.438  1.00  0.00    -0.185 F 
ENDBRANCH  22  24
ENDBRANCH  13  17
ENDBRANCH  10  11
ENDBRANCH   8  10
ENDBRANCH   7   8
ENDBRANCH   6   7
ENDBRANCH   5   6
ENDBRANCH   4   5
ENDBRANCH   3   4
ENDBRANCH   2   3
ENDBRANCH   1   2
BRANCH   1  27
ATOM     27  C   UNL A   1      41.266  20.462  26.624  1.00  0.00     0.188 C 
BRANCH  27  28
ATOM     28  C   UNL A   1      41.985  19.223  26.045  1.00  0.00     0.188 C 
BRANCH  28  29
ATOM     29  O   UNL A   1      42.888  19.328  24.955  1.00  0.00    -0.376 OA
BRANCH  29  30
ATOM     30  C   UNL A   1      44.290  19.330  25.160  1.00  0.00     0.202 C 
BRANCH  30  31
ATOM     31  C   UNL A   1      45.211  20.506  24.777  1.00  0.00     0.261 C 
BRANCH  31  32
ATOM     32  O   UNL A   1      45.059  21.730  25.502  1.00  0.00    -0.460 OA
BRANCH  32  33
ATOM     33  C   UNL A   1      45.104  22.863  24.758  1.00  0.00     0.338 C 
ATOM     34  O   UNL A   1      45.246  22.946  23.559  1.00  0.00    -0.246 OA
BRANCH  33  35
ATOM     35  C   UNL A   1      44.717  24.001  25.626  1.00  0.00     0.060 A 
ATOM     36  C   UNL A   1      44.282  25.180  25.003  1.00  0.00     0.016 A 
ATOM     37  C   UNL A   1      44.744  23.907  27.020  1.00  0.00     0.016 A 
ATOM     38  C   UNL A   1      43.897  26.277  25.768  1.00  0.00     0.010 A 
ATOM     39  C   UNL A   1      44.401  25.026  27.787  1.00  0.00     0.010 A 
ATOM     40  C   UNL A   1      44.011  26.224  27.161  1.00  0.00    -0.014 A 
BRANCH  40  41
ATOM     41  C   UNL A   1      43.955  27.493  27.922  1.00  0.00     0.031 A 
ATOM     42  C   UNL A   1      45.254  28.202  28.201  1.00  0.00     0.074 A 
ATOM     43  C   UNL A   1      42.786  28.033  28.309  1.00  0.00     0.049 A 
ATOM     44  N   UNL A   1      45.465  29.324  28.834  1.00  0.00    -0.248 NA
ATOM     45  C   UNL A   1      46.478  27.559  27.691  1.00  0.00     0.031 C 
ATOM     46  C   UNL A   1      41.464  27.453  28.076  1.00  0.00     0.029 A 
ATOM     47  N   UNL A   1      42.530  29.190  29.001  1.00  0.00    -0.354 N 
ATOM     48  C   UNL A   1      46.843  29.511  28.819  1.00  0.00     0.074 A 
ATOM     49  C   UNL A   1      47.419  28.382  28.125  1.00  0.00     0.031 C 
ATOM     50  C   UNL A   1      40.537  28.242  28.646  1.00  0.00     0.029 A 
ATOM     51  C   UNL A   1      41.200  29.368  29.302  1.00  0.00     0.049 A 
ATOM     52  H   UNL A   1      43.231  29.831  29.257  1.00  0.00     0.167 HD
ATOM     53  C   UNL A   1      47.563  30.539  29.323  1.00  0.00     0.034 A 
ATOM     54  C   UNL A   1      40.598  30.317  30.046  1.00  0.00     0.034 A 
ATOM     55  C   UNL A   1      46.988  31.665  30.007  1.00  0.00     0.049 A 
ATOM     56  C   UNL A   1      41.433  31.429  30.635  1.00  0.00     0.074 A 
ATOM     57  C   UNL A   1      47.633  32.769  30.534  1.00  0.00     0.029 A 
ATOM     58  N   UNL A   1      45.639  31.823  30.272  1.00  0.00    -0.354 N 
ATOM     59  N   UNL A   1      42.722  31.648  30.522  1.00  0.00    -0.248 NA
ATOM     60  C   UNL A   1      40.723  32.444  31.427  1.00  0.00     0.031 C 
ATOM     61  C   UNL A   1      46.674  33.580  31.148  1.00  0.00     0.029 A 
ATOM     62  C   UNL A   1      45.428  33.002  30.966  1.00  0.00     0.049 A 
ATOM     63  H   UNL A   1      44.932  31.191  30.007  1.00  0.00     0.167 HD
ATOM     64  C   UNL A   1      42.967  32.841  31.195  1.00  0.00     0.074 A 
ATOM     65  C   UNL A   1      41.689  33.313  31.685  1.00  0.00     0.031 C 
ATOM     66  C   UNL A   1      44.144  33.484  31.404  1.00  0.00     0.034 A 
BRANCH  53  67
ATOM     67  C   UNL A   1      49.056  30.504  29.139  1.00  0.00     0.023 A 
ATOM     68  C   UNL A   1      49.856  29.775  30.042  1.00  0.00     0.012 A 
ATOM     69  C   UNL A   1      49.659  31.138  28.035  1.00  0.00     0.148 A 
ATOM     70  C   UNL A   1      51.236  29.693  29.861  1.00  0.00     0.002 A 
ATOM     71  C   UNL A   1      51.028  31.014  27.835  1.00  0.00     0.091 A 
ATOM     72  F   UNL A   1      48.883  31.846  27.203  1.00  0.00    -0.205 F 
ATOM     73  C   UNL A   1      51.820  30.302  28.752  1.00  0.00     0.022 A 
BRANCH  71  74
ATOM     74  S   UNL A   1      51.865  31.690  26.397  1.00  0.00     0.127 S 
ATOM     75  O   UNL A   1      51.063  31.140  25.304  1.00  0.00    -0.237 OA
ATOM     76  O   UNL A   1      51.709  33.129  26.603  1.00  0.00    -0.237 OA
ATOM     77  O   UNL A   1      53.236  31.206  26.463  1.00  0.00    -0.744 OA
ENDBRANCH  71  74
ENDBRANCH  53  67
BRANCH  54  78
ATOM     78  C   UNL A   1      39.125  30.275  30.280  1.00  0.00     0.023 A 
ATOM     79  C   UNL A   1      38.585  29.347  31.192  1.00  0.00     0.012 A 
ATOM     80  C   UNL A   1      38.255  31.131  29.579  1.00  0.00     0.148 A 
ATOM     81  C   UNL A   1      37.205  29.240  31.364  1.00  0.00     0.002 A 
ATOM     82  C   UNL A   1      36.885  31.061  29.801  1.00  0.00     0.091 A 
ATOM     83  F   UNL A   1      38.785  31.995  28.701  1.00  0.00    -0.205 F 
ATOM     84  C   UNL A   1      36.355  30.101  30.676  1.00  0.00     0.022 A 
BRANCH  82  85
ATOM     85  S   UNL A   1      35.731  32.219  29.058  1.00  0.00     0.127 S 
ATOM     86  O   UNL A   1      36.447  33.485  29.196  1.00  0.00    -0.237 OA
ATOM     87  O   UNL A   1      35.636  31.711  27.689  1.00  0.00    -0.237 OA
ATOM     88  O   UNL A   1      34.502  32.097  29.829  1.00  0.00    -0.744 OA
ENDBRANCH  82  85
ENDBRANCH  54  78
BRANCH  66  89
ATOM     89  C   UNL A   1      44.104  34.790  32.156  1.00  0.00     0.023 A 
ATOM     90  C   UNL A   1      43.951  36.003  31.456  1.00  0.00     0.012 A 
ATOM     91  C   UNL A   1      44.168  34.809  33.564  1.00  0.00     0.148 A 
ATOM     92  C   UNL A   1      43.913  37.217  32.141  1.00  0.00     0.002 A 
ATOM     93  C   UNL A   1      44.073  36.018  34.242  1.00  0.00     0.091 A 
ATOM     94  F   UNL A   1      44.327  33.646  34.213  1.00  0.00    -0.205 F 
ATOM     95  C   UNL A   1      43.964  37.224  33.532  1.00  0.00     0.022 A 
BRANCH  93  96
ATOM     96  S   UNL A   1      44.031  36.115  36.035  1.00  0.00     0.127 S 
ATOM     97  O   UNL A   1      45.378  36.596  36.339  1.00  0.00    -0.237 OA
ATOM     98  O   UNL A   1      42.968  37.092  36.268  1.00  0.00    -0.237 OA
ATOM     99  O   UNL A   1      43.728  34.769  36.504  1.00  0.00    -0.744 OA
ENDBRANCH  93  96
ENDBRANCH  66  89
ENDBRANCH  40  41
ENDBRANCH  33  35
ENDBRANCH  32  33
ENDBRANCH  31  32
ENDBRANCH  30  31
ENDBRANCH  29  30
ENDBRANCH  28  29
ENDBRANCH  27  28
ENDBRANCH   1  27
TORSDOF 26
ENDMDL
MODEL 2
REMARK VINA RESULT:      -8.7      4.174      5.669
REMARK SMILES O=C(Cc1ccccc1-c1ccn(C(F)F)c(=O)c1)OCCOCCOCCOCCOC(=O)c1ccc(-c2c3nc(c(-c4cccc(S(=O)(=O)[O-])c4F)c4ccc([nH]4)c(-c4cccc(S(=O)(=O)[O-])c4F)c4nc(c(-c5cccc(S(=O)(=O)[O-])c5F)c5ccc2[nH]5)C=C4)C=C3)cc1
REMARK SMILES IDX 26 1 25 2 24 3 23 4 22 5 21 6 20 7 2 8 1 9 3 10 4 11 5 12
REMARK SMILES IDX 9 13 6 14 8 15 7 16 10 17 11 18 19 19 12 20 17 21 13 22
REMARK SMILES IDX 18 23 14 24 15 25 16 26 27 27 28 28 29 29 30 30 31 31 32 32
REMARK SMILES IDX 33 33 34 34 35 35 36 36 97 37 37 38 96 39 38 40 39 41 40 42
REMARK SMILES IDX 90 43 41 44 95 45 89 46 91 47 42 48 94 49 88 50 87 51 43 53
REMARK SMILES IDX 75 54 55 55 74 56 56 57 59 58 73 59 92 60 57 61 58 62 72 64
REMARK SMILES IDX 93 65 60 66 44 67 45 68 53 69 46 70 48 71 54 72 47 73 49 74
REMARK SMILES IDX 50 75 51 76 52 77 76 78 77 79 85 80 78 81 80 82 86 83 79 84
REMARK SMILES IDX 81 85 82 86 83 87 84 88 61 89 62 90 70 91 63 92 65 93 71 94
REMARK SMILES IDX 64 95 66 96 67 97 68 98 69 99
REMARK H PARENT 91 52 59 63
REMARK Flexibility Score: inf
ROOT
ATOM      1  O   UNL A   1      42.235  21.371  26.662  1.00  0.00    -0.377 OA
ENDROOT
BRANCH   1   2
ATOM      2  C   UNL A   1      41.225  22.309  26.997  1.00  0.00     0.188 C 
BRANCH   2   3
ATOM      3  C   UNL A   1      39.782  21.871  26.721  1.00  0.00     0.188 C 
BRANCH   3   4
ATOM      4  O   UNL A   1      38.976  22.809  26.030  1.00  0.00    -0.376 OA
BRANCH   4   5
ATOM      5  C   UNL A   1      37.601  22.650  25.747  1.00  0.00     0.202 C 
BRANCH   5   6
ATOM      6  C   UNL A   1      36.993  23.346  24.537  1.00  0.00     0.261 C 
BRANCH   6   7
ATOM      7  O   UNL A   1      35.766  24.073  24.737  1.00  0.00    -0.463 OA
BRANCH   7   8
ATOM      8  C   UNL A   1      34.711  24.193  23.911  1.00  0.00     0.310 C 
ATOM      9  O   UNL A   1      34.811  23.810  22.745  1.00  0.00    -0.252 OA
BRANCH   8  10
ATOM     10  C   UNL A   1      33.483  24.940  24.348  1.00  0.00     0.158 C 
BRANCH  10  11
ATOM     11  C   UNL A   1      32.454  24.291  25.232  1.00  0.00    -0.029 A 
ATOM     12  C   UNL A   1      32.751  23.108  25.927  1.00  0.00     0.005 A 
ATOM     13  C   UNL A   1      31.186  24.915  25.410  1.00  0.00    -0.014 A 
ATOM     14  C   UNL A   1      31.825  22.543  26.796  1.00  0.00     0.000 A 
ATOM     15  C   UNL A   1      30.250  24.291  26.252  1.00  0.00     0.009 A 
ATOM     16  C   UNL A   1      30.571  23.124  26.948  1.00  0.00     0.001 A 
BRANCH  13  17
ATOM     17  C   UNL A   1      30.833  26.240  24.804  1.00  0.00    -0.011 A 
ATOM     18  C   UNL A   1      30.036  26.404  23.597  1.00  0.00     0.027 A 
ATOM     19  C   UNL A   1      31.330  27.355  25.376  1.00  0.00     0.080 A 
ATOM     20  C   UNL A   1      29.907  27.600  23.006  1.00  0.00     0.095 A 
ATOM     21  C   UNL A   1      31.096  28.710  24.797  1.00  0.00     0.255 A 
ATOM     22  N   UNL A   1      30.448  28.737  23.574  1.00  0.00    -0.258 N 
ATOM     23  O   UNL A   1      31.486  29.692  25.420  1.00  0.00    -0.269 OA
BRANCH  22  24
ATOM     24  C   UNL A   1      30.279  30.024  22.946  1.00  0.00     0.451 C 
ATOM     25  F   UNL A   1      29.983  29.887  21.630  1.00  0.00    -0.185 F 
ATOM     26  F   UNL A   1      29.283  30.736  23.528  1.00  0.00    -0.185 F 
ENDBRANCH  22  24
ENDBRANCH  13  17
ENDBRANCH  10  11
ENDBRANCH   8  10
ENDBRANCH   7   8
ENDBRANCH   6   7
ENDBRANCH   5   6
ENDBRANCH   4   5
ENDBRANCH   3   4
ENDBRANCH   2   3
ENDBRANCH   1   2
BRANCH   1  27
ATOM     27  C   UNL A   1      41.799  20.022  26.613  1.00  0.00     0.188 C 
BRANCH  27  28
ATOM     28  C   UNL A   1      42.644  19.115  25.690  1.00  0.00     0.188 C 
BRANCH  28  29
ATOM     29  O   UNL A   1      43.652  19.647  24.843  1.00  0.00    -0.376 OA
BRANCH  29  30
ATOM     30  C   UNL A   1      45.024  19.556  25.187  1.00  0.00     0.202 C 
BRANCH  30  31
ATOM     31  C   UNL A   1      46.019  20.728  25.066  1.00  0.00     0.261 C 
BRANCH  31  32
ATOM     32  O   UNL A   1      45.640  21.980  25.643  1.00  0.00    -0.460 OA
BRANCH  32  33
ATOM     33  C   UNL A   1      46.092  23.084  24.999  1.00  0.00     0.338 C 
ATOM     34  O   UNL A   1      46.540  23.145  23.877  1.00  0.00    -0.246 OA
BRANCH  33  35
ATOM     35  C   UNL A   1      45.737  24.272  25.814  1.00  0.00     0.060 A 
ATOM     36  C   UNL A   1      46.745  24.851  26.600  1.00  0.00     0.016 A 
ATOM     37  C   UNL A   1      44.456  24.829  25.786  1.00  0.00     0.016 A 
ATOM     38  C   UNL A   1      46.471  25.972  27.378  1.00  0.00     0.010 A 
ATOM     39  C   UNL A   1      44.170  25.928  26.603  1.00  0.00     0.010 A 
ATOM     40  C   UNL A   1      45.169  26.479  27.427  1.00  0.00    -0.014 A 
BRANCH  40  41
ATOM     41  C   UNL A   1      44.818  27.417  28.518  1.00  0.00     0.031 A 
ATOM     42  C   UNL A   1      44.823  28.890  28.205  1.00  0.00     0.074 A 
ATOM     43  C   UNL A   1      44.454  26.979  29.735  1.00  0.00     0.049 A 
ATOM     44  N   UNL A   1      44.545  29.902  28.981  1.00  0.00    -0.248 NA
ATOM     45  C   UNL A   1      45.185  29.269  26.827  1.00  0.00     0.031 C 
ATOM     46  C   UNL A   1      44.389  25.579  30.150  1.00  0.00     0.029 A 
ATOM     47  N   UNL A   1      44.087  27.680  30.857  1.00  0.00    -0.354 N 
ATOM     48  C   UNL A   1      44.719  31.037  28.198  1.00  0.00     0.074 A 
ATOM     49  C   UNL A   1      45.139  30.591  26.888  1.00  0.00     0.031 C 
ATOM     50  C   UNL A   1      44.036  25.525  31.446  1.00  0.00     0.029 A 
ATOM     51  C   UNL A   1      43.874  26.885  31.958  1.00  0.00     0.049 A 
ATOM     52  H   UNL A   1      43.987  28.660  30.871  1.00  0.00     0.167 HD
ATOM     53  C   UNL A   1      44.531  32.334  28.532  1.00  0.00     0.034 A 
ATOM     54  C   UNL A   1      43.606  27.224  33.235  1.00  0.00     0.034 A 
ATOM     55  C   UNL A   1      44.108  32.776  29.832  1.00  0.00     0.049 A 
ATOM     56  C   UNL A   1      43.446  28.683  33.590  1.00  0.00     0.074 A 
ATOM     57  C   UNL A   1      43.866  34.068  30.263  1.00  0.00     0.029 A 
ATOM     58  N   UNL A   1      43.878  31.943  30.914  1.00  0.00    -0.354 N 
ATOM     59  N   UNL A   1      43.510  29.738  32.813  1.00  0.00    -0.248 NA
ATOM     60  C   UNL A   1      43.143  28.995  34.995  1.00  0.00     0.031 C 
ATOM     61  C   UNL A   1      43.522  34.017  31.617  1.00  0.00     0.029 A 
ATOM     62  C   UNL A   1      43.508  32.692  32.018  1.00  0.00     0.049 A 
ATOM     63  H   UNL A   1      43.965  30.962  30.901  1.00  0.00     0.167 HD
ATOM     64  C   UNL A   1      43.220  30.829  33.626  1.00  0.00     0.074 A 
ATOM     65  C   UNL A   1      42.948  30.304  34.947  1.00  0.00     0.031 C 
ATOM     66  C   UNL A   1      43.193  32.150  33.314  1.00  0.00     0.034 A 
BRANCH  53  67
ATOM     67  C   UNL A   1      44.766  33.373  27.468  1.00  0.00     0.023 A 
ATOM     68  C   UNL A   1      43.683  33.839  26.695  1.00  0.00     0.012 A 
ATOM     69  C   UNL A   1      46.044  33.933  27.281  1.00  0.00     0.148 A 
ATOM     70  C   UNL A   1      43.873  34.834  25.737  1.00  0.00     0.002 A 
ATOM     71  C   UNL A   1      46.217  34.956  26.357  1.00  0.00     0.091 A 
ATOM     72  F   UNL A   1      47.062  33.457  28.010  1.00  0.00    -0.205 F 
ATOM     73  C   UNL A   1      45.136  35.400  25.577  1.00  0.00     0.022 A 
BRANCH  71  74
ATOM     74  S   UNL A   1      47.781  35.807  26.133  1.00  0.00     0.127 S 
ATOM     75  O   UNL A   1      48.211  36.006  27.518  1.00  0.00    -0.237 OA
ATOM     76  O   UNL A   1      48.561  34.819  25.389  1.00  0.00    -0.237 OA
ATOM     77  O   UNL A   1      47.477  37.027  25.398  1.00  0.00    -0.744 OA
ENDBRANCH  71  74
ENDBRANCH  53  67
BRANCH  54  78
ATOM     78  C   UNL A   1      43.464  26.173  34.284  1.00  0.00     0.023 A 
ATOM     79  C   UNL A   1      42.182  25.764  34.700  1.00  0.00     0.012 A 
ATOM     80  C   UNL A   1      44.596  25.599  34.893  1.00  0.00     0.148 A 
ATOM     81  C   UNL A   1      42.030  24.841  35.735  1.00  0.00     0.002 A 
ATOM     82  C   UNL A   1      44.438  24.634  35.880  1.00  0.00     0.091 A 
ATOM     83  F   UNL A   1      45.808  26.014  34.498  1.00  0.00    -0.205 F 
ATOM     84  C   UNL A   1      43.157  24.269  36.320  1.00  0.00     0.022 A 
BRANCH  82  85
ATOM     85  S   UNL A   1      45.832  23.752  36.593  1.00  0.00     0.127 S 
ATOM     86  O   UNL A   1      46.763  23.706  35.468  1.00  0.00    -0.237 OA
ATOM     87  O   UNL A   1      46.225  24.645  37.683  1.00  0.00    -0.237 OA
ATOM     88  O   UNL A   1      45.300  22.469  37.030  1.00  0.00    -0.744 OA
ENDBRANCH  82  85
ENDBRANCH  54  78
BRANCH  66  89
ATOM     89  C   UNL A   1      42.815  33.119  34.406  1.00  0.00     0.023 A 
ATOM     90  C   UNL A   1      43.807  33.641  35.260  1.00  0.00     0.012 A 
ATOM     91  C   UNL A   1      41.481  33.549  34.553  1.00  0.00     0.148 A 
ATOM     92  C   UNL A   1      43.469  34.537  36.274  1.00  0.00     0.002 A 
ATOM     93  C   UNL A   1      41.162  34.485  35.529  1.00  0.00     0.091 A 
ATOM     94  F   UNL A   1      40.548  33.032  33.740  1.00  0.00    -0.205 F 
ATOM     95  C   UNL A   1      42.151  34.967  36.402  1.00  0.00     0.022 A 
BRANCH  93  96
ATOM     96  S   UNL A   1      39.511  35.169  35.704  1.00  0.00     0.127 S 
ATOM     97  O   UNL A   1      39.067  35.237  34.312  1.00  0.00    -0.237 OA
ATOM     98  O   UNL A   1      38.837  34.151  36.509  1.00  0.00    -0.237 OA
ATOM     99  O   UNL A   1      39.676  36.455  36.370  1.00  0.00    -0.744 OA
ENDBRANCH  93  96
ENDBRANCH  66  89
ENDBRANCH  40  41
ENDBRANCH  33  35
ENDBRANCH  32  33
ENDBRANCH  31  32
ENDBRANCH  30  31
ENDBRANCH  29  30
ENDBRANCH  28  29
ENDBRANCH  27  28
ENDBRANCH   1  27
TORSDOF 26
ENDMDL
MODEL 3
REMARK VINA RESULT:      -8.2      4.579      7.572
REMARK SMILES O=C(Cc1ccccc1-c1ccn(C(F)F)c(=O)c1)OCCOCCOCCOCCOC(=O)c1ccc(-c2c3nc(c(-c4cccc(S(=O)(=O)[O-])c4F)c4ccc([nH]4)c(-c4cccc(S(=O)(=O)[O-])c4F)c4nc(c(-c5cccc(S(=O)(=O)[O-])c5F)c5ccc2[nH]5)C=C4)C=C3)cc1
REMARK SMILES IDX 26 1 25 2 24 3 23 4 22 5 21 6 20 7 2 8 1 9 3 10 4 11 5 12
REMARK SMILES IDX 9 13 6 14 8 15 7 16 10 17 11 18 19 19 12 20 17 21 13 22
REMARK SMILES IDX 18 23 14 24 15 25 16 26 27 27 28 28 29 29 30 30 31 31 32 32
REMARK SMILES IDX 33 33 34 34 35 35 36 36 97 37 37 38 96 39 38 40 39 41 40 42
REMARK SMILES IDX 90 43 41 44 95 45 89 46 91 47 42 48 94 49 88 50 87 51 43 53
REMARK SMILES IDX 75 54 55 55 74 56 56 57 59 58 73 59 92 60 57 61 58 62 72 64
REMARK SMILES IDX 93 65 60 66 44 67 45 68 53 69 46 70 48 71 54 72 47 73 49 74
REMARK SMILES IDX 50 75 51 76 52 77 76 78 77 79 85 80 78 81 80 82 86 83 79 84
REMARK SMILES IDX 81 85 82 86 83 87 84 88 61 89 62 90 70 91 63 92 65 93 71 94
REMARK SMILES IDX 64 95 66 96 67 97 68 98 69 99
REMARK H PARENT 91 52 59 63
REMARK Flexibility Score: inf
ROOT
ATOM      1  O   UNL A   1      42.555  21.422  27.008  1.00  0.00    -0.377 OA
ENDROOT
BRANCH   1   2
ATOM      2  C   UNL A   1      41.425  21.971  27.665  1.00  0.00     0.188 C 
BRANCH   2   3
ATOM      3  C   UNL A   1      40.223  22.303  26.774  1.00  0.00     0.188 C 
BRANCH   3   4
ATOM      4  O   UNL A   1      39.979  23.682  26.559  1.00  0.00    -0.376 OA
BRANCH   4   5
ATOM      5  C   UNL A   1      40.602  24.739  27.260  1.00  0.00     0.202 C 
BRANCH   5   6
ATOM      6  C   UNL A   1      39.859  25.439  28.389  1.00  0.00     0.261 C 
BRANCH   6   7
ATOM      7  O   UNL A   1      39.489  26.816  28.186  1.00  0.00    -0.463 OA
BRANCH   7   8
ATOM      8  C   UNL A   1      38.931  27.677  29.056  1.00  0.00     0.310 C 
ATOM      9  O   UNL A   1      38.884  27.384  30.251  1.00  0.00    -0.252 OA
BRANCH   8  10
ATOM     10  C   UNL A   1      38.220  28.905  28.561  1.00  0.00     0.158 C 
BRANCH  10  11
ATOM     11  C   UNL A   1      38.542  30.265  29.116  1.00  0.00    -0.029 A 
ATOM     12  C   UNL A   1      39.809  30.536  29.655  1.00  0.00     0.005 A 
ATOM     13  C   UNL A   1      37.570  31.303  29.040  1.00  0.00    -0.014 A 
ATOM     14  C   UNL A   1      40.130  31.811  30.108  1.00  0.00     0.000 A 
ATOM     15  C   UNL A   1      37.904  32.567  29.556  1.00  0.00     0.009 A 
ATOM     16  C   UNL A   1      39.176  32.820  30.073  1.00  0.00     0.001 A 
BRANCH  13  17
ATOM     17  C   UNL A   1      36.239  31.133  28.370  1.00  0.00    -0.011 A 
ATOM     18  C   UNL A   1      35.206  32.158  28.323  1.00  0.00     0.027 A 
ATOM     19  C   UNL A   1      35.952  29.935  27.821  1.00  0.00     0.080 A 
ATOM     20  C   UNL A   1      33.976  31.884  27.869  1.00  0.00     0.095 A 
ATOM     21  C   UNL A   1      34.624  29.650  27.202  1.00  0.00     0.255 A 
ATOM     22  N   UNL A   1      33.670  30.644  27.341  1.00  0.00    -0.258 N 
ATOM     23  O   UNL A   1      34.459  28.578  26.629  1.00  0.00    -0.269 OA
BRANCH  22  24
ATOM     24  C   UNL A   1      32.352  30.369  26.827  1.00  0.00     0.451 C 
ATOM     25  F   UNL A   1      31.703  29.472  27.611  1.00  0.00    -0.185 F 
ATOM     26  F   UNL A   1      31.597  31.492  26.762  1.00  0.00    -0.185 F 
ENDBRANCH  22  24
ENDBRANCH  13  17
ENDBRANCH  10  11
ENDBRANCH   8  10
ENDBRANCH   7   8
ENDBRANCH   6   7
ENDBRANCH   5   6
ENDBRANCH   4   5
ENDBRANCH   3   4
ENDBRANCH   2   3
ENDBRANCH   1   2
BRANCH   1  27
ATOM     27  C   UNL A   1      42.413  20.066  26.616  1.00  0.00     0.188 C 
BRANCH  27  28
ATOM     28  C   UNL A   1      43.364  19.630  25.478  1.00  0.00     0.188 C 
BRANCH  28  29
ATOM     29  O   UNL A   1      44.091  20.578  24.712  1.00  0.00    -0.376 OA
BRANCH  29  30
ATOM     30  C   UNL A   1      45.461  20.834  24.969  1.00  0.00     0.202 C 
BRANCH  30  31
ATOM     31  C   UNL A   1      46.156  22.175  24.657  1.00  0.00     0.261 C 
BRANCH  31  32
ATOM     32  O   UNL A   1      45.901  23.274  25.536  1.00  0.00    -0.460 OA
BRANCH  32  33
ATOM     33  C   UNL A   1      46.333  24.485  25.103  1.00  0.00     0.338 C 
ATOM     34  O   UNL A   1      46.852  24.740  24.040  1.00  0.00    -0.246 OA
BRANCH  33  35
ATOM     35  C   UNL A   1      45.856  25.513  26.060  1.00  0.00     0.060 A 
ATOM     36  C   UNL A   1      46.818  26.191  26.824  1.00  0.00     0.016 A 
ATOM     37  C   UNL A   1      44.502  25.833  26.184  1.00  0.00     0.016 A 
ATOM     38  C   UNL A   1      46.430  27.172  27.731  1.00  0.00     0.010 A 
ATOM     39  C   UNL A   1      44.109  26.788  27.128  1.00  0.00     0.010 A 
ATOM     40  C   UNL A   1      45.070  27.433  27.928  1.00  0.00    -0.014 A 
BRANCH  40  41
ATOM     41  C   UNL A   1      44.666  28.194  29.132  1.00  0.00     0.031 A 
ATOM     42  C   UNL A   1      44.424  29.672  28.980  1.00  0.00     0.074 A 
ATOM     43  C   UNL A   1      44.467  27.589  30.316  1.00  0.00     0.049 A 
ATOM     44  N   UNL A   1      44.056  30.548  29.876  1.00  0.00    -0.248 NA
ATOM     45  C   UNL A   1      44.618  30.235  27.632  1.00  0.00     0.031 C 
ATOM     46  C   UNL A   1      44.646  26.162  30.581  1.00  0.00     0.029 A 
ATOM     47  N   UNL A   1      44.085  28.111  31.526  1.00  0.00    -0.354 N 
ATOM     48  C   UNL A   1      43.996  31.766  29.209  1.00  0.00     0.074 A 
ATOM     49  C   UNL A   1      44.377  31.521  27.836  1.00  0.00     0.031 C 
ATOM     50  C   UNL A   1      44.405  25.928  31.883  1.00  0.00     0.029 A 
ATOM     51  C   UNL A   1      44.079  27.190  32.546  1.00  0.00     0.049 A 
ATOM     52  H   UNL A   1      43.838  29.056  31.651  1.00  0.00     0.167 HD
ATOM     53  C   UNL A   1      43.640  32.979  29.691  1.00  0.00     0.034 A 
ATOM     54  C   UNL A   1      43.861  27.357  33.866  1.00  0.00     0.034 A 
ATOM     55  C   UNL A   1      43.255  33.221  31.055  1.00  0.00     0.049 A 
ATOM     56  C   UNL A   1      43.510  28.731  34.385  1.00  0.00     0.074 A 
ATOM     57  C   UNL A   1      42.854  34.410  31.635  1.00  0.00     0.029 A 
ATOM     58  N   UNL A   1      43.237  32.261  32.053  1.00  0.00    -0.354 N 
ATOM     59  N   UNL A   1      43.354  29.853  33.723  1.00  0.00    -0.248 NA
ATOM     60  C   UNL A   1      43.271  28.853  35.831  1.00  0.00     0.031 C 
ATOM     61  C   UNL A   1      42.626  34.175  32.995  1.00  0.00     0.029 A 
ATOM     62  C   UNL A   1      42.844  32.832  33.251  1.00  0.00     0.049 A 
ATOM     63  H   UNL A   1      43.471  31.312  31.929  1.00  0.00     0.167 HD
ATOM     64  C   UNL A   1      42.964  30.801  34.664  1.00  0.00     0.074 A 
ATOM     65  C   UNL A   1      42.877  30.114  35.935  1.00  0.00     0.031 C 
ATOM     66  C   UNL A   1      42.714  32.124  34.498  1.00  0.00     0.034 A 
BRANCH  53  67
ATOM     67  C   UNL A   1      43.632  34.139  28.733  1.00  0.00     0.023 A 
ATOM     68  C   UNL A   1      42.419  34.560  28.153  1.00  0.00     0.012 A 
ATOM     69  C   UNL A   1      44.815  34.853  28.460  1.00  0.00     0.148 A 
ATOM     70  C   UNL A   1      42.385  35.661  27.299  1.00  0.00     0.002 A 
ATOM     71  C   UNL A   1      44.767  35.977  27.645  1.00  0.00     0.091 A 
ATOM     72  F   UNL A   1      45.961  34.420  29.002  1.00  0.00    -0.205 F 
ATOM     73  C   UNL A   1      43.556  36.376  27.055  1.00  0.00     0.022 A 
BRANCH  71  74
ATOM     74  S   UNL A   1      46.200  37.013  27.334  1.00  0.00     0.127 S 
ATOM     75  O   UNL A   1      47.036  36.125  26.525  1.00  0.00    -0.237 OA
ATOM     76  O   UNL A   1      45.612  38.132  26.599  1.00  0.00    -0.237 OA
ATOM     77  O   UNL A   1      46.743  37.355  28.640  1.00  0.00    -0.744 OA
ENDBRANCH  71  74
ENDBRANCH  53  67
BRANCH  54  78
ATOM     78  C   UNL A   1      43.960  26.200  34.803  1.00  0.00     0.023 A 
ATOM     79  C   UNL A   1      42.813  25.441  35.107  1.00  0.00     0.012 A 
ATOM     80  C   UNL A   1      45.182  25.869  35.419  1.00  0.00     0.148 A 
ATOM     81  C   UNL A   1      42.871  24.406  36.041  1.00  0.00     0.002 A 
ATOM     82  C   UNL A   1      45.246  24.798  36.301  1.00  0.00     0.091 A 
ATOM     83  F   UNL A   1      46.260  26.614  35.133  1.00  0.00    -0.205 F 
ATOM     84  C   UNL A   1      44.088  24.079  36.632  1.00  0.00     0.022 A 
BRANCH  82  85
ATOM     85  S   UNL A   1      46.796  24.225  37.006  1.00  0.00     0.127 S 
ATOM     86  O   UNL A   1      46.402  23.908  38.376  1.00  0.00    -0.237 OA
ATOM     87  O   UNL A   1      47.096  23.064  36.166  1.00  0.00    -0.237 OA
ATOM     88  O   UNL A   1      47.729  25.332  36.853  1.00  0.00    -0.744 OA
ENDBRANCH  82  85
ENDBRANCH  54  78
BRANCH  66  89
ATOM     89  C   UNL A   1      42.278  32.911  35.709  1.00  0.00     0.023 A 
ATOM     90  C   UNL A   1      43.214  33.692  36.417  1.00  0.00     0.012 A 
ATOM     91  C   UNL A   1      40.929  32.914  36.114  1.00  0.00     0.148 A 
ATOM     92  C   UNL A   1      42.823  34.423  37.538  1.00  0.00     0.002 A 
ATOM     93  C   UNL A   1      40.536  33.690  37.198  1.00  0.00     0.091 A 
ATOM     94  F   UNL A   1      40.055  32.155  35.437  1.00  0.00    -0.205 F 
ATOM     95  C   UNL A   1      41.484  34.430  37.922  1.00  0.00     0.022 A 
BRANCH  93  96
ATOM     96  S   UNL A   1      38.819  33.838  37.705  1.00  0.00     0.127 S 
ATOM     97  O   UNL A   1      38.850  35.061  38.506  1.00  0.00    -0.237 OA
ATOM     98  O   UNL A   1      38.128  33.967  36.422  1.00  0.00    -0.237 OA
ATOM     99  O   UNL A   1      38.509  32.618  38.438  1.00  0.00    -0.744 OA
ENDBRANCH  93  96
ENDBRANCH  66  89
ENDBRANCH  40  41
ENDBRANCH  33  35
ENDBRANCH  32  33
ENDBRANCH  31  32
ENDBRANCH  30  31
ENDBRANCH  29  30
ENDBRANCH  28  29
ENDBRANCH  27  28
ENDBRANCH   1  27
TORSDOF 26
ENDMDL
