MODEL 1
REMARK VINA RESULT:      -7.7      0.000      0.000
REMARK SMILES C[C@H](C(=O)Nc1ccc(C(F)(F)F)cc1)n1nc(C(=O)OCCOCCOCCOCCOC(=O)c2ccc(-c3c4nc(c(-c5cccc(S(=O)(=O)[O-])c5F)c5ccc([nH]5)c(-c5cccc(S(=O)(=O)[O-])c5F)c5nc(c(-c6cccc(S(=O)(=O)[O-])c6F)c6ccc3[nH]6)C=C5)C=C4)cc2)c2ccccc2c1=O
REMARK SMILES IDX 26 1 25 2 24 3 23 4 22 5 21 6 19 7 20 8 18 9 16 10 17 11
REMARK SMILES IDX 105 12 104 13 106 14 99 15 103 16 100 17 102 18 101 19 2 20
REMARK SMILES IDX 1 21 3 22 4 23 5 24 6 26 7 27 15 28 8 29 14 30 9 31 10 32
REMARK SMILES IDX 11 33 12 34 13 35 27 36 28 37 29 38 30 39 31 40 32 41 33 42
REMARK SMILES IDX 34 43 35 44 36 45 37 46 98 47 38 48 97 49 39 50 40 51 41 52
REMARK SMILES IDX 91 53 42 54 96 55 90 56 92 57 43 58 95 59 89 60 88 61 44 63
REMARK SMILES IDX 76 64 56 65 75 66 57 67 60 68 74 69 93 70 58 71 59 72 73 74
REMARK SMILES IDX 94 75 61 76 45 77 46 78 54 79 47 80 49 81 55 82 48 83 50 84
REMARK SMILES IDX 51 85 52 86 53 87 77 88 78 89 86 90 79 91 81 92 87 93 80 94
REMARK SMILES IDX 82 95 83 96 84 97 85 98 62 99 63 100 71 101 64 102 66 103
REMARK SMILES IDX 72 104 65 105 67 106 68 107 69 108 70 109
REMARK H PARENT 5 25 92 62 60 73
REMARK Flexibility Score: inf
ROOT
ATOM      1  C   UNL A   1      40.845  27.579  28.721  1.00  0.00     0.188 C 
ENDROOT
BRANCH   1   2
ATOM      2  C   UNL A   1      41.846  27.889  29.854  1.00  0.00     0.188 C 
BRANCH   2   3
ATOM      3  O   UNL A   1      41.517  28.745  30.942  1.00  0.00    -0.376 OA
BRANCH   3   4
ATOM      4  C   UNL A   1      40.191  28.819  31.456  1.00  0.00     0.202 C 
BRANCH   4   5
ATOM      5  C   UNL A   1      39.952  29.202  32.919  1.00  0.00     0.261 C 
BRANCH   5   6
ATOM      6  O   UNL A   1      38.598  29.039  33.351  1.00  0.00    -0.458 OA
BRANCH   6   7
ATOM      7  C   UNL A   1      38.069  30.077  34.018  1.00  0.00     0.359 C 
ATOM      8  O   UNL A   1      38.154  30.313  35.211  1.00  0.00    -0.244 OA
BRANCH   7   9
ATOM      9  C   UNL A   1      37.309  31.013  33.085  1.00  0.00     0.176 A 
ATOM     10  N   UNL A   1      36.072  31.223  31.148  1.00  0.00    -0.216 N 
ATOM     11  N   UNL A   1      37.049  30.593  31.888  1.00  0.00    -0.161 NA
ATOM     12  C   UNL A   1      35.206  32.165  31.710  1.00  0.00     0.275 A 
ATOM     13  C   UNL A   1      35.613  32.719  33.022  1.00  0.00     0.051 A 
ATOM     14  O   UNL A   1      34.196  32.616  31.185  1.00  0.00    -0.267 OA
ATOM     15  C   UNL A   1      36.785  32.272  33.606  1.00  0.00     0.022 A 
ATOM     16  C   UNL A   1      34.907  33.765  33.623  1.00  0.00     0.014 A 
ATOM     17  C   UNL A   1      37.381  32.991  34.646  1.00  0.00     0.011 A 
ATOM     18  C   UNL A   1      35.457  34.438  34.718  1.00  0.00     0.001 A 
ATOM     19  C   UNL A   1      36.722  34.090  35.189  1.00  0.00     0.001 A 
BRANCH  10  20
ATOM     20  C   UNL A   1      35.972  30.780  29.737  1.00  0.00     0.197 C 
ATOM     21  C   UNL A   1      36.893  29.585  29.465  1.00  0.00     0.044 C 
BRANCH  20  22
ATOM     22  C   UNL A   1      36.209  31.909  28.717  1.00  0.00     0.249 C 
ATOM     23  O   UNL A   1      35.504  32.012  27.703  1.00  0.00    -0.272 OA
ATOM     24  N   UNL A   1      37.164  32.876  28.882  1.00  0.00    -0.324 N 
ATOM     25  H   UNL A   1      37.136  33.561  28.176  1.00  0.00     0.170 HD
BRANCH  24  26
ATOM     26  C   UNL A   1      38.174  33.113  29.829  1.00  0.00     0.041 A 
ATOM     27  C   UNL A   1      38.050  34.257  30.621  1.00  0.00     0.027 A 
ATOM     28  C   UNL A   1      39.293  32.315  30.024  1.00  0.00     0.027 A 
ATOM     29  C   UNL A   1      38.978  34.539  31.634  1.00  0.00     0.015 A 
ATOM     30  C   UNL A   1      40.228  32.587  31.027  1.00  0.00     0.015 A 
ATOM     31  C   UNL A   1      40.071  33.695  31.859  1.00  0.00     0.056 A 
BRANCH  31  32
ATOM     32  C   UNL A   1      41.055  33.978  32.962  1.00  0.00     0.416 C 
ATOM     33  F   UNL A   1      40.515  33.789  34.200  1.00  0.00    -0.166 F 
ATOM     34  F   UNL A   1      42.175  33.211  32.913  1.00  0.00    -0.166 F 
ATOM     35  F   UNL A   1      41.497  35.272  32.964  1.00  0.00    -0.166 F 
ENDBRANCH  31  32
ENDBRANCH  24  26
ENDBRANCH  20  22
ENDBRANCH  10  20
ENDBRANCH   7   9
ENDBRANCH   6   7
ENDBRANCH   5   6
ENDBRANCH   4   5
ENDBRANCH   3   4
ENDBRANCH   2   3
ENDBRANCH   1   2
BRANCH   1  36
ATOM     36  O   UNL A   1      40.997  26.291  28.165  1.00  0.00    -0.377 OA
BRANCH  36  37
ATOM     37  C   UNL A   1      40.460  26.119  26.857  1.00  0.00     0.188 C 
BRANCH  37  38
ATOM     38  C   UNL A   1      39.885  24.729  26.520  1.00  0.00     0.188 C 
BRANCH  38  39
ATOM     39  O   UNL A   1      39.985  23.800  27.600  1.00  0.00    -0.376 OA
BRANCH  39  40
ATOM     40  C   UNL A   1      40.127  22.427  27.249  1.00  0.00     0.202 C 
BRANCH  40  41
ATOM     41  C   UNL A   1      41.548  21.864  27.405  1.00  0.00     0.261 C 
BRANCH  41  42
ATOM     42  O   UNL A   1      42.613  22.809  27.222  1.00  0.00    -0.460 OA
BRANCH  42  43
ATOM     43  C   UNL A   1      43.297  22.766  26.053  1.00  0.00     0.338 C 
ATOM     44  O   UNL A   1      42.968  22.212  25.032  1.00  0.00    -0.246 OA
BRANCH  43  45
ATOM     45  C   UNL A   1      44.434  23.704  26.175  1.00  0.00     0.060 A 
ATOM     46  C   UNL A   1      44.960  23.960  27.449  1.00  0.00     0.016 A 
ATOM     47  C   UNL A   1      44.963  24.328  25.045  1.00  0.00     0.016 A 
ATOM     48  C   UNL A   1      45.992  24.884  27.601  1.00  0.00     0.010 A 
ATOM     49  C   UNL A   1      45.977  25.273  25.201  1.00  0.00     0.010 A 
ATOM     50  C   UNL A   1      46.463  25.584  26.484  1.00  0.00    -0.014 A 
BRANCH  50  51
ATOM     51  C   UNL A   1      47.259  26.818  26.668  1.00  0.00     0.031 A 
ATOM     52  C   UNL A   1      48.758  26.684  26.642  1.00  0.00     0.074 A 
ATOM     53  C   UNL A   1      46.676  28.007  26.900  1.00  0.00     0.049 A 
ATOM     54  N   UNL A   1      49.674  27.586  26.870  1.00  0.00    -0.248 NA
ATOM     55  C   UNL A   1      49.295  25.347  26.325  1.00  0.00     0.031 C 
ATOM     56  C   UNL A   1      45.236  28.253  26.935  1.00  0.00     0.029 A 
ATOM     57  N   UNL A   1      47.235  29.227  27.185  1.00  0.00    -0.354 N 
ATOM     58  C   UNL A   1      50.889  26.920  26.763  1.00  0.00     0.074 A 
ATOM     59  C   UNL A   1      50.599  25.542  26.443  1.00  0.00     0.031 C 
ATOM     60  C   UNL A   1      45.023  29.540  27.267  1.00  0.00     0.029 A 
ATOM     61  C   UNL A   1      46.309  30.197  27.494  1.00  0.00     0.049 A 
ATOM     62  H   UNL A   1      48.205  29.393  27.171  1.00  0.00     0.167 HD
ATOM     63  C   UNL A   1      52.138  27.416  26.912  1.00  0.00     0.034 A 
ATOM     64  C   UNL A   1      46.490  31.459  27.936  1.00  0.00     0.034 A 
ATOM     65  C   UNL A   1      52.421  28.791  27.207  1.00  0.00     0.049 A 
ATOM     66  C   UNL A   1      47.898  31.978  28.108  1.00  0.00     0.074 A 
ATOM     67  C   UNL A   1      53.655  29.405  27.323  1.00  0.00     0.029 A 
ATOM     68  N   UNL A   1      51.461  29.759  27.445  1.00  0.00    -0.354 N 
ATOM     69  N   UNL A   1      49.039  31.376  27.868  1.00  0.00    -0.248 NA
ATOM     70  C   UNL A   1      48.047  33.362  28.586  1.00  0.00     0.031 C 
ATOM     71  C   UNL A   1      53.439  30.745  27.656  1.00  0.00     0.029 A 
ATOM     72  C   UNL A   1      52.071  30.967  27.720  1.00  0.00     0.049 A 
ATOM     73  H   UNL A   1      50.489  29.609  27.421  1.00  0.00     0.167 HD
ATOM     74  C   UNL A   1      50.032  32.319  28.114  1.00  0.00     0.074 A 
ATOM     75  C   UNL A   1      49.359  33.538  28.514  1.00  0.00     0.031 C 
ATOM     76  C   UNL A   1      51.379  32.189  28.033  1.00  0.00     0.034 A 
BRANCH  63  77
ATOM     77  C   UNL A   1      53.296  26.474  26.743  1.00  0.00     0.023 A 
ATOM     78  C   UNL A   1      53.651  26.030  25.454  1.00  0.00     0.012 A 
ATOM     79  C   UNL A   1      54.076  26.092  27.851  1.00  0.00     0.148 A 
ATOM     80  C   UNL A   1      54.762  25.206  25.272  1.00  0.00     0.002 A 
ATOM     81  C   UNL A   1      55.204  25.306  27.656  1.00  0.00     0.091 A 
ATOM     82  F   UNL A   1      53.700  26.506  29.069  1.00  0.00    -0.205 F 
ATOM     83  C   UNL A   1      55.544  24.856  26.369  1.00  0.00     0.022 A 
BRANCH  81  84
ATOM     84  S   UNL A   1      56.319  24.861  28.993  1.00  0.00     0.127 S 
ATOM     85  O   UNL A   1      55.389  24.701  30.111  1.00  0.00    -0.237 OA
ATOM     86  O   UNL A   1      56.902  23.613  28.501  1.00  0.00    -0.237 OA
ATOM     87  O   UNL A   1      57.257  25.966  29.120  1.00  0.00    -0.744 OA
ENDBRANCH  81  84
ENDBRANCH  63  77
BRANCH  64  88
ATOM     88  C   UNL A   1      45.317  32.338  28.221  1.00  0.00     0.023 A 
ATOM     89  C   UNL A   1      44.646  32.218  29.454  1.00  0.00     0.012 A 
ATOM     90  C   UNL A   1      44.851  33.277  27.280  1.00  0.00     0.148 A 
ATOM     91  C   UNL A   1      43.509  32.979  29.725  1.00  0.00     0.002 A 
ATOM     92  C   UNL A   1      43.753  34.078  27.581  1.00  0.00     0.091 A 
ATOM     93  F   UNL A   1      45.484  33.367  26.102  1.00  0.00    -0.205 F 
ATOM     94  C   UNL A   1      43.067  33.915  28.793  1.00  0.00     0.022 A 
BRANCH  92  95
ATOM     95  S   UNL A   1      43.198  35.397  26.495  1.00  0.00     0.127 S 
ATOM     96  O   UNL A   1      41.991  35.858  27.174  1.00  0.00    -0.237 OA
ATOM     97  O   UNL A   1      44.325  36.332  26.542  1.00  0.00    -0.237 OA
ATOM     98  O   UNL A   1      43.000  34.773  25.193  1.00  0.00    -0.744 OA
ENDBRANCH  92  95
ENDBRANCH  64  88
BRANCH  76  99
ATOM     99  C   UNL A   1      52.229  33.400  28.315  1.00  0.00     0.023 A 
ATOM    100  C   UNL A   1      52.763  33.600  29.603  1.00  0.00     0.012 A 
ATOM    101  C   UNL A   1      52.594  34.273  27.270  1.00  0.00     0.148 A 
ATOM    102  C   UNL A   1      53.628  34.664  29.852  1.00  0.00     0.002 A 
ATOM    103  C   UNL A   1      53.495  35.302  27.515  1.00  0.00     0.091 A 
ATOM    104  F   UNL A   1      52.064  34.072  26.054  1.00  0.00    -0.205 F 
ATOM    105  C   UNL A   1      54.005  35.504  28.807  1.00  0.00     0.022 A 
BRANCH 103 106
ATOM    106  S   UNL A   1      54.117  36.366  26.207  1.00  0.00     0.127 S 
ATOM    107  O   UNL A   1      55.005  37.259  26.948  1.00  0.00    -0.237 OA
ATOM    108  O   UNL A   1      54.801  35.413  25.330  1.00  0.00    -0.237 OA
ATOM    109  O   UNL A   1      52.947  36.997  25.613  1.00  0.00    -0.744 OA
ENDBRANCH 103 106
ENDBRANCH  76  99
ENDBRANCH  50  51
ENDBRANCH  43  45
ENDBRANCH  42  43
ENDBRANCH  41  42
ENDBRANCH  40  41
ENDBRANCH  39  40
ENDBRANCH  38  39
ENDBRANCH  37  38
ENDBRANCH  36  37
ENDBRANCH   1  36
TORSDOF 27
ENDMDL
MODEL 2
REMARK VINA RESULT:      -7.6      5.629     10.417
REMARK SMILES C[C@H](C(=O)Nc1ccc(C(F)(F)F)cc1)n1nc(C(=O)OCCOCCOCCOCCOC(=O)c2ccc(-c3c4nc(c(-c5cccc(S(=O)(=O)[O-])c5F)c5ccc([nH]5)c(-c5cccc(S(=O)(=O)[O-])c5F)c5nc(c(-c6cccc(S(=O)(=O)[O-])c6F)c6ccc3[nH]6)C=C5)C=C4)cc2)c2ccccc2c1=O
REMARK SMILES IDX 26 1 25 2 24 3 23 4 22 5 21 6 19 7 20 8 18 9 16 10 17 11
REMARK SMILES IDX 105 12 104 13 106 14 99 15 103 16 100 17 102 18 101 19 2 20
REMARK SMILES IDX 1 21 3 22 4 23 5 24 6 26 7 27 15 28 8 29 14 30 9 31 10 32
REMARK SMILES IDX 11 33 12 34 13 35 27 36 28 37 29 38 30 39 31 40 32 41 33 42
REMARK SMILES IDX 34 43 35 44 36 45 37 46 98 47 38 48 97 49 39 50 40 51 41 52
REMARK SMILES IDX 91 53 42 54 96 55 90 56 92 57 43 58 95 59 89 60 88 61 44 63
REMARK SMILES IDX 76 64 56 65 75 66 57 67 60 68 74 69 93 70 58 71 59 72 73 74
REMARK SMILES IDX 94 75 61 76 45 77 46 78 54 79 47 80 49 81 55 82 48 83 50 84
REMARK SMILES IDX 51 85 52 86 53 87 77 88 78 89 86 90 79 91 81 92 87 93 80 94
REMARK SMILES IDX 82 95 83 96 84 97 85 98 62 99 63 100 71 101 64 102 66 103
REMARK SMILES IDX 72 104 65 105 67 106 68 107 69 108 70 109
REMARK H PARENT 5 25 92 62 60 73
REMARK Flexibility Score: inf
ROOT
ATOM      1  C   UNL A   1      43.908  24.485  29.069  1.00  0.00     0.188 C 
ENDROOT
BRANCH   1   2
ATOM      2  C   UNL A   1      44.012  25.897  28.456  1.00  0.00     0.188 C 
BRANCH   2   3
ATOM      3  O   UNL A   1      42.963  26.852  28.571  1.00  0.00    -0.376 OA
BRANCH   3   4
ATOM      4  C   UNL A   1      41.739  26.535  29.225  1.00  0.00     0.202 C 
BRANCH   4   5
ATOM      5  C   UNL A   1      40.414  26.617  28.462  1.00  0.00     0.261 C 
BRANCH   5   6
ATOM      6  O   UNL A   1      39.834  25.345  28.162  1.00  0.00    -0.458 OA
BRANCH   6   7
ATOM      7  C   UNL A   1      39.773  25.022  26.861  1.00  0.00     0.359 C 
ATOM      8  O   UNL A   1      40.351  25.565  25.934  1.00  0.00    -0.244 OA
BRANCH   7   9
ATOM      9  C   UNL A   1      38.867  23.820  26.625  1.00  0.00     0.176 A 
ATOM     10  N   UNL A   1      36.930  23.022  25.656  1.00  0.00    -0.216 N 
ATOM     11  N   UNL A   1      37.655  24.045  26.228  1.00  0.00    -0.161 NA
ATOM     12  C   UNL A   1      37.518  21.806  25.295  1.00  0.00     0.275 A 
ATOM     13  C   UNL A   1      38.850  21.530  25.881  1.00  0.00     0.051 A 
ATOM     14  O   UNL A   1      37.001  20.934  24.609  1.00  0.00    -0.267 OA
ATOM     15  C   UNL A   1      39.426  22.474  26.713  1.00  0.00     0.022 A 
ATOM     16  C   UNL A   1      39.481  20.295  25.710  1.00  0.00     0.014 A 
ATOM     17  C   UNL A   1      40.494  22.129  27.547  1.00  0.00     0.011 A 
ATOM     18  C   UNL A   1      40.601  19.972  26.481  1.00  0.00     0.001 A 
ATOM     19  C   UNL A   1      41.068  20.865  27.443  1.00  0.00     0.001 A 
BRANCH  10  20
ATOM     20  C   UNL A   1      35.504  23.334  25.397  1.00  0.00     0.197 C 
ATOM     21  C   UNL A   1      35.315  24.816  25.053  1.00  0.00     0.044 C 
BRANCH  20  22
ATOM     22  C   UNL A   1      34.560  22.902  26.533  1.00  0.00     0.249 C 
ATOM     23  O   UNL A   1      34.465  23.569  27.573  1.00  0.00    -0.272 OA
ATOM     24  N   UNL A   1      33.751  21.800  26.452  1.00  0.00    -0.324 N 
ATOM     25  H   UNL A   1      33.160  21.706  27.234  1.00  0.00     0.170 HD
BRANCH  24  26
ATOM     26  C   UNL A   1      33.571  20.775  25.509  1.00  0.00     0.041 A 
ATOM     27  C   UNL A   1      34.334  19.616  25.672  1.00  0.00     0.027 A 
ATOM     28  C   UNL A   1      32.715  20.833  24.418  1.00  0.00     0.027 A 
ATOM     29  C   UNL A   1      34.173  18.519  24.814  1.00  0.00     0.015 A 
ATOM     30  C   UNL A   1      32.548  19.748  23.552  1.00  0.00     0.015 A 
ATOM     31  C   UNL A   1      33.264  18.567  23.752  1.00  0.00     0.056 A 
BRANCH  31  32
ATOM     32  C   UNL A   1      33.068  17.383  22.844  1.00  0.00     0.416 C 
ATOM     33  F   UNL A   1      32.197  17.648  21.828  1.00  0.00    -0.166 F 
ATOM     34  F   UNL A   1      34.211  16.938  22.261  1.00  0.00    -0.166 F 
ATOM     35  F   UNL A   1      32.539  16.299  23.488  1.00  0.00    -0.166 F 
ENDBRANCH  31  32
ENDBRANCH  24  26
ENDBRANCH  20  22
ENDBRANCH  10  20
ENDBRANCH   7   9
ENDBRANCH   6   7
ENDBRANCH   5   6
ENDBRANCH   4   5
ENDBRANCH   3   4
ENDBRANCH   2   3
ENDBRANCH   1   2
BRANCH   1  36
ATOM     36  O   UNL A   1      43.708  23.465  28.114  1.00  0.00    -0.377 OA
BRANCH  36  37
ATOM     37  C   UNL A   1      43.150  23.886  26.874  1.00  0.00     0.188 C 
BRANCH  37  38
ATOM     38  C   UNL A   1      43.656  23.168  25.606  1.00  0.00     0.188 C 
BRANCH  38  39
ATOM     39  O   UNL A   1      44.650  22.179  25.876  1.00  0.00    -0.376 OA
BRANCH  39  40
ATOM     40  C   UNL A   1      46.003  22.555  25.645  1.00  0.00     0.202 C 
BRANCH  40  41
ATOM     41  C   UNL A   1      46.186  23.893  24.912  1.00  0.00     0.261 C 
BRANCH  41  42
ATOM     42  O   UNL A   1      46.765  24.952  25.689  1.00  0.00    -0.460 OA
BRANCH  42  43
ATOM     43  C   UNL A   1      47.021  26.125  25.060  1.00  0.00     0.338 C 
ATOM     44  O   UNL A   1      47.450  26.278  23.943  1.00  0.00    -0.246 OA
BRANCH  43  45
ATOM     45  C   UNL A   1      46.479  27.205  25.912  1.00  0.00     0.060 A 
ATOM     46  C   UNL A   1      45.337  27.894  25.478  1.00  0.00     0.016 A 
ATOM     47  C   UNL A   1      47.100  27.539  27.116  1.00  0.00     0.016 A 
ATOM     48  C   UNL A   1      44.839  28.956  26.231  1.00  0.00     0.010 A 
ATOM     49  C   UNL A   1      46.617  28.619  27.855  1.00  0.00     0.010 A 
ATOM     50  C   UNL A   1      45.513  29.356  27.391  1.00  0.00    -0.014 A 
BRANCH  50  51
ATOM     51  C   UNL A   1      45.244  30.688  27.978  1.00  0.00     0.031 A 
ATOM     52  C   UNL A   1      46.179  31.808  27.609  1.00  0.00     0.074 A 
ATOM     53  C   UNL A   1      44.237  30.887  28.846  1.00  0.00     0.049 A 
ATOM     54  N   UNL A   1      46.220  33.034  28.055  1.00  0.00    -0.248 NA
ATOM     55  C   UNL A   1      47.216  31.497  26.607  1.00  0.00     0.031 C 
ATOM     56  C   UNL A   1      43.265  29.879  29.264  1.00  0.00     0.029 A 
ATOM     57  N   UNL A   1      43.890  32.007  29.558  1.00  0.00    -0.354 N 
ATOM     58  C   UNL A   1      47.304  33.627  27.420  1.00  0.00     0.074 A 
ATOM     59  C   UNL A   1      47.893  32.634  26.553  1.00  0.00     0.031 C 
ATOM     60  C   UNL A   1      42.454  30.416  30.194  1.00  0.00     0.029 A 
ATOM     61  C   UNL A   1      42.868  31.794  30.454  1.00  0.00     0.049 A 
ATOM     62  H   UNL A   1      44.330  32.880  29.440  1.00  0.00     0.167 HD
ATOM     63  C   UNL A   1      47.765  34.892  27.545  1.00  0.00     0.034 A 
ATOM     64  C   UNL A   1      42.352  32.615  31.394  1.00  0.00     0.034 A 
ATOM     65  C   UNL A   1      47.163  35.882  28.390  1.00  0.00     0.049 A 
ATOM     66  C   UNL A   1      42.901  34.017  31.519  1.00  0.00     0.074 A 
ATOM     67  C   UNL A   1      47.521  37.209  28.545  1.00  0.00     0.029 A 
ATOM     68  N   UNL A   1      46.088  35.651  29.232  1.00  0.00    -0.354 N 
ATOM     69  N   UNL A   1      43.837  34.608  30.813  1.00  0.00    -0.248 NA
ATOM     70  C   UNL A   1      42.303  34.878  32.551  1.00  0.00     0.031 C 
ATOM     71  C   UNL A   1      46.673  37.775  29.502  1.00  0.00     0.029 A 
ATOM     72  C   UNL A   1      45.774  36.806  29.920  1.00  0.00     0.049 A 
ATOM     73  H   UNL A   1      45.617  34.791  29.325  1.00  0.00     0.167 HD
ATOM     74  C   UNL A   1      43.902  35.917  31.280  1.00  0.00     0.074 A 
ATOM     75  C   UNL A   1      42.905  36.038  32.323  1.00  0.00     0.031 C 
ATOM     76  C   UNL A   1      44.721  36.926  30.894  1.00  0.00     0.034 A 
BRANCH  63  77
ATOM     77  C   UNL A   1      48.970  35.287  26.738  1.00  0.00     0.023 A 
ATOM     78  C   UNL A   1      48.798  35.841  25.455  1.00  0.00     0.012 A 
ATOM     79  C   UNL A   1      50.263  35.180  27.283  1.00  0.00     0.148 A 
ATOM     80  C   UNL A   1      49.901  36.272  24.718  1.00  0.00     0.002 A 
ATOM     81  C   UNL A   1      51.352  35.648  26.561  1.00  0.00     0.091 A 
ATOM     82  F   UNL A   1      50.401  34.623  28.495  1.00  0.00    -0.205 F 
ATOM     83  C   UNL A   1      51.174  36.188  25.276  1.00  0.00     0.022 A 
BRANCH  81  84
ATOM     84  S   UNL A   1      53.024  35.653  27.219  1.00  0.00     0.127 S 
ATOM     85  O   UNL A   1      52.898  36.586  28.338  1.00  0.00    -0.237 OA
ATOM     86  O   UNL A   1      53.202  34.254  27.608  1.00  0.00    -0.237 OA
ATOM     87  O   UNL A   1      53.883  36.099  26.132  1.00  0.00    -0.744 OA
ENDBRANCH  81  84
ENDBRANCH  63  77
BRANCH  64  88
ATOM     88  C   UNL A   1      41.237  32.154  32.273  1.00  0.00     0.023 A 
ATOM     89  C   UNL A   1      39.912  32.214  31.798  1.00  0.00     0.012 A 
ATOM     90  C   UNL A   1      41.473  31.675  33.577  1.00  0.00     0.148 A 
ATOM     91  C   UNL A   1      38.843  31.851  32.617  1.00  0.00     0.002 A 
ATOM     92  C   UNL A   1      40.406  31.256  34.368  1.00  0.00     0.091 A 
ATOM     93  F   UNL A   1      42.735  31.644  34.026  1.00  0.00    -0.205 F 
ATOM     94  C   UNL A   1      39.090  31.365  33.898  1.00  0.00     0.022 A 
BRANCH  92  95
ATOM     95  S   UNL A   1      40.645  30.494  35.977  1.00  0.00     0.127 S 
ATOM     96  O   UNL A   1      41.001  31.643  36.804  1.00  0.00    -0.237 OA
ATOM     97  O   UNL A   1      39.324  29.925  36.250  1.00  0.00    -0.237 OA
ATOM     98  O   UNL A   1      41.691  29.498  35.785  1.00  0.00    -0.744 OA
ENDBRANCH  92  95
ENDBRANCH  64  88
BRANCH  76  99
ATOM     99  C   UNL A   1      44.546  38.273  31.544  1.00  0.00     0.023 A 
ATOM    100  C   UNL A   1      45.286  38.599  32.697  1.00  0.00     0.012 A 
ATOM    101  C   UNL A   1      43.735  39.256  30.939  1.00  0.00     0.148 A 
ATOM    102  C   UNL A   1      45.203  39.875  33.252  1.00  0.00     0.002 A 
ATOM    103  C   UNL A   1      43.697  40.539  31.469  1.00  0.00     0.091 A 
ATOM    104  F   UNL A   1      43.030  38.920  29.849  1.00  0.00    -0.205 F 
ATOM    105  C   UNL A   1      44.423  40.848  32.631  1.00  0.00     0.022 A 
BRANCH 103 106
ATOM    106  S   UNL A   1      42.803  41.881  30.675  1.00  0.00     0.127 S 
ATOM    107  O   UNL A   1      41.466  41.307  30.541  1.00  0.00    -0.237 OA
ATOM    108  O   UNL A   1      42.911  42.954  31.664  1.00  0.00    -0.237 OA
ATOM    109  O   UNL A   1      43.501  42.143  29.424  1.00  0.00    -0.744 OA
ENDBRANCH 103 106
ENDBRANCH  76  99
ENDBRANCH  50  51
ENDBRANCH  43  45
ENDBRANCH  42  43
ENDBRANCH  41  42
ENDBRANCH  40  41
ENDBRANCH  39  40
ENDBRANCH  38  39
ENDBRANCH  37  38
ENDBRANCH  36  37
ENDBRANCH   1  36
TORSDOF 27
ENDMDL
MODEL 3
REMARK VINA RESULT:      -7.3      5.892      8.499
REMARK SMILES C[C@H](C(=O)Nc1ccc(C(F)(F)F)cc1)n1nc(C(=O)OCCOCCOCCOCCOC(=O)c2ccc(-c3c4nc(c(-c5cccc(S(=O)(=O)[O-])c5F)c5ccc([nH]5)c(-c5cccc(S(=O)(=O)[O-])c5F)c5nc(c(-c6cccc(S(=O)(=O)[O-])c6F)c6ccc3[nH]6)C=C5)C=C4)cc2)c2ccccc2c1=O
REMARK SMILES IDX 26 1 25 2 24 3 23 4 22 5 21 6 19 7 20 8 18 9 16 10 17 11
REMARK SMILES IDX 105 12 104 13 106 14 99 15 103 16 100 17 102 18 101 19 2 20
REMARK SMILES IDX 1 21 3 22 4 23 5 24 6 26 7 27 15 28 8 29 14 30 9 31 10 32
REMARK SMILES IDX 11 33 12 34 13 35 27 36 28 37 29 38 30 39 31 40 32 41 33 42
REMARK SMILES IDX 34 43 35 44 36 45 37 46 98 47 38 48 97 49 39 50 40 51 41 52
REMARK SMILES IDX 91 53 42 54 96 55 90 56 92 57 43 58 95 59 89 60 88 61 44 63
REMARK SMILES IDX 76 64 56 65 75 66 57 67 60 68 74 69 93 70 58 71 59 72 73 74
REMARK SMILES IDX 94 75 61 76 45 77 46 78 54 79 47 80 49 81 55 82 48 83 50 84
REMARK SMILES IDX 51 85 52 86 53 87 77 88 78 89 86 90 79 91 81 92 87 93 80 94
REMARK SMILES IDX 82 95 83 96 84 97 85 98 62 99 63 100 71 101 64 102 66 103
REMARK SMILES IDX 72 104 65 105 67 106 68 107 69 108 70 109
REMARK H PARENT 5 25 92 62 60 73
REMARK Flexibility Score: inf
ROOT
ATOM      1  C   UNL A   1      41.828  28.459  27.975  1.00  0.00     0.188 C 
ENDROOT
BRANCH   1   2
ATOM      2  C   UNL A   1      40.744  29.360  28.605  1.00  0.00     0.188 C 
BRANCH   2   3
ATOM      3  O   UNL A   1      39.364  29.218  28.288  1.00  0.00    -0.376 OA
BRANCH   3   4
ATOM      4  C   UNL A   1      38.347  29.621  29.199  1.00  0.00     0.202 C 
BRANCH   4   5
ATOM      5  C   UNL A   1      38.181  28.896  30.538  1.00  0.00     0.261 C 
BRANCH   5   6
ATOM      6  O   UNL A   1      38.576  29.671  31.674  1.00  0.00    -0.458 OA
BRANCH   6   7
ATOM      7  C   UNL A   1      37.786  29.570  32.754  1.00  0.00     0.359 C 
ATOM      8  O   UNL A   1      37.310  28.554  33.233  1.00  0.00    -0.244 OA
BRANCH   7   9
ATOM      9  C   UNL A   1      37.528  30.932  33.388  1.00  0.00     0.176 A 
ATOM     10  N   UNL A   1      38.282  32.559  34.840  1.00  0.00    -0.216 N 
ATOM     11  N   UNL A   1      38.199  31.240  34.452  1.00  0.00    -0.161 NA
ATOM     12  C   UNL A   1      37.847  33.604  34.019  1.00  0.00     0.275 A 
ATOM     13  C   UNL A   1      36.969  33.219  32.889  1.00  0.00     0.051 A 
ATOM     14  O   UNL A   1      38.065  34.796  34.197  1.00  0.00    -0.267 OA
ATOM     15  C   UNL A   1      36.656  31.884  32.707  1.00  0.00     0.022 A 
ATOM     16  C   UNL A   1      36.358  34.181  32.080  1.00  0.00     0.014 A 
ATOM     17  C   UNL A   1      35.584  31.510  31.891  1.00  0.00     0.011 A 
ATOM     18  C   UNL A   1      35.341  33.804  31.198  1.00  0.00     0.001 A 
ATOM     19  C   UNL A   1      34.913  32.479  31.150  1.00  0.00     0.001 A 
BRANCH  10  20
ATOM     20  C   UNL A   1      38.921  32.786  36.158  1.00  0.00     0.197 C 
ATOM     21  C   UNL A   1      38.053  33.682  37.048  1.00  0.00     0.044 C 
BRANCH  20  22
ATOM     22  C   UNL A   1      40.361  33.323  36.063  1.00  0.00     0.249 C 
ATOM     23  O   UNL A   1      40.598  34.535  36.162  1.00  0.00    -0.272 OA
ATOM     24  N   UNL A   1      41.452  32.511  35.909  1.00  0.00    -0.324 N 
ATOM     25  H   UNL A   1      42.302  33.007  35.937  1.00  0.00     0.170 HD
BRANCH  24  26
ATOM     26  C   UNL A   1      41.636  31.131  35.721  1.00  0.00     0.041 A 
ATOM     27  C   UNL A   1      41.086  30.564  34.568  1.00  0.00     0.027 A 
ATOM     28  C   UNL A   1      42.299  30.285  36.599  1.00  0.00     0.027 A 
ATOM     29  C   UNL A   1      41.274  29.208  34.269  1.00  0.00     0.015 A 
ATOM     30  C   UNL A   1      42.490  28.929  36.316  1.00  0.00     0.015 A 
ATOM     31  C   UNL A   1      41.995  28.377  35.134  1.00  0.00     0.056 A 
BRANCH  31  32
ATOM     32  C   UNL A   1      42.223  26.926  34.805  1.00  0.00     0.416 C 
ATOM     33  F   UNL A   1      43.077  26.324  35.683  1.00  0.00    -0.166 F 
ATOM     34  F   UNL A   1      41.091  26.176  34.798  1.00  0.00    -0.166 F 
ATOM     35  F   UNL A   1      42.793  26.741  33.576  1.00  0.00    -0.166 F 
ENDBRANCH  31  32
ENDBRANCH  24  26
ENDBRANCH  20  22
ENDBRANCH  10  20
ENDBRANCH   7   9
ENDBRANCH   6   7
ENDBRANCH   5   6
ENDBRANCH   4   5
ENDBRANCH   3   4
ENDBRANCH   2   3
ENDBRANCH   1   2
BRANCH   1  36
ATOM     36  O   UNL A   1      42.446  29.025  26.839  1.00  0.00    -0.377 OA
BRANCH  36  37
ATOM     37  C   UNL A   1      42.151  28.390  25.599  1.00  0.00     0.188 C 
BRANCH  37  38
ATOM     38  C   UNL A   1      41.833  26.882  25.651  1.00  0.00     0.188 C 
BRANCH  38  39
ATOM     39  O   UNL A   1      42.775  26.082  24.935  1.00  0.00    -0.376 OA
BRANCH  39  40
ATOM     40  C   UNL A   1      42.924  24.733  25.364  1.00  0.00     0.202 C 
BRANCH  40  41
ATOM     41  C   UNL A   1      42.114  24.361  26.616  1.00  0.00     0.261 C 
BRANCH  41  42
ATOM     42  O   UNL A   1      42.612  23.244  27.367  1.00  0.00    -0.460 OA
BRANCH  42  43
ATOM     43  C   UNL A   1      43.956  23.070  27.418  1.00  0.00     0.338 C 
ATOM     44  O   UNL A   1      44.660  22.565  26.578  1.00  0.00    -0.246 OA
BRANCH  43  45
ATOM     45  C   UNL A   1      44.448  23.805  28.602  1.00  0.00     0.060 A 
ATOM     46  C   UNL A   1      43.742  23.689  29.807  1.00  0.00     0.016 A 
ATOM     47  C   UNL A   1      45.588  24.606  28.516  1.00  0.00     0.016 A 
ATOM     48  C   UNL A   1      44.149  24.418  30.924  1.00  0.00     0.010 A 
ATOM     49  C   UNL A   1      45.979  25.355  29.625  1.00  0.00     0.010 A 
ATOM     50  C   UNL A   1      45.234  25.295  30.817  1.00  0.00    -0.014 A 
BRANCH  50  51
ATOM     51  C   UNL A   1      45.438  26.344  31.842  1.00  0.00     0.031 A 
ATOM     52  C   UNL A   1      45.845  25.895  33.220  1.00  0.00     0.074 A 
ATOM     53  C   UNL A   1      45.221  27.644  31.575  1.00  0.00     0.049 A 
ATOM     54  N   UNL A   1      45.994  26.598  34.310  1.00  0.00    -0.248 NA
ATOM     55  C   UNL A   1      46.110  24.454  33.392  1.00  0.00     0.031 C 
ATOM     56  C   UNL A   1      44.837  28.191  30.276  1.00  0.00     0.029 A 
ATOM     57  N   UNL A   1      45.263  28.737  32.404  1.00  0.00    -0.354 N 
ATOM     58  C   UNL A   1      46.331  25.684  35.301  1.00  0.00     0.074 A 
ATOM     59  C   UNL A   1      46.373  24.377  34.687  1.00  0.00     0.031 C 
ATOM     60  C   UNL A   1      44.637  29.516  30.404  1.00  0.00     0.029 A 
ATOM     61  C   UNL A   1      44.852  29.901  31.798  1.00  0.00     0.049 A 
ATOM     62  H   UNL A   1      45.558  28.692  33.342  1.00  0.00     0.167 HD
ATOM     63  C   UNL A   1      46.589  25.915  36.608  1.00  0.00     0.034 A 
ATOM     64  C   UNL A   1      44.649  31.128  32.323  1.00  0.00     0.034 A 
ATOM     65  C   UNL A   1      46.569  27.218  37.208  1.00  0.00     0.049 A 
ATOM     66  C   UNL A   1      44.931  31.350  33.791  1.00  0.00     0.074 A 
ATOM     67  C   UNL A   1      46.870  27.565  38.512  1.00  0.00     0.029 A 
ATOM     68  N   UNL A   1      46.216  28.383  36.549  1.00  0.00    -0.354 N 
ATOM     69  N   UNL A   1      45.384  30.503  34.686  1.00  0.00    -0.248 NA
ATOM     70  C   UNL A   1      44.702  32.704  34.318  1.00  0.00     0.031 C 
ATOM     71  C   UNL A   1      46.676  28.942  38.647  1.00  0.00     0.029 A 
ATOM     72  C   UNL A   1      46.279  29.452  37.420  1.00  0.00     0.049 A 
ATOM     73  H   UNL A   1      45.959  28.440  35.600  1.00  0.00     0.167 HD
ATOM     74  C   UNL A   1      45.541  31.231  35.860  1.00  0.00     0.074 A 
ATOM     75  C   UNL A   1      45.145  32.593  35.563  1.00  0.00     0.031 C 
ATOM     76  C   UNL A   1      45.961  30.814  37.080  1.00  0.00     0.034 A 
BRANCH  63  77
ATOM     77  C   UNL A   1      46.932  24.739  37.478  1.00  0.00     0.023 A 
ATOM     78  C   UNL A   1      45.912  24.070  38.182  1.00  0.00     0.012 A 
ATOM     79  C   UNL A   1      48.252  24.252  37.534  1.00  0.00     0.148 A 
ATOM     80  C   UNL A   1      46.204  22.938  38.942  1.00  0.00     0.002 A 
ATOM     81  C   UNL A   1      48.527  23.101  38.260  1.00  0.00     0.091 A 
ATOM     82  F   UNL A   1      49.209  24.923  36.877  1.00  0.00    -0.205 F 
ATOM     83  C   UNL A   1      47.507  22.447  38.971  1.00  0.00     0.022 A 
BRANCH  81  84
ATOM     84  S   UNL A   1      50.157  22.346  38.301  1.00  0.00     0.127 S 
ATOM     85  O   UNL A   1      50.895  23.283  39.148  1.00  0.00    -0.237 OA
ATOM     86  O   UNL A   1      49.878  21.051  38.921  1.00  0.00    -0.237 OA
ATOM     87  O   UNL A   1      50.604  22.277  36.917  1.00  0.00    -0.744 OA
ENDBRANCH  81  84
ENDBRANCH  63  77
BRANCH  64  88
ATOM     88  C   UNL A   1      44.183  32.254  31.461  1.00  0.00     0.023 A 
ATOM     89  C   UNL A   1      45.124  32.985  30.710  1.00  0.00     0.012 A 
ATOM     90  C   UNL A   1      42.823  32.618  31.390  1.00  0.00     0.148 A 
ATOM     91  C   UNL A   1      44.729  34.083  29.944  1.00  0.00     0.002 A 
ATOM     92  C   UNL A   1      42.428  33.676  30.576  1.00  0.00     0.091 A 
ATOM     93  F   UNL A   1      41.940  31.930  32.127  1.00  0.00    -0.205 F 
ATOM     94  C   UNL A   1      43.381  34.423  29.871  1.00  0.00     0.022 A 
BRANCH  92  95
ATOM     95  S   UNL A   1      40.700  34.097  30.320  1.00  0.00     0.127 S 
ATOM     96  O   UNL A   1      40.122  32.800  29.978  1.00  0.00    -0.237 OA
ATOM     97  O   UNL A   1      40.309  34.618  31.632  1.00  0.00    -0.237 OA
ATOM     98  O   UNL A   1      40.696  35.097  29.261  1.00  0.00    -0.744 OA
ENDBRANCH  92  95
ENDBRANCH  64  88
BRANCH  76  99
ATOM     99  C   UNL A   1      46.082  31.836  38.179  1.00  0.00     0.023 A 
ATOM    100  C   UNL A   1      47.239  32.634  38.273  1.00  0.00     0.012 A 
ATOM    101  C   UNL A   1      44.997  32.084  39.045  1.00  0.00     0.148 A 
ATOM    102  C   UNL A   1      47.323  33.646  39.227  1.00  0.00     0.002 A 
ATOM    103  C   UNL A   1      45.069  33.127  39.960  1.00  0.00     0.091 A 
ATOM    104  F   UNL A   1      43.910  31.304  38.946  1.00  0.00    -0.205 F 
ATOM    105  C   UNL A   1      46.235  33.903  40.059  1.00  0.00     0.022 A 
BRANCH 103 106
ATOM    106  S   UNL A   1      43.677  33.595  40.995  1.00  0.00     0.127 S 
ATOM    107  O   UNL A   1      42.623  33.793  40.004  1.00  0.00    -0.237 OA
ATOM    108  O   UNL A   1      43.508  32.412  41.840  1.00  0.00    -0.237 OA
ATOM    109  O   UNL A   1      44.095  34.792  41.713  1.00  0.00    -0.744 OA
ENDBRANCH 103 106
ENDBRANCH  76  99
ENDBRANCH  50  51
ENDBRANCH  43  45
ENDBRANCH  42  43
ENDBRANCH  41  42
ENDBRANCH  40  41
ENDBRANCH  39  40
ENDBRANCH  38  39
ENDBRANCH  37  38
ENDBRANCH  36  37
ENDBRANCH   1  36
TORSDOF 27
ENDMDL
