MODEL 1
REMARK VINA RESULT:     -10.2      0.000      0.000
REMARK SMILES Cc1noc(-c2ccc(CCl)cc2)c1C(=O)OCCOCCOCCOCCOC(=O)c1ccc(-c2c3nc(c(-c4cccc(S(=O)(=O)[O-])c4F)c4ccc([nH]4)c(-c4cccc(S(=O)(=O)[O-])c4F)c4nc(c(-c5cccc(S(=O)(=O)[O-])c5F)c5ccc2[nH]5)C=C4)C=C3)cc1
REMARK SMILES IDX 24 1 23 2 22 3 21 4 20 5 19 6 18 7 17 8 15 9 16 10 14 11
REMARK SMILES IDX 1 12 2 13 3 14 4 15 5 16 6 17 7 18 13 19 8 20 12 21 9 22
REMARK SMILES IDX 10 23 11 24 25 25 26 26 27 27 28 28 29 29 30 30 31 31 32 32
REMARK SMILES IDX 33 33 94 34 34 35 93 36 35 37 36 38 37 39 87 40 38 41 92 42
REMARK SMILES IDX 86 43 88 44 39 45 91 46 85 47 84 48 40 50 72 51 52 52 71 53
REMARK SMILES IDX 53 54 56 55 70 56 89 57 54 58 55 59 69 61 90 62 57 63 41 64
REMARK SMILES IDX 42 65 50 66 43 67 45 68 51 69 44 70 46 71 47 72 48 73 49 74
REMARK SMILES IDX 73 75 74 76 82 77 75 78 77 79 83 80 76 81 78 82 79 83 80 84
REMARK SMILES IDX 81 85 58 86 59 87 67 88 60 89 62 90 68 91 61 92 63 93 64 94
REMARK SMILES IDX 65 95 66 96
REMARK H PARENT 88 49 56 60
REMARK Flexibility Score: inf
ROOT
ATOM      1  C   UNL A   1      29.149  30.698  23.418  1.00  0.00     0.188 C 
ENDROOT
BRANCH   1   2
ATOM      2  O   UNL A   1      29.722  29.513  22.885  1.00  0.00    -0.377 OA
BRANCH   2   3
ATOM      3  C   UNL A   1      29.454  28.269  23.497  1.00  0.00     0.188 C 
BRANCH   3   4
ATOM      4  C   UNL A   1      30.330  27.074  23.095  1.00  0.00     0.188 C 
BRANCH   4   5
ATOM      5  O   UNL A   1      31.657  27.435  22.715  1.00  0.00    -0.376 OA
BRANCH   5   6
ATOM      6  C   UNL A   1      32.342  26.470  21.924  1.00  0.00     0.202 C 
BRANCH   6   7
ATOM      7  C   UNL A   1      33.659  26.004  22.552  1.00  0.00     0.261 C 
BRANCH   7   8
ATOM      8  O   UNL A   1      33.837  26.395  23.922  1.00  0.00    -0.459 OA
BRANCH   8   9
ATOM      9  C   UNL A   1      33.914  25.422  24.864  1.00  0.00     0.344 C 
ATOM     10  O   UNL A   1      34.958  24.900  25.237  1.00  0.00    -0.246 OA
BRANCH   9  11
ATOM     11  C   UNL A   1      32.628  25.155  25.461  1.00  0.00     0.130 A 
ATOM     12  C   UNL A   1      32.008  27.372  26.740  1.00  0.00     0.071 C 
ATOM     13  C   UNL A   1      31.798  25.975  26.278  1.00  0.00     0.096 A 
ATOM     14  N   UNL A   1      30.695  25.317  26.664  1.00  0.00    -0.084 NA
ATOM     15  O   UNL A   1      30.840  24.028  26.193  1.00  0.00    -0.355 OA
ATOM     16  C   UNL A   1      32.004  23.925  25.500  1.00  0.00     0.181 A 
BRANCH  16  17
ATOM     17  C   UNL A   1      32.391  22.573  25.146  1.00  0.00     0.021 A 
ATOM     18  C   UNL A   1      33.169  21.786  25.996  1.00  0.00     0.012 A 
ATOM     19  C   UNL A   1      31.938  22.026  23.936  1.00  0.00     0.012 A 
ATOM     20  C   UNL A   1      33.470  20.464  25.651  1.00  0.00     0.006 A 
ATOM     21  C   UNL A   1      32.220  20.702  23.600  1.00  0.00     0.006 A 
ATOM     22  C   UNL A   1      32.978  19.901  24.462  1.00  0.00    -0.033 A 
BRANCH  22  23
ATOM     23  C   UNL A   1      33.271  18.470  24.110  1.00  0.00     0.145 C 
ATOM     24  Cl  UNL A   1      32.610  18.064  22.514  1.00  0.00    -0.122 Cl
ENDBRANCH  22  23
ENDBRANCH  16  17
ENDBRANCH   9  11
ENDBRANCH   8   9
ENDBRANCH   7   8
ENDBRANCH   6   7
ENDBRANCH   5   6
ENDBRANCH   4   5
ENDBRANCH   3   4
ENDBRANCH   2   3
ENDBRANCH   1   2
BRANCH   1  25
ATOM     25  C   UNL A   1      29.873  31.503  24.512  1.00  0.00     0.188 C 
BRANCH  25  26
ATOM     26  O   UNL A   1      31.047  30.884  25.036  1.00  0.00    -0.376 OA
BRANCH  26  27
ATOM     27  C   UNL A   1      31.324  31.131  26.409  1.00  0.00     0.202 C 
BRANCH  27  28
ATOM     28  C   UNL A   1      31.611  32.605  26.713  1.00  0.00     0.261 C 
BRANCH  28  29
ATOM     29  O   UNL A   1      33.006  32.934  26.765  1.00  0.00    -0.460 OA
BRANCH  29  30
ATOM     30  C   UNL A   1      33.461  33.465  27.922  1.00  0.00     0.338 C 
ATOM     31  O   UNL A   1      32.914  34.302  28.616  1.00  0.00    -0.246 OA
BRANCH  30  32
ATOM     32  C   UNL A   1      34.672  32.723  28.309  1.00  0.00     0.060 A 
ATOM     33  C   UNL A   1      34.543  31.382  28.689  1.00  0.00     0.016 A 
ATOM     34  C   UNL A   1      35.922  33.347  28.289  1.00  0.00     0.016 A 
ATOM     35  C   UNL A   1      35.670  30.670  29.098  1.00  0.00     0.010 A 
ATOM     36  C   UNL A   1      37.045  32.639  28.712  1.00  0.00     0.010 A 
ATOM     37  C   UNL A   1      36.916  31.311  29.152  1.00  0.00    -0.014 A 
BRANCH  37  38
ATOM     38  C   UNL A   1      38.045  30.671  29.859  1.00  0.00     0.031 A 
ATOM     39  C   UNL A   1      38.316  31.087  31.278  1.00  0.00     0.074 A 
ATOM     40  C   UNL A   1      38.838  29.777  29.243  1.00  0.00     0.049 A 
ATOM     41  N   UNL A   1      39.250  30.680  32.095  1.00  0.00    -0.248 NA
ATOM     42  C   UNL A   1      37.414  32.102  31.850  1.00  0.00     0.031 C 
ATOM     43  C   UNL A   1      38.684  29.318  27.864  1.00  0.00     0.029 A 
ATOM     44  N   UNL A   1      39.951  29.120  29.698  1.00  0.00    -0.354 N 
ATOM     45  C   UNL A   1      39.057  31.395  33.270  1.00  0.00     0.074 A 
ATOM     46  C   UNL A   1      37.928  32.273  33.058  1.00  0.00     0.031 C 
ATOM     47  C   UNL A   1      39.690  28.472  27.575  1.00  0.00     0.029 A 
ATOM     48  C   UNL A   1      40.560  28.341  28.742  1.00  0.00     0.049 A 
ATOM     49  H   UNL A   1      40.285  29.198  30.621  1.00  0.00     0.167 HD
ATOM     50  C   UNL A   1      39.746  31.314  34.431  1.00  0.00     0.034 A 
ATOM     51  C   UNL A   1      41.694  27.615  28.808  1.00  0.00     0.034 A 
ATOM     52  C   UNL A   1      40.863  30.438  34.643  1.00  0.00     0.049 A 
ATOM     53  C   UNL A   1      42.457  27.560  30.107  1.00  0.00     0.074 A 
ATOM     54  C   UNL A   1      41.597  30.244  35.799  1.00  0.00     0.029 A 
ATOM     55  N   UNL A   1      41.418  29.622  33.671  1.00  0.00    -0.354 N 
ATOM     56  N   UNL A   1      42.169  28.117  31.260  1.00  0.00    -0.248 NA
ATOM     57  C   UNL A   1      43.684  26.749  30.125  1.00  0.00     0.031 C 
ATOM     58  C   UNL A   1      42.606  29.315  35.521  1.00  0.00     0.029 A 
ATOM     59  C   UNL A   1      42.494  28.929  34.195  1.00  0.00     0.049 A 
ATOM     60  H   UNL A   1      41.095  29.548  32.743  1.00  0.00     0.167 HD
ATOM     61  C   UNL A   1      43.156  27.697  32.145  1.00  0.00     0.074 A 
ATOM     62  C   UNL A   1      44.041  26.825  31.401  1.00  0.00     0.031 C 
ATOM     63  C   UNL A   1      43.325  28.016  33.452  1.00  0.00     0.034 A 
BRANCH  50  64
ATOM     64  C   UNL A   1      39.273  32.167  35.573  1.00  0.00     0.023 A 
ATOM     65  C   UNL A   1      39.596  33.538  35.585  1.00  0.00     0.012 A 
ATOM     66  C   UNL A   1      38.492  31.628  36.612  1.00  0.00     0.148 A 
ATOM     67  C   UNL A   1      39.166  34.360  36.625  1.00  0.00     0.002 A 
ATOM     68  C   UNL A   1      38.040  32.459  37.630  1.00  0.00     0.091 A 
ATOM     69  F   UNL A   1      38.227  30.314  36.601  1.00  0.00    -0.205 F 
ATOM     70  C   UNL A   1      38.381  33.822  37.642  1.00  0.00     0.022 A 
BRANCH  68  71
ATOM     71  S   UNL A   1      36.978  31.866  38.952  1.00  0.00     0.127 S 
ATOM     72  O   UNL A   1      37.759  32.212  40.137  1.00  0.00    -0.237 OA
ATOM     73  O   UNL A   1      35.768  32.668  38.764  1.00  0.00    -0.237 OA
ATOM     74  O   UNL A   1      36.800  30.442  38.706  1.00  0.00    -0.744 OA
ENDBRANCH  68  71
ENDBRANCH  50  64
BRANCH  51  75
ATOM     75  C   UNL A   1      42.146  26.831  27.624  1.00  0.00     0.023 A 
ATOM     76  C   UNL A   1      42.910  27.469  26.628  1.00  0.00     0.012 A 
ATOM     77  C   UNL A   1      41.845  25.463  27.488  1.00  0.00     0.148 A 
ATOM     78  C   UNL A   1      43.343  26.764  25.504  1.00  0.00     0.002 A 
ATOM     79  C   UNL A   1      42.321  24.755  26.390  1.00  0.00     0.091 A 
ATOM     80  F   UNL A   1      41.096  24.877  28.433  1.00  0.00    -0.205 F 
ATOM     81  C   UNL A   1      43.059  25.407  25.389  1.00  0.00     0.022 A 
BRANCH  79  82
ATOM     82  S   UNL A   1      42.105  22.979  26.229  1.00  0.00     0.127 S 
ATOM     83  O   UNL A   1      42.809  22.482  27.408  1.00  0.00    -0.237 OA
ATOM     84  O   UNL A   1      40.648  22.842  26.277  1.00  0.00    -0.237 OA
ATOM     85  O   UNL A   1      42.692  22.633  24.941  1.00  0.00    -0.744 OA
ENDBRANCH  79  82
ENDBRANCH  51  75
BRANCH  63  86
ATOM     86  C   UNL A   1      44.495  27.408  34.179  1.00  0.00     0.023 A 
ATOM     87  C   UNL A   1      45.689  28.145  34.307  1.00  0.00     0.012 A 
ATOM     88  C   UNL A   1      44.381  26.158  34.815  1.00  0.00     0.148 A 
ATOM     89  C   UNL A   1      46.759  27.636  35.042  1.00  0.00     0.002 A 
ATOM     90  C   UNL A   1      45.436  25.675  35.582  1.00  0.00     0.091 A 
ATOM     91  F   UNL A   1      43.244  25.461  34.664  1.00  0.00    -0.205 F 
ATOM     92  C   UNL A   1      46.628  26.409  35.690  1.00  0.00     0.022 A 
BRANCH  90  93
ATOM     93  S   UNL A   1      45.309  24.150  36.521  1.00  0.00     0.127 S 
ATOM     94  O   UNL A   1      44.276  23.427  35.781  1.00  0.00    -0.237 OA
ATOM     95  O   UNL A   1      46.654  23.586  36.395  1.00  0.00    -0.237 OA
ATOM     96  O   UNL A   1      44.953  24.550  37.876  1.00  0.00    -0.744 OA
ENDBRANCH  90  93
ENDBRANCH  63  86
ENDBRANCH  37  38
ENDBRANCH  30  32
ENDBRANCH  29  30
ENDBRANCH  28  29
ENDBRANCH  27  28
ENDBRANCH  26  27
ENDBRANCH  25  26
ENDBRANCH   1  25
TORSDOF 25
ENDMDL
MODEL 2
REMARK VINA RESULT:     -10.2      1.894      2.343
REMARK SMILES Cc1noc(-c2ccc(CCl)cc2)c1C(=O)OCCOCCOCCOCCOC(=O)c1ccc(-c2c3nc(c(-c4cccc(S(=O)(=O)[O-])c4F)c4ccc([nH]4)c(-c4cccc(S(=O)(=O)[O-])c4F)c4nc(c(-c5cccc(S(=O)(=O)[O-])c5F)c5ccc2[nH]5)C=C4)C=C3)cc1
REMARK SMILES IDX 24 1 23 2 22 3 21 4 20 5 19 6 18 7 17 8 15 9 16 10 14 11
REMARK SMILES IDX 1 12 2 13 3 14 4 15 5 16 6 17 7 18 13 19 8 20 12 21 9 22
REMARK SMILES IDX 10 23 11 24 25 25 26 26 27 27 28 28 29 29 30 30 31 31 32 32
REMARK SMILES IDX 33 33 94 34 34 35 93 36 35 37 36 38 37 39 87 40 38 41 92 42
REMARK SMILES IDX 86 43 88 44 39 45 91 46 85 47 84 48 40 50 72 51 52 52 71 53
REMARK SMILES IDX 53 54 56 55 70 56 89 57 54 58 55 59 69 61 90 62 57 63 41 64
REMARK SMILES IDX 42 65 50 66 43 67 45 68 51 69 44 70 46 71 47 72 48 73 49 74
REMARK SMILES IDX 73 75 74 76 82 77 75 78 77 79 83 80 76 81 78 82 79 83 80 84
REMARK SMILES IDX 81 85 58 86 59 87 67 88 60 89 62 90 68 91 61 92 63 93 64 94
REMARK SMILES IDX 65 95 66 96
REMARK H PARENT 88 49 56 60
REMARK Flexibility Score: inf
ROOT
ATOM      1  C   UNL A   1      29.553  30.330  23.257  1.00  0.00     0.188 C 
ENDROOT
BRANCH   1   2
ATOM      2  O   UNL A   1      30.124  29.177  23.859  1.00  0.00    -0.377 OA
BRANCH   2   3
ATOM      3  C   UNL A   1      31.513  28.945  23.749  1.00  0.00     0.188 C 
BRANCH   3   4
ATOM      4  C   UNL A   1      32.400  29.357  24.932  1.00  0.00     0.188 C 
BRANCH   4   5
ATOM      5  O   UNL A   1      31.885  28.964  26.202  1.00  0.00    -0.376 OA
BRANCH   5   6
ATOM      6  C   UNL A   1      32.777  28.194  27.003  1.00  0.00     0.202 C 
BRANCH   6   7
ATOM      7  C   UNL A   1      33.721  27.318  26.176  1.00  0.00     0.261 C 
BRANCH   7   8
ATOM      8  O   UNL A   1      33.112  26.143  25.619  1.00  0.00    -0.459 OA
BRANCH   8   9
ATOM      9  C   UNL A   1      33.290  25.890  24.299  1.00  0.00     0.344 C 
ATOM     10  O   UNL A   1      34.031  26.532  23.564  1.00  0.00    -0.246 OA
BRANCH   9  11
ATOM     11  C   UNL A   1      32.590  24.698  23.885  1.00  0.00     0.130 A 
ATOM     12  C   UNL A   1      30.065  25.427  23.716  1.00  0.00     0.071 C 
ATOM     13  C   UNL A   1      31.204  24.477  23.639  1.00  0.00     0.096 A 
ATOM     14  N   UNL A   1      30.968  23.196  23.316  1.00  0.00    -0.084 NA
ATOM     15  O   UNL A   1      32.176  22.543  23.449  1.00  0.00    -0.355 OA
ATOM     16  C   UNL A   1      33.136  23.433  23.814  1.00  0.00     0.181 A 
BRANCH  16  17
ATOM     17  C   UNL A   1      34.401  22.844  24.210  1.00  0.00     0.021 A 
ATOM     18  C   UNL A   1      34.520  22.068  25.363  1.00  0.00     0.012 A 
ATOM     19  C   UNL A   1      35.526  23.025  23.391  1.00  0.00     0.012 A 
ATOM     20  C   UNL A   1      35.741  21.463  25.680  1.00  0.00     0.006 A 
ATOM     21  C   UNL A   1      36.739  22.406  23.695  1.00  0.00     0.006 A 
ATOM     22  C   UNL A   1      36.855  21.605  24.837  1.00  0.00    -0.033 A 
BRANCH  22  23
ATOM     23  C   UNL A   1      38.156  20.925  25.159  1.00  0.00     0.145 C 
ATOM     24  Cl  UNL A   1      38.035  19.174  24.899  1.00  0.00    -0.122 Cl
ENDBRANCH  22  23
ENDBRANCH  16  17
ENDBRANCH   9  11
ENDBRANCH   8   9
ENDBRANCH   7   8
ENDBRANCH   6   7
ENDBRANCH   5   6
ENDBRANCH   4   5
ENDBRANCH   3   4
ENDBRANCH   2   3
ENDBRANCH   1   2
BRANCH   1  25
ATOM     25  C   UNL A   1      29.053  31.505  24.117  1.00  0.00     0.188 C 
BRANCH  25  26
ATOM     26  O   UNL A   1      30.080  32.342  24.645  1.00  0.00    -0.376 OA
BRANCH  26  27
ATOM     27  C   UNL A   1      30.645  31.931  25.884  1.00  0.00     0.202 C 
BRANCH  27  28
ATOM     28  C   UNL A   1      31.507  33.011  26.544  1.00  0.00     0.261 C 
BRANCH  28  29
ATOM     29  O   UNL A   1      32.612  32.500  27.304  1.00  0.00    -0.460 OA
BRANCH  29  30
ATOM     30  C   UNL A   1      33.481  33.409  27.798  1.00  0.00     0.338 C 
ATOM     31  O   UNL A   1      33.268  34.585  28.031  1.00  0.00    -0.246 OA
BRANCH  30  32
ATOM     32  C   UNL A   1      34.707  32.691  28.186  1.00  0.00     0.060 A 
ATOM     33  C   UNL A   1      34.631  31.314  28.423  1.00  0.00     0.016 A 
ATOM     34  C   UNL A   1      35.919  33.375  28.307  1.00  0.00     0.016 A 
ATOM     35  C   UNL A   1      35.770  30.621  28.830  1.00  0.00     0.010 A 
ATOM     36  C   UNL A   1      37.054  32.684  28.727  1.00  0.00     0.010 A 
ATOM     37  C   UNL A   1      36.973  31.313  29.025  1.00  0.00    -0.014 A 
BRANCH  37  38
ATOM     38  C   UNL A   1      38.093  30.661  29.735  1.00  0.00     0.031 A 
ATOM     39  C   UNL A   1      38.363  31.072  31.156  1.00  0.00     0.074 A 
ATOM     40  C   UNL A   1      38.880  29.761  29.121  1.00  0.00     0.049 A 
ATOM     41  N   UNL A   1      39.289  30.654  31.976  1.00  0.00    -0.248 NA
ATOM     42  C   UNL A   1      37.468  32.095  31.727  1.00  0.00     0.031 C 
ATOM     43  C   UNL A   1      38.727  29.307  27.740  1.00  0.00     0.029 A 
ATOM     44  N   UNL A   1      39.986  29.093  29.579  1.00  0.00    -0.354 N 
ATOM     45  C   UNL A   1      39.099  31.369  33.152  1.00  0.00     0.074 A 
ATOM     46  C   UNL A   1      37.979  32.258  32.937  1.00  0.00     0.031 C 
ATOM     47  C   UNL A   1      39.726  28.452  27.453  1.00  0.00     0.029 A 
ATOM     48  C   UNL A   1      40.590  28.310  28.624  1.00  0.00     0.049 A 
ATOM     49  H   UNL A   1      40.316  29.166  30.503  1.00  0.00     0.167 HD
ATOM     50  C   UNL A   1      39.782  31.279  34.315  1.00  0.00     0.034 A 
ATOM     51  C   UNL A   1      41.717  27.573  28.692  1.00  0.00     0.034 A 
ATOM     52  C   UNL A   1      40.890  30.392  34.530  1.00  0.00     0.049 A 
ATOM     53  C   UNL A   1      42.474  27.508  29.994  1.00  0.00     0.074 A 
ATOM     54  C   UNL A   1      41.617  30.188  35.689  1.00  0.00     0.029 A 
ATOM     55  N   UNL A   1      41.440  29.573  33.558  1.00  0.00    -0.354 N 
ATOM     56  N   UNL A   1      42.187  28.065  31.147  1.00  0.00    -0.248 NA
ATOM     57  C   UNL A   1      43.693  26.685  30.015  1.00  0.00     0.031 C 
ATOM     58  C   UNL A   1      42.619  29.251  35.413  1.00  0.00     0.029 A 
ATOM     59  C   UNL A   1      42.508  28.868  34.085  1.00  0.00     0.049 A 
ATOM     60  H   UNL A   1      41.121  29.503  32.629  1.00  0.00     0.167 HD
ATOM     61  C   UNL A   1      43.167  27.634  32.036  1.00  0.00     0.074 A 
ATOM     62  C   UNL A   1      44.047  26.756  31.293  1.00  0.00     0.031 C 
ATOM     63  C   UNL A   1      43.334  27.949  33.344  1.00  0.00     0.034 A 
BRANCH  50  64
ATOM     64  C   UNL A   1      39.312  32.134  35.457  1.00  0.00     0.023 A 
ATOM     65  C   UNL A   1      38.368  31.610  36.363  1.00  0.00     0.012 A 
ATOM     66  C   UNL A   1      39.817  33.431  35.654  1.00  0.00     0.148 A 
ATOM     67  C   UNL A   1      37.916  32.373  37.438  1.00  0.00     0.002 A 
ATOM     68  C   UNL A   1      39.386  34.175  36.746  1.00  0.00     0.091 A 
ATOM     69  F   UNL A   1      40.687  33.924  34.761  1.00  0.00    -0.205 F 
ATOM     70  C   UNL A   1      38.431  33.651  37.634  1.00  0.00     0.022 A 
BRANCH  68  71
ATOM     71  S   UNL A   1      40.037  35.810  37.109  1.00  0.00     0.127 S 
ATOM     72  O   UNL A   1      39.332  36.141  38.345  1.00  0.00    -0.237 OA
ATOM     73  O   UNL A   1      41.467  35.546  37.276  1.00  0.00    -0.237 OA
ATOM     74  O   UNL A   1      39.707  36.632  35.954  1.00  0.00    -0.744 OA
ENDBRANCH  68  71
ENDBRANCH  50  64
BRANCH  51  75
ATOM     75  C   UNL A   1      42.167  26.788  27.509  1.00  0.00     0.023 A 
ATOM     76  C   UNL A   1      42.854  27.442  26.469  1.00  0.00     0.012 A 
ATOM     77  C   UNL A   1      41.938  25.401  27.415  1.00  0.00     0.148 A 
ATOM     78  C   UNL A   1      43.282  26.736  25.344  1.00  0.00     0.002 A 
ATOM     79  C   UNL A   1      42.411  24.695  26.314  1.00  0.00     0.091 A 
ATOM     80  F   UNL A   1      41.261  24.798  28.402  1.00  0.00    -0.205 F 
ATOM     81  C   UNL A   1      43.071  25.363  25.271  1.00  0.00     0.022 A 
BRANCH  79  82
ATOM     82  S   UNL A   1      42.290  22.906  26.201  1.00  0.00     0.127 S 
ATOM     83  O   UNL A   1      40.847  22.696  26.296  1.00  0.00    -0.237 OA
ATOM     84  O   UNL A   1      42.866  22.643  24.881  1.00  0.00    -0.237 OA
ATOM     85  O   UNL A   1      43.085  22.394  27.309  1.00  0.00    -0.744 OA
ENDBRANCH  79  82
ENDBRANCH  51  75
BRANCH  63  86
ATOM     86  C   UNL A   1      44.495  27.329  34.074  1.00  0.00     0.023 A 
ATOM     87  C   UNL A   1      45.739  27.990  34.084  1.00  0.00     0.012 A 
ATOM     88  C   UNL A   1      44.330  26.150  34.826  1.00  0.00     0.148 A 
ATOM     89  C   UNL A   1      46.807  27.476  34.818  1.00  0.00     0.002 A 
ATOM     90  C   UNL A   1      45.387  25.665  35.589  1.00  0.00     0.091 A 
ATOM     91  F   UNL A   1      43.144  25.523  34.786  1.00  0.00    -0.205 F 
ATOM     92  C   UNL A   1      46.628  26.322  35.580  1.00  0.00     0.022 A 
BRANCH  90  93
ATOM     93  S   UNL A   1      45.206  24.241  36.668  1.00  0.00     0.127 S 
ATOM     94  O   UNL A   1      44.194  24.708  37.614  1.00  0.00    -0.237 OA
ATOM     95  O   UNL A   1      44.744  23.201  35.747  1.00  0.00    -0.237 OA
ATOM     96  O   UNL A   1      46.529  24.000  37.227  1.00  0.00    -0.744 OA
ENDBRANCH  90  93
ENDBRANCH  63  86
ENDBRANCH  37  38
ENDBRANCH  30  32
ENDBRANCH  29  30
ENDBRANCH  28  29
ENDBRANCH  27  28
ENDBRANCH  26  27
ENDBRANCH  25  26
ENDBRANCH   1  25
TORSDOF 25
ENDMDL
MODEL 3
REMARK VINA RESULT:      -9.7      2.642      3.305
REMARK SMILES Cc1noc(-c2ccc(CCl)cc2)c1C(=O)OCCOCCOCCOCCOC(=O)c1ccc(-c2c3nc(c(-c4cccc(S(=O)(=O)[O-])c4F)c4ccc([nH]4)c(-c4cccc(S(=O)(=O)[O-])c4F)c4nc(c(-c5cccc(S(=O)(=O)[O-])c5F)c5ccc2[nH]5)C=C4)C=C3)cc1
REMARK SMILES IDX 24 1 23 2 22 3 21 4 20 5 19 6 18 7 17 8 15 9 16 10 14 11
REMARK SMILES IDX 1 12 2 13 3 14 4 15 5 16 6 17 7 18 13 19 8 20 12 21 9 22
REMARK SMILES IDX 10 23 11 24 25 25 26 26 27 27 28 28 29 29 30 30 31 31 32 32
REMARK SMILES IDX 33 33 94 34 34 35 93 36 35 37 36 38 37 39 87 40 38 41 92 42
REMARK SMILES IDX 86 43 88 44 39 45 91 46 85 47 84 48 40 50 72 51 52 52 71 53
REMARK SMILES IDX 53 54 56 55 70 56 89 57 54 58 55 59 69 61 90 62 57 63 41 64
REMARK SMILES IDX 42 65 50 66 43 67 45 68 51 69 44 70 46 71 47 72 48 73 49 74
REMARK SMILES IDX 73 75 74 76 82 77 75 78 77 79 83 80 76 81 78 82 79 83 80 84
REMARK SMILES IDX 81 85 58 86 59 87 67 88 60 89 62 90 68 91 61 92 63 93 64 94
REMARK SMILES IDX 65 95 66 96
REMARK H PARENT 88 49 56 60
REMARK Flexibility Score: inf
ROOT
ATOM      1  C   UNL A   1      30.879  29.255  22.612  1.00  0.00     0.188 C 
ENDROOT
BRANCH   1   2
ATOM      2  O   UNL A   1      31.894  28.262  22.639  1.00  0.00    -0.377 OA
BRANCH   2   3
ATOM      3  C   UNL A   1      33.248  28.640  22.498  1.00  0.00     0.188 C 
BRANCH   3   4
ATOM      4  C   UNL A   1      34.215  28.264  23.629  1.00  0.00     0.188 C 
BRANCH   4   5
ATOM      5  O   UNL A   1      33.564  27.893  24.843  1.00  0.00    -0.376 OA
BRANCH   5   6
ATOM      6  C   UNL A   1      33.898  26.599  25.335  1.00  0.00     0.202 C 
BRANCH   6   7
ATOM      7  C   UNL A   1      32.811  25.555  25.061  1.00  0.00     0.261 C 
BRANCH   7   8
ATOM      8  O   UNL A   1      32.686  25.171  23.683  1.00  0.00    -0.459 OA
BRANCH   8   9
ATOM      9  C   UNL A   1      33.605  24.319  23.166  1.00  0.00     0.344 C 
ATOM     10  O   UNL A   1      34.591  24.667  22.527  1.00  0.00    -0.246 OA
BRANCH   9  11
ATOM     11  C   UNL A   1      33.348  22.954  23.559  1.00  0.00     0.130 A 
ATOM     12  C   UNL A   1      30.779  22.597  23.102  1.00  0.00     0.071 C 
ATOM     13  C   UNL A   1      32.140  22.200  23.548  1.00  0.00     0.096 A 
ATOM     14  N   UNL A   1      32.331  20.969  24.047  1.00  0.00    -0.084 NA
ATOM     15  O   UNL A   1      33.640  20.939  24.485  1.00  0.00    -0.355 OA
ATOM     16  C   UNL A   1      34.236  22.130  24.219  1.00  0.00     0.181 A 
BRANCH  16  17
ATOM     17  C   UNL A   1      35.538  22.315  24.831  1.00  0.00     0.021 A 
ATOM     18  C   UNL A   1      36.602  21.452  24.568  1.00  0.00     0.012 A 
ATOM     19  C   UNL A   1      35.746  23.415  25.676  1.00  0.00     0.012 A 
ATOM     20  C   UNL A   1      37.861  21.699  25.125  1.00  0.00     0.006 A 
ATOM     21  C   UNL A   1      37.006  23.674  26.216  1.00  0.00     0.006 A 
ATOM     22  C   UNL A   1      38.083  22.824  25.934  1.00  0.00    -0.033 A 
BRANCH  22  23
ATOM     23  C   UNL A   1      39.444  23.109  26.503  1.00  0.00     0.145 C 
ATOM     24  Cl  UNL A   1      39.827  24.838  26.391  1.00  0.00    -0.122 Cl
ENDBRANCH  22  23
ENDBRANCH  16  17
ENDBRANCH   9  11
ENDBRANCH   8   9
ENDBRANCH   7   8
ENDBRANCH   6   7
ENDBRANCH   5   6
ENDBRANCH   4   5
ENDBRANCH   3   4
ENDBRANCH   2   3
ENDBRANCH   1   2
BRANCH   1  25
ATOM     25  C   UNL A   1      30.034  29.555  23.863  1.00  0.00     0.188 C 
BRANCH  25  26
ATOM     26  O   UNL A   1      30.556  30.577  24.710  1.00  0.00    -0.376 OA
BRANCH  26  27
ATOM     27  C   UNL A   1      31.559  30.170  25.633  1.00  0.00     0.202 C 
BRANCH  27  28
ATOM     28  C   UNL A   1      31.935  31.264  26.638  1.00  0.00     0.261 C 
BRANCH  28  29
ATOM     29  O   UNL A   1      33.117  30.981  27.401  1.00  0.00    -0.460 OA
BRANCH  29  30
ATOM     30  C   UNL A   1      33.891  32.037  27.736  1.00  0.00     0.338 C 
ATOM     31  O   UNL A   1      33.569  33.211  27.757  1.00  0.00    -0.246 OA
BRANCH  30  32
ATOM     32  C   UNL A   1      35.165  31.512  28.255  1.00  0.00     0.060 A 
ATOM     33  C   UNL A   1      35.257  30.146  28.548  1.00  0.00     0.016 A 
ATOM     34  C   UNL A   1      36.257  32.363  28.442  1.00  0.00     0.016 A 
ATOM     35  C   UNL A   1      36.441  29.634  29.077  1.00  0.00     0.010 A 
ATOM     36  C   UNL A   1      37.435  31.852  28.985  1.00  0.00     0.010 A 
ATOM     37  C   UNL A   1      37.516  30.495  29.337  1.00  0.00    -0.014 A 
BRANCH  37  38
ATOM     38  C   UNL A   1      38.649  30.031  30.166  1.00  0.00     0.031 A 
ATOM     39  C   UNL A   1      38.809  30.622  31.539  1.00  0.00     0.074 A 
ATOM     40  C   UNL A   1      39.540  29.142  29.695  1.00  0.00     0.049 A 
ATOM     41  N   UNL A   1      39.723  30.385  32.440  1.00  0.00    -0.248 NA
ATOM     42  C   UNL A   1      37.802  31.619  31.947  1.00  0.00     0.031 C 
ATOM     43  C   UNL A   1      39.499  28.522  28.372  1.00  0.00     0.029 A 
ATOM     44  N   UNL A   1      40.673  28.632  30.274  1.00  0.00    -0.354 N 
ATOM     45  C   UNL A   1      39.412  31.208  33.515  1.00  0.00     0.074 A 
ATOM     46  C   UNL A   1      38.234  31.963  33.151  1.00  0.00     0.031 C 
ATOM     47  C   UNL A   1      40.580  27.734  28.229  1.00  0.00     0.029 A 
ATOM     48  C   UNL A   1      41.391  27.804  29.444  1.00  0.00     0.049 A 
ATOM     49  H   UNL A   1      40.948  28.839  31.196  1.00  0.00     0.167 HD
ATOM     50  C   UNL A   1      40.040  31.313  34.708  1.00  0.00     0.034 A 
ATOM     51  C   UNL A   1      42.571  27.184  29.645  1.00  0.00     0.034 A 
ATOM     52  C   UNL A   1      41.205  30.559  35.072  1.00  0.00     0.049 A 
ATOM     53  C   UNL A   1      43.262  27.335  30.977  1.00  0.00     0.074 A 
ATOM     54  C   UNL A   1      41.886  30.555  36.276  1.00  0.00     0.029 A 
ATOM     55  N   UNL A   1      41.873  29.689  34.227  1.00  0.00    -0.354 N 
ATOM     56  N   UNL A   1      42.869  27.991  32.043  1.00  0.00    -0.248 NA
ATOM     57  C   UNL A   1      44.544  26.633  31.145  1.00  0.00     0.031 C 
ATOM     58  C   UNL A   1      42.976  29.686  36.154  1.00  0.00     0.029 A 
ATOM     59  C   UNL A   1      42.968  29.147  34.877  1.00  0.00     0.049 A 
ATOM     60  H   UNL A   1      41.609  29.486  33.300  1.00  0.00     0.167 HD
ATOM     61  C   UNL A   1      43.834  27.753  33.017  1.00  0.00     0.074 A 
ATOM     62  C   UNL A   1      44.823  26.880  32.419  1.00  0.00     0.031 C 
ATOM     63  C   UNL A   1      43.906  28.229  34.284  1.00  0.00     0.034 A 
BRANCH  50  64
ATOM     64  C   UNL A   1      39.440  32.246  35.722  1.00  0.00     0.023 A 
ATOM     65  C   UNL A   1      38.354  31.803  36.503  1.00  0.00     0.012 A 
ATOM     66  C   UNL A   1      39.959  33.537  35.922  1.00  0.00     0.148 A 
ATOM     67  C   UNL A   1      37.779  32.640  37.457  1.00  0.00     0.002 A 
ATOM     68  C   UNL A   1      39.401  34.355  36.898  1.00  0.00     0.091 A 
ATOM     69  F   UNL A   1      40.968  33.951  35.143  1.00  0.00    -0.205 F 
ATOM     70  C   UNL A   1      38.308  33.912  37.661  1.00  0.00     0.022 A 
BRANCH  68  71
ATOM     71  S   UNL A   1      40.053  35.988  37.267  1.00  0.00     0.127 S 
ATOM     72  O   UNL A   1      41.481  35.713  37.401  1.00  0.00    -0.237 OA
ATOM     73  O   UNL A   1      39.689  36.747  36.069  1.00  0.00    -0.237 OA
ATOM     74  O   UNL A   1      39.375  36.419  38.481  1.00  0.00    -0.744 OA
ENDBRANCH  68  71
ENDBRANCH  50  64
BRANCH  51  75
ATOM     75  C   UNL A   1      43.147  26.313  28.582  1.00  0.00     0.023 A 
ATOM     76  C   UNL A   1      42.682  24.990  28.450  1.00  0.00     0.012 A 
ATOM     77  C   UNL A   1      44.130  26.788  27.694  1.00  0.00     0.148 A 
ATOM     78  C   UNL A   1      43.206  24.147  27.470  1.00  0.00     0.002 A 
ATOM     79  C   UNL A   1      44.612  25.957  26.687  1.00  0.00     0.091 A 
ATOM     80  F   UNL A   1      44.579  28.041  27.849  1.00  0.00    -0.205 F 
ATOM     81  C   UNL A   1      44.162  24.632  26.582  1.00  0.00     0.022 A 
BRANCH  79  82
ATOM     82  S   UNL A   1      45.752  26.542  25.428  1.00  0.00     0.127 S 
ATOM     83  O   UNL A   1      44.962  27.576  24.764  1.00  0.00    -0.237 OA
ATOM     84  O   UNL A   1      46.869  27.041  26.233  1.00  0.00    -0.237 OA
ATOM     85  O   UNL A   1      46.075  25.371  24.625  1.00  0.00    -0.744 OA
ENDBRANCH  79  82
ENDBRANCH  51  75
BRANCH  63  86
ATOM     86  C   UNL A   1      45.076  27.802  35.130  1.00  0.00     0.023 A 
ATOM     87  C   UNL A   1      46.249  28.582  35.132  1.00  0.00     0.012 A 
ATOM     88  C   UNL A   1      44.979  26.693  35.992  1.00  0.00     0.148 A 
ATOM     89  C   UNL A   1      47.316  28.251  35.966  1.00  0.00     0.002 A 
ATOM     90  C   UNL A   1      46.031  26.394  36.851  1.00  0.00     0.091 A 
ATOM     91  F   UNL A   1      43.862  25.950  35.960  1.00  0.00    -0.205 F 
ATOM     92  C   UNL A   1      47.203  27.167  36.834  1.00  0.00     0.022 A 
BRANCH  90  93
ATOM     93  S   UNL A   1      45.922  25.072  38.063  1.00  0.00     0.127 S 
ATOM     94  O   UNL A   1      47.035  25.391  38.955  1.00  0.00    -0.237 OA
ATOM     95  O   UNL A   1      44.596  25.283  38.645  1.00  0.00    -0.237 OA
ATOM     96  O   UNL A   1      46.052  23.834  37.307  1.00  0.00    -0.744 OA
ENDBRANCH  90  93
ENDBRANCH  63  86
ENDBRANCH  37  38
ENDBRANCH  30  32
ENDBRANCH  29  30
ENDBRANCH  28  29
ENDBRANCH  27  28
ENDBRANCH  26  27
ENDBRANCH  25  26
ENDBRANCH   1  25
TORSDOF 25
ENDMDL
