MODEL 1
REMARK VINA RESULT:     -10.6      0.000      0.000
REMARK SMILES Cc1ccnc(C(=O)c2[nH]c3ccc(OC(F)(F)F)cc3c2CC(=O)OCCOCCOCCOCCOC(=O)c2ccc(-c3c4nc(c(-c5cccc(S(=O)(=O)[O-])c5F)c5ccc([nH]5)c(-c5cccc(S(=O)(=O)[O-])c5F)c5nc(c(-c6cccc(S(=O)(=O)[O-])c6F)c6ccc3[nH]6)C=C5)C=C4)cc2)c1
REMARK SMILES IDX 32 1 31 2 30 3 29 4 28 5 27 6 26 7 24 8 25 9 23 10 22 11
REMARK SMILES IDX 9 12 10 13 11 14 21 16 12 17 20 18 13 19 14 20 7 21 8 22
REMARK SMILES IDX 6 23 1 24 2 25 3 26 104 27 4 28 5 29 15 30 16 31 17 32 18 33
REMARK SMILES IDX 19 34 33 35 34 36 35 37 36 38 37 39 38 40 39 41 40 42 41 43
REMARK SMILES IDX 42 44 103 45 43 46 102 47 44 48 45 49 46 50 96 51 47 52
REMARK SMILES IDX 101 53 95 54 97 55 48 56 100 57 94 58 93 59 49 61 81 62
REMARK SMILES IDX 61 63 80 64 62 65 65 66 79 67 98 68 63 69 64 70 78 72 99 73
REMARK SMILES IDX 66 74 50 75 51 76 59 77 52 78 54 79 60 80 53 81 55 82 56 83
REMARK SMILES IDX 57 84 58 85 82 86 83 87 91 88 84 89 86 90 92 91 85 92 87 93
REMARK SMILES IDX 88 94 89 95 90 96 67 97 68 98 76 99 69 100 71 101 77 102
REMARK SMILES IDX 70 103 72 104 73 105 74 106 75 107
REMARK H PARENT 10 15 97 60 65 71
REMARK Flexibility Score: inf
ROOT
ATOM      1  O   UNL A   1      28.630  27.861  23.158  1.00  0.00    -0.377 OA
ENDROOT
BRANCH   1   2
ATOM      2  C   UNL A   1      28.714  26.640  23.871  1.00  0.00     0.188 C 
BRANCH   2   3
ATOM      3  C   UNL A   1      30.091  26.035  24.140  1.00  0.00     0.188 C 
BRANCH   3   4
ATOM      4  O   UNL A   1      30.711  26.334  25.373  1.00  0.00    -0.376 OA
BRANCH   4   5
ATOM      5  C   UNL A   1      31.194  25.233  26.145  1.00  0.00     0.202 C 
BRANCH   5   6
ATOM      6  C   UNL A   1      30.278  24.031  26.454  1.00  0.00     0.261 C 
BRANCH   6   7
ATOM      7  O   UNL A   1      30.722  23.165  27.534  1.00  0.00    -0.463 OA
BRANCH   7   8
ATOM      8  C   UNL A   1      31.945  22.599  27.379  1.00  0.00     0.310 C 
ATOM      9  O   UNL A   1      32.800  22.607  28.268  1.00  0.00    -0.252 OA
BRANCH   8  10
ATOM     10  C   UNL A   1      32.257  21.908  26.063  1.00  0.00     0.161 C 
BRANCH  10  11
ATOM     11  C   UNL A   1      33.641  21.420  25.698  1.00  0.00     0.000 A 
ATOM     12  C   UNL A   1      34.751  22.178  25.283  1.00  0.00     0.093 A 
ATOM     13  N   UNL A   1      35.792  21.279  25.144  1.00  0.00    -0.352 N 
ATOM     14  C   UNL A   1      35.292  20.009  24.976  1.00  0.00     0.046 A 
ATOM     15  H   UNL A   1      36.748  21.514  25.163  1.00  0.00     0.167 HD
ATOM     16  C   UNL A   1      33.952  20.060  25.347  1.00  0.00     0.008 A 
ATOM     17  C   UNL A   1      35.910  18.839  24.517  1.00  0.00     0.030 A 
ATOM     18  C   UNL A   1      33.184  18.884  25.218  1.00  0.00     0.057 A 
ATOM     19  C   UNL A   1      35.104  17.703  24.344  1.00  0.00     0.049 A 
ATOM     20  C   UNL A   1      33.748  17.727  24.660  1.00  0.00     0.130 A 
BRANCH  12  21
ATOM     21  C   UNL A   1      34.820  23.617  25.032  1.00  0.00     0.227 C 
ATOM     22  O   UNL A   1      35.489  24.383  25.731  1.00  0.00    -0.285 OA
BRANCH  21  23
ATOM     23  C   UNL A   1      34.017  24.273  23.958  1.00  0.00     0.113 A 
ATOM     24  C   UNL A   1      33.592  27.673  22.352  1.00  0.00     0.044 C 
ATOM     25  C   UNL A   1      33.502  26.202  22.631  1.00  0.00    -0.047 A 
ATOM     26  C   UNL A   1      32.991  25.339  21.657  1.00  0.00     0.023 A 
ATOM     27  C   UNL A   1      34.028  25.656  23.809  1.00  0.00     0.036 A 
ATOM     28  C   UNL A   1      32.997  23.977  21.904  1.00  0.00     0.112 A 
ATOM     29  N   UNL A   1      33.488  23.429  23.032  1.00  0.00    -0.253 NA
ENDBRANCH  21  23
ENDBRANCH  12  21
BRANCH  20  30
ATOM     30  O   UNL A   1      32.852  16.712  24.467  1.00  0.00    -0.406 OA
BRANCH  30  31
ATOM     31  C   UNL A   1      32.881  15.622  25.370  1.00  0.00     0.573 C 
ATOM     32  F   UNL A   1      32.170  14.572  24.889  1.00  0.00    -0.132 F 
ATOM     33  F   UNL A   1      34.140  15.217  25.624  1.00  0.00    -0.132 F 
ATOM     34  F   UNL A   1      32.301  15.995  26.533  1.00  0.00    -0.132 F 
ENDBRANCH  30  31
ENDBRANCH  20  30
ENDBRANCH  10  11
ENDBRANCH   8  10
ENDBRANCH   7   8
ENDBRANCH   6   7
ENDBRANCH   5   6
ENDBRANCH   4   5
ENDBRANCH   3   4
ENDBRANCH   2   3
ENDBRANCH   1   2
BRANCH   1  35
ATOM     35  C   UNL A   1      29.732  28.304  22.378  1.00  0.00     0.188 C 
BRANCH  35  36
ATOM     36  C   UNL A   1      30.588  29.446  22.924  1.00  0.00     0.188 C 
BRANCH  36  37
ATOM     37  O   UNL A   1      30.084  30.198  24.031  1.00  0.00    -0.376 OA
BRANCH  37  38
ATOM     38  C   UNL A   1      30.972  30.539  25.092  1.00  0.00     0.202 C 
BRANCH  38  39
ATOM     39  C   UNL A   1      32.005  29.466  25.425  1.00  0.00     0.261 C 
BRANCH  39  40
ATOM     40  O   UNL A   1      33.278  30.051  25.731  1.00  0.00    -0.460 OA
BRANCH  40  41
ATOM     41  C   UNL A   1      33.260  31.019  26.675  1.00  0.00     0.338 C 
ATOM     42  O   UNL A   1      32.374  31.830  26.891  1.00  0.00    -0.246 OA
BRANCH  41  43
ATOM     43  C   UNL A   1      34.428  30.836  27.554  1.00  0.00     0.060 A 
ATOM     44  C   UNL A   1      35.254  31.941  27.797  1.00  0.00     0.016 A 
ATOM     45  C   UNL A   1      34.715  29.591  28.119  1.00  0.00     0.016 A 
ATOM     46  C   UNL A   1      36.383  31.803  28.598  1.00  0.00     0.010 A 
ATOM     47  C   UNL A   1      35.858  29.449  28.903  1.00  0.00     0.010 A 
ATOM     48  C   UNL A   1      36.706  30.547  29.124  1.00  0.00    -0.014 A 
BRANCH  48  49
ATOM     49  C   UNL A   1      38.010  30.336  29.784  1.00  0.00     0.031 A 
ATOM     50  C   UNL A   1      38.995  29.407  29.136  1.00  0.00     0.074 A 
ATOM     51  C   UNL A   1      38.283  30.931  30.958  1.00  0.00     0.049 A 
ATOM     52  N   UNL A   1      40.150  28.990  29.577  1.00  0.00    -0.248 NA
ATOM     53  C   UNL A   1      38.624  28.874  27.814  1.00  0.00     0.031 C 
ATOM     54  C   UNL A   1      37.401  31.863  31.658  1.00  0.00     0.029 A 
ATOM     55  N   UNL A   1      39.370  30.806  31.784  1.00  0.00    -0.354 N 
ATOM     56  C   UNL A   1      40.628  28.116  28.609  1.00  0.00     0.074 A 
ATOM     57  C   UNL A   1      39.642  28.066  27.553  1.00  0.00     0.031 C 
ATOM     58  C   UNL A   1      37.965  32.197  32.831  1.00  0.00     0.029 A 
ATOM     59  C   UNL A   1      39.226  31.473  32.977  1.00  0.00     0.049 A 
ATOM     60  H   UNL A   1      40.174  30.290  31.546  1.00  0.00     0.167 HD
ATOM     61  C   UNL A   1      41.787  27.419  28.606  1.00  0.00     0.034 A 
ATOM     62  C   UNL A   1      40.008  31.463  34.074  1.00  0.00     0.034 A 
ATOM     63  C   UNL A   1      42.763  27.486  29.659  1.00  0.00     0.049 A 
ATOM     64  C   UNL A   1      41.270  30.637  34.060  1.00  0.00     0.074 A 
ATOM     65  C   UNL A   1      43.996  26.867  29.728  1.00  0.00     0.029 A 
ATOM     66  N   UNL A   1      42.602  28.195  30.840  1.00  0.00    -0.354 N 
ATOM     67  N   UNL A   1      41.774  29.913  33.088  1.00  0.00    -0.248 NA
ATOM     68  C   UNL A   1      42.083  30.645  35.284  1.00  0.00     0.031 C 
ATOM     69  C   UNL A   1      44.564  27.166  30.971  1.00  0.00     0.029 A 
ATOM     70  C   UNL A   1      43.700  28.005  31.658  1.00  0.00     0.049 A 
ATOM     71  H   UNL A   1      41.821  28.752  31.062  1.00  0.00     0.167 HD
ATOM     72  C   UNL A   1      42.974  29.405  33.574  1.00  0.00     0.074 A 
ATOM     73  C   UNL A   1      43.134  29.927  34.916  1.00  0.00     0.031 C 
ATOM     74  C   UNL A   1      43.858  28.570  32.973  1.00  0.00     0.034 A 
BRANCH  61  75
ATOM     75  C   UNL A   1      42.066  26.521  27.432  1.00  0.00     0.023 A 
ATOM     76  C   UNL A   1      42.668  27.045  26.271  1.00  0.00     0.012 A 
ATOM     77  C   UNL A   1      41.793  25.142  27.508  1.00  0.00     0.148 A 
ATOM     78  C   UNL A   1      42.972  26.214  25.192  1.00  0.00     0.002 A 
ATOM     79  C   UNL A   1      42.139  24.312  26.449  1.00  0.00     0.091 A 
ATOM     80  F   UNL A   1      41.196  24.669  28.612  1.00  0.00    -0.205 F 
ATOM     81  C   UNL A   1      42.720  24.847  25.287  1.00  0.00     0.022 A 
BRANCH  79  82
ATOM     82  S   UNL A   1      41.925  22.530  26.502  1.00  0.00     0.127 S 
ATOM     83  O   UNL A   1      42.414  22.214  27.843  1.00  0.00    -0.237 OA
ATOM     84  O   UNL A   1      40.479  22.391  26.330  1.00  0.00    -0.237 OA
ATOM     85  O   UNL A   1      42.724  21.994  25.409  1.00  0.00    -0.744 OA
ENDBRANCH  79  82
ENDBRANCH  61  75
BRANCH  62  86
ATOM     86  C   UNL A   1      39.630  32.257  35.277  1.00  0.00     0.023 A 
ATOM     87  C   UNL A   1      38.824  31.669  36.271  1.00  0.00     0.012 A 
ATOM     88  C   UNL A   1      40.058  33.589  35.441  1.00  0.00     0.148 A 
ATOM     89  C   UNL A   1      38.419  32.404  37.387  1.00  0.00     0.002 A 
ATOM     90  C   UNL A   1      39.700  34.297  36.581  1.00  0.00     0.091 A 
ATOM     91  F   UNL A   1      40.811  34.137  34.476  1.00  0.00    -0.205 F 
ATOM     92  C   UNL A   1      38.864  33.714  37.546  1.00  0.00     0.022 A 
BRANCH  90  93
ATOM     93  S   UNL A   1      40.323  35.946  36.929  1.00  0.00     0.127 S 
ATOM     94  O   UNL A   1      39.751  36.720  35.829  1.00  0.00    -0.237 OA
ATOM     95  O   UNL A   1      39.738  36.217  38.243  1.00  0.00    -0.237 OA
ATOM     96  O   UNL A   1      41.774  35.826  36.931  1.00  0.00    -0.744 OA
ENDBRANCH  90  93
ENDBRANCH  62  86
BRANCH  74  97
ATOM     97  C   UNL A   1      45.094  28.187  33.747  1.00  0.00     0.023 A 
ATOM     98  C   UNL A   1      46.230  29.018  33.709  1.00  0.00     0.012 A 
ATOM     99  C   UNL A   1      45.098  27.045  34.573  1.00  0.00     0.148 A 
ATOM    100  C   UNL A   1      47.364  28.703  34.456  1.00  0.00     0.002 A 
ATOM    101  C   UNL A   1      46.212  26.766  35.355  1.00  0.00     0.091 A 
ATOM    102  F   UNL A   1      44.011  26.260  34.585  1.00  0.00    -0.205 F 
ATOM    103  C   UNL A   1      47.351  27.585  35.286  1.00  0.00     0.022 A 
BRANCH 101 104
ATOM    104  S   UNL A   1      46.251  25.407  36.529  1.00  0.00     0.127 S 
ATOM    105  O   UNL A   1      46.327  24.248  35.642  1.00  0.00    -0.237 OA
ATOM    106  O   UNL A   1      47.478  25.684  37.278  1.00  0.00    -0.237 OA
ATOM    107  O   UNL A   1      45.027  25.513  37.311  1.00  0.00    -0.744 OA
ENDBRANCH 101 104
ENDBRANCH  74  97
ENDBRANCH  48  49
ENDBRANCH  41  43
ENDBRANCH  40  41
ENDBRANCH  39  40
ENDBRANCH  38  39
ENDBRANCH  37  38
ENDBRANCH  36  37
ENDBRANCH  35  36
ENDBRANCH   1  35
TORSDOF 28
ENDMDL
MODEL 2
REMARK VINA RESULT:      -9.9      1.764      2.110
REMARK SMILES Cc1ccnc(C(=O)c2[nH]c3ccc(OC(F)(F)F)cc3c2CC(=O)OCCOCCOCCOCCOC(=O)c2ccc(-c3c4nc(c(-c5cccc(S(=O)(=O)[O-])c5F)c5ccc([nH]5)c(-c5cccc(S(=O)(=O)[O-])c5F)c5nc(c(-c6cccc(S(=O)(=O)[O-])c6F)c6ccc3[nH]6)C=C5)C=C4)cc2)c1
REMARK SMILES IDX 32 1 31 2 30 3 29 4 28 5 27 6 26 7 24 8 25 9 23 10 22 11
REMARK SMILES IDX 9 12 10 13 11 14 21 16 12 17 20 18 13 19 14 20 7 21 8 22
REMARK SMILES IDX 6 23 1 24 2 25 3 26 104 27 4 28 5 29 15 30 16 31 17 32 18 33
REMARK SMILES IDX 19 34 33 35 34 36 35 37 36 38 37 39 38 40 39 41 40 42 41 43
REMARK SMILES IDX 42 44 103 45 43 46 102 47 44 48 45 49 46 50 96 51 47 52
REMARK SMILES IDX 101 53 95 54 97 55 48 56 100 57 94 58 93 59 49 61 81 62
REMARK SMILES IDX 61 63 80 64 62 65 65 66 79 67 98 68 63 69 64 70 78 72 99 73
REMARK SMILES IDX 66 74 50 75 51 76 59 77 52 78 54 79 60 80 53 81 55 82 56 83
REMARK SMILES IDX 57 84 58 85 82 86 83 87 91 88 84 89 86 90 92 91 85 92 87 93
REMARK SMILES IDX 88 94 89 95 90 96 67 97 68 98 76 99 69 100 71 101 77 102
REMARK SMILES IDX 70 103 72 104 73 105 74 106 75 107
REMARK H PARENT 10 15 97 60 65 71
REMARK Flexibility Score: inf
ROOT
ATOM      1  O   UNL A   1      28.564  27.853  23.127  1.00  0.00    -0.377 OA
ENDROOT
BRANCH   1   2
ATOM      2  C   UNL A   1      28.349  26.668  23.873  1.00  0.00     0.188 C 
BRANCH   2   3
ATOM      3  C   UNL A   1      29.557  25.842  24.311  1.00  0.00     0.188 C 
BRANCH   3   4
ATOM      4  O   UNL A   1      30.221  26.225  25.497  1.00  0.00    -0.376 OA
BRANCH   4   5
ATOM      5  C   UNL A   1      30.874  25.196  26.241  1.00  0.00     0.202 C 
BRANCH   5   6
ATOM      6  C   UNL A   1      30.170  23.847  26.497  1.00  0.00     0.261 C 
BRANCH   6   7
ATOM      7  O   UNL A   1      30.832  22.963  27.443  1.00  0.00    -0.463 OA
BRANCH   7   8
ATOM      8  C   UNL A   1      32.148  22.725  27.214  1.00  0.00     0.310 C 
ATOM      9  O   UNL A   1      33.023  22.967  28.049  1.00  0.00    -0.252 OA
BRANCH   8  10
ATOM     10  C   UNL A   1      32.549  22.113  25.884  1.00  0.00     0.161 C 
BRANCH  10  11
ATOM     11  C   UNL A   1      33.922  21.534  25.624  1.00  0.00     0.000 A 
ATOM     12  C   UNL A   1      35.104  22.217  25.287  1.00  0.00     0.093 A 
ATOM     13  N   UNL A   1      36.094  21.253  25.230  1.00  0.00    -0.352 N 
ATOM     14  C   UNL A   1      35.528  20.016  25.033  1.00  0.00     0.046 A 
ATOM     15  H   UNL A   1      37.059  21.428  25.316  1.00  0.00     0.167 HD
ATOM     16  C   UNL A   1      34.171  20.154  25.305  1.00  0.00     0.008 A 
ATOM     17  C   UNL A   1      36.102  18.804  24.628  1.00  0.00     0.030 A 
ATOM     18  C   UNL A   1      33.341  19.027  25.128  1.00  0.00     0.057 A 
ATOM     19  C   UNL A   1      35.241  17.719  24.403  1.00  0.00     0.049 A 
ATOM     20  C   UNL A   1      33.869  17.831  24.620  1.00  0.00     0.130 A 
BRANCH  12  21
ATOM     21  C   UNL A   1      35.282  23.647  25.032  1.00  0.00     0.227 C 
ATOM     22  O   UNL A   1      35.993  24.364  25.740  1.00  0.00    -0.285 OA
BRANCH  21  23
ATOM     23  C   UNL A   1      34.548  24.354  23.942  1.00  0.00     0.113 A 
ATOM     24  C   UNL A   1      32.902  23.598  20.620  1.00  0.00     0.044 C 
ATOM     25  C   UNL A   1      33.341  24.298  21.871  1.00  0.00    -0.047 A 
ATOM     26  C   UNL A   1      32.737  25.503  22.243  1.00  0.00     0.023 A 
ATOM     27  C   UNL A   1      34.268  23.709  22.742  1.00  0.00     0.036 A 
ATOM     28  C   UNL A   1      33.098  26.086  23.445  1.00  0.00     0.112 A 
ATOM     29  N   UNL A   1      33.994  25.545  24.294  1.00  0.00    -0.253 NA
ENDBRANCH  21  23
ENDBRANCH  12  21
BRANCH  20  30
ATOM     30  O   UNL A   1      32.928  16.872  24.368  1.00  0.00    -0.406 OA
BRANCH  30  31
ATOM     31  C   UNL A   1      32.860  15.764  25.245  1.00  0.00     0.573 C 
ATOM     32  F   UNL A   1      32.229  14.716  24.660  1.00  0.00    -0.132 F 
ATOM     33  F   UNL A   1      34.084  15.367  25.645  1.00  0.00    -0.132 F 
ATOM     34  F   UNL A   1      32.137  16.105  26.336  1.00  0.00    -0.132 F 
ENDBRANCH  30  31
ENDBRANCH  20  30
ENDBRANCH  10  11
ENDBRANCH   8  10
ENDBRANCH   7   8
ENDBRANCH   6   7
ENDBRANCH   5   6
ENDBRANCH   4   5
ENDBRANCH   3   4
ENDBRANCH   2   3
ENDBRANCH   1   2
BRANCH   1  35
ATOM     35  C   UNL A   1      29.816  28.074  22.492  1.00  0.00     0.188 C 
BRANCH  35  36
ATOM     36  C   UNL A   1      30.785  29.066  23.135  1.00  0.00     0.188 C 
BRANCH  36  37
ATOM     37  O   UNL A   1      30.238  30.156  23.882  1.00  0.00    -0.376 OA
BRANCH  37  38
ATOM     38  C   UNL A   1      30.907  30.583  25.065  1.00  0.00     0.202 C 
BRANCH  38  39
ATOM     39  C   UNL A   1      31.824  29.535  25.689  1.00  0.00     0.261 C 
BRANCH  39  40
ATOM     40  O   UNL A   1      33.145  30.056  25.888  1.00  0.00    -0.460 OA
BRANCH  40  41
ATOM     41  C   UNL A   1      33.229  31.128  26.708  1.00  0.00     0.338 C 
ATOM     42  O   UNL A   1      32.438  32.052  26.804  1.00  0.00    -0.246 OA
BRANCH  41  43
ATOM     43  C   UNL A   1      34.362  30.926  27.627  1.00  0.00     0.060 A 
ATOM     44  C   UNL A   1      35.236  31.998  27.847  1.00  0.00     0.016 A 
ATOM     45  C   UNL A   1      34.570  29.695  28.253  1.00  0.00     0.016 A 
ATOM     46  C   UNL A   1      36.334  31.839  28.685  1.00  0.00     0.010 A 
ATOM     47  C   UNL A   1      35.682  29.530  29.076  1.00  0.00     0.010 A 
ATOM     48  C   UNL A   1      36.579  30.594  29.273  1.00  0.00    -0.014 A 
BRANCH  48  49
ATOM     49  C   UNL A   1      37.852  30.348  29.980  1.00  0.00     0.031 A 
ATOM     50  C   UNL A   1      38.862  29.443  29.335  1.00  0.00     0.074 A 
ATOM     51  C   UNL A   1      38.076  30.889  31.189  1.00  0.00     0.049 A 
ATOM     52  N   UNL A   1      39.995  29.001  29.807  1.00  0.00    -0.248 NA
ATOM     53  C   UNL A   1      38.547  28.969  27.976  1.00  0.00     0.031 C 
ATOM     54  C   UNL A   1      37.167  31.795  31.890  1.00  0.00     0.029 A 
ATOM     55  N   UNL A   1      39.126  30.723  32.055  1.00  0.00    -0.354 N 
ATOM     56  C   UNL A   1      40.512  28.167  28.824  1.00  0.00     0.074 A 
ATOM     57  C   UNL A   1      39.572  28.168  27.725  1.00  0.00     0.031 C 
ATOM     58  C   UNL A   1      37.682  32.075  33.100  1.00  0.00     0.029 A 
ATOM     59  C   UNL A   1      38.932  31.339  33.269  1.00  0.00     0.049 A 
ATOM     60  H   UNL A   1      39.937  30.214  31.830  1.00  0.00     0.167 HD
ATOM     61  C   UNL A   1      41.668  27.465  28.841  1.00  0.00     0.034 A 
ATOM     62  C   UNL A   1      39.666  31.277  34.398  1.00  0.00     0.034 A 
ATOM     63  C   UNL A   1      42.596  27.481  29.937  1.00  0.00     0.049 A 
ATOM     64  C   UNL A   1      40.925  30.446  34.402  1.00  0.00     0.074 A 
ATOM     65  C   UNL A   1      43.824  26.853  30.032  1.00  0.00     0.029 A 
ATOM     66  N   UNL A   1      42.387  28.139  31.139  1.00  0.00    -0.354 N 
ATOM     67  N   UNL A   1      41.467  29.762  33.422  1.00  0.00    -0.248 NA
ATOM     68  C   UNL A   1      41.683  30.396  35.660  1.00  0.00     0.031 C 
ATOM     69  C   UNL A   1      44.338  27.095  31.310  1.00  0.00     0.029 A 
ATOM     70  C   UNL A   1      43.448  27.908  31.995  1.00  0.00     0.049 A 
ATOM     71  H   UNL A   1      41.599  28.690  31.351  1.00  0.00     0.167 HD
ATOM     72  C   UNL A   1      42.644  29.227  33.937  1.00  0.00     0.074 A 
ATOM     73  C   UNL A   1      42.747  29.690  35.306  1.00  0.00     0.031 C 
ATOM     74  C   UNL A   1      43.551  28.414  33.339  1.00  0.00     0.034 A 
BRANCH  61  75
ATOM     75  C   UNL A   1      41.994  26.617  27.642  1.00  0.00     0.023 A 
ATOM     76  C   UNL A   1      42.651  27.187  26.533  1.00  0.00     0.012 A 
ATOM     77  C   UNL A   1      41.710  25.238  27.645  1.00  0.00     0.148 A 
ATOM     78  C   UNL A   1      42.999  26.401  25.434  1.00  0.00     0.002 A 
ATOM     79  C   UNL A   1      42.099  24.453  26.566  1.00  0.00     0.091 A 
ATOM     80  F   UNL A   1      41.061  24.722  28.699  1.00  0.00    -0.205 F 
ATOM     81  C   UNL A   1      42.735  25.034  25.457  1.00  0.00     0.022 A 
BRANCH  79  82
ATOM     82  S   UNL A   1      41.873  22.671  26.531  1.00  0.00     0.127 S 
ATOM     83  O   UNL A   1      40.433  22.552  26.753  1.00  0.00    -0.237 OA
ATOM     84  O   UNL A   1      42.312  22.335  25.177  1.00  0.00    -0.237 OA
ATOM     85  O   UNL A   1      42.711  22.136  27.596  1.00  0.00    -0.744 OA
ENDBRANCH  79  82
ENDBRANCH  61  75
BRANCH  62  86
ATOM     86  C   UNL A   1      39.239  32.020  35.616  1.00  0.00     0.023 A 
ATOM     87  C   UNL A   1      39.597  33.374  35.763  1.00  0.00     0.012 A 
ATOM     88  C   UNL A   1      38.488  31.395  36.632  1.00  0.00     0.148 A 
ATOM     89  C   UNL A   1      39.248  34.082  36.915  1.00  0.00     0.002 A 
ATOM     90  C   UNL A   1      38.095  32.120  37.749  1.00  0.00     0.091 A 
ATOM     91  F   UNL A   1      38.172  30.101  36.483  1.00  0.00    -0.205 F 
ATOM     92  C   UNL A   1      38.490  33.459  37.903  1.00  0.00     0.022 A 
BRANCH  90  93
ATOM     93  S   UNL A   1      37.018  31.437  39.014  1.00  0.00     0.127 S 
ATOM     94  O   UNL A   1      37.817  31.629  40.223  1.00  0.00    -0.237 OA
ATOM     95  O   UNL A   1      35.843  32.301  38.908  1.00  0.00    -0.237 OA
ATOM     96  O   UNL A   1      36.784  30.053  38.626  1.00  0.00    -0.744 OA
ENDBRANCH  90  93
ENDBRANCH  62  86
BRANCH  74  97
ATOM     97  C   UNL A   1      44.750  27.992  34.148  1.00  0.00     0.023 A 
ATOM     98  C   UNL A   1      44.712  26.791  34.883  1.00  0.00     0.012 A 
ATOM     99  C   UNL A   1      45.940  28.746  34.115  1.00  0.00     0.148 A 
ATOM    100  C   UNL A   1      45.829  26.363  35.599  1.00  0.00     0.002 A 
ATOM    101  C   UNL A   1      47.066  28.286  34.787  1.00  0.00     0.091 A 
ATOM    102  F   UNL A   1      45.951  29.893  33.420  1.00  0.00    -0.205 F 
ATOM    103  C   UNL A   1      47.008  27.103  35.541  1.00  0.00     0.022 A 
BRANCH 101 104
ATOM    104  S   UNL A   1      48.655  29.117  34.690  1.00  0.00     0.127 S 
ATOM    105  O   UNL A   1      48.705  29.816  35.973  1.00  0.00    -0.237 OA
ATOM    106  O   UNL A   1      49.583  27.991  34.573  1.00  0.00    -0.237 OA
ATOM    107  O   UNL A   1      48.592  29.976  33.516  1.00  0.00    -0.744 OA
ENDBRANCH 101 104
ENDBRANCH  74  97
ENDBRANCH  48  49
ENDBRANCH  41  43
ENDBRANCH  40  41
ENDBRANCH  39  40
ENDBRANCH  38  39
ENDBRANCH  37  38
ENDBRANCH  36  37
ENDBRANCH  35  36
ENDBRANCH   1  35
TORSDOF 28
ENDMDL
MODEL 3
REMARK VINA RESULT:      -9.8      2.443      8.107
REMARK SMILES Cc1ccnc(C(=O)c2[nH]c3ccc(OC(F)(F)F)cc3c2CC(=O)OCCOCCOCCOCCOC(=O)c2ccc(-c3c4nc(c(-c5cccc(S(=O)(=O)[O-])c5F)c5ccc([nH]5)c(-c5cccc(S(=O)(=O)[O-])c5F)c5nc(c(-c6cccc(S(=O)(=O)[O-])c6F)c6ccc3[nH]6)C=C5)C=C4)cc2)c1
REMARK SMILES IDX 32 1 31 2 30 3 29 4 28 5 27 6 26 7 24 8 25 9 23 10 22 11
REMARK SMILES IDX 9 12 10 13 11 14 21 16 12 17 20 18 13 19 14 20 7 21 8 22
REMARK SMILES IDX 6 23 1 24 2 25 3 26 104 27 4 28 5 29 15 30 16 31 17 32 18 33
REMARK SMILES IDX 19 34 33 35 34 36 35 37 36 38 37 39 38 40 39 41 40 42 41 43
REMARK SMILES IDX 42 44 103 45 43 46 102 47 44 48 45 49 46 50 96 51 47 52
REMARK SMILES IDX 101 53 95 54 97 55 48 56 100 57 94 58 93 59 49 61 81 62
REMARK SMILES IDX 61 63 80 64 62 65 65 66 79 67 98 68 63 69 64 70 78 72 99 73
REMARK SMILES IDX 66 74 50 75 51 76 59 77 52 78 54 79 60 80 53 81 55 82 56 83
REMARK SMILES IDX 57 84 58 85 82 86 83 87 91 88 84 89 86 90 92 91 85 92 87 93
REMARK SMILES IDX 88 94 89 95 90 96 67 97 68 98 76 99 69 100 71 101 77 102
REMARK SMILES IDX 70 103 72 104 73 105 74 106 75 107
REMARK H PARENT 10 15 97 60 65 71
REMARK Flexibility Score: inf
ROOT
ATOM      1  O   UNL A   1      30.109  26.815  24.228  1.00  0.00    -0.377 OA
ENDROOT
BRANCH   1   2
ATOM      2  C   UNL A   1      30.455  25.663  23.479  1.00  0.00     0.188 C 
BRANCH   2   3
ATOM      3  C   UNL A   1      31.652  24.825  23.924  1.00  0.00     0.188 C 
BRANCH   3   4
ATOM      4  O   UNL A   1      32.559  25.407  24.836  1.00  0.00    -0.376 OA
BRANCH   4   5
ATOM      5  C   UNL A   1      32.574  24.884  26.165  1.00  0.00     0.202 C 
BRANCH   5   6
ATOM      6  C   UNL A   1      31.283  24.334  26.806  1.00  0.00     0.261 C 
BRANCH   6   7
ATOM      7  O   UNL A   1      31.332  22.943  27.224  1.00  0.00    -0.463 OA
BRANCH   7   8
ATOM      8  C   UNL A   1      32.531  22.500  27.679  1.00  0.00     0.310 C 
ATOM      9  O   UNL A   1      33.051  22.929  28.712  1.00  0.00    -0.252 OA
BRANCH   8  10
ATOM     10  C   UNL A   1      33.243  21.413  26.893  1.00  0.00     0.161 C 
BRANCH  10  11
ATOM     11  C   UNL A   1      33.899  21.662  25.554  1.00  0.00     0.000 A 
ATOM     12  C   UNL A   1      33.767  20.917  24.368  1.00  0.00     0.093 A 
ATOM     13  N   UNL A   1      34.505  21.592  23.413  1.00  0.00    -0.352 N 
ATOM     14  C   UNL A   1      35.438  22.394  24.027  1.00  0.00     0.046 A 
ATOM     15  H   UNL A   1      34.380  21.511  22.440  1.00  0.00     0.167 HD
ATOM     16  C   UNL A   1      35.066  22.482  25.364  1.00  0.00     0.008 A 
ATOM     17  C   UNL A   1      36.576  23.028  23.512  1.00  0.00     0.030 A 
ATOM     18  C   UNL A   1      35.896  23.216  26.237  1.00  0.00     0.057 A 
ATOM     19  C   UNL A   1      37.413  23.698  24.417  1.00  0.00     0.049 A 
ATOM     20  C   UNL A   1      37.098  23.770  25.772  1.00  0.00     0.130 A 
BRANCH  12  21
ATOM     21  C   UNL A   1      33.021  19.676  24.157  1.00  0.00     0.227 C 
ATOM     22  O   UNL A   1      31.942  19.643  23.561  1.00  0.00    -0.285 OA
BRANCH  21  23
ATOM     23  C   UNL A   1      33.477  18.372  24.723  1.00  0.00     0.113 A 
ATOM     24  C   UNL A   1      32.019  15.136  26.033  1.00  0.00     0.044 C 
ATOM     25  C   UNL A   1      32.983  16.173  25.541  1.00  0.00    -0.047 A 
ATOM     26  C   UNL A   1      34.293  15.808  25.216  1.00  0.00     0.023 A 
ATOM     27  C   UNL A   1      32.565  17.486  25.287  1.00  0.00     0.036 A 
ATOM     28  C   UNL A   1      35.139  16.764  24.683  1.00  0.00     0.112 A 
ATOM     29  N   UNL A   1      34.764  18.035  24.439  1.00  0.00    -0.253 NA
ENDBRANCH  21  23
ENDBRANCH  12  21
BRANCH  20  30
ATOM     30  O   UNL A   1      37.867  24.330  26.755  1.00  0.00    -0.406 OA
BRANCH  30  31
ATOM     31  C   UNL A   1      39.240  23.988  26.797  1.00  0.00     0.573 C 
ATOM     32  F   UNL A   1      39.736  24.120  28.053  1.00  0.00    -0.132 F 
ATOM     33  F   UNL A   1      39.454  22.727  26.374  1.00  0.00    -0.132 F 
ATOM     34  F   UNL A   1      39.932  24.837  26.005  1.00  0.00    -0.132 F 
ENDBRANCH  30  31
ENDBRANCH  20  30
ENDBRANCH  10  11
ENDBRANCH   8  10
ENDBRANCH   7   8
ENDBRANCH   6   7
ENDBRANCH   5   6
ENDBRANCH   4   5
ENDBRANCH   3   4
ENDBRANCH   2   3
ENDBRANCH   1   2
BRANCH   1  35
ATOM     35  C   UNL A   1      30.546  28.097  23.799  1.00  0.00     0.188 C 
BRANCH  35  36
ATOM     36  C   UNL A   1      31.488  28.880  24.713  1.00  0.00     0.188 C 
BRANCH  36  37
ATOM     37  O   UNL A   1      31.248  30.279  24.891  1.00  0.00    -0.376 OA
BRANCH  37  38
ATOM     38  C   UNL A   1      31.418  30.846  26.187  1.00  0.00     0.202 C 
BRANCH  38  39
ATOM     39  C   UNL A   1      32.393  30.092  27.086  1.00  0.00     0.261 C 
BRANCH  39  40
ATOM     40  O   UNL A   1      33.744  30.514  26.854  1.00  0.00    -0.460 OA
BRANCH  40  41
ATOM     41  C   UNL A   1      34.154  31.576  27.585  1.00  0.00     0.338 C 
ATOM     42  O   UNL A   1      33.561  32.627  27.764  1.00  0.00    -0.246 OA
BRANCH  41  43
ATOM     43  C   UNL A   1      35.382  31.200  28.306  1.00  0.00     0.060 A 
ATOM     44  C   UNL A   1      36.435  32.124  28.347  1.00  0.00     0.016 A 
ATOM     45  C   UNL A   1      35.503  29.951  28.919  1.00  0.00     0.016 A 
ATOM     46  C   UNL A   1      37.622  31.796  28.993  1.00  0.00     0.010 A 
ATOM     47  C   UNL A   1      36.701  29.616  29.547  1.00  0.00     0.010 A 
ATOM     48  C   UNL A   1      37.770  30.527  29.563  1.00  0.00    -0.014 A 
BRANCH  48  49
ATOM     49  C   UNL A   1      39.093  30.087  30.051  1.00  0.00     0.031 A 
ATOM     50  C   UNL A   1      39.670  30.769  31.258  1.00  0.00     0.074 A 
ATOM     51  C   UNL A   1      39.775  29.129  29.401  1.00  0.00     0.049 A 
ATOM     52  N   UNL A   1      40.848  30.626  31.802  1.00  0.00    -0.248 NA
ATOM     53  C   UNL A   1      38.804  31.747  31.939  1.00  0.00     0.031 C 
ATOM     54  C   UNL A   1      39.293  28.395  28.232  1.00  0.00     0.029 A 
ATOM     55  N   UNL A   1      41.037  28.639  29.613  1.00  0.00    -0.354 N 
ATOM     56  C   UNL A   1      40.881  31.521  32.864  1.00  0.00     0.074 A 
ATOM     57  C   UNL A   1      39.604  32.199  32.893  1.00  0.00     0.031 C 
ATOM     58  C   UNL A   1      40.266  27.573  27.804  1.00  0.00     0.029 A 
ATOM     59  C   UNL A   1      41.447  27.753  28.645  1.00  0.00     0.049 A 
ATOM     60  H   UNL A   1      41.595  28.896  30.382  1.00  0.00     0.167 HD
ATOM     61  C   UNL A   1      41.890  31.753  33.734  1.00  0.00     0.034 A 
ATOM     62  C   UNL A   1      42.653  27.187  28.445  1.00  0.00     0.034 A 
ATOM     63  C   UNL A   1      43.150  31.065  33.699  1.00  0.00     0.049 A 
ATOM     64  C   UNL A   1      43.773  27.503  29.404  1.00  0.00     0.074 A 
ATOM     65  C   UNL A   1      44.218  31.182  34.569  1.00  0.00     0.029 A 
ATOM     66  N   UNL A   1      43.523  30.150  32.726  1.00  0.00    -0.354 N 
ATOM     67  N   UNL A   1      43.754  28.256  30.478  1.00  0.00    -0.248 NA
ATOM     68  C   UNL A   1      45.074  26.875  29.136  1.00  0.00     0.031 C 
ATOM     69  C   UNL A   1      45.254  30.370  34.097  1.00  0.00     0.029 A 
ATOM     70  C   UNL A   1      44.816  29.716  32.956  1.00  0.00     0.049 A 
ATOM     71  H   UNL A   1      42.951  29.853  31.982  1.00  0.00     0.167 HD
ATOM     72  C   UNL A   1      45.028  28.167  31.030  1.00  0.00     0.074 A 
ATOM     73  C   UNL A   1      45.785  27.265  30.184  1.00  0.00     0.031 C 
ATOM     74  C   UNL A   1      45.535  28.785  32.125  1.00  0.00     0.034 A 
BRANCH  61  75
ATOM     75  C   UNL A   1      41.676  32.795  34.798  1.00  0.00     0.023 A 
ATOM     76  C   UNL A   1      41.919  34.154  34.514  1.00  0.00     0.012 A 
ATOM     77  C   UNL A   1      41.168  32.432  36.060  1.00  0.00     0.148 A 
ATOM     78  C   UNL A   1      41.682  35.134  35.478  1.00  0.00     0.002 A 
ATOM     79  C   UNL A   1      40.892  33.417  37.001  1.00  0.00     0.091 A 
ATOM     80  F   UNL A   1      40.970  31.131  36.319  1.00  0.00    -0.205 F 
ATOM     81  C   UNL A   1      41.157  34.767  36.715  1.00  0.00     0.022 A 
BRANCH  79  82
ATOM     82  S   UNL A   1      40.145  33.057  38.593  1.00  0.00     0.127 S 
ATOM     83  O   UNL A   1      38.973  32.277  38.200  1.00  0.00    -0.237 OA
ATOM     84  O   UNL A   1      41.198  32.286  39.256  1.00  0.00    -0.237 OA
ATOM     85  O   UNL A   1      39.855  34.346  39.205  1.00  0.00    -0.744 OA
ENDBRANCH  79  82
ENDBRANCH  61  75
BRANCH  62  86
ATOM     86  C   UNL A   1      42.871  26.263  27.296  1.00  0.00     0.023 A 
ATOM     87  C   UNL A   1      43.098  26.796  26.012  1.00  0.00     0.012 A 
ATOM     88  C   UNL A   1      42.850  24.865  27.464  1.00  0.00     0.148 A 
ATOM     89  C   UNL A   1      43.262  25.953  24.911  1.00  0.00     0.002 A 
ATOM     90  C   UNL A   1      43.070  24.032  26.375  1.00  0.00     0.091 A 
ATOM     91  F   UNL A   1      42.615  24.377  28.691  1.00  0.00    -0.205 F 
ATOM     92  C   UNL A   1      43.257  24.572  25.093  1.00  0.00     0.022 A 
BRANCH  90  93
ATOM     93  S   UNL A   1      43.200  22.247  26.535  1.00  0.00     0.127 S 
ATOM     94  O   UNL A   1      42.902  21.803  25.176  1.00  0.00    -0.237 OA
ATOM     95  O   UNL A   1      44.595  22.083  26.945  1.00  0.00    -0.237 OA
ATOM     96  O   UNL A   1      42.227  21.870  27.551  1.00  0.00    -0.744 OA
ENDBRANCH  90  93
ENDBRANCH  62  86
BRANCH  74  97
ATOM     97  C   UNL A   1      46.966  28.491  32.495  1.00  0.00     0.023 A 
ATOM     98  C   UNL A   1      48.000  29.309  32.000  1.00  0.00     0.012 A 
ATOM     99  C   UNL A   1      47.276  27.451  33.395  1.00  0.00     0.148 A 
ATOM    100  C   UNL A   1      49.324  29.079  32.370  1.00  0.00     0.002 A 
ATOM    101  C   UNL A   1      48.591  27.260  33.800  1.00  0.00     0.091 A 
ATOM    102  F   UNL A   1      46.278  26.675  33.843  1.00  0.00    -0.205 F 
ATOM    103  C   UNL A   1      49.618  28.064  33.277  1.00  0.00     0.022 A 
BRANCH 101 104
ATOM    104  S   UNL A   1      49.053  26.046  35.039  1.00  0.00     0.127 S 
ATOM    105  O   UNL A   1      48.740  24.791  34.358  1.00  0.00    -0.237 OA
ATOM    106  O   UNL A   1      50.483  26.308  35.208  1.00  0.00    -0.237 OA
ATOM    107  O   UNL A   1      48.241  26.336  36.213  1.00  0.00    -0.744 OA
ENDBRANCH 101 104
ENDBRANCH  74  97
ENDBRANCH  48  49
ENDBRANCH  41  43
ENDBRANCH  40  41
ENDBRANCH  39  40
ENDBRANCH  38  39
ENDBRANCH  37  38
ENDBRANCH  36  37
ENDBRANCH  35  36
ENDBRANCH   1  35
TORSDOF 28
ENDMDL
