MODEL 1
REMARK VINA RESULT:      -7.3      0.000      0.000
REMARK SMILES C[C@@H]([C@H]1CC=CS1)n1nccc1NC(=O)CC1(CC(=O)OCCOCCOCCOCCOC(=O)c2ccc(-c3c4nc(c(-c5cccc(S(=O)(=O)[O-])c5F)c5ccc([nH]5)c(-c5cccc(S(=O)(=O)[O-])c5F)c5nc(c(-c6cccc(S(=O)(=O)[O-])c6F)c6ccc3[nH]6)C=C5)C=C4)cc2)CCCCC1
REMARK SMILES IDX 25 1 24 2 23 3 22 4 21 5 19 6 20 7 18 8 17 9 99 10 103 11
REMARK SMILES IDX 100 12 102 13 101 14 16 15 14 16 13 17 15 19 12 20 8 21 9 22
REMARK SMILES IDX 10 23 11 24 2 25 1 26 3 27 4 28 7 29 5 30 6 31 26 32 27 33
REMARK SMILES IDX 28 34 29 35 30 36 31 37 32 38 33 39 34 40 35 41 36 42 37 43
REMARK SMILES IDX 98 44 38 45 97 46 39 47 40 48 41 49 91 50 42 51 96 52 90 53
REMARK SMILES IDX 92 54 43 55 95 56 89 57 88 58 44 60 76 61 56 62 75 63 57 64
REMARK SMILES IDX 60 65 74 66 93 67 58 68 59 69 73 71 94 72 61 73 45 74 46 75
REMARK SMILES IDX 54 76 47 77 49 78 55 79 48 80 50 81 51 82 52 83 53 84 77 85
REMARK SMILES IDX 78 86 86 87 79 88 81 89 87 90 80 91 82 92 83 93 84 94 85 95
REMARK SMILES IDX 62 96 63 97 71 98 64 99 66 100 72 101 65 102 67 103 68 104
REMARK SMILES IDX 69 105 70 106
REMARK H PARENT 13 18 92 59 60 70
REMARK Flexibility Score: inf
ROOT
ATOM      1  C   UNL A   1      34.888  31.590  27.754  1.00  0.00     0.188 C 
ENDROOT
BRANCH   1   2
ATOM      2  O   UNL A   1      35.130  30.195  27.663  1.00  0.00    -0.376 OA
BRANCH   2   3
ATOM      3  C   UNL A   1      33.988  29.357  27.458  1.00  0.00     0.202 C 
BRANCH   3   4
ATOM      4  C   UNL A   1      33.729  28.866  26.016  1.00  0.00     0.261 C 
BRANCH   4   5
ATOM      5  O   UNL A   1      32.411  28.283  25.826  1.00  0.00    -0.463 OA
BRANCH   5   6
ATOM      6  C   UNL A   1      32.054  27.261  26.635  1.00  0.00     0.306 C 
ATOM      7  O   UNL A   1      31.085  27.293  27.388  1.00  0.00    -0.252 OA
BRANCH   6   8
ATOM      8  C   UNL A   1      32.818  25.952  26.405  1.00  0.00     0.130 C 
BRANCH   8   9
ATOM      9  C   UNL A   1      32.242  24.654  25.745  1.00  0.00    -0.010 C 
ATOM     10  C   UNL A   1      31.869  23.646  26.872  1.00  0.00     0.008 C 
ATOM     11  C   UNL A   1      33.241  23.931  24.796  1.00  0.00     0.008 C 
ATOM     12  C   UNL A   1      33.036  22.956  27.570  1.00  0.00     0.001 C 
ATOM     13  C   UNL A   1      34.420  23.265  25.508  1.00  0.00     0.001 C 
ATOM     14  C   UNL A   1      33.942  22.273  26.560  1.00  0.00     0.000 C 
BRANCH   9  15
ATOM     15  C   UNL A   1      30.931  24.918  24.908  1.00  0.00     0.108 C 
BRANCH  15  16
ATOM     16  C   UNL A   1      30.868  24.635  23.412  1.00  0.00     0.226 C 
ATOM     17  N   UNL A   1      31.364  25.473  22.372  1.00  0.00    -0.311 N 
ATOM     18  H   UNL A   1      31.272  25.120  21.458  1.00  0.00     0.171 HD
ATOM     19  O   UNL A   1      30.386  23.616  22.943  1.00  0.00    -0.275 OA
BRANCH  17  20
ATOM     20  C   UNL A   1      31.952  26.705  22.479  1.00  0.00     0.131 A 
ATOM     21  N   UNL A   1      31.350  27.946  22.424  1.00  0.00    -0.246 N 
ATOM     22  N   UNL A   1      32.267  28.899  22.136  1.00  0.00    -0.179 NA
ATOM     23  C   UNL A   1      33.432  28.330  22.441  1.00  0.00     0.137 A 
ATOM     24  C   UNL A   1      33.285  26.959  22.707  1.00  0.00     0.068 A 
BRANCH  21  25
ATOM     25  C   UNL A   1      29.951  28.383  22.576  1.00  0.00     0.120 C 
ATOM     26  C   UNL A   1      29.290  27.955  23.895  1.00  0.00     0.034 C 
BRANCH  25  27
ATOM     27  C   UNL A   1      29.878  29.922  22.366  1.00  0.00     0.079 C 
ATOM     28  C   UNL A   1      28.910  30.371  21.249  1.00  0.00     0.045 C 
ATOM     29  S   UNL A   1      29.324  30.905  23.830  1.00  0.00    -0.128 SA
ATOM     30  C   UNL A   1      28.436  31.751  21.569  1.00  0.00    -0.019 C 
ATOM     31  C   UNL A   1      28.596  32.123  22.840  1.00  0.00     0.037 C 
ENDBRANCH  25  27
ENDBRANCH  21  25
ENDBRANCH  17  20
ENDBRANCH  15  16
ENDBRANCH   9  15
ENDBRANCH   8   9
ENDBRANCH   6   8
ENDBRANCH   5   6
ENDBRANCH   4   5
ENDBRANCH   3   4
ENDBRANCH   2   3
ENDBRANCH   1   2
BRANCH   1  32
ATOM     32  C   UNL A   1      35.310  32.260  29.056  1.00  0.00     0.188 C 
BRANCH  32  33
ATOM     33  O   UNL A   1      36.285  33.277  28.905  1.00  0.00    -0.377 OA
BRANCH  33  34
ATOM     34  C   UNL A   1      36.989  33.771  30.041  1.00  0.00     0.188 C 
BRANCH  34  35
ATOM     35  C   UNL A   1      38.412  33.256  30.264  1.00  0.00     0.188 C 
BRANCH  35  36
ATOM     36  O   UNL A   1      38.654  32.410  31.400  1.00  0.00    -0.376 OA
BRANCH  36  37
ATOM     37  C   UNL A   1      39.770  32.663  32.251  1.00  0.00     0.202 C 
BRANCH  37  38
ATOM     38  C   UNL A   1      40.409  31.430  32.846  1.00  0.00     0.261 C 
BRANCH  38  39
ATOM     39  O   UNL A   1      40.673  30.503  31.807  1.00  0.00    -0.460 OA
BRANCH  39  40
ATOM     40  C   UNL A   1      40.110  29.293  32.016  1.00  0.00     0.338 C 
ATOM     41  O   UNL A   1      38.928  29.032  32.131  1.00  0.00    -0.246 OA
BRANCH  40  42
ATOM     42  C   UNL A   1      41.176  28.350  32.329  1.00  0.00     0.060 A 
ATOM     43  C   UNL A   1      41.121  27.813  33.614  1.00  0.00     0.016 A 
ATOM     44  C   UNL A   1      42.353  28.408  31.567  1.00  0.00     0.016 A 
ATOM     45  C   UNL A   1      42.310  27.572  34.247  1.00  0.00     0.010 A 
ATOM     46  C   UNL A   1      43.540  28.209  32.214  1.00  0.00     0.010 A 
ATOM     47  C   UNL A   1      43.495  27.860  33.562  1.00  0.00    -0.014 A 
BRANCH  47  48
ATOM     48  C   UNL A   1      44.731  27.551  34.230  1.00  0.00     0.031 A 
ATOM     49  C   UNL A   1      44.912  26.089  34.295  1.00  0.00     0.074 A 
ATOM     50  C   UNL A   1      45.600  28.504  34.605  1.00  0.00     0.049 A 
ATOM     51  N   UNL A   1      44.813  25.332  35.337  1.00  0.00    -0.248 NA
ATOM     52  C   UNL A   1      44.918  25.348  33.018  1.00  0.00     0.031 C 
ATOM     53  C   UNL A   1      45.538  29.927  34.253  1.00  0.00     0.029 A 
ATOM     54  N   UNL A   1      46.801  28.384  35.231  1.00  0.00    -0.354 N 
ATOM     55  C   UNL A   1      45.089  24.058  34.852  1.00  0.00     0.074 A 
ATOM     56  C   UNL A   1      44.810  24.091  33.446  1.00  0.00     0.031 C 
ATOM     57  C   UNL A   1      46.760  30.473  34.436  1.00  0.00     0.029 A 
ATOM     58  C   UNL A   1      47.638  29.474  35.020  1.00  0.00     0.049 A 
ATOM     59  H   UNL A   1      47.053  27.605  35.778  1.00  0.00     0.167 HD
ATOM     60  C   UNL A   1      45.949  23.261  35.539  1.00  0.00     0.034 A 
ATOM     61  C   UNL A   1      48.979  29.503  35.216  1.00  0.00     0.034 A 
ATOM     62  C   UNL A   1      46.087  23.726  36.897  1.00  0.00     0.049 A 
ATOM     63  C   UNL A   1      49.320  28.390  36.132  1.00  0.00     0.074 A 
ATOM     64  C   UNL A   1      45.297  23.780  38.022  1.00  0.00     0.029 A 
ATOM     65  N   UNL A   1      47.116  24.614  37.068  1.00  0.00    -0.354 N 
ATOM     66  N   UNL A   1      48.947  28.345  37.381  1.00  0.00    -0.248 NA
ATOM     67  C   UNL A   1      49.810  27.130  35.580  1.00  0.00     0.031 C 
ATOM     68  C   UNL A   1      45.829  24.826  38.830  1.00  0.00     0.029 A 
ATOM     69  C   UNL A   1      46.947  25.367  38.195  1.00  0.00     0.049 A 
ATOM     70  H   UNL A   1      47.881  24.700  36.456  1.00  0.00     0.167 HD
ATOM     71  C   UNL A   1      48.727  26.999  37.614  1.00  0.00     0.074 A 
ATOM     72  C   UNL A   1      49.450  26.300  36.562  1.00  0.00     0.031 C 
ATOM     73  C   UNL A   1      47.699  26.588  38.408  1.00  0.00     0.034 A 
BRANCH  60  74
ATOM     74  C   UNL A   1      47.066  22.445  34.900  1.00  0.00     0.023 A 
ATOM     75  C   UNL A   1      47.051  21.058  35.169  1.00  0.00     0.012 A 
ATOM     76  C   UNL A   1      48.259  22.963  34.337  1.00  0.00     0.148 A 
ATOM     77  C   UNL A   1      48.177  20.254  34.965  1.00  0.00     0.002 A 
ATOM     78  C   UNL A   1      49.357  22.151  34.081  1.00  0.00     0.091 A 
ATOM     79  F   UNL A   1      48.411  24.270  34.141  1.00  0.00    -0.205 F 
ATOM     80  C   UNL A   1      49.333  20.799  34.423  1.00  0.00     0.022 A 
BRANCH  78  81
ATOM     81  S   UNL A   1      50.872  22.813  33.366  1.00  0.00     0.127 S 
ATOM     82  O   UNL A   1      51.486  21.607  32.821  1.00  0.00    -0.237 OA
ATOM     83  O   UNL A   1      50.346  23.750  32.376  1.00  0.00    -0.237 OA
ATOM     84  O   UNL A   1      51.593  23.446  34.466  1.00  0.00    -0.744 OA
ENDBRANCH  78  81
ENDBRANCH  60  74
BRANCH  61  85
ATOM     85  C   UNL A   1      50.023  30.281  34.511  1.00  0.00     0.023 A 
ATOM     86  C   UNL A   1      50.829  31.171  35.249  1.00  0.00     0.012 A 
ATOM     87  C   UNL A   1      50.414  29.971  33.189  1.00  0.00     0.148 A 
ATOM     88  C   UNL A   1      52.007  31.698  34.707  1.00  0.00     0.002 A 
ATOM     89  C   UNL A   1      51.577  30.511  32.648  1.00  0.00     0.091 A 
ATOM     90  F   UNL A   1      49.703  29.075  32.494  1.00  0.00    -0.205 F 
ATOM     91  C   UNL A   1      52.386  31.362  33.410  1.00  0.00     0.022 A 
BRANCH  89  92
ATOM     92  S   UNL A   1      52.124  30.112  30.981  1.00  0.00     0.127 S 
ATOM     93  O   UNL A   1      50.878  30.208  30.218  1.00  0.00    -0.237 OA
ATOM     94  O   UNL A   1      53.090  31.173  30.714  1.00  0.00    -0.237 OA
ATOM     95  O   UNL A   1      52.672  28.762  31.053  1.00  0.00    -0.744 OA
ENDBRANCH  89  92
ENDBRANCH  61  85
BRANCH  73  96
ATOM     96  C   UNL A   1      47.204  27.528  39.464  1.00  0.00     0.023 A 
ATOM     97  C   UNL A   1      47.740  27.586  40.765  1.00  0.00     0.012 A 
ATOM     98  C   UNL A   1      46.237  28.471  39.079  1.00  0.00     0.148 A 
ATOM     99  C   UNL A   1      47.306  28.562  41.665  1.00  0.00     0.002 A 
ATOM    100  C   UNL A   1      45.851  29.473  39.954  1.00  0.00     0.091 A 
ATOM    101  F   UNL A   1      45.723  28.383  37.841  1.00  0.00    -0.205 F 
ATOM    102  C   UNL A   1      46.375  29.517  41.254  1.00  0.00     0.022 A 
BRANCH 100 103
ATOM    103  S   UNL A   1      44.766  30.799  39.424  1.00  0.00     0.127 S 
ATOM    104  O   UNL A   1      44.094  31.160  40.670  1.00  0.00    -0.237 OA
ATOM    105  O   UNL A   1      45.712  31.798  38.925  1.00  0.00    -0.237 OA
ATOM    106  O   UNL A   1      43.913  30.223  38.392  1.00  0.00    -0.744 OA
ENDBRANCH 100 103
ENDBRANCH  73  96
ENDBRANCH  47  48
ENDBRANCH  40  42
ENDBRANCH  39  40
ENDBRANCH  38  39
ENDBRANCH  37  38
ENDBRANCH  36  37
ENDBRANCH  35  36
ENDBRANCH  34  35
ENDBRANCH  33  34
ENDBRANCH  32  33
ENDBRANCH   1  32
TORSDOF 29
ENDMDL
MODEL 2
REMARK VINA RESULT:      -7.2      7.053     11.492
REMARK SMILES C[C@@H]([C@H]1CC=CS1)n1nccc1NC(=O)CC1(CC(=O)OCCOCCOCCOCCOC(=O)c2ccc(-c3c4nc(c(-c5cccc(S(=O)(=O)[O-])c5F)c5ccc([nH]5)c(-c5cccc(S(=O)(=O)[O-])c5F)c5nc(c(-c6cccc(S(=O)(=O)[O-])c6F)c6ccc3[nH]6)C=C5)C=C4)cc2)CCCCC1
REMARK SMILES IDX 25 1 24 2 23 3 22 4 21 5 19 6 20 7 18 8 17 9 99 10 103 11
REMARK SMILES IDX 100 12 102 13 101 14 16 15 14 16 13 17 15 19 12 20 8 21 9 22
REMARK SMILES IDX 10 23 11 24 2 25 1 26 3 27 4 28 7 29 5 30 6 31 26 32 27 33
REMARK SMILES IDX 28 34 29 35 30 36 31 37 32 38 33 39 34 40 35 41 36 42 37 43
REMARK SMILES IDX 98 44 38 45 97 46 39 47 40 48 41 49 91 50 42 51 96 52 90 53
REMARK SMILES IDX 92 54 43 55 95 56 89 57 88 58 44 60 76 61 56 62 75 63 57 64
REMARK SMILES IDX 60 65 74 66 93 67 58 68 59 69 73 71 94 72 61 73 45 74 46 75
REMARK SMILES IDX 54 76 47 77 49 78 55 79 48 80 50 81 51 82 52 83 53 84 77 85
REMARK SMILES IDX 78 86 86 87 79 88 81 89 87 90 80 91 82 92 83 93 84 94 85 95
REMARK SMILES IDX 62 96 63 97 71 98 64 99 66 100 72 101 65 102 67 103 68 104
REMARK SMILES IDX 69 105 70 106
REMARK H PARENT 13 18 92 59 60 70
REMARK Flexibility Score: inf
ROOT
ATOM      1  C   UNL A   1      35.105  31.630  28.734  1.00  0.00     0.188 C 
ENDROOT
BRANCH   1   2
ATOM      2  O   UNL A   1      35.125  30.605  27.754  1.00  0.00    -0.376 OA
BRANCH   2   3
ATOM      3  C   UNL A   1      33.862  30.221  27.200  1.00  0.00     0.202 C 
BRANCH   3   4
ATOM      4  C   UNL A   1      33.841  28.957  26.312  1.00  0.00     0.261 C 
BRANCH   4   5
ATOM      5  O   UNL A   1      32.506  28.433  26.073  1.00  0.00    -0.463 OA
BRANCH   5   6
ATOM      6  C   UNL A   1      32.056  27.464  26.899  1.00  0.00     0.306 C 
ATOM      7  O   UNL A   1      31.052  27.575  27.598  1.00  0.00    -0.252 OA
BRANCH   6   8
ATOM      8  C   UNL A   1      32.762  26.110  26.760  1.00  0.00     0.130 C 
BRANCH   8   9
ATOM      9  C   UNL A   1      32.276  24.905  25.886  1.00  0.00    -0.010 C 
ATOM     10  C   UNL A   1      31.947  23.709  26.827  1.00  0.00     0.008 C 
ATOM     11  C   UNL A   1      33.333  24.402  24.860  1.00  0.00     0.008 C 
ATOM     12  C   UNL A   1      33.141  22.983  27.436  1.00  0.00     0.001 C 
ATOM     13  C   UNL A   1      34.538  23.700  25.486  1.00  0.00     0.001 C 
ATOM     14  C   UNL A   1      34.103  22.524  26.353  1.00  0.00     0.000 C 
BRANCH   9  15
ATOM     15  C   UNL A   1      30.965  25.225  25.069  1.00  0.00     0.108 C 
BRANCH  15  16
ATOM     16  C   UNL A   1      30.869  24.946  23.574  1.00  0.00     0.226 C 
ATOM     17  N   UNL A   1      31.288  25.811  22.524  1.00  0.00    -0.311 N 
ATOM     18  H   UNL A   1      31.184  25.458  21.610  1.00  0.00     0.171 HD
ATOM     19  O   UNL A   1      30.422  23.906  23.115  1.00  0.00    -0.275 OA
BRANCH  17  20
ATOM     20  C   UNL A   1      31.818  27.071  22.618  1.00  0.00     0.131 A 
ATOM     21  N   UNL A   1      31.185  28.281  22.415  1.00  0.00    -0.246 N 
ATOM     22  N   UNL A   1      32.096  29.252  22.174  1.00  0.00    -0.179 NA
ATOM     23  C   UNL A   1      33.236  28.750  22.648  1.00  0.00     0.137 A 
ATOM     24  C   UNL A   1      33.105  27.393  22.982  1.00  0.00     0.068 A 
BRANCH  21  25
ATOM     25  C   UNL A   1      29.764  28.668  22.376  1.00  0.00     0.120 C 
ATOM     26  C   UNL A   1      28.931  28.157  23.563  1.00  0.00     0.034 C 
BRANCH  25  27
ATOM     27  C   UNL A   1      29.666  30.212  22.225  1.00  0.00     0.079 C 
ATOM     28  C   UNL A   1      28.591  30.691  21.224  1.00  0.00     0.045 C 
ATOM     29  S   UNL A   1      29.256  31.145  23.768  1.00  0.00    -0.128 SA
ATOM     30  C   UNL A   1      28.147  32.057  21.634  1.00  0.00    -0.019 C 
ATOM     31  C   UNL A   1      28.431  32.389  22.895  1.00  0.00     0.037 C 
ENDBRANCH  25  27
ENDBRANCH  21  25
ENDBRANCH  17  20
ENDBRANCH  15  16
ENDBRANCH   9  15
ENDBRANCH   8   9
ENDBRANCH   6   8
ENDBRANCH   5   6
ENDBRANCH   4   5
ENDBRANCH   3   4
ENDBRANCH   2   3
ENDBRANCH   1   2
BRANCH   1  32
ATOM     32  C   UNL A   1      35.997  31.412  29.951  1.00  0.00     0.188 C 
BRANCH  32  33
ATOM     33  O   UNL A   1      36.144  30.057  30.337  1.00  0.00    -0.377 OA
BRANCH  33  34
ATOM     34  C   UNL A   1      37.370  29.600  30.903  1.00  0.00     0.188 C 
BRANCH  34  35
ATOM     35  C   UNL A   1      38.558  30.562  30.873  1.00  0.00     0.188 C 
BRANCH  35  36
ATOM     36  O   UNL A   1      38.956  31.183  32.106  1.00  0.00    -0.376 OA
BRANCH  36  37
ATOM     37  C   UNL A   1      38.505  32.499  32.419  1.00  0.00     0.202 C 
BRANCH  37  38
ATOM     38  C   UNL A   1      37.355  32.563  33.398  1.00  0.00     0.261 C 
BRANCH  38  39
ATOM     39  O   UNL A   1      37.496  33.725  34.197  1.00  0.00    -0.460 OA
BRANCH  39  40
ATOM     40  C   UNL A   1      37.000  33.578  35.444  1.00  0.00     0.338 C 
ATOM     41  O   UNL A   1      35.854  33.746  35.814  1.00  0.00    -0.246 OA
BRANCH  40  42
ATOM     42  C   UNL A   1      38.123  33.413  36.358  1.00  0.00     0.060 A 
ATOM     43  C   UNL A   1      37.772  33.026  37.650  1.00  0.00     0.016 A 
ATOM     44  C   UNL A   1      39.327  34.065  36.049  1.00  0.00     0.016 A 
ATOM     45  C   UNL A   1      38.513  33.533  38.683  1.00  0.00     0.010 A 
ATOM     46  C   UNL A   1      40.040  34.607  37.080  1.00  0.00     0.010 A 
ATOM     47  C   UNL A   1      39.579  34.385  38.376  1.00  0.00    -0.014 A 
BRANCH  47  48
ATOM     48  C   UNL A   1      40.374  34.864  39.476  1.00  0.00     0.031 A 
ATOM     49  C   UNL A   1      40.109  36.299  39.696  1.00  0.00     0.074 A 
ATOM     50  C   UNL A   1      41.130  34.044  40.224  1.00  0.00     0.049 A 
ATOM     51  N   UNL A   1      40.894  37.290  39.432  1.00  0.00    -0.248 NA
ATOM     52  C   UNL A   1      38.714  36.698  39.968  1.00  0.00     0.031 C 
ATOM     53  C   UNL A   1      41.134  32.577  40.176  1.00  0.00     0.029 A 
ATOM     54  N   UNL A   1      41.924  34.329  41.290  1.00  0.00    -0.354 N 
ATOM     55  C   UNL A   1      40.171  38.406  39.841  1.00  0.00     0.074 A 
ATOM     56  C   UNL A   1      38.791  38.021  39.830  1.00  0.00     0.031 C 
ATOM     57  C   UNL A   1      41.676  32.108  41.321  1.00  0.00     0.029 A 
ATOM     58  C   UNL A   1      42.152  33.230  42.110  1.00  0.00     0.049 A 
ATOM     59  H   UNL A   1      42.300  35.223  41.464  1.00  0.00     0.167 HD
ATOM     60  C   UNL A   1      40.792  39.358  40.587  1.00  0.00     0.034 A 
ATOM     61  C   UNL A   1      42.600  33.265  43.389  1.00  0.00     0.034 A 
ATOM     62  C   UNL A   1      42.223  39.248  40.451  1.00  0.00     0.049 A 
ATOM     63  C   UNL A   1      43.262  34.575  43.594  1.00  0.00     0.074 A 
ATOM     64  C   UNL A   1      43.155  39.467  39.463  1.00  0.00     0.029 A 
ATOM     65  N   UNL A   1      42.800  38.441  41.396  1.00  0.00    -0.354 N 
ATOM     66  N   UNL A   1      44.366  34.925  42.995  1.00  0.00    -0.248 NA
ATOM     67  C   UNL A   1      42.520  35.663  44.225  1.00  0.00     0.031 C 
ATOM     68  C   UNL A   1      44.281  38.661  39.795  1.00  0.00     0.029 A 
ATOM     69  C   UNL A   1      44.025  37.991  40.991  1.00  0.00     0.049 A 
ATOM     70  H   UNL A   1      42.385  38.213  42.259  1.00  0.00     0.167 HD
ATOM     71  C   UNL A   1      44.214  36.284  42.786  1.00  0.00     0.074 A 
ATOM     72  C   UNL A   1      43.180  36.707  43.718  1.00  0.00     0.031 C 
ATOM     73  C   UNL A   1      44.671  36.870  41.644  1.00  0.00     0.034 A 
BRANCH  60  74
ATOM     74  C   UNL A   1      40.196  40.001  41.834  1.00  0.00     0.023 A 
ATOM     75  C   UNL A   1      40.147  41.413  41.838  1.00  0.00     0.012 A 
ATOM     76  C   UNL A   1      39.980  39.360  43.079  1.00  0.00     0.148 A 
ATOM     77  C   UNL A   1      39.973  42.142  43.019  1.00  0.00     0.002 A 
ATOM     78  C   UNL A   1      39.749  40.086  44.241  1.00  0.00     0.091 A 
ATOM     79  F   UNL A   1      40.106  38.042  43.201  1.00  0.00    -0.205 F 
ATOM     80  C   UNL A   1      39.776  41.480  44.224  1.00  0.00     0.022 A 
BRANCH  78  81
ATOM     81  S   UNL A   1      39.476  39.269  45.823  1.00  0.00     0.127 S 
ATOM     82  O   UNL A   1      38.339  38.409  45.513  1.00  0.00    -0.237 OA
ATOM     83  O   UNL A   1      40.748  38.577  46.021  1.00  0.00    -0.237 OA
ATOM     84  O   UNL A   1      39.217  40.334  46.787  1.00  0.00    -0.744 OA
ENDBRANCH  78  81
ENDBRANCH  60  74
BRANCH  61  85
ATOM     85  C   UNL A   1      42.321  32.347  44.516  1.00  0.00     0.023 A 
ATOM     86  C   UNL A   1      41.158  31.551  44.481  1.00  0.00     0.012 A 
ATOM     87  C   UNL A   1      43.302  32.047  45.488  1.00  0.00     0.148 A 
ATOM     88  C   UNL A   1      40.998  30.468  45.352  1.00  0.00     0.002 A 
ATOM     89  C   UNL A   1      43.131  30.979  46.363  1.00  0.00     0.091 A 
ATOM     90  F   UNL A   1      44.445  32.744  45.496  1.00  0.00    -0.205 F 
ATOM     91  C   UNL A   1      41.987  30.175  46.287  1.00  0.00     0.022 A 
BRANCH  89  92
ATOM     92  S   UNL A   1      44.374  30.546  47.590  1.00  0.00     0.127 S 
ATOM     93  O   UNL A   1      45.532  30.227  46.755  1.00  0.00    -0.237 OA
ATOM     94  O   UNL A   1      44.492  31.785  48.354  1.00  0.00    -0.237 OA
ATOM     95  O   UNL A   1      43.834  29.404  48.320  1.00  0.00    -0.744 OA
ENDBRANCH  89  92
ENDBRANCH  61  85
BRANCH  73  96
ATOM     96  C   UNL A   1      45.812  36.217  40.925  1.00  0.00     0.023 A 
ATOM     97  C   UNL A   1      47.159  36.369  41.308  1.00  0.00     0.012 A 
ATOM     98  C   UNL A   1      45.490  35.319  39.895  1.00  0.00     0.148 A 
ATOM     99  C   UNL A   1      48.163  35.643  40.662  1.00  0.00     0.002 A 
ATOM    100  C   UNL A   1      46.480  34.558  39.295  1.00  0.00     0.091 A 
ATOM    101  F   UNL A   1      44.201  35.207  39.531  1.00  0.00    -0.205 F 
ATOM    102  C   UNL A   1      47.822  34.724  39.668  1.00  0.00     0.022 A 
BRANCH 100 103
ATOM    103  S   UNL A   1      46.074  33.270  38.116  1.00  0.00     0.127 S 
ATOM    104  O   UNL A   1      47.391  32.891  37.613  1.00  0.00    -0.237 OA
ATOM    105  O   UNL A   1      45.425  32.265  38.960  1.00  0.00    -0.237 OA
ATOM    106  O   UNL A   1      45.182  33.891  37.144  1.00  0.00    -0.744 OA
ENDBRANCH 100 103
ENDBRANCH  73  96
ENDBRANCH  47  48
ENDBRANCH  40  42
ENDBRANCH  39  40
ENDBRANCH  38  39
ENDBRANCH  37  38
ENDBRANCH  36  37
ENDBRANCH  35  36
ENDBRANCH  34  35
ENDBRANCH  33  34
ENDBRANCH  32  33
ENDBRANCH   1  32
TORSDOF 29
ENDMDL
MODEL 3
REMARK VINA RESULT:      -7.1      6.580     12.355
REMARK SMILES C[C@@H]([C@H]1CC=CS1)n1nccc1NC(=O)CC1(CC(=O)OCCOCCOCCOCCOC(=O)c2ccc(-c3c4nc(c(-c5cccc(S(=O)(=O)[O-])c5F)c5ccc([nH]5)c(-c5cccc(S(=O)(=O)[O-])c5F)c5nc(c(-c6cccc(S(=O)(=O)[O-])c6F)c6ccc3[nH]6)C=C5)C=C4)cc2)CCCCC1
REMARK SMILES IDX 25 1 24 2 23 3 22 4 21 5 19 6 20 7 18 8 17 9 99 10 103 11
REMARK SMILES IDX 100 12 102 13 101 14 16 15 14 16 13 17 15 19 12 20 8 21 9 22
REMARK SMILES IDX 10 23 11 24 2 25 1 26 3 27 4 28 7 29 5 30 6 31 26 32 27 33
REMARK SMILES IDX 28 34 29 35 30 36 31 37 32 38 33 39 34 40 35 41 36 42 37 43
REMARK SMILES IDX 98 44 38 45 97 46 39 47 40 48 41 49 91 50 42 51 96 52 90 53
REMARK SMILES IDX 92 54 43 55 95 56 89 57 88 58 44 60 76 61 56 62 75 63 57 64
REMARK SMILES IDX 60 65 74 66 93 67 58 68 59 69 73 71 94 72 61 73 45 74 46 75
REMARK SMILES IDX 54 76 47 77 49 78 55 79 48 80 50 81 51 82 52 83 53 84 77 85
REMARK SMILES IDX 78 86 86 87 79 88 81 89 87 90 80 91 82 92 83 93 84 94 85 95
REMARK SMILES IDX 62 96 63 97 71 98 64 99 66 100 72 101 65 102 67 103 68 104
REMARK SMILES IDX 69 105 70 106
REMARK H PARENT 13 18 92 59 60 70
REMARK Flexibility Score: inf
ROOT
ATOM      1  C   UNL A   1      51.764  26.096  31.255  1.00  0.00     0.188 C 
ENDROOT
BRANCH   1   2
ATOM      2  O   UNL A   1      51.267  27.092  32.134  1.00  0.00    -0.376 OA
BRANCH   2   3
ATOM      3  C   UNL A   1      50.931  28.354  31.549  1.00  0.00     0.202 C 
BRANCH   3   4
ATOM      4  C   UNL A   1      49.532  28.479  30.907  1.00  0.00     0.261 C 
BRANCH   4   5
ATOM      5  O   UNL A   1      49.526  29.226  29.659  1.00  0.00    -0.463 OA
BRANCH   5   6
ATOM      6  C   UNL A   1      49.520  28.520  28.507  1.00  0.00     0.306 C 
ATOM      7  O   UNL A   1      50.412  27.744  28.176  1.00  0.00    -0.252 OA
BRANCH   6   8
ATOM      8  C   UNL A   1      48.210  28.583  27.713  1.00  0.00     0.130 C 
BRANCH   8   9
ATOM      9  C   UNL A   1      47.188  27.411  27.528  1.00  0.00    -0.010 C 
ATOM     10  C   UNL A   1      45.891  27.979  26.881  1.00  0.00     0.008 C 
ATOM     11  C   UNL A   1      46.771  26.721  28.859  1.00  0.00     0.008 C 
ATOM     12  C   UNL A   1      44.997  28.816  27.787  1.00  0.00     0.001 C 
ATOM     13  C   UNL A   1      45.896  27.583  29.771  1.00  0.00     0.001 C 
ATOM     14  C   UNL A   1      44.638  28.050  29.049  1.00  0.00     0.000 C 
BRANCH   9  15
ATOM     15  C   UNL A   1      47.722  26.273  26.575  1.00  0.00     0.108 C 
BRANCH  15  16
ATOM     16  C   UNL A   1      46.915  25.793  25.375  1.00  0.00     0.226 C 
ATOM     17  N   UNL A   1      45.768  24.950  25.411  1.00  0.00    -0.311 N 
ATOM     18  H   UNL A   1      45.345  24.764  24.542  1.00  0.00     0.171 HD
ATOM     19  O   UNL A   1      47.172  26.111  24.224  1.00  0.00    -0.275 OA
BRANCH  17  20
ATOM     20  C   UNL A   1      45.176  24.364  26.499  1.00  0.00     0.131 A 
ATOM     21  N   UNL A   1      43.862  24.461  26.911  1.00  0.00    -0.246 N 
ATOM     22  N   UNL A   1      43.754  24.119  28.216  1.00  0.00    -0.179 NA
ATOM     23  C   UNL A   1      44.864  23.425  28.462  1.00  0.00     0.137 A 
ATOM     24  C   UNL A   1      45.775  23.510  27.397  1.00  0.00     0.068 A 
BRANCH  21  25
ATOM     25  C   UNL A   1      42.631  24.888  26.224  1.00  0.00     0.120 C 
ATOM     26  C   UNL A   1      41.398  24.022  26.529  1.00  0.00     0.034 C 
BRANCH  25  27
ATOM     27  C   UNL A   1      42.374  26.389  26.537  1.00  0.00     0.079 C 
ATOM     28  C   UNL A   1      42.614  27.343  25.346  1.00  0.00     0.045 C 
ATOM     29  S   UNL A   1      40.658  26.812  27.082  1.00  0.00    -0.128 SA
ATOM     30  C   UNL A   1      41.753  28.549  25.533  1.00  0.00    -0.019 C 
ATOM     31  C   UNL A   1      40.739  28.394  26.385  1.00  0.00     0.037 C 
ENDBRANCH  25  27
ENDBRANCH  21  25
ENDBRANCH  17  20
ENDBRANCH  15  16
ENDBRANCH   9  15
ENDBRANCH   8   9
ENDBRANCH   6   8
ENDBRANCH   5   6
ENDBRANCH   4   5
ENDBRANCH   3   4
ENDBRANCH   2   3
ENDBRANCH   1   2
BRANCH   1  32
ATOM     32  C   UNL A   1      50.756  25.053  30.784  1.00  0.00     0.188 C 
BRANCH  32  33
ATOM     33  O   UNL A   1      50.222  24.242  31.817  1.00  0.00    -0.377 OA
BRANCH  33  34
ATOM     34  C   UNL A   1      51.074  23.726  32.836  1.00  0.00     0.188 C 
BRANCH  34  35
ATOM     35  C   UNL A   1      50.434  22.830  33.898  1.00  0.00     0.188 C 
BRANCH  35  36
ATOM     36  O   UNL A   1      50.103  23.417  35.167  1.00  0.00    -0.376 OA
BRANCH  36  37
ATOM     37  C   UNL A   1      48.768  23.844  35.428  1.00  0.00     0.202 C 
BRANCH  37  38
ATOM     38  C   UNL A   1      47.698  23.083  34.680  1.00  0.00     0.261 C 
BRANCH  38  39
ATOM     39  O   UNL A   1      46.427  23.503  35.144  1.00  0.00    -0.460 OA
BRANCH  39  40
ATOM     40  C   UNL A   1      45.400  22.918  34.489  1.00  0.00     0.338 C 
ATOM     41  O   UNL A   1      45.343  21.783  34.056  1.00  0.00    -0.246 OA
BRANCH  40  42
ATOM     42  C   UNL A   1      44.431  23.955  34.158  1.00  0.00     0.060 A 
ATOM     43  C   UNL A   1      44.557  24.484  32.875  1.00  0.00     0.016 A 
ATOM     44  C   UNL A   1      43.806  24.636  35.215  1.00  0.00     0.016 A 
ATOM     45  C   UNL A   1      44.291  25.816  32.714  1.00  0.00     0.010 A 
ATOM     46  C   UNL A   1      43.583  25.975  35.064  1.00  0.00     0.010 A 
ATOM     47  C   UNL A   1      43.894  26.552  33.835  1.00  0.00    -0.014 A 
BRANCH  47  48
ATOM     48  C   UNL A   1      43.572  27.940  33.629  1.00  0.00     0.031 A 
ATOM     49  C   UNL A   1      42.175  28.065  33.170  1.00  0.00     0.074 A 
ATOM     50  C   UNL A   1      44.426  28.927  33.945  1.00  0.00     0.049 A 
ATOM     51  N   UNL A   1      41.765  28.376  31.986  1.00  0.00    -0.248 NA
ATOM     52  C   UNL A   1      41.122  27.504  34.039  1.00  0.00     0.031 C 
ATOM     53  C   UNL A   1      45.684  28.788  34.685  1.00  0.00     0.029 A 
ATOM     54  N   UNL A   1      44.276  30.273  33.823  1.00  0.00    -0.354 N 
ATOM     55  C   UNL A   1      40.379  28.367  32.100  1.00  0.00     0.074 A 
ATOM     56  C   UNL A   1      40.071  27.529  33.221  1.00  0.00     0.031 C 
ATOM     57  C   UNL A   1      46.038  29.998  35.170  1.00  0.00     0.029 A 
ATOM     58  C   UNL A   1      45.104  30.993  34.678  1.00  0.00     0.049 A 
ATOM     59  H   UNL A   1      43.647  30.695  33.194  1.00  0.00     0.167 HD
ATOM     60  C   UNL A   1      39.666  29.399  31.576  1.00  0.00     0.034 A 
ATOM     61  C   UNL A   1      44.952  32.293  35.030  1.00  0.00     0.034 A 
ATOM     62  C   UNL A   1      40.456  30.112  30.603  1.00  0.00     0.049 A 
ATOM     63  C   UNL A   1      44.093  32.936  34.008  1.00  0.00     0.074 A 
ATOM     64  C   UNL A   1      40.954  29.867  29.345  1.00  0.00     0.029 A 
ATOM     65  N   UNL A   1      41.165  31.157  31.135  1.00  0.00    -0.354 N 
ATOM     66  N   UNL A   1      44.461  33.116  32.769  1.00  0.00    -0.248 NA
ATOM     67  C   UNL A   1      42.665  33.094  34.266  1.00  0.00     0.031 C 
ATOM     68  C   UNL A   1      42.074  30.733  29.187  1.00  0.00     0.029 A 
ATOM     69  C   UNL A   1      42.217  31.508  30.338  1.00  0.00     0.049 A 
ATOM     70  H   UNL A   1      40.944  31.600  31.986  1.00  0.00     0.167 HD
ATOM     71  C   UNL A   1      43.291  32.954  32.049  1.00  0.00     0.074 A 
ATOM     72  C   UNL A   1      42.214  33.139  33.010  1.00  0.00     0.031 C 
ATOM     73  C   UNL A   1      43.299  32.333  30.836  1.00  0.00     0.034 A 
BRANCH  60  74
ATOM     74  C   UNL A   1      38.524  30.110  32.294  1.00  0.00     0.023 A 
ATOM     75  C   UNL A   1      37.379  30.386  31.512  1.00  0.00     0.012 A 
ATOM     76  C   UNL A   1      38.612  30.780  33.540  1.00  0.00     0.148 A 
ATOM     77  C   UNL A   1      36.424  31.327  31.909  1.00  0.00     0.002 A 
ATOM     78  C   UNL A   1      37.631  31.670  33.959  1.00  0.00     0.091 A 
ATOM     79  F   UNL A   1      39.696  30.666  34.302  1.00  0.00    -0.205 F 
ATOM     80  C   UNL A   1      36.549  31.973  33.133  1.00  0.00     0.022 A 
BRANCH  78  81
ATOM     81  S   UNL A   1      37.745  32.520  35.542  1.00  0.00     0.127 S 
ATOM     82  O   UNL A   1      37.773  31.397  36.474  1.00  0.00    -0.237 OA
ATOM     83  O   UNL A   1      39.006  33.245  35.398  1.00  0.00    -0.237 OA
ATOM     84  O   UNL A   1      36.567  33.379  35.625  1.00  0.00    -0.744 OA
ENDBRANCH  78  81
ENDBRANCH  60  74
BRANCH  61  85
ATOM     85  C   UNL A   1      45.312  32.982  36.290  1.00  0.00     0.023 A 
ATOM     86  C   UNL A   1      45.976  34.224  36.227  1.00  0.00     0.012 A 
ATOM     87  C   UNL A   1      44.784  32.573  37.536  1.00  0.00     0.148 A 
ATOM     88  C   UNL A   1      46.072  35.049  37.353  1.00  0.00     0.002 A 
ATOM     89  C   UNL A   1      44.896  33.390  38.656  1.00  0.00     0.091 A 
ATOM     90  F   UNL A   1      44.090  31.431  37.605  1.00  0.00    -0.205 F 
ATOM     91  C   UNL A   1      45.525  34.638  38.565  1.00  0.00     0.022 A 
BRANCH  89  92
ATOM     92  S   UNL A   1      44.207  32.918  40.250  1.00  0.00     0.127 S 
ATOM     93  O   UNL A   1      44.250  34.180  40.989  1.00  0.00    -0.237 OA
ATOM     94  O   UNL A   1      42.867  32.469  39.881  1.00  0.00    -0.237 OA
ATOM     95  O   UNL A   1      45.094  31.889  40.779  1.00  0.00    -0.744 OA
ENDBRANCH  89  92
ENDBRANCH  61  85
BRANCH  73  96
ATOM     96  C   UNL A   1      44.565  32.367  30.036  1.00  0.00     0.023 A 
ATOM     97  C   UNL A   1      45.640  31.483  30.246  1.00  0.00     0.012 A 
ATOM     98  C   UNL A   1      44.612  33.257  28.950  1.00  0.00     0.148 A 
ATOM     99  C   UNL A   1      46.745  31.498  29.391  1.00  0.00     0.002 A 
ATOM    100  C   UNL A   1      45.683  33.231  28.071  1.00  0.00     0.091 A 
ATOM    101  F   UNL A   1      43.586  34.107  28.782  1.00  0.00    -0.205 F 
ATOM    102  C   UNL A   1      46.759  32.359  28.293  1.00  0.00     0.022 A 
BRANCH 100 103
ATOM    103  S   UNL A   1      45.677  34.217  26.574  1.00  0.00     0.127 S 
ATOM    104  O   UNL A   1      46.864  33.725  25.880  1.00  0.00    -0.237 OA
ATOM    105  O   UNL A   1      44.404  33.844  25.956  1.00  0.00    -0.237 OA
ATOM    106  O   UNL A   1      45.735  35.606  27.016  1.00  0.00    -0.744 OA
ENDBRANCH 100 103
ENDBRANCH  73  96
ENDBRANCH  47  48
ENDBRANCH  40  42
ENDBRANCH  39  40
ENDBRANCH  38  39
ENDBRANCH  37  38
ENDBRANCH  36  37
ENDBRANCH  35  36
ENDBRANCH  34  35
ENDBRANCH  33  34
ENDBRANCH  32  33
ENDBRANCH   1  32
TORSDOF 29
ENDMDL
