MODEL 1
REMARK VINA RESULT:      -8.7      0.000      0.000
REMARK SMILES CCN(C(=O)N[C@@H]1CCOC1)[C@H]1COC[C@H]1C(=O)OCCOCCOCCOCCOC(=O)c1ccc(-c2c3nc(c(-c4cccc(S(=O)(=O)[O-])c4F)c4ccc([nH]4)c(-c4cccc(S(=O)(=O)[O-])c4F)c4nc(c(-c5cccc(S(=O)(=O)[O-])c5F)c5ccc2[nH]5)C=C4)C=C3)cc1
REMARK SMILES IDX 25 1 24 2 23 3 22 4 21 5 20 6 19 7 17 8 18 9 16 10 12 11
REMARK SMILES IDX 13 12 14 13 15 14 3 15 2 16 1 17 4 18 5 19 6 20 7 22 8 23
REMARK SMILES IDX 11 24 9 25 10 26 26 27 27 28 28 29 29 30 30 31 31 32 32 33
REMARK SMILES IDX 33 34 34 35 35 36 96 37 36 38 95 39 37 40 38 41 39 42 89 43
REMARK SMILES IDX 40 44 94 45 88 46 90 47 41 48 93 49 87 50 86 51 42 53 74 54
REMARK SMILES IDX 54 55 73 56 55 57 58 58 72 59 91 60 56 61 57 62 71 64 92 65
REMARK SMILES IDX 59 66 43 67 44 68 52 69 45 70 47 71 53 72 46 73 48 74 49 75
REMARK SMILES IDX 50 76 51 77 75 78 76 79 84 80 77 81 79 82 85 83 78 84 80 85
REMARK SMILES IDX 81 86 82 87 83 88 60 89 61 90 69 91 62 92 64 93 70 94 63 95
REMARK SMILES IDX 65 96 66 97 67 98 68 99
REMARK H PARENT 6 21 90 52 58 63
REMARK Flexibility Score: inf
ROOT
ATOM      1  O   UNL A   1      34.216  32.585  28.829  1.00  0.00    -0.377 OA
ENDROOT
BRANCH   1   2
ATOM      2  C   UNL A   1      34.443  31.495  27.976  1.00  0.00     0.188 C 
BRANCH   2   3
ATOM      3  C   UNL A   1      33.284  30.602  27.526  1.00  0.00     0.188 C 
BRANCH   3   4
ATOM      4  O   UNL A   1      33.542  29.443  26.761  1.00  0.00    -0.376 OA
BRANCH   4   5
ATOM      5  C   UNL A   1      33.070  28.142  27.070  1.00  0.00     0.202 C 
BRANCH   5   6
ATOM      6  C   UNL A   1      31.622  27.648  26.922  1.00  0.00     0.261 C 
BRANCH   6   7
ATOM      7  O   UNL A   1      31.430  26.233  26.975  1.00  0.00    -0.463 OA
BRANCH   7   8
ATOM      8  C   UNL A   1      30.725  25.659  25.977  1.00  0.00     0.313 C 
ATOM      9  O   UNL A   1      29.866  26.248  25.327  1.00  0.00    -0.252 OA
BRANCH   8  10
ATOM     10  C   UNL A   1      31.158  24.256  25.609  1.00  0.00     0.150 C 
ATOM     11  C   UNL A   1      32.259  23.846  24.634  1.00  0.00     0.129 C 
ATOM     12  C   UNL A   1      32.581  22.425  25.106  1.00  0.00     0.186 C 
ATOM     13  O   UNL A   1      32.370  22.404  26.525  1.00  0.00    -0.378 OA
ATOM     14  C   UNL A   1      31.445  23.446  26.859  1.00  0.00     0.177 C 
BRANCH  11  15
ATOM     15  N   UNL A   1      33.483  24.664  24.411  1.00  0.00    -0.319 N 
BRANCH  15  16
ATOM     16  C   UNL A   1      34.361  24.887  25.555  1.00  0.00     0.118 C 
ATOM     17  C   UNL A   1      35.512  23.912  25.706  1.00  0.00     0.027 C 
ENDBRANCH  15  16
BRANCH  15  18
ATOM     18  C   UNL A   1      33.914  24.699  23.103  1.00  0.00     0.318 C 
ATOM     19  O   UNL A   1      34.642  23.796  22.659  1.00  0.00    -0.249 OA
ATOM     20  N   UNL A   1      33.601  25.599  22.170  1.00  0.00    -0.333 N 
ATOM     21  H   UNL A   1      33.989  25.261  21.331  1.00  0.00     0.165 HD
BRANCH  20  22
ATOM     22  C   UNL A   1      32.935  26.870  21.821  1.00  0.00     0.112 C 
ATOM     23  C   UNL A   1      33.861  28.046  22.078  1.00  0.00     0.056 C 
ATOM     24  C   UNL A   1      31.680  27.333  22.518  1.00  0.00     0.185 C 
ATOM     25  C   UNL A   1      33.475  28.461  23.479  1.00  0.00     0.162 C 
ATOM     26  O   UNL A   1      32.090  28.117  23.644  1.00  0.00    -0.379 OA
ENDBRANCH  20  22
ENDBRANCH  15  18
ENDBRANCH  11  15
ENDBRANCH   8  10
ENDBRANCH   7   8
ENDBRANCH   6   7
ENDBRANCH   5   6
ENDBRANCH   4   5
ENDBRANCH   3   4
ENDBRANCH   2   3
ENDBRANCH   1   2
BRANCH   1  27
ATOM     27  C   UNL A   1      35.156  33.626  28.771  1.00  0.00     0.188 C 
BRANCH  27  28
ATOM     28  C   UNL A   1      34.648  34.762  27.883  1.00  0.00     0.188 C 
BRANCH  28  29
ATOM     29  O   UNL A   1      34.622  36.112  28.342  1.00  0.00    -0.376 OA
BRANCH  29  30
ATOM     30  C   UNL A   1      33.433  36.726  28.815  1.00  0.00     0.202 C 
BRANCH  30  31
ATOM     31  C   UNL A   1      32.551  36.061  29.898  1.00  0.00     0.261 C 
BRANCH  31  32
ATOM     32  O   UNL A   1      32.821  36.358  31.272  1.00  0.00    -0.460 OA
BRANCH  32  33
ATOM     33  C   UNL A   1      32.689  35.336  32.140  1.00  0.00     0.338 C 
ATOM     34  O   UNL A   1      31.662  34.936  32.666  1.00  0.00    -0.246 OA
BRANCH  33  35
ATOM     35  C   UNL A   1      34.002  34.672  32.274  1.00  0.00     0.060 A 
ATOM     36  C   UNL A   1      34.046  33.339  32.704  1.00  0.00     0.016 A 
ATOM     37  C   UNL A   1      35.185  35.369  32.015  1.00  0.00     0.016 A 
ATOM     38  C   UNL A   1      35.269  32.703  32.899  1.00  0.00     0.010 A 
ATOM     39  C   UNL A   1      36.414  34.739  32.242  1.00  0.00     0.010 A 
ATOM     40  C   UNL A   1      36.459  33.415  32.716  1.00  0.00    -0.014 A 
BRANCH  40  41
ATOM     41  C   UNL A   1      37.731  32.841  33.215  1.00  0.00     0.031 A 
ATOM     42  C   UNL A   1      38.137  33.125  34.633  1.00  0.00     0.074 A 
ATOM     43  C   UNL A   1      38.506  32.069  32.433  1.00  0.00     0.049 A 
ATOM     44  N   UNL A   1      39.222  32.774  35.269  1.00  0.00    -0.248 NA
ATOM     45  C   UNL A   1      37.188  33.909  35.444  1.00  0.00     0.031 C 
ATOM     46  C   UNL A   1      38.197  31.685  31.059  1.00  0.00     0.029 A 
ATOM     47  N   UNL A   1      39.729  31.495  32.676  1.00  0.00    -0.354 N 
ATOM     48  C   UNL A   1      39.104  33.319  36.543  1.00  0.00     0.074 A 
ATOM     49  C   UNL A   1      37.847  34.033  36.585  1.00  0.00     0.031 C 
ATOM     50  C   UNL A   1      39.230  30.982  30.558  1.00  0.00     0.029 A 
ATOM     51  C   UNL A   1      40.275  30.879  31.574  1.00  0.00     0.049 A 
ATOM     52  H   UNL A   1      40.171  31.521  33.555  1.00  0.00     0.167 HD
ATOM     53  C   UNL A   1      39.960  33.224  37.587  1.00  0.00     0.034 A 
ATOM     54  C   UNL A   1      41.489  30.320  31.402  1.00  0.00     0.034 A 
ATOM     55  C   UNL A   1      41.203  32.503  37.544  1.00  0.00     0.049 A 
ATOM     56  C   UNL A   1      42.449  30.275  32.563  1.00  0.00     0.074 A 
ATOM     57  C   UNL A   1      42.120  32.313  38.561  1.00  0.00     0.029 A 
ATOM     58  N   UNL A   1      41.714  31.873  36.420  1.00  0.00    -0.354 N 
ATOM     59  N   UNL A   1      42.281  30.704  33.791  1.00  0.00    -0.248 NA
ATOM     60  C   UNL A   1      43.752  29.636  32.327  1.00  0.00     0.031 C 
ATOM     61  C   UNL A   1      43.208  31.606  38.041  1.00  0.00     0.029 A 
ATOM     62  C   UNL A   1      42.945  31.312  36.711  1.00  0.00     0.049 A 
ATOM     63  H   UNL A   1      41.268  31.832  35.543  1.00  0.00     0.167 HD
ATOM     64  C   UNL A   1      43.436  30.351  34.482  1.00  0.00     0.074 A 
ATOM     65  C   UNL A   1      44.290  29.658  33.538  1.00  0.00     0.031 C 
ATOM     66  C   UNL A   1      43.764  30.584  35.776  1.00  0.00     0.034 A 
BRANCH  53  67
ATOM     67  C   UNL A   1      39.579  33.918  38.866  1.00  0.00     0.023 A 
ATOM     68  C   UNL A   1      39.132  33.167  39.972  1.00  0.00     0.012 A 
ATOM     69  C   UNL A   1      39.711  35.315  38.987  1.00  0.00     0.148 A 
ATOM     70  C   UNL A   1      38.788  33.799  41.165  1.00  0.00     0.002 A 
ATOM     71  C   UNL A   1      39.415  35.931  40.195  1.00  0.00     0.091 A 
ATOM     72  F   UNL A   1      40.115  36.014  37.917  1.00  0.00    -0.205 F 
ATOM     73  C   UNL A   1      38.941  35.178  41.281  1.00  0.00     0.022 A 
BRANCH  71  74
ATOM     74  S   UNL A   1      39.656  37.691  40.469  1.00  0.00     0.127 S 
ATOM     75  O   UNL A   1      38.620  38.267  39.612  1.00  0.00    -0.237 OA
ATOM     76  O   UNL A   1      39.399  37.813  41.904  1.00  0.00    -0.237 OA
ATOM     77  O   UNL A   1      41.026  37.977  40.068  1.00  0.00    -0.744 OA
ENDBRANCH  71  74
ENDBRANCH  53  67
BRANCH  54  78
ATOM     78  C   UNL A   1      41.868  29.744  30.081  1.00  0.00     0.023 A 
ATOM     79  C   UNL A   1      42.644  30.503  29.183  1.00  0.00     0.012 A 
ATOM     80  C   UNL A   1      41.456  28.449  29.709  1.00  0.00     0.148 A 
ATOM     81  C   UNL A   1      42.972  29.997  27.924  1.00  0.00     0.002 A 
ATOM     82  C   UNL A   1      41.833  27.931  28.475  1.00  0.00     0.091 A 
ATOM     83  F   UNL A   1      40.710  27.748  30.574  1.00  0.00    -0.205 F 
ATOM     84  C   UNL A   1      42.575  28.710  27.575  1.00  0.00     0.022 A 
BRANCH  82  85
ATOM     85  S   UNL A   1      41.460  26.246  27.978  1.00  0.00     0.127 S 
ATOM     86  O   UNL A   1      42.010  26.207  26.624  1.00  0.00    -0.237 OA
ATOM     87  O   UNL A   1      42.207  25.474  28.970  1.00  0.00    -0.237 OA
ATOM     88  O   UNL A   1      40.013  26.118  28.068  1.00  0.00    -0.744 OA
ENDBRANCH  82  85
ENDBRANCH  54  78
BRANCH  66  89
ATOM     89  C   UNL A   1      45.081  30.048  36.279  1.00  0.00     0.023 A 
ATOM     90  C   UNL A   1      46.236  30.853  36.237  1.00  0.00     0.012 A 
ATOM     91  C   UNL A   1      45.150  28.770  36.871  1.00  0.00     0.148 A 
ATOM     92  C   UNL A   1      47.447  30.382  36.746  1.00  0.00     0.002 A 
ATOM     93  C   UNL A   1      46.346  28.330  37.425  1.00  0.00     0.091 A 
ATOM     94  F   UNL A   1      44.043  28.013  36.888  1.00  0.00    -0.205 F 
ATOM     95  C   UNL A   1      47.498  29.129  37.350  1.00  0.00     0.022 A 
BRANCH  93  96
ATOM     96  S   UNL A   1      46.485  26.774  38.312  1.00  0.00     0.127 S 
ATOM     97  O   UNL A   1      47.888  26.791  38.723  1.00  0.00    -0.237 OA
ATOM     98  O   UNL A   1      45.527  26.954  39.403  1.00  0.00    -0.237 OA
ATOM     99  O   UNL A   1      46.130  25.732  37.358  1.00  0.00    -0.744 OA
ENDBRANCH  93  96
ENDBRANCH  66  89
ENDBRANCH  40  41
ENDBRANCH  33  35
ENDBRANCH  32  33
ENDBRANCH  31  32
ENDBRANCH  30  31
ENDBRANCH  29  30
ENDBRANCH  28  29
ENDBRANCH  27  28
ENDBRANCH   1  27
TORSDOF 27
ENDMDL
MODEL 2
REMARK VINA RESULT:      -8.1      2.036      3.132
REMARK SMILES CCN(C(=O)N[C@@H]1CCOC1)[C@H]1COC[C@H]1C(=O)OCCOCCOCCOCCOC(=O)c1ccc(-c2c3nc(c(-c4cccc(S(=O)(=O)[O-])c4F)c4ccc([nH]4)c(-c4cccc(S(=O)(=O)[O-])c4F)c4nc(c(-c5cccc(S(=O)(=O)[O-])c5F)c5ccc2[nH]5)C=C4)C=C3)cc1
REMARK SMILES IDX 25 1 24 2 23 3 22 4 21 5 20 6 19 7 17 8 18 9 16 10 12 11
REMARK SMILES IDX 13 12 14 13 15 14 3 15 2 16 1 17 4 18 5 19 6 20 7 22 8 23
REMARK SMILES IDX 11 24 9 25 10 26 26 27 27 28 28 29 29 30 30 31 31 32 32 33
REMARK SMILES IDX 33 34 34 35 35 36 96 37 36 38 95 39 37 40 38 41 39 42 89 43
REMARK SMILES IDX 40 44 94 45 88 46 90 47 41 48 93 49 87 50 86 51 42 53 74 54
REMARK SMILES IDX 54 55 73 56 55 57 58 58 72 59 91 60 56 61 57 62 71 64 92 65
REMARK SMILES IDX 59 66 43 67 44 68 52 69 45 70 47 71 53 72 46 73 48 74 49 75
REMARK SMILES IDX 50 76 51 77 75 78 76 79 84 80 77 81 79 82 85 83 78 84 80 85
REMARK SMILES IDX 81 86 82 87 83 88 60 89 61 90 69 91 62 92 64 93 70 94 63 95
REMARK SMILES IDX 65 96 66 97 67 98 68 99
REMARK H PARENT 6 21 90 52 58 63
REMARK Flexibility Score: inf
ROOT
ATOM      1  O   UNL A   1      34.897  32.767  28.936  1.00  0.00    -0.377 OA
ENDROOT
BRANCH   1   2
ATOM      2  C   UNL A   1      35.407  31.711  28.166  1.00  0.00     0.188 C 
BRANCH   2   3
ATOM      3  C   UNL A   1      34.586  30.438  27.945  1.00  0.00     0.188 C 
BRANCH   3   4
ATOM      4  O   UNL A   1      34.968  29.516  26.945  1.00  0.00    -0.376 OA
BRANCH   4   5
ATOM      5  C   UNL A   1      34.224  28.369  26.570  1.00  0.00     0.202 C 
BRANCH   5   6
ATOM      6  C   UNL A   1      33.361  28.227  25.305  1.00  0.00     0.261 C 
BRANCH   6   7
ATOM      7  O   UNL A   1      32.785  26.940  25.076  1.00  0.00    -0.463 OA
BRANCH   7   8
ATOM      8  C   UNL A   1      33.223  26.240  24.008  1.00  0.00     0.313 C 
ATOM      9  O   UNL A   1      34.378  26.286  23.592  1.00  0.00    -0.252 OA
BRANCH   8  10
ATOM     10  C   UNL A   1      32.220  25.270  23.421  1.00  0.00     0.150 C 
ATOM     11  C   UNL A   1      32.024  23.800  23.783  1.00  0.00     0.129 C 
ATOM     12  C   UNL A   1      30.588  23.550  23.309  1.00  0.00     0.186 C 
ATOM     13  O   UNL A   1      29.876  24.782  23.486  1.00  0.00    -0.378 OA
ATOM     14  C   UNL A   1      30.823  25.857  23.474  1.00  0.00     0.177 C 
BRANCH  11  15
ATOM     15  N   UNL A   1      32.273  23.266  25.151  1.00  0.00    -0.319 N 
BRANCH  15  16
ATOM     16  C   UNL A   1      31.502  23.842  26.248  1.00  0.00     0.118 C 
ATOM     17  C   UNL A   1      30.354  22.999  26.766  1.00  0.00     0.027 C 
ENDBRANCH  15  16
BRANCH  15  18
ATOM     18  C   UNL A   1      32.803  21.994  25.179  1.00  0.00     0.318 C 
ATOM     19  O   UNL A   1      32.095  21.015  24.891  1.00  0.00    -0.249 OA
ATOM     20  N   UNL A   1      34.063  21.647  25.441  1.00  0.00    -0.333 N 
ATOM     21  H   UNL A   1      34.116  20.680  25.266  1.00  0.00     0.165 HD
BRANCH  20  22
ATOM     22  C   UNL A   1      35.416  22.052  25.872  1.00  0.00     0.112 C 
ATOM     23  C   UNL A   1      35.694  23.492  25.477  1.00  0.00     0.056 C 
ATOM     24  C   UNL A   1      36.658  21.367  25.358  1.00  0.00     0.185 C 
ATOM     25  C   UNL A   1      36.386  23.333  24.143  1.00  0.00     0.162 C 
ATOM     26  O   UNL A   1      37.068  22.069  24.180  1.00  0.00    -0.379 OA
ENDBRANCH  20  22
ENDBRANCH  15  18
ENDBRANCH  11  15
ENDBRANCH   8  10
ENDBRANCH   7   8
ENDBRANCH   6   7
ENDBRANCH   5   6
ENDBRANCH   4   5
ENDBRANCH   3   4
ENDBRANCH   2   3
ENDBRANCH   1   2
BRANCH   1  27
ATOM     27  C   UNL A   1      35.574  33.993  28.836  1.00  0.00     0.188 C 
BRANCH  27  28
ATOM     28  C   UNL A   1      34.768  34.986  27.998  1.00  0.00     0.188 C 
BRANCH  28  29
ATOM     29  O   UNL A   1      34.112  36.103  28.594  1.00  0.00    -0.376 OA
BRANCH  29  30
ATOM     30  C   UNL A   1      32.785  36.022  29.092  1.00  0.00     0.202 C 
BRANCH  30  31
ATOM     31  C   UNL A   1      32.490  35.948  30.609  1.00  0.00     0.261 C 
BRANCH  31  32
ATOM     32  O   UNL A   1      33.242  36.789  31.490  1.00  0.00    -0.460 OA
BRANCH  32  33
ATOM     33  C   UNL A   1      33.367  36.361  32.761  1.00  0.00     0.338 C 
ATOM     34  O   UNL A   1      32.666  36.658  33.717  1.00  0.00    -0.246 OA
BRANCH  33  35
ATOM     35  C   UNL A   1      34.444  35.351  32.805  1.00  0.00     0.060 A 
ATOM     36  C   UNL A   1      34.251  34.188  33.561  1.00  0.00     0.016 A 
ATOM     37  C   UNL A   1      35.651  35.565  32.135  1.00  0.00     0.016 A 
ATOM     38  C   UNL A   1      35.269  33.244  33.672  1.00  0.00     0.010 A 
ATOM     39  C   UNL A   1      36.685  34.632  32.272  1.00  0.00     0.010 A 
ATOM     40  C   UNL A   1      36.507  33.484  33.069  1.00  0.00    -0.014 A 
BRANCH  40  41
ATOM     41  C   UNL A   1      37.669  32.643  33.439  1.00  0.00     0.031 A 
ATOM     42  C   UNL A   1      38.444  32.997  34.677  1.00  0.00     0.074 A 
ATOM     43  C   UNL A   1      38.025  31.576  32.702  1.00  0.00     0.049 A 
ATOM     44  N   UNL A   1      39.518  32.440  35.168  1.00  0.00    -0.248 NA
ATOM     45  C   UNL A   1      37.934  34.130  35.469  1.00  0.00     0.031 C 
ATOM     46  C   UNL A   1      37.326  31.105  31.510  1.00  0.00     0.029 A 
ATOM     47  N   UNL A   1      39.083  30.711  32.835  1.00  0.00    -0.354 N 
ATOM     48  C   UNL A   1      39.834  33.172  36.307  1.00  0.00     0.074 A 
ATOM     49  C   UNL A   1      38.844  34.219  36.427  1.00  0.00     0.031 C 
ATOM     50  C   UNL A   1      38.005  30.069  30.985  1.00  0.00     0.029 A 
ATOM     51  C   UNL A   1      39.190  29.813  31.800  1.00  0.00     0.049 A 
ATOM     52  H   UNL A   1      39.704  30.733  33.598  1.00  0.00     0.167 HD
ATOM     53  C   UNL A   1      40.850  32.981  37.180  1.00  0.00     0.034 A 
ATOM     54  C   UNL A   1      40.151  28.906  31.531  1.00  0.00     0.034 A 
ATOM     55  C   UNL A   1      41.825  31.932  37.063  1.00  0.00     0.049 A 
ATOM     56  C   UNL A   1      41.304  28.750  32.489  1.00  0.00     0.074 A 
ATOM     57  C   UNL A   1      42.868  31.631  37.919  1.00  0.00     0.029 A 
ATOM     58  N   UNL A   1      41.892  31.027  36.016  1.00  0.00    -0.354 N 
ATOM     59  N   UNL A   1      41.533  29.380  33.616  1.00  0.00    -0.248 NA
ATOM     60  C   UNL A   1      42.313  27.732  32.158  1.00  0.00     0.031 C 
ATOM     61  C   UNL A   1      43.593  30.572  37.366  1.00  0.00     0.029 A 
ATOM     62  C   UNL A   1      42.971  30.180  36.191  1.00  0.00     0.049 A 
ATOM     63  H   UNL A   1      41.263  30.993  35.258  1.00  0.00     0.167 HD
ATOM     64  C   UNL A   1      42.684  28.809  34.147  1.00  0.00     0.074 A 
ATOM     65  C   UNL A   1      43.098  27.771  33.226  1.00  0.00     0.031 C 
ATOM     66  C   UNL A   1      43.345  29.119  35.290  1.00  0.00     0.034 A 
BRANCH  53  67
ATOM     67  C   UNL A   1      40.958  33.932  38.342  1.00  0.00     0.023 A 
ATOM     68  C   UNL A   1      41.837  35.032  38.275  1.00  0.00     0.012 A 
ATOM     69  C   UNL A   1      40.151  33.761  39.483  1.00  0.00     0.148 A 
ATOM     70  C   UNL A   1      41.937  35.926  39.339  1.00  0.00     0.002 A 
ATOM     71  C   UNL A   1      40.220  34.683  40.518  1.00  0.00     0.091 A 
ATOM     72  F   UNL A   1      39.340  32.695  39.538  1.00  0.00    -0.205 F 
ATOM     73  C   UNL A   1      41.120  35.758  40.455  1.00  0.00     0.022 A 
BRANCH  71  74
ATOM     74  S   UNL A   1      39.152  34.600  41.961  1.00  0.00     0.127 S 
ATOM     75  O   UNL A   1      39.946  33.770  42.867  1.00  0.00    -0.237 OA
ATOM     76  O   UNL A   1      39.054  36.007  42.349  1.00  0.00    -0.237 OA
ATOM     77  O   UNL A   1      37.904  34.004  41.506  1.00  0.00    -0.744 OA
ENDBRANCH  71  74
ENDBRANCH  53  67
BRANCH  54  78
ATOM     78  C   UNL A   1      40.062  28.062  30.306  1.00  0.00     0.023 A 
ATOM     79  C   UNL A   1      39.207  26.942  30.290  1.00  0.00     0.012 A 
ATOM     80  C   UNL A   1      40.824  28.362  29.159  1.00  0.00     0.148 A 
ATOM     81  C   UNL A   1      39.141  26.115  29.167  1.00  0.00     0.002 A 
ATOM     82  C   UNL A   1      40.712  27.565  28.026  1.00  0.00     0.091 A 
ATOM     83  F   UNL A   1      41.637  29.426  29.200  1.00  0.00    -0.205 F 
ATOM     84  C   UNL A   1      39.886  26.431  28.034  1.00  0.00     0.022 A 
BRANCH  82  85
ATOM     85  S   UNL A   1      41.549  27.951  26.484  1.00  0.00     0.127 S 
ATOM     86  O   UNL A   1      41.243  26.771  25.677  1.00  0.00    -0.237 OA
ATOM     87  O   UNL A   1      40.861  29.174  26.075  1.00  0.00    -0.237 OA
ATOM     88  O   UNL A   1      42.952  28.124  26.829  1.00  0.00    -0.744 OA
ENDBRANCH  82  85
ENDBRANCH  54  78
BRANCH  66  89
ATOM     89  C   UNL A   1      44.560  28.300  35.648  1.00  0.00     0.023 A 
ATOM     90  C   UNL A   1      44.413  27.064  36.307  1.00  0.00     0.012 A 
ATOM     91  C   UNL A   1      45.845  28.724  35.252  1.00  0.00     0.148 A 
ATOM     92  C   UNL A   1      45.528  26.278  36.596  1.00  0.00     0.002 A 
ATOM     93  C   UNL A   1      46.945  27.911  35.495  1.00  0.00     0.091 A 
ATOM     94  F   UNL A   1      45.966  29.911  34.639  1.00  0.00    -0.205 F 
ATOM     95  C   UNL A   1      46.790  26.695  36.179  1.00  0.00     0.022 A 
BRANCH  93  96
ATOM     96  S   UNL A   1      48.594  28.315  34.908  1.00  0.00     0.127 S 
ATOM     97  O   UNL A   1      48.871  29.555  35.631  1.00  0.00    -0.237 OA
ATOM     98  O   UNL A   1      49.372  27.160  35.354  1.00  0.00    -0.237 OA
ATOM     99  O   UNL A   1      48.485  28.451  33.461  1.00  0.00    -0.744 OA
ENDBRANCH  93  96
ENDBRANCH  66  89
ENDBRANCH  40  41
ENDBRANCH  33  35
ENDBRANCH  32  33
ENDBRANCH  31  32
ENDBRANCH  30  31
ENDBRANCH  29  30
ENDBRANCH  28  29
ENDBRANCH  27  28
ENDBRANCH   1  27
TORSDOF 27
ENDMDL
MODEL 3
REMARK VINA RESULT:      -7.9      2.056      2.465
REMARK SMILES CCN(C(=O)N[C@@H]1CCOC1)[C@H]1COC[C@H]1C(=O)OCCOCCOCCOCCOC(=O)c1ccc(-c2c3nc(c(-c4cccc(S(=O)(=O)[O-])c4F)c4ccc([nH]4)c(-c4cccc(S(=O)(=O)[O-])c4F)c4nc(c(-c5cccc(S(=O)(=O)[O-])c5F)c5ccc2[nH]5)C=C4)C=C3)cc1
REMARK SMILES IDX 25 1 24 2 23 3 22 4 21 5 20 6 19 7 17 8 18 9 16 10 12 11
REMARK SMILES IDX 13 12 14 13 15 14 3 15 2 16 1 17 4 18 5 19 6 20 7 22 8 23
REMARK SMILES IDX 11 24 9 25 10 26 26 27 27 28 28 29 29 30 30 31 31 32 32 33
REMARK SMILES IDX 33 34 34 35 35 36 96 37 36 38 95 39 37 40 38 41 39 42 89 43
REMARK SMILES IDX 40 44 94 45 88 46 90 47 41 48 93 49 87 50 86 51 42 53 74 54
REMARK SMILES IDX 54 55 73 56 55 57 58 58 72 59 91 60 56 61 57 62 71 64 92 65
REMARK SMILES IDX 59 66 43 67 44 68 52 69 45 70 47 71 53 72 46 73 48 74 49 75
REMARK SMILES IDX 50 76 51 77 75 78 76 79 84 80 77 81 79 82 85 83 78 84 80 85
REMARK SMILES IDX 81 86 82 87 83 88 60 89 61 90 69 91 62 92 64 93 70 94 63 95
REMARK SMILES IDX 65 96 66 97 67 98 68 99
REMARK H PARENT 6 21 90 52 58 63
REMARK Flexibility Score: inf
ROOT
ATOM      1  O   UNL A   1      34.840  32.941  28.739  1.00  0.00    -0.377 OA
ENDROOT
BRANCH   1   2
ATOM      2  C   UNL A   1      35.091  31.813  27.944  1.00  0.00     0.188 C 
BRANCH   2   3
ATOM      3  C   UNL A   1      34.352  30.498  28.199  1.00  0.00     0.188 C 
BRANCH   3   4
ATOM      4  O   UNL A   1      34.164  29.577  27.144  1.00  0.00    -0.376 OA
BRANCH   4   5
ATOM      5  C   UNL A   1      33.660  28.261  27.294  1.00  0.00     0.202 C 
BRANCH   5   6
ATOM      6  C   UNL A   1      32.551  27.616  26.447  1.00  0.00     0.261 C 
BRANCH   6   7
ATOM      7  O   UNL A   1      32.676  26.214  26.206  1.00  0.00    -0.463 OA
BRANCH   7   8
ATOM      8  C   UNL A   1      31.569  25.453  26.346  1.00  0.00     0.313 C 
ATOM      9  O   UNL A   1      30.433  25.914  26.414  1.00  0.00    -0.252 OA
BRANCH   8  10
ATOM     10  C   UNL A   1      31.802  23.959  26.277  1.00  0.00     0.150 C 
ATOM     11  C   UNL A   1      32.209  23.135  25.058  1.00  0.00     0.129 C 
ATOM     12  C   UNL A   1      32.812  21.887  25.712  1.00  0.00     0.186 C 
ATOM     13  O   UNL A   1      33.414  22.316  26.941  1.00  0.00    -0.378 OA
ATOM     14  C   UNL A   1      32.771  23.525  27.361  1.00  0.00     0.177 C 
BRANCH  11  15
ATOM     15  N   UNL A   1      33.065  23.677  23.967  1.00  0.00    -0.319 N 
BRANCH  15  16
ATOM     16  C   UNL A   1      34.480  23.879  24.260  1.00  0.00     0.118 C 
ATOM     17  C   UNL A   1      35.455  23.156  23.352  1.00  0.00     0.027 C 
ENDBRANCH  15  16
BRANCH  15  18
ATOM     18  C   UNL A   1      32.574  23.463  22.697  1.00  0.00     0.318 C 
ATOM     19  O   UNL A   1      32.343  22.308  22.302  1.00  0.00    -0.249 OA
ATOM     20  N   UNL A   1      32.244  24.383  21.790  1.00  0.00    -0.333 N 
ATOM     21  H   UNL A   1      31.829  23.889  21.047  1.00  0.00     0.165 HD
BRANCH  20  22
ATOM     22  C   UNL A   1      32.217  25.805  21.393  1.00  0.00     0.112 C 
ATOM     23  C   UNL A   1      33.526  26.485  21.750  1.00  0.00     0.056 C 
ATOM     24  C   UNL A   1      31.219  26.778  21.972  1.00  0.00     0.185 C 
ATOM     25  C   UNL A   1      33.227  27.068  23.112  1.00  0.00     0.162 C 
ATOM     26  O   UNL A   1      31.818  27.349  23.140  1.00  0.00    -0.379 OA
ENDBRANCH  20  22
ENDBRANCH  15  18
ENDBRANCH  11  15
ENDBRANCH   8  10
ENDBRANCH   7   8
ENDBRANCH   6   7
ENDBRANCH   5   6
ENDBRANCH   4   5
ENDBRANCH   3   4
ENDBRANCH   2   3
ENDBRANCH   1   2
BRANCH   1  27
ATOM     27  C   UNL A   1      35.522  34.116  28.386  1.00  0.00     0.188 C 
BRANCH  27  28
ATOM     28  C   UNL A   1      34.552  35.154  27.820  1.00  0.00     0.188 C 
BRANCH  28  29
ATOM     29  O   UNL A   1      34.009  36.189  28.637  1.00  0.00    -0.376 OA
BRANCH  29  30
ATOM     30  C   UNL A   1      32.766  36.048  29.308  1.00  0.00     0.202 C 
BRANCH  30  31
ATOM     31  C   UNL A   1      32.680  35.972  30.850  1.00  0.00     0.261 C 
BRANCH  31  32
ATOM     32  O   UNL A   1      33.574  36.780  31.622  1.00  0.00    -0.460 OA
BRANCH  32  33
ATOM     33  C   UNL A   1      33.776  36.395  32.898  1.00  0.00     0.338 C 
ATOM     34  O   UNL A   1      33.161  36.758  33.889  1.00  0.00    -0.246 OA
BRANCH  33  35
ATOM     35  C   UNL A   1      34.811  35.341  32.904  1.00  0.00     0.060 A 
ATOM     36  C   UNL A   1      34.631  34.221  33.727  1.00  0.00     0.016 A 
ATOM     37  C   UNL A   1      35.969  35.472  32.134  1.00  0.00     0.016 A 
ATOM     38  C   UNL A   1      35.615  33.239  33.802  1.00  0.00     0.010 A 
ATOM     39  C   UNL A   1      36.971  34.501  32.233  1.00  0.00     0.010 A 
ATOM     40  C   UNL A   1      36.811  33.398  33.094  1.00  0.00    -0.014 A 
BRANCH  40  41
ATOM     41  C   UNL A   1      37.963  32.522  33.411  1.00  0.00     0.031 A 
ATOM     42  C   UNL A   1      38.767  32.818  34.646  1.00  0.00     0.074 A 
ATOM     43  C   UNL A   1      38.285  31.476  32.631  1.00  0.00     0.049 A 
ATOM     44  N   UNL A   1      39.840  32.224  35.096  1.00  0.00    -0.248 NA
ATOM     45  C   UNL A   1      38.295  33.931  35.487  1.00  0.00     0.031 C 
ATOM     46  C   UNL A   1      37.554  31.061  31.436  1.00  0.00     0.029 A 
ATOM     47  N   UNL A   1      39.328  30.588  32.712  1.00  0.00    -0.354 N 
ATOM     48  C   UNL A   1      40.191  32.909  36.253  1.00  0.00     0.074 A 
ATOM     49  C   UNL A   1      39.224  33.969  36.430  1.00  0.00     0.031 C 
ATOM     50  C   UNL A   1      38.203  30.032  30.862  1.00  0.00     0.029 A 
ATOM     51  C   UNL A   1      39.399  29.725  31.644  1.00  0.00     0.049 A 
ATOM     52  H   UNL A   1      39.963  30.571  33.463  1.00  0.00     0.167 HD
ATOM     53  C   UNL A   1      41.219  32.669  37.099  1.00  0.00     0.034 A 
ATOM     54  C   UNL A   1      40.337  28.811  31.324  1.00  0.00     0.034 A 
ATOM     55  C   UNL A   1      42.172  31.607  36.926  1.00  0.00     0.049 A 
ATOM     56  C   UNL A   1      41.504  28.599  32.254  1.00  0.00     0.074 A 
ATOM     57  C   UNL A   1      43.225  31.256  37.750  1.00  0.00     0.029 A 
ATOM     58  N   UNL A   1      42.202  30.738  35.846  1.00  0.00    -0.354 N 
ATOM     59  N   UNL A   1      41.766  29.184  33.398  1.00  0.00    -0.248 NA
ATOM     60  C   UNL A   1      42.487  27.575  31.867  1.00  0.00     0.031 C 
ATOM     61  C   UNL A   1      43.919  30.204  37.147  1.00  0.00     0.029 A 
ATOM     62  C   UNL A   1      43.268  29.866  35.970  1.00  0.00     0.049 A 
ATOM     63  H   UNL A   1      41.558  30.742  35.101  1.00  0.00     0.167 HD
ATOM     64  C   UNL A   1      42.916  28.573  33.886  1.00  0.00     0.074 A 
ATOM     65  C   UNL A   1      43.292  27.561  32.921  1.00  0.00     0.031 C 
ATOM     66  C   UNL A   1      43.604  28.831  35.026  1.00  0.00     0.034 A 
BRANCH  53  67
ATOM     67  C   UNL A   1      41.368  33.576  38.291  1.00  0.00     0.023 A 
ATOM     68  C   UNL A   1      40.701  33.274  39.496  1.00  0.00     0.012 A 
ATOM     69  C   UNL A   1      42.209  34.704  38.230  1.00  0.00     0.148 A 
ATOM     70  C   UNL A   1      40.840  34.100  40.609  1.00  0.00     0.002 A 
ATOM     71  C   UNL A   1      42.382  35.493  39.359  1.00  0.00     0.091 A 
ATOM     72  F   UNL A   1      42.815  34.987  37.069  1.00  0.00    -0.205 F 
ATOM     73  C   UNL A   1      41.689  35.202  40.545  1.00  0.00     0.022 A 
BRANCH  71  74
ATOM     74  S   UNL A   1      43.516  36.887  39.401  1.00  0.00     0.127 S 
ATOM     75  O   UNL A   1      43.350  37.359  40.775  1.00  0.00    -0.237 OA
ATOM     76  O   UNL A   1      44.800  36.243  39.126  1.00  0.00    -0.237 OA
ATOM     77  O   UNL A   1      43.061  37.807  38.368  1.00  0.00    -0.744 OA
ENDBRANCH  71  74
ENDBRANCH  53  67
BRANCH  54  78
ATOM     78  C   UNL A   1      40.208  28.012  30.073  1.00  0.00     0.023 A 
ATOM     79  C   UNL A   1      39.271  26.963  30.006  1.00  0.00     0.012 A 
ATOM     80  C   UNL A   1      41.014  28.286  28.950  1.00  0.00     0.148 A 
ATOM     81  C   UNL A   1      39.164  26.177  28.857  1.00  0.00     0.002 A 
ATOM     82  C   UNL A   1      40.865  27.534  27.791  1.00  0.00     0.091 A 
ATOM     83  F   UNL A   1      41.905  29.283  29.039  1.00  0.00    -0.205 F 
ATOM     84  C   UNL A   1      39.954  26.467  27.749  1.00  0.00     0.022 A 
BRANCH  82  85
ATOM     85  S   UNL A   1      41.760  27.899  26.277  1.00  0.00     0.127 S 
ATOM     86  O   UNL A   1      41.373  26.777  25.425  1.00  0.00    -0.237 OA
ATOM     87  O   UNL A   1      41.184  29.189  25.898  1.00  0.00    -0.237 OA
ATOM     88  O   UNL A   1      43.166  27.944  26.650  1.00  0.00    -0.744 OA
ENDBRANCH  82  85
ENDBRANCH  54  78
BRANCH  66  89
ATOM     89  C   UNL A   1      44.810  27.978  35.331  1.00  0.00     0.023 A 
ATOM     90  C   UNL A   1      44.668  26.790  36.075  1.00  0.00     0.012 A 
ATOM     91  C   UNL A   1      46.073  28.316  34.804  1.00  0.00     0.148 A 
ATOM     92  C   UNL A   1      45.770  25.970  36.317  1.00  0.00     0.002 A 
ATOM     93  C   UNL A   1      47.154  27.467  35.004  1.00  0.00     0.091 A 
ATOM     94  F   UNL A   1      46.191  29.459  34.111  1.00  0.00    -0.205 F 
ATOM     95  C   UNL A   1      47.007  26.302  35.772  1.00  0.00     0.022 A 
BRANCH  93  96
ATOM     96  S   UNL A   1      48.762  27.758  34.258  1.00  0.00     0.127 S 
ATOM     97  O   UNL A   1      49.158  29.018  34.886  1.00  0.00    -0.237 OA
ATOM     98  O   UNL A   1      49.523  26.590  34.699  1.00  0.00    -0.237 OA
ATOM     99  O   UNL A   1      48.533  27.826  32.820  1.00  0.00    -0.744 OA
ENDBRANCH  93  96
ENDBRANCH  66  89
ENDBRANCH  40  41
ENDBRANCH  33  35
ENDBRANCH  32  33
ENDBRANCH  31  32
ENDBRANCH  30  31
ENDBRANCH  29  30
ENDBRANCH  28  29
ENDBRANCH  27  28
ENDBRANCH   1  27
TORSDOF 27
ENDMDL
