MODEL 1
REMARK VINA RESULT:      -9.8      0.000      0.000
REMARK SMILES C=C(C)COc1ccc2nc(C)n(-c3cccc(C(=O)OCCOCCOCCOCCOC(=O)c4ccc(-c5c6nc(c(-c7cccc(S(=O)(=O)[O-])c7F)c7ccc([nH]7)c(-c7cccc(S(=O)(=O)[O-])c7F)c7nc(c(-c8cccc(S(=O)(=O)[O-])c8F)c8ccc5[nH]8)C=C7)C=C6)cc4)c3)c(=O)c2c1
REMARK SMILES IDX 26 1 25 2 24 3 23 4 22 5 21 6 19 7 20 8 18 9 14 10 15 11
REMARK SMILES IDX 99 12 16 13 17 14 13 15 6 16 7 17 103 18 8 19 102 20 9 21
REMARK SMILES IDX 100 22 10 23 101 24 11 25 12 26 5 27 4 28 2 29 1 30 3 31
REMARK SMILES IDX 27 32 28 33 29 34 30 35 31 36 32 37 33 38 34 39 35 40 36 41
REMARK SMILES IDX 37 42 98 43 38 44 97 45 39 46 40 47 41 48 91 49 42 50 96 51
REMARK SMILES IDX 90 52 92 53 43 54 95 55 89 56 88 57 44 59 76 60 56 61 75 62
REMARK SMILES IDX 57 63 60 64 74 65 93 66 58 67 59 68 73 70 94 71 61 72 45 73
REMARK SMILES IDX 46 74 54 75 47 76 49 77 55 78 48 79 50 80 51 81 52 82 53 83
REMARK SMILES IDX 77 84 78 85 86 86 79 87 81 88 87 89 80 90 82 91 83 92 84 93
REMARK SMILES IDX 85 94 62 95 63 96 71 97 64 98 66 99 72 100 65 101 67 102
REMARK SMILES IDX 68 103 69 104 70 105
REMARK H PARENT 92 58 60 69
REMARK Flexibility Score: inf
ROOT
ATOM      1  C   UNL A   1      36.095  22.836  24.521  1.00  0.00     0.188 C 
ENDROOT
BRANCH   1   2
ATOM      2  C   UNL A   1      35.923  21.542  25.338  1.00  0.00     0.188 C 
BRANCH   2   3
ATOM      3  O   UNL A   1      35.392  20.464  24.584  1.00  0.00    -0.376 OA
BRANCH   3   4
ATOM      4  C   UNL A   1      35.938  19.171  24.794  1.00  0.00     0.202 C 
BRANCH   4   5
ATOM      5  C   UNL A   1      34.999  17.960  24.680  1.00  0.00     0.261 C 
BRANCH   5   6
ATOM      6  O   UNL A   1      33.773  18.190  23.974  1.00  0.00    -0.460 OA
BRANCH   6   7
ATOM      7  C   UNL A   1      32.740  18.743  24.645  1.00  0.00     0.338 C 
ATOM      8  O   UNL A   1      32.270  18.370  25.705  1.00  0.00    -0.246 OA
BRANCH   7   9
ATOM      9  C   UNL A   1      32.447  20.049  23.997  1.00  0.00     0.062 A 
ATOM     10  C   UNL A   1      31.845  22.406  24.155  1.00  0.00     0.051 A 
ATOM     11  C   UNL A   1      31.608  22.413  22.772  1.00  0.00     0.027 A 
ATOM     12  C   UNL A   1      32.276  21.213  24.757  1.00  0.00     0.042 A 
ATOM     13  C   UNL A   1      31.783  21.253  22.010  1.00  0.00     0.003 A 
ATOM     14  C   UNL A   1      32.207  20.073  22.620  1.00  0.00     0.016 A 
BRANCH  10  15
ATOM     15  N   UNL A   1      31.694  23.595  24.947  1.00  0.00    -0.264 N 
ATOM     16  C   UNL A   1      32.811  28.235  25.837  1.00  0.00     0.120 A 
ATOM     17  C   UNL A   1      31.789  28.258  26.786  1.00  0.00     0.049 A 
ATOM     18  C   UNL A   1      33.051  27.084  25.095  1.00  0.00     0.062 A 
ATOM     19  C   UNL A   1      31.052  27.104  27.047  1.00  0.00     0.033 A 
ATOM     20  C   UNL A   1      32.291  25.937  25.356  1.00  0.00     0.070 A 
ATOM     21  C   UNL A   1      31.300  25.933  26.333  1.00  0.00     0.078 A 
ATOM     22  C   UNL A   1      32.481  24.701  24.581  1.00  0.00     0.266 A 
ATOM     23  N   UNL A   1      30.558  24.796  26.642  1.00  0.00    -0.234 NA
ATOM     24  O   UNL A   1      33.264  24.739  23.632  1.00  0.00    -0.268 OA
ATOM     25  C   UNL A   1      30.788  23.697  25.992  1.00  0.00     0.113 A 
ATOM     26  C   UNL A   1      30.021  22.491  26.497  1.00  0.00     0.088 C 
BRANCH  16  27
ATOM     27  O   UNL A   1      33.526  29.369  25.558  1.00  0.00    -0.489 OA
BRANCH  27  28
ATOM     28  C   UNL A   1      33.242  30.427  26.495  1.00  0.00     0.260 C 
BRANCH  28  29
ATOM     29  C   UNL A   1      34.390  30.653  27.457  1.00  0.00    -0.043 C 
ATOM     30  C   UNL A   1      34.432  31.700  28.298  1.00  0.00     0.011 C 
ATOM     31  C   UNL A   1      35.459  29.596  27.455  1.00  0.00     0.042 C 
ENDBRANCH  28  29
ENDBRANCH  27  28
ENDBRANCH  16  27
ENDBRANCH  10  15
ENDBRANCH   7   9
ENDBRANCH   6   7
ENDBRANCH   5   6
ENDBRANCH   4   5
ENDBRANCH   3   4
ENDBRANCH   2   3
ENDBRANCH   1   2
BRANCH   1  32
ATOM     32  O   UNL A   1      37.080  23.750  24.970  1.00  0.00    -0.377 OA
BRANCH  32  33
ATOM     33  C   UNL A   1      37.713  23.534  26.231  1.00  0.00     0.188 C 
BRANCH  33  34
ATOM     34  C   UNL A   1      39.187  23.077  26.365  1.00  0.00     0.188 C 
BRANCH  34  35
ATOM     35  O   UNL A   1      39.366  21.722  26.757  1.00  0.00    -0.376 OA
BRANCH  35  36
ATOM     36  C   UNL A   1      39.209  20.739  25.747  1.00  0.00     0.202 C 
BRANCH  36  37
ATOM     37  C   UNL A   1      40.030  19.464  25.970  1.00  0.00     0.261 C 
BRANCH  37  38
ATOM     38  O   UNL A   1      41.279  19.653  26.650  1.00  0.00    -0.460 OA
BRANCH  38  39
ATOM     39  C   UNL A   1      42.340  20.042  25.908  1.00  0.00     0.338 C 
ATOM     40  O   UNL A   1      42.854  19.429  24.988  1.00  0.00    -0.246 OA
BRANCH  39  41
ATOM     41  C   UNL A   1      42.641  21.443  26.275  1.00  0.00     0.060 A 
ATOM     42  C   UNL A   1      42.686  21.821  27.619  1.00  0.00     0.016 A 
ATOM     43  C   UNL A   1      42.828  22.395  25.263  1.00  0.00     0.016 A 
ATOM     44  C   UNL A   1      42.952  23.150  27.951  1.00  0.00     0.010 A 
ATOM     45  C   UNL A   1      43.089  23.727  25.599  1.00  0.00     0.010 A 
ATOM     46  C   UNL A   1      43.180  24.108  26.946  1.00  0.00    -0.014 A 
BRANCH  46  47
ATOM     47  C   UNL A   1      43.725  25.436  27.322  1.00  0.00     0.031 A 
ATOM     48  C   UNL A   1      45.164  25.809  27.131  1.00  0.00     0.074 A 
ATOM     49  C   UNL A   1      42.868  26.320  27.869  1.00  0.00     0.049 A 
ATOM     50  N   UNL A   1      45.728  26.977  27.300  1.00  0.00    -0.248 NA
ATOM     51  C   UNL A   1      46.090  24.748  26.709  1.00  0.00     0.031 C 
ATOM     52  C   UNL A   1      41.463  26.040  28.176  1.00  0.00     0.029 A 
ATOM     53  N   UNL A   1      43.043  27.621  28.261  1.00  0.00    -0.354 N 
ATOM     54  C   UNL A   1      47.073  26.800  27.010  1.00  0.00     0.074 A 
ATOM     55  C   UNL A   1      47.248  25.402  26.672  1.00  0.00     0.031 C 
ATOM     56  C   UNL A   1      40.898  27.144  28.688  1.00  0.00     0.029 A 
ATOM     57  C   UNL A   1      41.900  28.204  28.752  1.00  0.00     0.049 A 
ATOM     58  H   UNL A   1      43.905  28.094  28.195  1.00  0.00     0.167 HD
ATOM     59  C   UNL A   1      48.062  27.727  27.005  1.00  0.00     0.034 A 
ATOM     60  C   UNL A   1      41.671  29.455  29.194  1.00  0.00     0.034 A 
ATOM     61  C   UNL A   1      47.876  29.118  27.327  1.00  0.00     0.049 A 
ATOM     62  C   UNL A   1      42.777  30.466  29.152  1.00  0.00     0.074 A 
ATOM     63  C   UNL A   1      48.805  30.144  27.258  1.00  0.00     0.029 A 
ATOM     64  N   UNL A   1      46.699  29.679  27.796  1.00  0.00    -0.354 N 
ATOM     65  N   UNL A   1      43.999  30.323  28.704  1.00  0.00    -0.248 NA
ATOM     66  C   UNL A   1      42.469  31.816  29.645  1.00  0.00     0.031 C 
ATOM     67  C   UNL A   1      48.195  31.320  27.704  1.00  0.00     0.029 A 
ATOM     68  C   UNL A   1      46.882  31.031  28.038  1.00  0.00     0.049 A 
ATOM     69  H   UNL A   1      45.857  29.189  27.937  1.00  0.00     0.167 HD
ATOM     70  C   UNL A   1      44.606  31.563  28.851  1.00  0.00     0.074 A 
ATOM     71  C   UNL A   1      43.610  32.455  29.409  1.00  0.00     0.031 C 
ATOM     72  C   UNL A   1      45.879  31.922  28.561  1.00  0.00     0.034 A 
BRANCH  59  73
ATOM     73  C   UNL A   1      49.438  27.306  26.565  1.00  0.00     0.023 A 
ATOM     74  C   UNL A   1      50.239  26.567  27.458  1.00  0.00     0.012 A 
ATOM     75  C   UNL A   1      49.873  27.502  25.239  1.00  0.00     0.148 A 
ATOM     76  C   UNL A   1      51.457  26.031  27.041  1.00  0.00     0.002 A 
ATOM     77  C   UNL A   1      51.078  26.944  24.823  1.00  0.00     0.091 A 
ATOM     78  F   UNL A   1      49.094  28.209  24.409  1.00  0.00    -0.205 F 
ATOM     79  C   UNL A   1      51.870  26.210  25.723  1.00  0.00     0.022 A 
BRANCH  77  80
ATOM     80  S   UNL A   1      51.681  27.066  23.135  1.00  0.00     0.127 S 
ATOM     81  O   UNL A   1      52.922  26.295  23.210  1.00  0.00    -0.237 OA
ATOM     82  O   UNL A   1      50.606  26.421  22.379  1.00  0.00    -0.237 OA
ATOM     83  O   UNL A   1      51.852  28.487  22.869  1.00  0.00    -0.744 OA
ENDBRANCH  77  80
ENDBRANCH  59  73
BRANCH  60  84
ATOM     84  C   UNL A   1      40.300  29.821  29.633  1.00  0.00     0.023 A 
ATOM     85  C   UNL A   1      39.387  30.324  28.686  1.00  0.00     0.012 A 
ATOM     86  C   UNL A   1      39.873  29.587  30.954  1.00  0.00     0.148 A 
ATOM     87  C   UNL A   1      38.069  30.592  29.052  1.00  0.00     0.002 A 
ATOM     88  C   UNL A   1      38.549  29.821  31.301  1.00  0.00     0.091 A 
ATOM     89  F   UNL A   1      40.764  29.103  31.830  1.00  0.00    -0.205 F 
ATOM     90  C   UNL A   1      37.647  30.332  30.353  1.00  0.00     0.022 A 
BRANCH  88  91
ATOM     91  S   UNL A   1      37.885  29.421  32.921  1.00  0.00     0.127 S 
ATOM     92  O   UNL A   1      38.217  28.003  33.036  1.00  0.00    -0.237 OA
ATOM     93  O   UNL A   1      38.660  30.309  33.787  1.00  0.00    -0.237 OA
ATOM     94  O   UNL A   1      36.462  29.726  32.854  1.00  0.00    -0.744 OA
ENDBRANCH  88  91
ENDBRANCH  60  84
BRANCH  72  95
ATOM     95  C   UNL A   1      46.301  33.336  28.845  1.00  0.00     0.023 A 
ATOM     96  C   UNL A   1      46.983  33.620  30.045  1.00  0.00     0.012 A 
ATOM     97  C   UNL A   1      46.147  34.346  27.875  1.00  0.00     0.148 A 
ATOM     98  C   UNL A   1      47.506  34.891  30.275  1.00  0.00     0.002 A 
ATOM     99  C   UNL A   1      46.700  35.601  28.099  1.00  0.00     0.091 A 
ATOM    100  F   UNL A   1      45.490  34.049  26.745  1.00  0.00    -0.205 F 
ATOM    101  C   UNL A   1      47.377  35.877  29.300  1.00  0.00     0.022 A 
BRANCH  99 102
ATOM    102  S   UNL A   1      46.649  36.918  26.877  1.00  0.00     0.127 S 
ATOM    103  O   UNL A   1      45.240  37.310  26.921  1.00  0.00    -0.237 OA
ATOM    104  O   UNL A   1      47.573  37.899  27.443  1.00  0.00    -0.237 OA
ATOM    105  O   UNL A   1      47.082  36.322  25.620  1.00  0.00    -0.744 OA
ENDBRANCH  99 102
ENDBRANCH  72  95
ENDBRANCH  46  47
ENDBRANCH  39  41
ENDBRANCH  38  39
ENDBRANCH  37  38
ENDBRANCH  36  37
ENDBRANCH  35  36
ENDBRANCH  34  35
ENDBRANCH  33  34
ENDBRANCH  32  33
ENDBRANCH   1  32
TORSDOF 27
ENDMDL
MODEL 2
REMARK VINA RESULT:      -9.7      3.081      7.918
REMARK SMILES C=C(C)COc1ccc2nc(C)n(-c3cccc(C(=O)OCCOCCOCCOCCOC(=O)c4ccc(-c5c6nc(c(-c7cccc(S(=O)(=O)[O-])c7F)c7ccc([nH]7)c(-c7cccc(S(=O)(=O)[O-])c7F)c7nc(c(-c8cccc(S(=O)(=O)[O-])c8F)c8ccc5[nH]8)C=C7)C=C6)cc4)c3)c(=O)c2c1
REMARK SMILES IDX 26 1 25 2 24 3 23 4 22 5 21 6 19 7 20 8 18 9 14 10 15 11
REMARK SMILES IDX 99 12 16 13 17 14 13 15 6 16 7 17 103 18 8 19 102 20 9 21
REMARK SMILES IDX 100 22 10 23 101 24 11 25 12 26 5 27 4 28 2 29 1 30 3 31
REMARK SMILES IDX 27 32 28 33 29 34 30 35 31 36 32 37 33 38 34 39 35 40 36 41
REMARK SMILES IDX 37 42 98 43 38 44 97 45 39 46 40 47 41 48 91 49 42 50 96 51
REMARK SMILES IDX 90 52 92 53 43 54 95 55 89 56 88 57 44 59 76 60 56 61 75 62
REMARK SMILES IDX 57 63 60 64 74 65 93 66 58 67 59 68 73 70 94 71 61 72 45 73
REMARK SMILES IDX 46 74 54 75 47 76 49 77 55 78 48 79 50 80 51 81 52 82 53 83
REMARK SMILES IDX 77 84 78 85 86 86 79 87 81 88 87 89 80 90 82 91 83 92 84 93
REMARK SMILES IDX 85 94 62 95 63 96 71 97 64 98 66 99 72 100 65 101 67 102
REMARK SMILES IDX 68 103 69 104 70 105
REMARK H PARENT 92 58 60 69
REMARK Flexibility Score: inf
ROOT
ATOM      1  C   UNL A   1      36.611  22.332  24.185  1.00  0.00     0.188 C 
ENDROOT
BRANCH   1   2
ATOM      2  C   UNL A   1      36.915  21.052  24.985  1.00  0.00     0.188 C 
BRANCH   2   3
ATOM      3  O   UNL A   1      35.853  20.110  24.968  1.00  0.00    -0.376 OA
BRANCH   3   4
ATOM      4  C   UNL A   1      36.186  18.733  24.877  1.00  0.00     0.202 C 
BRANCH   4   5
ATOM      5  C   UNL A   1      35.053  17.730  24.612  1.00  0.00     0.261 C 
BRANCH   5   6
ATOM      6  O   UNL A   1      33.887  18.265  23.972  1.00  0.00    -0.460 OA
BRANCH   6   7
ATOM      7  C   UNL A   1      32.942  18.846  24.742  1.00  0.00     0.338 C 
ATOM      8  O   UNL A   1      32.581  18.494  25.851  1.00  0.00    -0.246 OA
BRANCH   7   9
ATOM      9  C   UNL A   1      32.607  20.151  24.112  1.00  0.00     0.062 A 
ATOM     10  C   UNL A   1      31.998  22.504  24.305  1.00  0.00     0.051 A 
ATOM     11  C   UNL A   1      31.690  22.511  22.937  1.00  0.00     0.027 A 
ATOM     12  C   UNL A   1      32.468  21.314  24.882  1.00  0.00     0.042 A 
ATOM     13  C   UNL A   1      31.833  21.353  22.164  1.00  0.00     0.003 A 
ATOM     14  C   UNL A   1      32.296  20.175  22.750  1.00  0.00     0.016 A 
BRANCH  10  15
ATOM     15  N   UNL A   1      31.881  23.691  25.105  1.00  0.00    -0.264 N 
ATOM     16  C   UNL A   1      33.339  28.187  26.216  1.00  0.00     0.120 A 
ATOM     17  C   UNL A   1      32.231  28.296  27.055  1.00  0.00     0.049 A 
ATOM     18  C   UNL A   1      33.544  27.028  25.476  1.00  0.00     0.062 A 
ATOM     19  C   UNL A   1      31.362  27.217  27.212  1.00  0.00     0.033 A 
ATOM     20  C   UNL A   1      32.653  25.957  25.630  1.00  0.00     0.070 A 
ATOM     21  C   UNL A   1      31.570  26.037  26.499  1.00  0.00     0.078 A 
ATOM     22  C   UNL A   1      32.804  24.719  24.849  1.00  0.00     0.266 A 
ATOM     23  N   UNL A   1      30.694  24.974  26.703  1.00  0.00    -0.234 NA
ATOM     24  O   UNL A   1      33.682  24.694  23.986  1.00  0.00    -0.268 OA
ATOM     25  C   UNL A   1      30.884  23.867  26.054  1.00  0.00     0.113 A 
ATOM     26  C   UNL A   1      29.956  22.735  26.449  1.00  0.00     0.088 C 
BRANCH  16  27
ATOM     27  O   UNL A   1      34.185  29.248  26.040  1.00  0.00    -0.489 OA
BRANCH  27  28
ATOM     28  C   UNL A   1      34.360  30.003  27.254  1.00  0.00     0.260 C 
BRANCH  28  29
ATOM     29  C   UNL A   1      35.746  29.821  27.837  1.00  0.00    -0.043 C 
ATOM     30  C   UNL A   1      36.864  30.074  27.135  1.00  0.00     0.011 C 
ATOM     31  C   UNL A   1      35.795  29.395  29.278  1.00  0.00     0.042 C 
ENDBRANCH  28  29
ENDBRANCH  27  28
ENDBRANCH  16  27
ENDBRANCH  10  15
ENDBRANCH   7   9
ENDBRANCH   6   7
ENDBRANCH   5   6
ENDBRANCH   4   5
ENDBRANCH   3   4
ENDBRANCH   2   3
ENDBRANCH   1   2
BRANCH   1  32
ATOM     32  O   UNL A   1      37.038  23.558  24.752  1.00  0.00    -0.377 OA
BRANCH  32  33
ATOM     33  C   UNL A   1      37.497  23.582  26.103  1.00  0.00     0.188 C 
BRANCH  33  34
ATOM     34  C   UNL A   1      38.964  23.897  26.486  1.00  0.00     0.188 C 
BRANCH  34  35
ATOM     35  O   UNL A   1      39.668  22.829  27.108  1.00  0.00    -0.376 OA
BRANCH  35  36
ATOM     36  C   UNL A   1      40.205  21.834  26.251  1.00  0.00     0.202 C 
BRANCH  36  37
ATOM     37  C   UNL A   1      41.672  21.484  26.526  1.00  0.00     0.261 C 
BRANCH  37  38
ATOM     38  O   UNL A   1      42.480  22.570  27.000  1.00  0.00    -0.460 OA
BRANCH  38  39
ATOM     39  C   UNL A   1      42.853  23.509  26.100  1.00  0.00     0.338 C 
ATOM     40  O   UNL A   1      43.097  23.333  24.919  1.00  0.00    -0.246 OA
BRANCH  39  41
ATOM     41  C   UNL A   1      42.712  24.826  26.757  1.00  0.00     0.060 A 
ATOM     42  C   UNL A   1      42.641  24.911  28.149  1.00  0.00     0.016 A 
ATOM     43  C   UNL A   1      42.599  25.980  25.969  1.00  0.00     0.016 A 
ATOM     44  C   UNL A   1      42.488  26.158  28.756  1.00  0.00     0.010 A 
ATOM     45  C   UNL A   1      42.442  27.228  26.580  1.00  0.00     0.010 A 
ATOM     46  C   UNL A   1      42.413  27.328  27.978  1.00  0.00    -0.014 A 
BRANCH  46  47
ATOM     47  C   UNL A   1      42.527  28.649  28.646  1.00  0.00     0.031 A 
ATOM     48  C   UNL A   1      41.337  29.431  29.113  1.00  0.00     0.074 A 
ATOM     49  C   UNL A   1      43.768  29.148  28.814  1.00  0.00     0.049 A 
ATOM     50  N   UNL A   1      41.317  30.530  29.822  1.00  0.00    -0.248 NA
ATOM     51  C   UNL A   1      40.007  28.933  28.737  1.00  0.00     0.031 C 
ATOM     52  C   UNL A   1      44.996  28.512  28.328  1.00  0.00     0.029 A 
ATOM     53  N   UNL A   1      44.205  30.288  29.433  1.00  0.00    -0.354 N 
ATOM     54  C   UNL A   1      39.980  30.863  29.979  1.00  0.00     0.074 A 
ATOM     55  C   UNL A   1      39.214  29.857  29.271  1.00  0.00     0.031 C 
ATOM     56  C   UNL A   1      46.049  29.261  28.688  1.00  0.00     0.029 A 
ATOM     57  C   UNL A   1      45.572  30.430  29.420  1.00  0.00     0.049 A 
ATOM     58  H   UNL A   1      43.598  30.943  29.849  1.00  0.00     0.167 HD
ATOM     59  C   UNL A   1      39.446  31.899  30.669  1.00  0.00     0.034 A 
ATOM     60  C   UNL A   1      46.361  31.384  29.948  1.00  0.00     0.034 A 
ATOM     61  C   UNL A   1      40.214  32.886  31.383  1.00  0.00     0.049 A 
ATOM     62  C   UNL A   1      45.744  32.504  30.729  1.00  0.00     0.074 A 
ATOM     63  C   UNL A   1      39.751  33.916  32.185  1.00  0.00     0.029 A 
ATOM     64  N   UNL A   1      41.596  32.984  31.368  1.00  0.00    -0.354 N 
ATOM     65  N   UNL A   1      44.482  32.702  31.017  1.00  0.00    -0.248 NA
ATOM     66  C   UNL A   1      46.655  33.516  31.284  1.00  0.00     0.031 C 
ATOM     67  C   UNL A   1      40.851  34.648  32.638  1.00  0.00     0.029 A 
ATOM     68  C   UNL A   1      42.002  34.067  32.131  1.00  0.00     0.049 A 
ATOM     69  H   UNL A   1      42.201  32.374  30.888  1.00  0.00     0.167 HD
ATOM     70  C   UNL A   1      44.444  33.853  31.793  1.00  0.00     0.074 A 
ATOM     71  C   UNL A   1      45.814  34.298  31.951  1.00  0.00     0.031 C 
ATOM     72  C   UNL A   1      43.367  34.487  32.314  1.00  0.00     0.034 A 
BRANCH  59  73
ATOM     73  C   UNL A   1      37.947  31.999  30.768  1.00  0.00     0.023 A 
ATOM     74  C   UNL A   1      37.313  31.551  31.944  1.00  0.00     0.012 A 
ATOM     75  C   UNL A   1      37.192  32.665  29.782  1.00  0.00     0.148 A 
ATOM     76  C   UNL A   1      35.949  31.760  32.138  1.00  0.00     0.002 A 
ATOM     77  C   UNL A   1      35.836  32.892  29.994  1.00  0.00     0.091 A 
ATOM     78  F   UNL A   1      37.818  33.082  28.672  1.00  0.00    -0.205 F 
ATOM     79  C   UNL A   1      35.214  32.439  31.170  1.00  0.00     0.022 A 
BRANCH  77  80
ATOM     80  S   UNL A   1      34.805  33.803  28.838  1.00  0.00     0.127 S 
ATOM     81  O   UNL A   1      35.413  33.445  27.557  1.00  0.00    -0.237 OA
ATOM     82  O   UNL A   1      33.486  33.214  29.074  1.00  0.00    -0.237 OA
ATOM     83  O   UNL A   1      34.926  35.206  29.208  1.00  0.00    -0.744 OA
ENDBRANCH  77  80
ENDBRANCH  59  73
BRANCH  60  84
ATOM     84  C   UNL A   1      47.835  31.251  29.812  1.00  0.00     0.023 A 
ATOM     85  C   UNL A   1      48.526  30.367  30.662  1.00  0.00     0.012 A 
ATOM     86  C   UNL A   1      48.533  31.922  28.791  1.00  0.00     0.148 A 
ATOM     87  C   UNL A   1      49.895  30.157  30.499  1.00  0.00     0.002 A 
ATOM     88  C   UNL A   1      49.889  31.679  28.610  1.00  0.00     0.091 A 
ATOM     89  F   UNL A   1      47.847  32.753  27.995  1.00  0.00    -0.205 F 
ATOM     90  C   UNL A   1      50.573  30.803  29.469  1.00  0.00     0.022 A 
BRANCH  88  91
ATOM     91  S   UNL A   1      50.828  32.382  27.251  1.00  0.00     0.127 S 
ATOM     92  O   UNL A   1      52.157  31.823  27.488  1.00  0.00    -0.237 OA
ATOM     93  O   UNL A   1      50.126  31.836  26.090  1.00  0.00    -0.237 OA
ATOM     94  O   UNL A   1      50.723  33.827  27.400  1.00  0.00    -0.744 OA
ENDBRANCH  88  91
ENDBRANCH  60  84
BRANCH  72  95
ATOM     95  C   UNL A   1      43.596  35.746  33.102  1.00  0.00     0.023 A 
ATOM     96  C   UNL A   1      43.624  35.680  34.508  1.00  0.00     0.012 A 
ATOM     97  C   UNL A   1      43.916  36.956  32.455  1.00  0.00     0.148 A 
ATOM     98  C   UNL A   1      43.968  36.801  35.261  1.00  0.00     0.002 A 
ATOM     99  C   UNL A   1      44.290  38.060  33.212  1.00  0.00     0.091 A 
ATOM    100  F   UNL A   1      43.877  36.992  31.116  1.00  0.00    -0.205 F 
ATOM    101  C   UNL A   1      44.313  37.985  34.615  1.00  0.00     0.022 A 
BRANCH  99 102
ATOM    102  S   UNL A   1      44.818  39.611  32.474  1.00  0.00     0.127 S 
ATOM    103  O   UNL A   1      45.430  40.290  33.615  1.00  0.00    -0.237 OA
ATOM    104  O   UNL A   1      45.763  39.160  31.453  1.00  0.00    -0.237 OA
ATOM    105  O   UNL A   1      43.613  40.245  31.956  1.00  0.00    -0.744 OA
ENDBRANCH  99 102
ENDBRANCH  72  95
ENDBRANCH  46  47
ENDBRANCH  39  41
ENDBRANCH  38  39
ENDBRANCH  37  38
ENDBRANCH  36  37
ENDBRANCH  35  36
ENDBRANCH  34  35
ENDBRANCH  33  34
ENDBRANCH  32  33
ENDBRANCH   1  32
TORSDOF 27
ENDMDL
MODEL 3
REMARK VINA RESULT:      -9.2      3.629      8.667
REMARK SMILES C=C(C)COc1ccc2nc(C)n(-c3cccc(C(=O)OCCOCCOCCOCCOC(=O)c4ccc(-c5c6nc(c(-c7cccc(S(=O)(=O)[O-])c7F)c7ccc([nH]7)c(-c7cccc(S(=O)(=O)[O-])c7F)c7nc(c(-c8cccc(S(=O)(=O)[O-])c8F)c8ccc5[nH]8)C=C7)C=C6)cc4)c3)c(=O)c2c1
REMARK SMILES IDX 26 1 25 2 24 3 23 4 22 5 21 6 19 7 20 8 18 9 14 10 15 11
REMARK SMILES IDX 99 12 16 13 17 14 13 15 6 16 7 17 103 18 8 19 102 20 9 21
REMARK SMILES IDX 100 22 10 23 101 24 11 25 12 26 5 27 4 28 2 29 1 30 3 31
REMARK SMILES IDX 27 32 28 33 29 34 30 35 31 36 32 37 33 38 34 39 35 40 36 41
REMARK SMILES IDX 37 42 98 43 38 44 97 45 39 46 40 47 41 48 91 49 42 50 96 51
REMARK SMILES IDX 90 52 92 53 43 54 95 55 89 56 88 57 44 59 76 60 56 61 75 62
REMARK SMILES IDX 57 63 60 64 74 65 93 66 58 67 59 68 73 70 94 71 61 72 45 73
REMARK SMILES IDX 46 74 54 75 47 76 49 77 55 78 48 79 50 80 51 81 52 82 53 83
REMARK SMILES IDX 77 84 78 85 86 86 79 87 81 88 87 89 80 90 82 91 83 92 84 93
REMARK SMILES IDX 85 94 62 95 63 96 71 97 64 98 66 99 72 100 65 101 67 102
REMARK SMILES IDX 68 103 69 104 70 105
REMARK H PARENT 92 58 60 69
REMARK Flexibility Score: inf
ROOT
ATOM      1  C   UNL A   1      36.944  22.045  24.276  1.00  0.00     0.188 C 
ENDROOT
BRANCH   1   2
ATOM      2  C   UNL A   1      37.205  20.598  24.734  1.00  0.00     0.188 C 
BRANCH   2   3
ATOM      3  O   UNL A   1      36.020  19.837  24.907  1.00  0.00    -0.376 OA
BRANCH   3   4
ATOM      4  C   UNL A   1      36.123  18.423  24.860  1.00  0.00     0.202 C 
BRANCH   4   5
ATOM      5  C   UNL A   1      34.853  17.612  24.555  1.00  0.00     0.261 C 
BRANCH   5   6
ATOM      6  O   UNL A   1      33.767  18.353  23.983  1.00  0.00    -0.460 OA
BRANCH   6   7
ATOM      7  C   UNL A   1      32.926  19.004  24.815  1.00  0.00     0.338 C 
ATOM      8  O   UNL A   1      32.621  18.682  25.949  1.00  0.00    -0.246 OA
BRANCH   7   9
ATOM      9  C   UNL A   1      32.643  20.329  24.201  1.00  0.00     0.062 A 
ATOM     10  C   UNL A   1      32.134  22.703  24.422  1.00  0.00     0.051 A 
ATOM     11  C   UNL A   1      31.821  22.738  23.055  1.00  0.00     0.027 A 
ATOM     12  C   UNL A   1      32.557  21.487  24.984  1.00  0.00     0.042 A 
ATOM     13  C   UNL A   1      31.912  21.584  22.270  1.00  0.00     0.003 A 
ATOM     14  C   UNL A   1      32.328  20.381  22.840  1.00  0.00     0.016 A 
BRANCH  10  15
ATOM     15  N   UNL A   1      32.070  23.884  25.236  1.00  0.00    -0.264 N 
ATOM     16  C   UNL A   1      33.785  28.260  26.456  1.00  0.00     0.120 A 
ATOM     17  C   UNL A   1      32.661  28.431  27.264  1.00  0.00     0.049 A 
ATOM     18  C   UNL A   1      33.936  27.099  25.706  1.00  0.00     0.062 A 
ATOM     19  C   UNL A   1      31.719  27.409  27.378  1.00  0.00     0.033 A 
ATOM     20  C   UNL A   1      32.973  26.088  25.817  1.00  0.00     0.070 A 
ATOM     21  C   UNL A   1      31.872  26.228  26.655  1.00  0.00     0.078 A 
ATOM     22  C   UNL A   1      33.067  24.853  25.023  1.00  0.00     0.266 A 
ATOM     23  N   UNL A   1      30.921  25.223  26.816  1.00  0.00    -0.234 NA
ATOM     24  O   UNL A   1      33.967  24.781  24.186  1.00  0.00    -0.268 OA
ATOM     25  C   UNL A   1      31.059  24.114  26.157  1.00  0.00     0.113 A 
ATOM     26  C   UNL A   1      30.047  23.041  26.507  1.00  0.00     0.088 C 
BRANCH  16  27
ATOM     27  O   UNL A   1      34.704  29.266  26.321  1.00  0.00    -0.489 OA
BRANCH  27  28
ATOM     28  C   UNL A   1      34.553  30.272  27.341  1.00  0.00     0.260 C 
BRANCH  28  29
ATOM     29  C   UNL A   1      35.863  30.569  28.040  1.00  0.00    -0.043 C 
ATOM     30  C   UNL A   1      36.199  31.805  28.448  1.00  0.00     0.011 C 
ATOM     31  C   UNL A   1      36.745  29.381  28.303  1.00  0.00     0.042 C 
ENDBRANCH  28  29
ENDBRANCH  27  28
ENDBRANCH  16  27
ENDBRANCH  10  15
ENDBRANCH   7   9
ENDBRANCH   6   7
ENDBRANCH   5   6
ENDBRANCH   4   5
ENDBRANCH   3   4
ENDBRANCH   2   3
ENDBRANCH   1   2
BRANCH   1  32
ATOM     32  O   UNL A   1      37.395  23.079  25.132  1.00  0.00    -0.377 OA
BRANCH  32  33
ATOM     33  C   UNL A   1      38.222  22.752  26.249  1.00  0.00     0.188 C 
BRANCH  33  34
ATOM     34  C   UNL A   1      39.432  23.618  26.680  1.00  0.00     0.188 C 
BRANCH  34  35
ATOM     35  O   UNL A   1      40.566  22.889  27.131  1.00  0.00    -0.376 OA
BRANCH  35  36
ATOM     36  C   UNL A   1      41.450  22.401  26.134  1.00  0.00     0.202 C 
BRANCH  36  37
ATOM     37  C   UNL A   1      42.921  22.767  26.356  1.00  0.00     0.261 C 
BRANCH  37  38
ATOM     38  O   UNL A   1      43.155  24.100  26.831  1.00  0.00    -0.460 OA
BRANCH  38  39
ATOM     39  C   UNL A   1      43.021  25.110  25.940  1.00  0.00     0.338 C 
ATOM     40  O   UNL A   1      42.855  25.008  24.737  1.00  0.00    -0.246 OA
BRANCH  39  41
ATOM     41  C   UNL A   1      42.904  26.364  26.715  1.00  0.00     0.060 A 
ATOM     42  C   UNL A   1      43.249  26.387  28.069  1.00  0.00     0.016 A 
ATOM     43  C   UNL A   1      42.397  27.514  26.093  1.00  0.00     0.016 A 
ATOM     44  C   UNL A   1      43.116  27.572  28.793  1.00  0.00     0.010 A 
ATOM     45  C   UNL A   1      42.260  28.698  26.823  1.00  0.00     0.010 A 
ATOM     46  C   UNL A   1      42.645  28.742  28.171  1.00  0.00    -0.014 A 
BRANCH  46  47
ATOM     47  C   UNL A   1      42.771  30.040  28.881  1.00  0.00     0.031 A 
ATOM     48  C   UNL A   1      41.674  30.618  29.722  1.00  0.00     0.074 A 
ATOM     49  C   UNL A   1      43.931  30.711  28.733  1.00  0.00     0.049 A 
ATOM     50  N   UNL A   1      41.714  31.675  30.492  1.00  0.00    -0.248 NA
ATOM     51  C   UNL A   1      40.369  29.942  29.696  1.00  0.00     0.031 C 
ATOM     52  C   UNL A   1      45.039  30.283  27.875  1.00  0.00     0.029 A 
ATOM     53  N   UNL A   1      44.373  31.880  29.293  1.00  0.00    -0.354 N 
ATOM     54  C   UNL A   1      40.447  31.799  31.042  1.00  0.00     0.074 A 
ATOM     55  C   UNL A   1      39.649  30.717  30.501  1.00  0.00     0.031 C 
ATOM     56  C   UNL A   1      46.042  31.167  27.983  1.00  0.00     0.029 A 
ATOM     57  C   UNL A   1      45.646  32.224  28.908  1.00  0.00     0.049 A 
ATOM     58  H   UNL A   1      43.830  32.422  29.912  1.00  0.00     0.167 HD
ATOM     59  C   UNL A   1      40.002  32.718  31.933  1.00  0.00     0.034 A 
ATOM     60  C   UNL A   1      46.422  33.265  29.267  1.00  0.00     0.034 A 
ATOM     61  C   UNL A   1      40.807  33.781  32.478  1.00  0.00     0.049 A 
ATOM     62  C   UNL A   1      45.913  34.251  30.275  1.00  0.00     0.074 A 
ATOM     63  C   UNL A   1      40.462  34.700  33.455  1.00  0.00     0.029 A 
ATOM     64  N   UNL A   1      42.101  34.084  32.085  1.00  0.00    -0.354 N 
ATOM     65  N   UNL A   1      44.773  34.248  30.919  1.00  0.00    -0.248 NA
ATOM     66  C   UNL A   1      46.804  35.365  30.630  1.00  0.00     0.031 C 
ATOM     67  C   UNL A   1      41.540  35.571  33.638  1.00  0.00     0.029 A 
ATOM     68  C   UNL A   1      42.562  35.186  32.786  1.00  0.00     0.049 A 
ATOM     69  H   UNL A   1      42.616  33.589  31.408  1.00  0.00     0.167 HD
ATOM     70  C   UNL A   1      44.809  35.351  31.762  1.00  0.00     0.074 A 
ATOM     71  C   UNL A   1      46.095  35.988  31.565  1.00  0.00     0.031 C 
ATOM     72  C   UNL A   1      43.854  35.797  32.611  1.00  0.00     0.034 A 
BRANCH  59  73
ATOM     73  C   UNL A   1      38.597  32.590  32.455  1.00  0.00     0.023 A 
ATOM     74  C   UNL A   1      38.353  31.730  33.545  1.00  0.00     0.012 A 
ATOM     75  C   UNL A   1      37.562  33.420  31.979  1.00  0.00     0.148 A 
ATOM     76  C   UNL A   1      37.099  31.693  34.152  1.00  0.00     0.002 A 
ATOM     77  C   UNL A   1      36.321  33.396  32.607  1.00  0.00     0.091 A 
ATOM     78  F   UNL A   1      37.818  34.229  30.942  1.00  0.00    -0.205 F 
ATOM     79  C   UNL A   1      36.088  32.533  33.692  1.00  0.00     0.022 A 
BRANCH  77  80
ATOM     80  S   UNL A   1      34.963  34.473  32.131  1.00  0.00     0.127 S 
ATOM     81  O   UNL A   1      35.400  35.756  32.680  1.00  0.00    -0.237 OA
ATOM     82  O   UNL A   1      35.003  34.389  30.671  1.00  0.00    -0.237 OA
ATOM     83  O   UNL A   1      33.768  33.914  32.746  1.00  0.00    -0.744 OA
ENDBRANCH  77  80
ENDBRANCH  59  73
BRANCH  60  84
ATOM     84  C   UNL A   1      47.798  33.358  28.714  1.00  0.00     0.023 A 
ATOM     85  C   UNL A   1      48.802  32.516  29.228  1.00  0.00     0.012 A 
ATOM     86  C   UNL A   1      48.088  34.205  27.629  1.00  0.00     0.148 A 
ATOM     87  C   UNL A   1      50.079  32.520  28.668  1.00  0.00     0.002 A 
ATOM     88  C   UNL A   1      49.351  34.176  27.052  1.00  0.00     0.091 A 
ATOM     89  F   UNL A   1      47.109  34.991  27.159  1.00  0.00    -0.205 F 
ATOM     90  C   UNL A   1      50.351  33.340  27.577  1.00  0.00     0.022 A 
BRANCH  88  91
ATOM     91  S   UNL A   1      49.769  35.117  25.581  1.00  0.00     0.127 S 
ATOM     92  O   UNL A   1      51.029  34.496  25.179  1.00  0.00    -0.237 OA
ATOM     93  O   UNL A   1      48.631  34.826  24.709  1.00  0.00    -0.237 OA
ATOM     94  O   UNL A   1      49.866  36.505  26.011  1.00  0.00    -0.744 OA
ENDBRANCH  88  91
ENDBRANCH  60  84
BRANCH  72  95
ATOM     95  C   UNL A   1      44.132  37.047  33.399  1.00  0.00     0.023 A 
ATOM     96  C   UNL A   1      43.776  38.296  32.852  1.00  0.00     0.012 A 
ATOM     97  C   UNL A   1      44.613  36.977  34.721  1.00  0.00     0.148 A 
ATOM     98  C   UNL A   1      43.895  39.458  33.611  1.00  0.00     0.002 A 
ATOM     99  C   UNL A   1      44.698  38.137  35.482  1.00  0.00     0.091 A 
ATOM    100  F   UNL A   1      44.948  35.777  35.214  1.00  0.00    -0.205 F 
ATOM    101  C   UNL A   1      44.342  39.379  34.927  1.00  0.00     0.022 A 
BRANCH  99 102
ATOM    102  S   UNL A   1      45.196  38.133  37.208  1.00  0.00     0.127 S 
ATOM    103  O   UNL A   1      44.879  39.502  37.613  1.00  0.00    -0.237 OA
ATOM    104  O   UNL A   1      44.322  37.109  37.779  1.00  0.00    -0.237 OA
ATOM    105  O   UNL A   1      46.615  37.803  37.219  1.00  0.00    -0.744 OA
ENDBRANCH  99 102
ENDBRANCH  72  95
ENDBRANCH  46  47
ENDBRANCH  39  41
ENDBRANCH  38  39
ENDBRANCH  37  38
ENDBRANCH  36  37
ENDBRANCH  35  36
ENDBRANCH  34  35
ENDBRANCH  33  34
ENDBRANCH  32  33
ENDBRANCH   1  32
TORSDOF 27
ENDMDL
