MODEL 1
REMARK VINA RESULT:      -5.5      0.000      0.000
REMARK SMILES COc1ccccc1C(=O)N/C(=C/c1ccc2c(c1)OCO2)C(=O)Nc1ccc(C(=O)OCCOCCOCCOCCOC(=O)c2ccc(-c3c4nc(c(-c5cccc(S(=O)(=O)[O-])c5F)c5ccc([nH]5)c(-c5cccc(S(=O)(=O)[O-])c5F)c5nc(c(-c6cccc(S(=O)(=O)[O-])c6F)c6ccc3[nH]6)C=C5)C=C4)cc2)cc1
REMARK SMILES IDX 37 1 36 2 35 3 34 4 33 5 32 6 30 7 31 8 29 9 26 10 27 11
REMARK SMILES IDX 111 12 28 13 110 14 25 15 23 16 24 17 12 19 13 20 11 21 9 22
REMARK SMILES IDX 10 23 8 25 3 26 4 27 5 28 7 29 6 30 2 31 1 32 14 33 15 34
REMARK SMILES IDX 19 35 16 36 18 37 17 38 20 39 22 40 21 41 38 42 39 43 40 44
REMARK SMILES IDX 41 45 42 46 43 47 44 48 45 49 46 50 47 51 48 52 109 53 49 54
REMARK SMILES IDX 108 55 50 56 51 57 52 58 102 59 53 60 107 61 101 62 103 63
REMARK SMILES IDX 54 64 106 65 100 66 99 67 55 69 87 70 67 71 86 72 68 73
REMARK SMILES IDX 71 74 85 75 104 76 69 77 70 78 84 80 105 81 72 82 56 83
REMARK SMILES IDX 57 84 65 85 58 86 60 87 66 88 59 89 61 90 62 91 63 92 64 93
REMARK SMILES IDX 88 94 89 95 97 96 90 97 92 98 98 99 91 100 93 101 94 102
REMARK SMILES IDX 95 103 96 104 73 105 74 106 82 107 75 108 77 109 83 110
REMARK SMILES IDX 76 111 78 112 79 113 80 114 81 115
REMARK H PARENT 25 18 11 24 103 68 71 79
REMARK Flexibility Score: inf
ROOT
ATOM      1  C   UNL A   1      49.304  23.027  35.466  1.00  0.00     0.188 C 
ENDROOT
BRANCH   1   2
ATOM      2  C   UNL A   1      47.963  22.297  35.290  1.00  0.00     0.188 C 
BRANCH   2   3
ATOM      3  O   UNL A   1      46.764  22.932  34.876  1.00  0.00    -0.376 OA
BRANCH   3   4
ATOM      4  C   UNL A   1      45.485  22.790  35.500  1.00  0.00     0.202 C 
BRANCH   4   5
ATOM      5  C   UNL A   1      44.316  23.805  35.508  1.00  0.00     0.261 C 
BRANCH   5   6
ATOM      6  O   UNL A   1      44.123  24.538  34.312  1.00  0.00    -0.460 OA
BRANCH   6   7
ATOM      7  C   UNL A   1      44.344  25.858  34.467  1.00  0.00     0.338 C 
ATOM      8  O   UNL A   1      45.369  26.409  34.833  1.00  0.00    -0.246 OA
BRANCH   7   9
ATOM      9  C   UNL A   1      43.193  26.590  33.900  1.00  0.00     0.060 A 
ATOM     10  C   UNL A   1      41.384  29.481  32.501  1.00  0.00     0.041 A 
ATOM     11  C   UNL A   1      42.315  28.547  31.521  1.00  0.00     0.027 A 
ATOM     12  C   UNL A   1      41.227  28.978  34.096  1.00  0.00     0.027 A 
ATOM     13  C   UNL A   1      43.374  26.923  32.226  1.00  0.00     0.018 A 
ATOM     14  C   UNL A   1      42.061  27.594  34.777  1.00  0.00     0.018 A 
BRANCH  10  15
ATOM     15  N   UNL A   1      41.538  30.826  32.007  1.00  0.00    -0.321 N 
ATOM     16  C   UNL A   1      40.450  31.500  31.540  1.00  0.00     0.272 C 
ATOM     17  O   UNL A   1      39.885  30.922  30.620  1.00  0.00    -0.267 OA
ATOM     18  H   UNL A   1      42.424  31.255  32.005  1.00  0.00     0.170 HD
BRANCH  16  19
ATOM     19  C   UNL A   1      39.934  32.841  32.219  1.00  0.00     0.108 C 
ATOM     20  C   UNL A   1      38.620  33.207  32.318  1.00  0.00     0.040 C 
BRANCH  19  21
ATOM     21  N   UNL A   1      40.738  33.935  32.570  1.00  0.00    -0.317 N 
ATOM     22  C   UNL A   1      41.408  34.492  33.627  1.00  0.00     0.259 C 
ATOM     23  O   UNL A   1      41.840  35.639  33.479  1.00  0.00    -0.269 OA
ATOM     24  H   UNL A   1      40.866  34.503  31.776  1.00  0.00     0.170 HD
BRANCH  22  25
ATOM     25  C   UNL A   1      41.449  33.902  34.956  1.00  0.00     0.082 A 
ATOM     26  C   UNL A   1      41.153  34.613  36.093  1.00  0.00     0.131 A 
ATOM     27  C   UNL A   1      41.839  34.260  37.255  1.00  0.00     0.047 A 
ATOM     28  C   UNL A   1      42.475  33.021  37.360  1.00  0.00     0.004 A 
ATOM     29  C   UNL A   1      41.933  32.585  35.072  1.00  0.00     0.018 A 
ATOM     30  C   UNL A   1      42.390  32.124  36.303  1.00  0.00     0.001 A 
BRANCH  26  31
ATOM     31  O   UNL A   1      40.145  35.511  36.280  1.00  0.00    -0.496 OA
ATOM     32  C   UNL A   1      39.927  36.224  37.501  1.00  0.00     0.278 C 
ENDBRANCH  26  31
ENDBRANCH  22  25
ENDBRANCH  19  21
BRANCH  20  33
ATOM     33  C   UNL A   1      37.425  32.520  31.837  1.00  0.00    -0.019 A 
ATOM     34  C   UNL A   1      36.650  32.179  33.008  1.00  0.00     0.012 A 
ATOM     35  C   UNL A   1      37.008  32.687  30.457  1.00  0.00     0.058 A 
ATOM     36  C   UNL A   1      35.394  32.679  33.124  1.00  0.00     0.051 A 
ATOM     37  C   UNL A   1      35.669  32.839  30.379  1.00  0.00     0.166 A 
ATOM     38  C   UNL A   1      34.988  33.256  31.917  1.00  0.00     0.165 A 
ATOM     39  O   UNL A   1      34.804  33.691  29.035  1.00  0.00    -0.454 OA
ATOM     40  O   UNL A   1      33.537  34.614  31.576  1.00  0.00    -0.454 OA
ATOM     41  C   UNL A   1      33.325  34.792  29.629  1.00  0.00     0.468 C 
ENDBRANCH  20  33
ENDBRANCH  16  19
ENDBRANCH  10  15
ENDBRANCH   7   9
ENDBRANCH   6   7
ENDBRANCH   5   6
ENDBRANCH   4   5
ENDBRANCH   3   4
ENDBRANCH   2   3
ENDBRANCH   1   2
BRANCH   1  42
ATOM     42  O   UNL A   1      49.862  22.913  36.740  1.00  0.00    -0.377 OA
BRANCH  42  43
ATOM     43  C   UNL A   1      50.399  24.148  37.181  1.00  0.00     0.188 C 
BRANCH  43  44
ATOM     44  C   UNL A   1      49.711  25.031  38.306  1.00  0.00     0.188 C 
BRANCH  44  45
ATOM     45  O   UNL A   1      48.355  25.466  38.338  1.00  0.00    -0.376 OA
BRANCH  45  46
ATOM     46  C   UNL A   1      47.763  26.357  39.276  1.00  0.00     0.202 C 
BRANCH  46  47
ATOM     47  C   UNL A   1      48.116  27.857  39.422  1.00  0.00     0.261 C 
BRANCH  47  48
ATOM     48  O   UNL A   1      47.052  28.760  39.740  1.00  0.00    -0.460 OA
BRANCH  48  49
ATOM     49  C   UNL A   1      45.874  28.509  39.117  1.00  0.00     0.338 C 
ATOM     50  O   UNL A   1      44.880  28.022  39.627  1.00  0.00    -0.246 OA
BRANCH  49  51
ATOM     51  C   UNL A   1      45.896  29.153  37.778  1.00  0.00     0.060 A 
ATOM     52  C   UNL A   1      47.040  29.855  37.337  1.00  0.00     0.016 A 
ATOM     53  C   UNL A   1      44.778  29.064  36.958  1.00  0.00     0.016 A 
ATOM     54  C   UNL A   1      47.069  30.465  36.087  1.00  0.00     0.010 A 
ATOM     55  C   UNL A   1      44.778  29.746  35.742  1.00  0.00     0.010 A 
ATOM     56  C   UNL A   1      45.908  30.478  35.320  1.00  0.00    -0.014 A 
BRANCH  56  57
ATOM     57  C   UNL A   1      45.759  31.449  34.216  1.00  0.00     0.031 A 
ATOM     58  C   UNL A   1      45.639  32.901  34.583  1.00  0.00     0.074 A 
ATOM     59  C   UNL A   1      45.686  31.061  32.932  1.00  0.00     0.049 A 
ATOM     60  N   UNL A   1      45.318  33.918  33.832  1.00  0.00    -0.248 NA
ATOM     61  C   UNL A   1      45.898  33.246  35.993  1.00  0.00     0.031 C 
ATOM     62  C   UNL A   1      45.842  29.693  32.449  1.00  0.00     0.029 A 
ATOM     63  N   UNL A   1      45.409  31.793  31.803  1.00  0.00    -0.354 N 
ATOM     64  C   UNL A   1      45.278  35.013  34.685  1.00  0.00     0.074 A 
ATOM     65  C   UNL A   1      45.604  34.537  36.011  1.00  0.00     0.031 C 
ATOM     66  C   UNL A   1      45.615  29.673  31.124  1.00  0.00     0.029 A 
ATOM     67  C   UNL A   1      45.246  31.016  30.680  1.00  0.00     0.049 A 
ATOM     68  H   UNL A   1      45.334  32.775  31.798  1.00  0.00     0.167 HD
ATOM     69  C   UNL A   1      44.989  36.300  34.388  1.00  0.00     0.034 A 
ATOM     70  C   UNL A   1      44.797  31.343  29.451  1.00  0.00     0.034 A 
ATOM     71  C   UNL A   1      44.654  36.760  33.071  1.00  0.00     0.049 A 
ATOM     72  C   UNL A   1      44.403  32.769  29.162  1.00  0.00     0.074 A 
ATOM     73  C   UNL A   1      44.382  38.051  32.660  1.00  0.00     0.029 A 
ATOM     74  N   UNL A   1      44.508  35.945  31.961  1.00  0.00    -0.354 N 
ATOM     75  N   UNL A   1      44.423  33.809  29.960  1.00  0.00    -0.248 NA
ATOM     76  C   UNL A   1      43.945  33.076  27.797  1.00  0.00     0.031 C 
ATOM     77  C   UNL A   1      43.991  38.006  31.322  1.00  0.00     0.029 A 
ATOM     78  C   UNL A   1      44.121  36.703  30.873  1.00  0.00     0.049 A 
ATOM     79  H   UNL A   1      44.658  34.972  31.949  1.00  0.00     0.167 HD
ATOM     80  C   UNL A   1      44.038  34.896  29.183  1.00  0.00     0.074 A 
ATOM     81  C   UNL A   1      43.787  34.392  27.851  1.00  0.00     0.031 C 
ATOM     82  C   UNL A   1      43.916  36.197  29.541  1.00  0.00     0.034 A 
BRANCH  69  83
ATOM     83  C   UNL A   1      44.986  37.298  35.514  1.00  0.00     0.023 A 
ATOM     84  C   UNL A   1      43.848  37.450  36.332  1.00  0.00     0.012 A 
ATOM     85  C   UNL A   1      46.142  38.054  35.790  1.00  0.00     0.148 A 
ATOM     86  C   UNL A   1      43.847  38.370  37.378  1.00  0.00     0.002 A 
ATOM     87  C   UNL A   1      46.153  38.927  36.867  1.00  0.00     0.091 A 
ATOM     88  F   UNL A   1      47.210  37.903  34.991  1.00  0.00    -0.205 F 
ATOM     89  C   UNL A   1      45.003  39.099  37.652  1.00  0.00     0.022 A 
BRANCH  87  90
ATOM     90  S   UNL A   1      47.613  39.854  37.345  1.00  0.00     0.127 S 
ATOM     91  O   UNL A   1      47.284  41.193  36.856  1.00  0.00    -0.237 OA
ATOM     92  O   UNL A   1      47.599  39.715  38.801  1.00  0.00    -0.237 OA
ATOM     93  O   UNL A   1      48.740  39.214  36.680  1.00  0.00    -0.744 OA
ENDBRANCH  87  90
ENDBRANCH  69  83
BRANCH  70  94
ATOM     94  C   UNL A   1      44.671  30.299  28.395  1.00  0.00     0.023 A 
ATOM     95  C   UNL A   1      45.809  29.897  27.669  1.00  0.00     0.012 A 
ATOM     96  C   UNL A   1      43.423  29.724  28.091  1.00  0.00     0.148 A 
ATOM     97  C   UNL A   1      45.698  28.973  26.629  1.00  0.00     0.002 A 
ATOM     98  C   UNL A   1      43.329  28.761  27.096  1.00  0.00     0.091 A 
ATOM     99  F   UNL A   1      42.353  30.125  28.791  1.00  0.00    -0.205 F 
ATOM    100  C   UNL A   1      44.460  28.400  26.347  1.00  0.00     0.022 A 
BRANCH  98 101
ATOM    101  S   UNL A   1      41.799  27.894  26.733  1.00  0.00     0.127 S 
ATOM    102  O   UNL A   1      42.196  27.044  25.615  1.00  0.00    -0.237 OA
ATOM    103  O   UNL A   1      41.553  27.187  27.990  1.00  0.00    -0.237 OA
ATOM    104  O   UNL A   1      40.821  28.927  26.419  1.00  0.00    -0.744 OA
ENDBRANCH  98 101
ENDBRANCH  70  94
BRANCH  82 105
ATOM    105  C   UNL A   1      43.592  37.207  28.472  1.00  0.00     0.023 A 
ATOM    106  C   UNL A   1      42.261  37.495  28.120  1.00  0.00     0.012 A 
ATOM    107  C   UNL A   1      44.640  37.961  27.902  1.00  0.00     0.148 A 
ATOM    108  C   UNL A   1      41.979  38.506  27.199  1.00  0.00     0.002 A 
ATOM    109  C   UNL A   1      44.349  39.002  27.034  1.00  0.00     0.091 A 
ATOM    110  F   UNL A   1      45.901  37.661  28.246  1.00  0.00    -0.205 F 
ATOM    111  C   UNL A   1      43.020  39.269  26.671  1.00  0.00     0.022 A 
BRANCH 109 112
ATOM    112  S   UNL A   1      45.618  40.093  26.380  1.00  0.00     0.127 S 
ATOM    113  O   UNL A   1      44.876  41.341  26.211  1.00  0.00    -0.237 OA
ATOM    114  O   UNL A   1      46.598  40.107  27.465  1.00  0.00    -0.237 OA
ATOM    115  O   UNL A   1      46.082  39.481  25.142  1.00  0.00    -0.744 OA
ENDBRANCH 109 112
ENDBRANCH  82 105
ENDBRANCH  56  57
ENDBRANCH  49  51
ENDBRANCH  48  49
ENDBRANCH  47  48
ENDBRANCH  46  47
ENDBRANCH  45  46
ENDBRANCH  44  45
ENDBRANCH  43  44
ENDBRANCH  42  43
ENDBRANCH   1  42
TORSDOF 29
ENDMDL
MODEL 2
REMARK VINA RESULT:      -5.4      4.218     10.985
REMARK SMILES COc1ccccc1C(=O)N/C(=C/c1ccc2c(c1)OCO2)C(=O)Nc1ccc(C(=O)OCCOCCOCCOCCOC(=O)c2ccc(-c3c4nc(c(-c5cccc(S(=O)(=O)[O-])c5F)c5ccc([nH]5)c(-c5cccc(S(=O)(=O)[O-])c5F)c5nc(c(-c6cccc(S(=O)(=O)[O-])c6F)c6ccc3[nH]6)C=C5)C=C4)cc2)cc1
REMARK SMILES IDX 37 1 36 2 35 3 34 4 33 5 32 6 30 7 31 8 29 9 26 10 27 11
REMARK SMILES IDX 111 12 28 13 110 14 25 15 23 16 24 17 12 19 13 20 11 21 9 22
REMARK SMILES IDX 10 23 8 25 3 26 4 27 5 28 7 29 6 30 2 31 1 32 14 33 15 34
REMARK SMILES IDX 19 35 16 36 18 37 17 38 20 39 22 40 21 41 38 42 39 43 40 44
REMARK SMILES IDX 41 45 42 46 43 47 44 48 45 49 46 50 47 51 48 52 109 53 49 54
REMARK SMILES IDX 108 55 50 56 51 57 52 58 102 59 53 60 107 61 101 62 103 63
REMARK SMILES IDX 54 64 106 65 100 66 99 67 55 69 87 70 67 71 86 72 68 73
REMARK SMILES IDX 71 74 85 75 104 76 69 77 70 78 84 80 105 81 72 82 56 83
REMARK SMILES IDX 57 84 65 85 58 86 60 87 66 88 59 89 61 90 62 91 63 92 64 93
REMARK SMILES IDX 88 94 89 95 97 96 90 97 92 98 98 99 91 100 93 101 94 102
REMARK SMILES IDX 95 103 96 104 73 105 74 106 82 107 75 108 77 109 83 110
REMARK SMILES IDX 76 111 78 112 79 113 80 114 81 115
REMARK H PARENT 25 18 11 24 103 68 71 79
REMARK Flexibility Score: inf
ROOT
ATOM      1  C   UNL A   1      39.448  32.888  35.267  1.00  0.00     0.188 C 
ENDROOT
BRANCH   1   2
ATOM      2  C   UNL A   1      40.957  32.607  35.335  1.00  0.00     0.188 C 
BRANCH   2   3
ATOM      3  O   UNL A   1      41.516  31.311  35.474  1.00  0.00    -0.376 OA
BRANCH   3   4
ATOM      4  C   UNL A   1      42.798  30.897  34.995  1.00  0.00     0.202 C 
BRANCH   4   5
ATOM      5  C   UNL A   1      43.208  29.502  34.465  1.00  0.00     0.261 C 
BRANCH   5   6
ATOM      6  O   UNL A   1      43.235  28.459  35.423  1.00  0.00    -0.460 OA
BRANCH   6   7
ATOM      7  C   UNL A   1      42.374  27.464  35.135  1.00  0.00     0.338 C 
ATOM      8  O   UNL A   1      41.157  27.523  35.064  1.00  0.00    -0.246 OA
BRANCH   7   9
ATOM      9  C   UNL A   1      43.152  26.293  34.685  1.00  0.00     0.060 A 
ATOM     10  C   UNL A   1      45.090  23.178  35.052  1.00  0.00     0.041 A 
ATOM     11  C   UNL A   1      43.448  23.121  35.024  1.00  0.00     0.027 A 
ATOM     12  C   UNL A   1      45.797  24.679  34.795  1.00  0.00     0.027 A 
ATOM     13  C   UNL A   1      42.289  24.817  34.840  1.00  0.00     0.018 A 
ATOM     14  C   UNL A   1      44.895  26.170  34.596  1.00  0.00     0.018 A 
BRANCH  10  15
ATOM     15  N   UNL A   1      45.492  22.157  35.987  1.00  0.00    -0.321 N 
ATOM     16  C   UNL A   1      45.573  20.861  35.574  1.00  0.00     0.272 C 
ATOM     17  O   UNL A   1      44.518  20.434  35.122  1.00  0.00    -0.267 OA
ATOM     18  H   UNL A   1      45.705  22.394  36.919  1.00  0.00     0.170 HD
BRANCH  16  19
ATOM     19  C   UNL A   1      46.943  20.056  35.591  1.00  0.00     0.108 C 
ATOM     20  C   UNL A   1      47.664  19.772  36.717  1.00  0.00     0.040 C 
BRANCH  19  21
ATOM     21  N   UNL A   1      47.722  19.756  34.464  1.00  0.00    -0.317 N 
ATOM     22  C   UNL A   1      48.841  20.157  33.782  1.00  0.00     0.259 C 
ATOM     23  O   UNL A   1      49.025  19.668  32.664  1.00  0.00    -0.269 OA
ATOM     24  H   UNL A   1      47.326  18.984  34.000  1.00  0.00     0.170 HD
BRANCH  22  25
ATOM     25  C   UNL A   1      49.688  21.262  34.203  1.00  0.00     0.082 A 
ATOM     26  C   UNL A   1      51.008  21.097  34.544  1.00  0.00     0.131 A 
ATOM     27  C   UNL A   1      51.516  21.943  35.529  1.00  0.00     0.047 A 
ATOM     28  C   UNL A   1      50.862  23.133  35.855  1.00  0.00     0.004 A 
ATOM     29  C   UNL A   1      49.082  22.520  34.380  1.00  0.00     0.018 A 
ATOM     30  C   UNL A   1      49.710  23.484  35.163  1.00  0.00     0.001 A 
BRANCH  26  31
ATOM     31  O   UNL A   1      51.943  20.323  33.923  1.00  0.00    -0.496 OA
ATOM     32  C   UNL A   1      53.073  19.749  34.586  1.00  0.00     0.278 C 
ENDBRANCH  26  31
ENDBRANCH  22  25
ENDBRANCH  19  21
BRANCH  20  33
ATOM     33  C   UNL A   1      47.398  20.130  38.106  1.00  0.00    -0.019 A 
ATOM     34  C   UNL A   1      46.984  18.914  38.770  1.00  0.00     0.012 A 
ATOM     35  C   UNL A   1      47.966  21.347  38.656  1.00  0.00     0.058 A 
ATOM     36  C   UNL A   1      47.719  18.466  39.820  1.00  0.00     0.051 A 
ATOM     37  C   UNL A   1      48.434  21.134  39.904  1.00  0.00     0.166 A 
ATOM     38  C   UNL A   1      48.634  19.443  40.225  1.00  0.00     0.165 A 
ATOM     39  O   UNL A   1      49.745  22.102  40.694  1.00  0.00    -0.454 OA
ATOM     40  O   UNL A   1      50.328  19.237  41.298  1.00  0.00    -0.454 OA
ATOM     41  C   UNL A   1      50.990  21.038  41.728  1.00  0.00     0.468 C 
ENDBRANCH  20  33
ENDBRANCH  16  19
ENDBRANCH  10  15
ENDBRANCH   7   9
ENDBRANCH   6   7
ENDBRANCH   5   6
ENDBRANCH   4   5
ENDBRANCH   3   4
ENDBRANCH   2   3
ENDBRANCH   1   2
BRANCH   1  42
ATOM     42  O   UNL A   1      38.988  33.277  34.008  1.00  0.00    -0.377 OA
BRANCH  42  43
ATOM     43  C   UNL A   1      37.812  32.572  33.649  1.00  0.00     0.188 C 
BRANCH  43  44
ATOM     44  C   UNL A   1      37.117  32.727  32.231  1.00  0.00     0.188 C 
BRANCH  44  45
ATOM     45  O   UNL A   1      36.218  31.809  31.617  1.00  0.00    -0.376 OA
BRANCH  45  46
ATOM     46  C   UNL A   1      36.280  30.387  31.666  1.00  0.00     0.202 C 
BRANCH  46  47
ATOM     47  C   UNL A   1      36.707  29.477  30.489  1.00  0.00     0.261 C 
BRANCH  47  48
ATOM     48  O   UNL A   1      37.800  28.579  30.710  1.00  0.00    -0.460 OA
BRANCH  48  49
ATOM     49  C   UNL A   1      38.635  28.921  31.723  1.00  0.00     0.338 C 
ATOM     50  O   UNL A   1      38.671  28.410  32.828  1.00  0.00    -0.246 OA
BRANCH  49  51
ATOM     51  C   UNL A   1      39.671  29.845  31.194  1.00  0.00     0.060 A 
ATOM     52  C   UNL A   1      39.975  29.871  29.816  1.00  0.00     0.016 A 
ATOM     53  C   UNL A   1      40.347  30.687  32.070  1.00  0.00     0.016 A 
ATOM     54  C   UNL A   1      40.947  30.730  29.312  1.00  0.00     0.010 A 
ATOM     55  C   UNL A   1      41.377  31.486  31.577  1.00  0.00     0.010 A 
ATOM     56  C   UNL A   1      41.705  31.482  30.205  1.00  0.00    -0.014 A 
BRANCH  56  57
ATOM     57  C   UNL A   1      42.995  32.063  29.777  1.00  0.00     0.031 A 
ATOM     58  C   UNL A   1      43.014  33.524  29.427  1.00  0.00     0.074 A 
ATOM     59  C   UNL A   1      44.106  31.318  29.656  1.00  0.00     0.049 A 
ATOM     60  N   UNL A   1      43.955  34.224  28.854  1.00  0.00    -0.248 NA
ATOM     61  C   UNL A   1      41.798  34.294  29.749  1.00  0.00     0.031 C 
ATOM     62  C   UNL A   1      44.225  29.909  30.016  1.00  0.00     0.029 A 
ATOM     63  N   UNL A   1      45.338  31.646  29.144  1.00  0.00    -0.354 N 
ATOM     64  C   UNL A   1      43.427  35.498  28.694  1.00  0.00     0.074 A 
ATOM     65  C   UNL A   1      42.082  35.475  29.225  1.00  0.00     0.031 C 
ATOM     66  C   UNL A   1      45.451  29.477  29.673  1.00  0.00     0.029 A 
ATOM     67  C   UNL A   1      46.179  30.564  29.022  1.00  0.00     0.049 A 
ATOM     68  H   UNL A   1      45.593  32.562  28.890  1.00  0.00     0.167 HD
ATOM     69  C   UNL A   1      44.011  36.587  28.147  1.00  0.00     0.034 A 
ATOM     70  C   UNL A   1      47.374  30.455  28.407  1.00  0.00     0.034 A 
ATOM     71  C   UNL A   1      45.342  36.595  27.610  1.00  0.00     0.049 A 
ATOM     72  C   UNL A   1      47.973  31.662  27.731  1.00  0.00     0.074 A 
ATOM     73  C   UNL A   1      46.038  37.659  27.067  1.00  0.00     0.029 A 
ATOM     74  N   UNL A   1      46.163  35.484  27.513  1.00  0.00    -0.354 N 
ATOM     75  N   UNL A   1      47.491  32.877  27.635  1.00  0.00    -0.248 NA
ATOM     76  C   UNL A   1      49.291  31.493  27.098  1.00  0.00     0.031 C 
ATOM     77  C   UNL A   1      47.247  37.174  26.567  1.00  0.00     0.029 A 
ATOM     78  C   UNL A   1      47.347  35.831  26.892  1.00  0.00     0.049 A 
ATOM     79  H   UNL A   1      45.937  34.583  27.837  1.00  0.00     0.167 HD
ATOM     80  C   UNL A   1      48.467  33.626  26.985  1.00  0.00     0.074 A 
ATOM     81  C   UNL A   1      49.567  32.730  26.707  1.00  0.00     0.031 C 
ATOM     82  C   UNL A   1      48.454  34.941  26.659  1.00  0.00     0.034 A 
BRANCH  69  83
ATOM     83  C   UNL A   1      43.202  37.853  28.066  1.00  0.00     0.023 A 
ATOM     84  C   UNL A   1      42.377  38.105  26.950  1.00  0.00     0.012 A 
ATOM     85  C   UNL A   1      43.227  38.775  29.130  1.00  0.00     0.148 A 
ATOM     86  C   UNL A   1      41.624  39.274  26.878  1.00  0.00     0.002 A 
ATOM     87  C   UNL A   1      42.432  39.910  29.076  1.00  0.00     0.091 A 
ATOM     88  F   UNL A   1      44.028  38.522  30.175  1.00  0.00    -0.205 F 
ATOM     89  C   UNL A   1      41.642  40.170  27.946  1.00  0.00     0.022 A 
BRANCH  87  90
ATOM     90  S   UNL A   1      42.330  41.084  30.430  1.00  0.00     0.127 S 
ATOM     91  O   UNL A   1      43.391  42.028  30.079  1.00  0.00    -0.237 OA
ATOM     92  O   UNL A   1      40.973  41.607  30.278  1.00  0.00    -0.237 OA
ATOM     93  O   UNL A   1      42.560  40.322  31.649  1.00  0.00    -0.744 OA
ENDBRANCH  87  90
ENDBRANCH  69  83
BRANCH  70  94
ATOM     94  C   UNL A   1      48.086  29.146  28.377  1.00  0.00     0.023 A 
ATOM     95  C   UNL A   1      47.828  28.233  27.336  1.00  0.00     0.012 A 
ATOM     96  C   UNL A   1      48.997  28.794  29.391  1.00  0.00     0.148 A 
ATOM     97  C   UNL A   1      48.432  26.974  27.330  1.00  0.00     0.002 A 
ATOM     98  C   UNL A   1      49.640  27.564  29.347  1.00  0.00     0.091 A 
ATOM     99  F   UNL A   1      49.223  29.675  30.374  1.00  0.00    -0.205 F 
ATOM    100  C   UNL A   1      49.342  26.643  28.331  1.00  0.00     0.022 A 
BRANCH  98 101
ATOM    101  S   UNL A   1      50.902  27.093  30.533  1.00  0.00     0.127 S 
ATOM    102  O   UNL A   1      50.849  25.635  30.461  1.00  0.00    -0.237 OA
ATOM    103  O   UNL A   1      52.099  27.696  29.948  1.00  0.00    -0.237 OA
ATOM    104  O   UNL A   1      50.491  27.673  31.804  1.00  0.00    -0.744 OA
ENDBRANCH  98 101
ENDBRANCH  70  94
BRANCH  82 105
ATOM    105  C   UNL A   1      49.696  35.542  26.056  1.00  0.00     0.023 A 
ATOM    106  C   UNL A   1      49.900  35.549  24.664  1.00  0.00     0.012 A 
ATOM    107  C   UNL A   1      50.608  36.215  26.895  1.00  0.00     0.148 A 
ATOM    108  C   UNL A   1      51.008  36.200  24.118  1.00  0.00     0.002 A 
ATOM    109  C   UNL A   1      51.674  36.909  26.343  1.00  0.00     0.091 A 
ATOM    110  F   UNL A   1      50.397  36.185  28.219  1.00  0.00    -0.205 F 
ATOM    111  C   UNL A   1      51.883  36.893  24.955  1.00  0.00     0.022 A 
BRANCH 109 112
ATOM    112  S   UNL A   1      52.794  37.902  27.334  1.00  0.00     0.127 S 
ATOM    113  O   UNL A   1      53.954  37.018  27.445  1.00  0.00    -0.237 OA
ATOM    114  O   UNL A   1      52.997  39.074  26.484  1.00  0.00    -0.237 OA
ATOM    115  O   UNL A   1      52.102  38.167  28.589  1.00  0.00    -0.744 OA
ENDBRANCH 109 112
ENDBRANCH  82 105
ENDBRANCH  56  57
ENDBRANCH  49  51
ENDBRANCH  48  49
ENDBRANCH  47  48
ENDBRANCH  46  47
ENDBRANCH  45  46
ENDBRANCH  44  45
ENDBRANCH  43  44
ENDBRANCH  42  43
ENDBRANCH   1  42
TORSDOF 29
ENDMDL
MODEL 3
REMARK VINA RESULT:      -5.3      4.422      9.519
REMARK SMILES COc1ccccc1C(=O)N/C(=C/c1ccc2c(c1)OCO2)C(=O)Nc1ccc(C(=O)OCCOCCOCCOCCOC(=O)c2ccc(-c3c4nc(c(-c5cccc(S(=O)(=O)[O-])c5F)c5ccc([nH]5)c(-c5cccc(S(=O)(=O)[O-])c5F)c5nc(c(-c6cccc(S(=O)(=O)[O-])c6F)c6ccc3[nH]6)C=C5)C=C4)cc2)cc1
REMARK SMILES IDX 37 1 36 2 35 3 34 4 33 5 32 6 30 7 31 8 29 9 26 10 27 11
REMARK SMILES IDX 111 12 28 13 110 14 25 15 23 16 24 17 12 19 13 20 11 21 9 22
REMARK SMILES IDX 10 23 8 25 3 26 4 27 5 28 7 29 6 30 2 31 1 32 14 33 15 34
REMARK SMILES IDX 19 35 16 36 18 37 17 38 20 39 22 40 21 41 38 42 39 43 40 44
REMARK SMILES IDX 41 45 42 46 43 47 44 48 45 49 46 50 47 51 48 52 109 53 49 54
REMARK SMILES IDX 108 55 50 56 51 57 52 58 102 59 53 60 107 61 101 62 103 63
REMARK SMILES IDX 54 64 106 65 100 66 99 67 55 69 87 70 67 71 86 72 68 73
REMARK SMILES IDX 71 74 85 75 104 76 69 77 70 78 84 80 105 81 72 82 56 83
REMARK SMILES IDX 57 84 65 85 58 86 60 87 66 88 59 89 61 90 62 91 63 92 64 93
REMARK SMILES IDX 88 94 89 95 97 96 90 97 92 98 98 99 91 100 93 101 94 102
REMARK SMILES IDX 95 103 96 104 73 105 74 106 82 107 75 108 77 109 83 110
REMARK SMILES IDX 76 111 78 112 79 113 80 114 81 115
REMARK H PARENT 25 18 11 24 103 68 71 79
REMARK Flexibility Score: inf
ROOT
ATOM      1  C   UNL A   1      39.697  31.779  33.419  1.00  0.00     0.188 C 
ENDROOT
BRANCH   1   2
ATOM      2  C   UNL A   1      40.564  30.737  32.693  1.00  0.00     0.188 C 
BRANCH   2   3
ATOM      3  O   UNL A   1      40.984  30.858  31.344  1.00  0.00    -0.376 OA
BRANCH   3   4
ATOM      4  C   UNL A   1      40.251  31.497  30.295  1.00  0.00     0.202 C 
BRANCH   4   5
ATOM      5  C   UNL A   1      38.749  31.338  29.954  1.00  0.00     0.261 C 
BRANCH   5   6
ATOM      6  O   UNL A   1      38.190  30.060  30.196  1.00  0.00    -0.460 OA
BRANCH   6   7
ATOM      7  C   UNL A   1      37.764  29.454  29.072  1.00  0.00     0.338 C 
ATOM      8  O   UNL A   1      36.733  29.661  28.454  1.00  0.00    -0.246 OA
BRANCH   7   9
ATOM      9  C   UNL A   1      38.867  28.623  28.546  1.00  0.00     0.060 A 
ATOM     10  C   UNL A   1      42.346  27.456  28.188  1.00  0.00     0.041 A 
ATOM     11  C   UNL A   1      41.414  26.887  29.417  1.00  0.00     0.027 A 
ATOM     12  C   UNL A   1      41.595  28.475  27.084  1.00  0.00     0.027 A 
ATOM     13  C   UNL A   1      39.466  27.502  29.700  1.00  0.00     0.018 A 
ATOM     14  C   UNL A   1      39.936  29.026  27.222  1.00  0.00     0.018 A 
BRANCH  10  15
ATOM     15  N   UNL A   1      43.675  27.565  28.734  1.00  0.00    -0.321 N 
ATOM     16  C   UNL A   1      44.486  26.471  28.753  1.00  0.00     0.272 C 
ATOM     17  O   UNL A   1      44.003  25.526  29.366  1.00  0.00    -0.267 OA
ATOM     18  H   UNL A   1      43.994  28.425  29.092  1.00  0.00     0.170 HD
BRANCH  16  19
ATOM     19  C   UNL A   1      45.861  26.426  27.958  1.00  0.00     0.108 C 
ATOM     20  C   UNL A   1      46.039  25.816  26.747  1.00  0.00     0.040 C 
BRANCH  19  21
ATOM     21  N   UNL A   1      47.115  26.766  28.484  1.00  0.00    -0.317 N 
ATOM     22  C   UNL A   1      47.958  27.829  28.674  1.00  0.00     0.259 C 
ATOM     23  O   UNL A   1      49.111  27.577  29.033  1.00  0.00    -0.269 OA
ATOM     24  H   UNL A   1      47.539  25.955  28.845  1.00  0.00     0.170 HD
BRANCH  22  25
ATOM     25  C   UNL A   1      47.638  29.192  28.278  1.00  0.00     0.082 A 
ATOM     26  C   UNL A   1      48.371  29.885  27.346  1.00  0.00     0.131 A 
ATOM     27  C   UNL A   1      48.470  31.266  27.520  1.00  0.00     0.047 A 
ATOM     28  C   UNL A   1      47.565  31.949  28.334  1.00  0.00     0.004 A 
ATOM     29  C   UNL A   1      46.610  29.852  28.976  1.00  0.00     0.018 A 
ATOM     30  C   UNL A   1      46.539  31.242  28.949  1.00  0.00     0.001 A 
BRANCH  26  31
ATOM     31  O   UNL A   1      48.879  29.424  26.168  1.00  0.00    -0.496 OA
ATOM     32  C   UNL A   1      50.076  28.647  26.063  1.00  0.00     0.278 C 
ENDBRANCH  26  31
ENDBRANCH  22  25
ENDBRANCH  19  21
BRANCH  20  33
ATOM     33  C   UNL A   1      45.084  25.072  25.931  1.00  0.00    -0.019 A 
ATOM     34  C   UNL A   1      45.151  23.697  26.374  1.00  0.00     0.012 A 
ATOM     35  C   UNL A   1      44.019  25.781  25.246  1.00  0.00     0.058 A 
ATOM     36  C   UNL A   1      44.027  23.119  26.867  1.00  0.00     0.051 A 
ATOM     37  C   UNL A   1      42.855  25.106  25.345  1.00  0.00     0.166 A 
ATOM     38  C   UNL A   1      42.913  23.926  26.613  1.00  0.00     0.165 A 
ATOM     39  O   UNL A   1      41.212  25.860  25.238  1.00  0.00    -0.454 OA
ATOM     40  O   UNL A   1      41.114  23.940  27.523  1.00  0.00    -0.454 OA
ATOM     41  C   UNL A   1      39.935  25.139  26.502  1.00  0.00     0.468 C 
ENDBRANCH  20  33
ENDBRANCH  16  19
ENDBRANCH  10  15
ENDBRANCH   7   9
ENDBRANCH   6   7
ENDBRANCH   5   6
ENDBRANCH   4   5
ENDBRANCH   3   4
ENDBRANCH   2   3
ENDBRANCH   1   2
BRANCH   1  42
ATOM     42  O   UNL A   1      38.322  31.568  33.305  1.00  0.00    -0.377 OA
BRANCH  42  43
ATOM     43  C   UNL A   1      37.699  31.535  34.577  1.00  0.00     0.188 C 
BRANCH  43  44
ATOM     44  C   UNL A   1      38.391  30.904  35.858  1.00  0.00     0.188 C 
BRANCH  44  45
ATOM     45  O   UNL A   1      38.498  31.497  37.148  1.00  0.00    -0.376 OA
BRANCH  45  46
ATOM     46  C   UNL A   1      39.313  32.604  37.519  1.00  0.00     0.202 C 
BRANCH  46  47
ATOM     47  C   UNL A   1      39.264  34.003  36.858  1.00  0.00     0.261 C 
BRANCH  47  48
ATOM     48  O   UNL A   1      40.508  34.598  36.473  1.00  0.00    -0.460 OA
BRANCH  48  49
ATOM     49  C   UNL A   1      40.413  35.834  35.922  1.00  0.00     0.338 C 
ATOM     50  O   UNL A   1      39.675  36.730  36.291  1.00  0.00    -0.246 OA
BRANCH  49  51
ATOM     51  C   UNL A   1      41.529  36.013  34.958  1.00  0.00     0.060 A 
ATOM     52  C   UNL A   1      41.601  35.225  33.788  1.00  0.00     0.016 A 
ATOM     53  C   UNL A   1      42.509  36.963  35.216  1.00  0.00     0.016 A 
ATOM     54  C   UNL A   1      42.644  35.382  32.881  1.00  0.00     0.010 A 
ATOM     55  C   UNL A   1      43.597  37.062  34.350  1.00  0.00     0.010 A 
ATOM     56  C   UNL A   1      43.687  36.248  33.202  1.00  0.00    -0.014 A 
BRANCH  56  57
ATOM     57  C   UNL A   1      44.986  36.133  32.506  1.00  0.00     0.031 A 
ATOM     58  C   UNL A   1      45.236  37.059  31.350  1.00  0.00     0.074 A 
ATOM     59  C   UNL A   1      45.900  35.212  32.852  1.00  0.00     0.049 A 
ATOM     60  N   UNL A   1      46.198  37.039  30.469  1.00  0.00    -0.248 NA
ATOM     61  C   UNL A   1      44.255  38.142  31.151  1.00  0.00     0.031 C 
ATOM     62  C   UNL A   1      45.795  34.298  33.985  1.00  0.00     0.029 A 
ATOM     63  N   UNL A   1      47.081  34.867  32.242  1.00  0.00    -0.354 N 
ATOM     64  C   UNL A   1      45.910  38.065  29.579  1.00  0.00     0.074 A 
ATOM     65  C   UNL A   1      44.682  38.686  30.022  1.00  0.00     0.031 C 
ATOM     66  C   UNL A   1      46.848  33.462  33.965  1.00  0.00     0.029 A 
ATOM     67  C   UNL A   1      47.668  33.750  32.790  1.00  0.00     0.049 A 
ATOM     68  H   UNL A   1      47.468  35.368  31.488  1.00  0.00     0.167 HD
ATOM     69  C   UNL A   1      46.606  38.449  28.485  1.00  0.00     0.034 A 
ATOM     70  C   UNL A   1      48.713  33.014  32.359  1.00  0.00     0.034 A 
ATOM     71  C   UNL A   1      47.817  37.817  28.046  1.00  0.00     0.049 A 
ATOM     72  C   UNL A   1      49.427  33.412  31.093  1.00  0.00     0.074 A 
ATOM     73  C   UNL A   1      48.618  38.157  26.972  1.00  0.00     0.029 A 
ATOM     74  N   UNL A   1      48.383  36.697  28.632  1.00  0.00    -0.354 N 
ATOM     75  N   UNL A   1      49.182  34.418  30.289  1.00  0.00    -0.248 NA
ATOM     76  C   UNL A   1      50.577  32.590  30.683  1.00  0.00     0.031 C 
ATOM     77  C   UNL A   1      49.620  37.193  26.858  1.00  0.00     0.029 A 
ATOM     78  C   UNL A   1      49.505  36.315  27.923  1.00  0.00     0.049 A 
ATOM     79  H   UNL A   1      48.037  36.241  29.433  1.00  0.00     0.167 HD
ATOM     80  C   UNL A   1      50.176  34.382  29.316  1.00  0.00     0.074 A 
ATOM     81  C   UNL A   1      51.026  33.255  29.627  1.00  0.00     0.031 C 
ATOM     82  C   UNL A   1      50.370  35.216  28.267  1.00  0.00     0.034 A 
BRANCH  69  83
ATOM     83  C   UNL A   1      46.056  39.584  27.664  1.00  0.00     0.023 A 
ATOM     84  C   UNL A   1      45.063  39.347  26.692  1.00  0.00     0.012 A 
ATOM     85  C   UNL A   1      46.496  40.901  27.897  1.00  0.00     0.148 A 
ATOM     86  C   UNL A   1      44.550  40.398  25.936  1.00  0.00     0.002 A 
ATOM     87  C   UNL A   1      45.941  41.949  27.180  1.00  0.00     0.091 A 
ATOM     88  F   UNL A   1      47.451  41.102  28.818  1.00  0.00    -0.205 F 
ATOM     89  C   UNL A   1      44.980  41.699  26.188  1.00  0.00     0.022 A 
BRANCH  87  90
ATOM     90  S   UNL A   1      46.374  43.664  27.482  1.00  0.00     0.127 S 
ATOM     91  O   UNL A   1      45.281  44.366  26.809  1.00  0.00    -0.237 OA
ATOM     92  O   UNL A   1      46.338  43.735  28.942  1.00  0.00    -0.237 OA
ATOM     93  O   UNL A   1      47.691  43.862  26.892  1.00  0.00    -0.744 OA
ENDBRANCH  87  90
ENDBRANCH  69  83
BRANCH  70  94
ATOM     94  C   UNL A   1      49.144  31.806  33.118  1.00  0.00     0.023 A 
ATOM     95  C   UNL A   1      50.235  31.888  34.004  1.00  0.00     0.012 A 
ATOM     96  C   UNL A   1      48.491  30.571  32.943  1.00  0.00     0.148 A 
ATOM     97  C   UNL A   1      50.697  30.751  34.669  1.00  0.00     0.002 A 
ATOM     98  C   UNL A   1      48.918  29.457  33.653  1.00  0.00     0.091 A 
ATOM     99  F   UNL A   1      47.459  30.514  32.091  1.00  0.00    -0.205 F 
ATOM    100  C   UNL A   1      50.034  29.537  34.499  1.00  0.00     0.022 A 
BRANCH  98 101
ATOM    101  S   UNL A   1      48.063  27.879  33.576  1.00  0.00     0.127 S 
ATOM    102  O   UNL A   1      48.275  27.493  32.184  1.00  0.00    -0.237 OA
ATOM    103  O   UNL A   1      48.809  27.090  34.557  1.00  0.00    -0.237 OA
ATOM    104  O   UNL A   1      46.682  28.156  33.946  1.00  0.00    -0.744 OA
ENDBRANCH  98 101
ENDBRANCH  70  94
BRANCH  82 105
ATOM    105  C   UNL A   1      51.600  35.028  27.419  1.00  0.00     0.023 A 
ATOM    106  C   UNL A   1      52.815  35.657  27.749  1.00  0.00     0.012 A 
ATOM    107  C   UNL A   1      51.560  34.113  26.348  1.00  0.00     0.148 A 
ATOM    108  C   UNL A   1      53.969  35.390  27.009  1.00  0.00     0.002 A 
ATOM    109  C   UNL A   1      52.722  33.808  25.654  1.00  0.00     0.091 A 
ATOM    110  F   UNL A   1      50.388  33.535  26.046  1.00  0.00    -0.205 F 
ATOM    111  C   UNL A   1      53.926  34.455  25.975  1.00  0.00     0.022 A 
BRANCH 109 112
ATOM    112  S   UNL A   1      52.777  32.552  24.373  1.00  0.00     0.127 S 
ATOM    113  O   UNL A   1      52.278  31.378  25.088  1.00  0.00    -0.237 OA
ATOM    114  O   UNL A   1      51.859  33.094  23.373  1.00  0.00    -0.237 OA
ATOM    115  O   UNL A   1      54.168  32.465  23.946  1.00  0.00    -0.744 OA
ENDBRANCH 109 112
ENDBRANCH  82 105
ENDBRANCH  56  57
ENDBRANCH  49  51
ENDBRANCH  48  49
ENDBRANCH  47  48
ENDBRANCH  46  47
ENDBRANCH  45  46
ENDBRANCH  44  45
ENDBRANCH  43  44
ENDBRANCH  42  43
ENDBRANCH   1  42
TORSDOF 29
ENDMDL
