MODEL 1
REMARK VINA RESULT:      -6.8      0.000      0.000
REMARK SMILES COC(=O)[C@@H](CC(=O)OCCOCCOCCOCCOC(=O)c1ccc(-c2c3nc(c(-c4cccc(S(=O)(=O)[O-])c4F)c4ccc([nH]4)c(-c4cccc(S(=O)(=O)[O-])c4F)c4nc(c(-c5cccc(S(=O)(=O)[O-])c5F)c5ccc2[nH]5)C=C4)C=C3)cc1)C1CCCCC1
REMARK SMILES IDX 15 1 14 2 13 3 12 4 11 5 10 6 9 7 7 8 8 9 6 10 5 11 3 12
REMARK SMILES IDX 4 13 2 14 1 15 87 16 88 17 92 18 89 19 91 20 90 21 16 22
REMARK SMILES IDX 17 23 18 24 19 25 20 26 21 27 22 28 23 29 24 30 25 31 86 32
REMARK SMILES IDX 26 33 85 34 27 35 28 36 29 37 79 38 30 39 84 40 78 41 80 42
REMARK SMILES IDX 31 43 83 44 77 45 76 46 32 48 64 49 44 50 63 51 45 52 48 53
REMARK SMILES IDX 62 54 81 55 46 56 47 57 61 59 82 60 49 61 33 62 34 63 42 64
REMARK SMILES IDX 35 65 37 66 43 67 36 68 38 69 39 70 40 71 41 72 65 73 66 74
REMARK SMILES IDX 74 75 67 76 69 77 75 78 68 79 70 80 71 81 72 82 73 83 50 84
REMARK SMILES IDX 51 85 59 86 52 87 54 88 60 89 53 90 55 91 56 92 57 93 58 94
REMARK H PARENT 80 47 48 58
REMARK Flexibility Score: inf
ROOT
ATOM      1  O   UNL A   1      46.011  19.799  25.018  1.00  0.00    -0.377 OA
ENDROOT
BRANCH   1   2
ATOM      2  C   UNL A   1      45.753  21.149  25.341  1.00  0.00     0.188 C 
BRANCH   2   3
ATOM      3  C   UNL A   1      45.971  22.095  24.153  1.00  0.00     0.188 C 
BRANCH   3   4
ATOM      4  O   UNL A   1      46.671  23.304  24.419  1.00  0.00    -0.376 OA
BRANCH   4   5
ATOM      5  C   UNL A   1      45.957  24.331  25.119  1.00  0.00     0.202 C 
BRANCH   5   6
ATOM      6  C   UNL A   1      46.663  25.685  25.347  1.00  0.00     0.261 C 
BRANCH   6   7
ATOM      7  O   UNL A   1      46.214  26.757  24.472  1.00  0.00    -0.463 OA
BRANCH   7   8
ATOM      8  C   UNL A   1      46.151  27.992  25.012  1.00  0.00     0.306 C 
ATOM      9  O   UNL A   1      46.843  28.934  24.626  1.00  0.00    -0.252 OA
BRANCH   8  10
ATOM     10  C   UNL A   1      45.020  28.252  26.002  1.00  0.00     0.138 C 
BRANCH  10  11
ATOM     11  C   UNL A   1      44.882  29.381  27.048  1.00  0.00     0.113 C 
BRANCH  11  12
ATOM     12  C   UNL A   1      45.271  30.782  26.619  1.00  0.00     0.309 C 
ATOM     13  O   UNL A   1      46.438  31.114  26.453  1.00  0.00    -0.252 OA
BRANCH  12  14
ATOM     14  O   UNL A   1      44.194  31.526  26.286  1.00  0.00    -0.469 OA
ATOM     15  C   UNL A   1      44.309  32.925  26.554  1.00  0.00     0.282 C 
ENDBRANCH  12  14
ENDBRANCH  11  12
BRANCH  11  16
ATOM     16  C   UNL A   1      45.411  29.025  28.482  1.00  0.00     0.004 C 
ATOM     17  C   UNL A   1      46.813  28.399  28.490  1.00  0.00     0.004 C 
ATOM     18  C   UNL A   1      45.458  30.260  29.420  1.00  0.00     0.004 C 
ATOM     19  C   UNL A   1      47.202  27.973  29.897  1.00  0.00     0.000 C 
ATOM     20  C   UNL A   1      45.944  29.914  30.837  1.00  0.00     0.000 C 
ATOM     21  C   UNL A   1      47.267  29.156  30.842  1.00  0.00     0.000 C 
ENDBRANCH  11  16
ENDBRANCH  10  11
ENDBRANCH   8  10
ENDBRANCH   7   8
ENDBRANCH   6   7
ENDBRANCH   5   6
ENDBRANCH   4   5
ENDBRANCH   3   4
ENDBRANCH   2   3
ENDBRANCH   1   2
BRANCH   1  22
ATOM     22  C   UNL A   1      44.990  18.814  25.083  1.00  0.00     0.188 C 
BRANCH  22  23
ATOM     23  C   UNL A   1      43.530  19.261  24.975  1.00  0.00     0.188 C 
BRANCH  23  24
ATOM     24  O   UNL A   1      42.565  18.644  25.834  1.00  0.00    -0.376 OA
BRANCH  24  25
ATOM     25  C   UNL A   1      41.637  19.473  26.531  1.00  0.00     0.202 C 
BRANCH  25  26
ATOM     26  C   UNL A   1      42.138  20.849  26.955  1.00  0.00     0.261 C 
BRANCH  26  27
ATOM     27  O   UNL A   1      41.325  21.893  26.396  1.00  0.00    -0.460 OA
BRANCH  27  28
ATOM     28  C   UNL A   1      42.019  22.930  25.877  1.00  0.00     0.338 C 
ATOM     29  O   UNL A   1      42.630  22.943  24.824  1.00  0.00    -0.246 OA
BRANCH  28  30
ATOM     30  C   UNL A   1      41.802  24.151  26.675  1.00  0.00     0.060 A 
ATOM     31  C   UNL A   1      42.702  25.193  26.444  1.00  0.00     0.016 A 
ATOM     32  C   UNL A   1      40.861  24.237  27.707  1.00  0.00     0.016 A 
ATOM     33  C   UNL A   1      42.750  26.273  27.314  1.00  0.00     0.010 A 
ATOM     34  C   UNL A   1      40.909  25.334  28.583  1.00  0.00     0.010 A 
ATOM     35  C   UNL A   1      41.905  26.315  28.430  1.00  0.00    -0.014 A 
BRANCH  35  36
ATOM     36  C   UNL A   1      42.264  27.277  29.503  1.00  0.00     0.031 A 
ATOM     37  C   UNL A   1      41.448  28.534  29.664  1.00  0.00     0.074 A 
ATOM     38  C   UNL A   1      43.180  26.950  30.433  1.00  0.00     0.049 A 
ATOM     39  N   UNL A   1      41.444  29.398  30.646  1.00  0.00    -0.248 NA
ATOM     40  C   UNL A   1      40.499  28.854  28.585  1.00  0.00     0.031 C 
ATOM     41  C   UNL A   1      44.014  25.749  30.410  1.00  0.00     0.029 A 
ATOM     42  N   UNL A   1      43.541  27.590  31.592  1.00  0.00    -0.354 N 
ATOM     43  C   UNL A   1      40.508  30.366  30.300  1.00  0.00     0.074 A 
ATOM     44  C   UNL A   1      39.979  29.997  29.005  1.00  0.00     0.031 C 
ATOM     45  C   UNL A   1      44.783  25.732  31.510  1.00  0.00     0.029 A 
ATOM     46  C   UNL A   1      44.512  26.928  32.306  1.00  0.00     0.049 A 
ATOM     47  H   UNL A   1      43.142  28.441  31.884  1.00  0.00     0.167 HD
ATOM     48  C   UNL A   1      40.103  31.452  31.001  1.00  0.00     0.034 A 
ATOM     49  C   UNL A   1      45.112  27.251  33.468  1.00  0.00     0.034 A 
ATOM     50  C   UNL A   1      40.615  31.814  32.296  1.00  0.00     0.049 A 
ATOM     51  C   UNL A   1      44.668  28.481  34.213  1.00  0.00     0.074 A 
ATOM     52  C   UNL A   1      40.250  32.884  33.096  1.00  0.00     0.029 A 
ATOM     53  N   UNL A   1      41.611  31.132  32.974  1.00  0.00    -0.354 N 
ATOM     54  N   UNL A   1      43.710  29.327  33.918  1.00  0.00    -0.248 NA
ATOM     55  C   UNL A   1      45.360  28.776  35.476  1.00  0.00     0.031 C 
ATOM     56  C   UNL A   1      41.055  32.869  34.240  1.00  0.00     0.029 A 
ATOM     57  C   UNL A   1      41.886  31.763  34.176  1.00  0.00     0.049 A 
ATOM     58  H   UNL A   1      42.058  30.316  32.650  1.00  0.00     0.167 HD
ATOM     59  C   UNL A   1      43.660  30.230  34.976  1.00  0.00     0.074 A 
ATOM     60  C   UNL A   1      44.666  29.811  35.929  1.00  0.00     0.031 C 
ATOM     61  C   UNL A   1      42.862  31.315  35.138  1.00  0.00     0.034 A 
BRANCH  48  62
ATOM     62  C   UNL A   1      39.046  32.330  30.381  1.00  0.00     0.023 A 
ATOM     63  C   UNL A   1      39.411  33.539  29.754  1.00  0.00     0.012 A 
ATOM     64  C   UNL A   1      37.695  31.931  30.378  1.00  0.00     0.148 A 
ATOM     65  C   UNL A   1      38.443  34.354  29.165  1.00  0.00     0.002 A 
ATOM     66  C   UNL A   1      36.744  32.725  29.748  1.00  0.00     0.091 A 
ATOM     67  F   UNL A   1      37.364  30.791  30.999  1.00  0.00    -0.205 F 
ATOM     68  C   UNL A   1      37.113  33.942  29.154  1.00  0.00     0.022 A 
BRANCH  66  69
ATOM     69  S   UNL A   1      35.019  32.241  29.609  1.00  0.00     0.127 S 
ATOM     70  O   UNL A   1      35.137  30.854  29.162  1.00  0.00    -0.237 OA
ATOM     71  O   UNL A   1      34.546  32.400  30.985  1.00  0.00    -0.237 OA
ATOM     72  O   UNL A   1      34.420  33.158  28.649  1.00  0.00    -0.744 OA
ENDBRANCH  66  69
ENDBRANCH  48  62
BRANCH  49  73
ATOM     73  C   UNL A   1      46.187  26.377  34.016  1.00  0.00     0.023 A 
ATOM     74  C   UNL A   1      47.535  26.622  33.694  1.00  0.00     0.012 A 
ATOM     75  C   UNL A   1      45.870  25.297  34.864  1.00  0.00     0.148 A 
ATOM     76  C   UNL A   1      48.545  25.788  34.175  1.00  0.00     0.002 A 
ATOM     77  C   UNL A   1      46.884  24.508  35.391  1.00  0.00     0.091 A 
ATOM     78  F   UNL A   1      44.578  25.071  35.145  1.00  0.00    -0.205 F 
ATOM     79  C   UNL A   1      48.221  24.738  35.032  1.00  0.00     0.022 A 
BRANCH  77  80
ATOM     80  S   UNL A   1      46.568  23.225  36.605  1.00  0.00     0.127 S 
ATOM     81  O   UNL A   1      45.339  23.705  37.233  1.00  0.00    -0.237 OA
ATOM     82  O   UNL A   1      46.408  22.044  35.756  1.00  0.00    -0.237 OA
ATOM     83  O   UNL A   1      47.745  23.194  37.462  1.00  0.00    -0.744 OA
ENDBRANCH  77  80
ENDBRANCH  49  73
BRANCH  61  84
ATOM     84  C   UNL A   1      43.008  32.103  36.417  1.00  0.00     0.023 A 
ATOM     85  C   UNL A   1      42.226  31.777  37.544  1.00  0.00     0.012 A 
ATOM     86  C   UNL A   1      43.949  33.148  36.511  1.00  0.00     0.148 A 
ATOM     87  C   UNL A   1      42.339  32.513  38.724  1.00  0.00     0.002 A 
ATOM     88  C   UNL A   1      44.095  33.841  37.708  1.00  0.00     0.091 A 
ATOM     89  F   UNL A   1      44.674  33.458  35.428  1.00  0.00    -0.205 F 
ATOM     90  C   UNL A   1      43.278  33.537  38.809  1.00  0.00     0.022 A 
BRANCH  88  91
ATOM     91  S   UNL A   1      45.350  35.105  37.938  1.00  0.00     0.127 S 
ATOM     92  O   UNL A   1      44.886  36.152  37.029  1.00  0.00    -0.237 OA
ATOM     93  O   UNL A   1      45.212  35.427  39.359  1.00  0.00    -0.237 OA
ATOM     94  O   UNL A   1      46.616  34.481  37.582  1.00  0.00    -0.744 OA
ENDBRANCH  88  91
ENDBRANCH  61  84
ENDBRANCH  35  36
ENDBRANCH  28  30
ENDBRANCH  27  28
ENDBRANCH  26  27
ENDBRANCH  25  26
ENDBRANCH  24  25
ENDBRANCH  23  24
ENDBRANCH  22  23
ENDBRANCH   1  22
TORSDOF 27
ENDMDL
MODEL 2
REMARK VINA RESULT:      -6.8      3.508     10.323
REMARK SMILES COC(=O)[C@@H](CC(=O)OCCOCCOCCOCCOC(=O)c1ccc(-c2c3nc(c(-c4cccc(S(=O)(=O)[O-])c4F)c4ccc([nH]4)c(-c4cccc(S(=O)(=O)[O-])c4F)c4nc(c(-c5cccc(S(=O)(=O)[O-])c5F)c5ccc2[nH]5)C=C4)C=C3)cc1)C1CCCCC1
REMARK SMILES IDX 15 1 14 2 13 3 12 4 11 5 10 6 9 7 7 8 8 9 6 10 5 11 3 12
REMARK SMILES IDX 4 13 2 14 1 15 87 16 88 17 92 18 89 19 91 20 90 21 16 22
REMARK SMILES IDX 17 23 18 24 19 25 20 26 21 27 22 28 23 29 24 30 25 31 86 32
REMARK SMILES IDX 26 33 85 34 27 35 28 36 29 37 79 38 30 39 84 40 78 41 80 42
REMARK SMILES IDX 31 43 83 44 77 45 76 46 32 48 64 49 44 50 63 51 45 52 48 53
REMARK SMILES IDX 62 54 81 55 46 56 47 57 61 59 82 60 49 61 33 62 34 63 42 64
REMARK SMILES IDX 35 65 37 66 43 67 36 68 38 69 39 70 40 71 41 72 65 73 66 74
REMARK SMILES IDX 74 75 67 76 69 77 75 78 68 79 70 80 71 81 72 82 73 83 50 84
REMARK SMILES IDX 51 85 59 86 52 87 54 88 60 89 53 90 55 91 56 92 57 93 58 94
REMARK H PARENT 80 47 48 58
REMARK Flexibility Score: inf
ROOT
ATOM      1  O   UNL A   1      36.815  32.468  35.201  1.00  0.00    -0.377 OA
ENDROOT
BRANCH   1   2
ATOM      2  C   UNL A   1      37.998  31.753  35.488  1.00  0.00     0.188 C 
BRANCH   2   3
ATOM      3  C   UNL A   1      38.335  30.709  34.414  1.00  0.00     0.188 C 
BRANCH   3   4
ATOM      4  O   UNL A   1      39.122  29.599  34.827  1.00  0.00    -0.376 OA
BRANCH   4   5
ATOM      5  C   UNL A   1      40.531  29.669  34.577  1.00  0.00     0.202 C 
BRANCH   5   6
ATOM      6  C   UNL A   1      41.312  28.346  34.424  1.00  0.00     0.261 C 
BRANCH   6   7
ATOM      7  O   UNL A   1      41.723  27.738  35.680  1.00  0.00    -0.463 OA
BRANCH   7   8
ATOM      8  C   UNL A   1      42.897  28.156  36.199  1.00  0.00     0.306 C 
ATOM      9  O   UNL A   1      43.009  29.171  36.886  1.00  0.00    -0.252 OA
BRANCH   8  10
ATOM     10  C   UNL A   1      44.079  27.197  36.083  1.00  0.00     0.138 C 
BRANCH  10  11
ATOM     11  C   UNL A   1      44.138  25.683  36.389  1.00  0.00     0.113 C 
BRANCH  11  12
ATOM     12  C   UNL A   1      44.846  25.254  37.658  1.00  0.00     0.309 C 
ATOM     13  O   UNL A   1      44.478  25.619  38.767  1.00  0.00    -0.252 OA
BRANCH  12  14
ATOM     14  O   UNL A   1      45.786  24.314  37.419  1.00  0.00    -0.469 OA
ATOM     15  C   UNL A   1      45.796  23.213  38.330  1.00  0.00     0.282 C 
ENDBRANCH  12  14
ENDBRANCH  11  12
BRANCH  11  16
ATOM     16  C   UNL A   1      44.500  24.773  35.163  1.00  0.00     0.004 C 
ATOM     17  C   UNL A   1      43.455  23.690  34.862  1.00  0.00     0.004 C 
ATOM     18  C   UNL A   1      44.701  25.589  33.858  1.00  0.00     0.004 C 
ATOM     19  C   UNL A   1      43.934  22.779  33.743  1.00  0.00     0.000 C 
ATOM     20  C   UNL A   1      45.089  24.709  32.658  1.00  0.00     0.000 C 
ATOM     21  C   UNL A   1      44.134  23.540  32.447  1.00  0.00     0.000 C 
ENDBRANCH  11  16
ENDBRANCH  10  11
ENDBRANCH   8  10
ENDBRANCH   7   8
ENDBRANCH   6   7
ENDBRANCH   5   6
ENDBRANCH   4   5
ENDBRANCH   3   4
ENDBRANCH   2   3
ENDBRANCH   1   2
BRANCH   1  22
ATOM     22  C   UNL A   1      36.843  33.856  34.903  1.00  0.00     0.188 C 
BRANCH  22  23
ATOM     23  C   UNL A   1      35.582  34.511  34.334  1.00  0.00     0.188 C 
BRANCH  23  24
ATOM     24  O   UNL A   1      34.524  33.663  33.871  1.00  0.00    -0.376 OA
BRANCH  24  25
ATOM     25  C   UNL A   1      34.575  33.172  32.533  1.00  0.00     0.202 C 
BRANCH  25  26
ATOM     26  C   UNL A   1      34.402  34.202  31.422  1.00  0.00     0.261 C 
BRANCH  26  27
ATOM     27  O   UNL A   1      33.742  33.630  30.281  1.00  0.00    -0.460 OA
BRANCH  27  28
ATOM     28  C   UNL A   1      34.351  33.873  29.099  1.00  0.00     0.338 C 
ATOM     29  O   UNL A   1      33.966  34.622  28.221  1.00  0.00    -0.246 OA
BRANCH  28  30
ATOM     30  C   UNL A   1      35.682  33.237  29.062  1.00  0.00     0.060 A 
ATOM     31  C   UNL A   1      35.724  31.898  29.457  1.00  0.00     0.016 A 
ATOM     32  C   UNL A   1      36.863  33.939  28.798  1.00  0.00     0.016 A 
ATOM     33  C   UNL A   1      36.944  31.287  29.706  1.00  0.00     0.010 A 
ATOM     34  C   UNL A   1      38.096  33.317  29.048  1.00  0.00     0.010 A 
ATOM     35  C   UNL A   1      38.134  32.013  29.575  1.00  0.00    -0.014 A 
BRANCH  35  36
ATOM     36  C   UNL A   1      39.344  31.434  30.213  1.00  0.00     0.031 A 
ATOM     37  C   UNL A   1      40.056  30.292  29.534  1.00  0.00     0.074 A 
ATOM     38  C   UNL A   1      39.904  32.033  31.279  1.00  0.00     0.049 A 
ATOM     39  N   UNL A   1      41.231  29.779  29.793  1.00  0.00    -0.248 NA
ATOM     40  C   UNL A   1      39.361  29.653  28.404  1.00  0.00     0.031 C 
ATOM     41  C   UNL A   1      39.333  33.165  32.008  1.00  0.00     0.029 A 
ATOM     42  N   UNL A   1      41.095  31.788  31.916  1.00  0.00    -0.354 N 
ATOM     43  C   UNL A   1      41.411  28.753  28.872  1.00  0.00     0.074 A 
ATOM     44  C   UNL A   1      40.214  28.700  28.061  1.00  0.00     0.031 C 
ATOM     45  C   UNL A   1      40.179  33.524  32.987  1.00  0.00     0.029 A 
ATOM     46  C   UNL A   1      41.342  32.637  32.968  1.00  0.00     0.049 A 
ATOM     47  H   UNL A   1      41.713  31.071  31.645  1.00  0.00     0.167 HD
ATOM     48  C   UNL A   1      42.481  27.942  28.696  1.00  0.00     0.034 A 
ATOM     49  C   UNL A   1      42.386  32.693  33.818  1.00  0.00     0.034 A 
ATOM     50  C   UNL A   1      43.679  28.001  29.489  1.00  0.00     0.049 A 
ATOM     51  C   UNL A   1      43.549  31.759  33.622  1.00  0.00     0.074 A 
ATOM     52  C   UNL A   1      44.828  27.237  29.372  1.00  0.00     0.029 A 
ATOM     53  N   UNL A   1      43.881  28.860  30.558  1.00  0.00    -0.354 N 
ATOM     54  N   UNL A   1      43.744  30.865  32.682  1.00  0.00    -0.248 NA
ATOM     55  C   UNL A   1      44.657  31.872  34.581  1.00  0.00     0.031 C 
ATOM     56  C   UNL A   1      45.707  27.607  30.395  1.00  0.00     0.029 A 
ATOM     57  C   UNL A   1      45.128  28.636  31.119  1.00  0.00     0.049 A 
ATOM     58  H   UNL A   1      43.233  29.532  30.872  1.00  0.00     0.167 HD
ATOM     59  C   UNL A   1      45.011  30.338  32.915  1.00  0.00     0.074 A 
ATOM     60  C   UNL A   1      45.546  31.032  34.067  1.00  0.00     0.031 C 
ATOM     61  C   UNL A   1      45.668  29.359  32.242  1.00  0.00     0.034 A 
BRANCH  48  62
ATOM     62  C   UNL A   1      42.406  26.916  27.594  1.00  0.00     0.023 A 
ATOM     63  C   UNL A   1      42.873  27.232  26.302  1.00  0.00     0.012 A 
ATOM     64  C   UNL A   1      41.914  25.621  27.852  1.00  0.00     0.148 A 
ATOM     65  C   UNL A   1      42.820  26.288  25.276  1.00  0.00     0.002 A 
ATOM     66  C   UNL A   1      41.908  24.671  26.838  1.00  0.00     0.091 A 
ATOM     67  F   UNL A   1      41.451  25.347  29.080  1.00  0.00    -0.205 F 
ATOM     68  C   UNL A   1      42.347  25.006  25.547  1.00  0.00     0.022 A 
BRANCH  66  69
ATOM     69  S   UNL A   1      41.395  22.971  27.108  1.00  0.00     0.127 S 
ATOM     70  O   UNL A   1      39.979  23.139  27.430  1.00  0.00    -0.237 OA
ATOM     71  O   UNL A   1      41.655  22.362  25.802  1.00  0.00    -0.237 OA
ATOM     72  O   UNL A   1      42.226  22.467  28.191  1.00  0.00    -0.744 OA
ENDBRANCH  66  69
ENDBRANCH  48  62
BRANCH  49  73
ATOM     73  C   UNL A   1      42.391  33.692  34.923  1.00  0.00     0.023 A 
ATOM     74  C   UNL A   1      42.991  34.952  34.739  1.00  0.00     0.012 A 
ATOM     75  C   UNL A   1      41.794  33.391  36.164  1.00  0.00     0.148 A 
ATOM     76  C   UNL A   1      43.030  35.880  35.781  1.00  0.00     0.002 A 
ATOM     77  C   UNL A   1      41.781  34.342  37.176  1.00  0.00     0.091 A 
ATOM     78  F   UNL A   1      41.243  32.179  36.324  1.00  0.00    -0.205 F 
ATOM     79  C   UNL A   1      42.416  35.580  36.995  1.00  0.00     0.022 A 
BRANCH  77  80
ATOM     80  S   UNL A   1      40.897  34.089  38.716  1.00  0.00     0.127 S 
ATOM     81  O   UNL A   1      39.544  33.806  38.243  1.00  0.00    -0.237 OA
ATOM     82  O   UNL A   1      41.607  32.942  39.283  1.00  0.00    -0.237 OA
ATOM     83  O   UNL A   1      41.056  35.325  39.470  1.00  0.00    -0.744 OA
ENDBRANCH  77  80
ENDBRANCH  49  73
BRANCH  61  84
ATOM     84  C   UNL A   1      47.062  29.011  32.704  1.00  0.00     0.023 A 
ATOM     85  C   UNL A   1      47.256  28.008  33.677  1.00  0.00     0.012 A 
ATOM     86  C   UNL A   1      48.184  29.655  32.146  1.00  0.00     0.148 A 
ATOM     87  C   UNL A   1      48.539  27.694  34.126  1.00  0.00     0.002 A 
ATOM     88  C   UNL A   1      49.463  29.297  32.558  1.00  0.00     0.091 A 
ATOM     89  F   UNL A   1      47.984  30.616  31.234  1.00  0.00    -0.205 F 
ATOM     90  C   UNL A   1      49.641  28.331  33.561  1.00  0.00     0.022 A 
BRANCH  88  91
ATOM     91  S   UNL A   1      50.941  29.992  31.812  1.00  0.00     0.127 S 
ATOM     92  O   UNL A   1      50.835  31.398  32.197  1.00  0.00    -0.237 OA
ATOM     93  O   UNL A   1      52.009  29.254  32.488  1.00  0.00    -0.237 OA
ATOM     94  O   UNL A   1      50.833  29.721  30.385  1.00  0.00    -0.744 OA
ENDBRANCH  88  91
ENDBRANCH  61  84
ENDBRANCH  35  36
ENDBRANCH  28  30
ENDBRANCH  27  28
ENDBRANCH  26  27
ENDBRANCH  25  26
ENDBRANCH  24  25
ENDBRANCH  23  24
ENDBRANCH  22  23
ENDBRANCH   1  22
TORSDOF 27
ENDMDL
MODEL 3
REMARK VINA RESULT:      -6.1      7.171     12.655
REMARK SMILES COC(=O)[C@@H](CC(=O)OCCOCCOCCOCCOC(=O)c1ccc(-c2c3nc(c(-c4cccc(S(=O)(=O)[O-])c4F)c4ccc([nH]4)c(-c4cccc(S(=O)(=O)[O-])c4F)c4nc(c(-c5cccc(S(=O)(=O)[O-])c5F)c5ccc2[nH]5)C=C4)C=C3)cc1)C1CCCCC1
REMARK SMILES IDX 15 1 14 2 13 3 12 4 11 5 10 6 9 7 7 8 8 9 6 10 5 11 3 12
REMARK SMILES IDX 4 13 2 14 1 15 87 16 88 17 92 18 89 19 91 20 90 21 16 22
REMARK SMILES IDX 17 23 18 24 19 25 20 26 21 27 22 28 23 29 24 30 25 31 86 32
REMARK SMILES IDX 26 33 85 34 27 35 28 36 29 37 79 38 30 39 84 40 78 41 80 42
REMARK SMILES IDX 31 43 83 44 77 45 76 46 32 48 64 49 44 50 63 51 45 52 48 53
REMARK SMILES IDX 62 54 81 55 46 56 47 57 61 59 82 60 49 61 33 62 34 63 42 64
REMARK SMILES IDX 35 65 37 66 43 67 36 68 38 69 39 70 40 71 41 72 65 73 66 74
REMARK SMILES IDX 74 75 67 76 69 77 75 78 68 79 70 80 71 81 72 82 73 83 50 84
REMARK SMILES IDX 51 85 59 86 52 87 54 88 60 89 53 90 55 91 56 92 57 93 58 94
REMARK H PARENT 80 47 48 58
REMARK Flexibility Score: inf
ROOT
ATOM      1  O   UNL A   1      45.966  40.724  27.249  1.00  0.00    -0.377 OA
ENDROOT
BRANCH   1   2
ATOM      2  C   UNL A   1      44.977  41.643  27.662  1.00  0.00     0.188 C 
BRANCH   2   3
ATOM      3  C   UNL A   1      45.572  42.936  28.235  1.00  0.00     0.188 C 
BRANCH   3   4
ATOM      4  O   UNL A   1      45.083  44.158  27.695  1.00  0.00    -0.376 OA
BRANCH   4   5
ATOM      5  C   UNL A   1      45.886  44.796  26.694  1.00  0.00     0.202 C 
BRANCH   5   6
ATOM      6  C   UNL A   1      45.248  45.077  25.317  1.00  0.00     0.261 C 
BRANCH   6   7
ATOM      7  O   UNL A   1      44.395  44.010  24.816  1.00  0.00    -0.463 OA
BRANCH   7   8
ATOM      8  C   UNL A   1      44.931  43.193  23.885  1.00  0.00     0.306 C 
ATOM      9  O   UNL A   1      45.147  41.997  24.079  1.00  0.00    -0.252 OA
BRANCH   8  10
ATOM     10  C   UNL A   1      45.074  43.760  22.475  1.00  0.00     0.138 C 
BRANCH  10  11
ATOM     11  C   UNL A   1      45.156  43.008  21.127  1.00  0.00     0.113 C 
BRANCH  11  12
ATOM     12  C   UNL A   1      46.473  43.057  20.379  1.00  0.00     0.309 C 
ATOM     13  O   UNL A   1      46.814  42.177  19.598  1.00  0.00    -0.252 OA
BRANCH  12  14
ATOM     14  O   UNL A   1      47.106  44.238  20.547  1.00  0.00    -0.469 OA
ATOM     15  C   UNL A   1      48.520  44.210  20.341  1.00  0.00     0.282 C 
ENDBRANCH  12  14
ENDBRANCH  11  12
BRANCH  11  16
ATOM     16  C   UNL A   1      43.920  43.209  20.181  1.00  0.00     0.004 C 
ATOM     17  C   UNL A   1      42.570  43.203  20.911  1.00  0.00     0.004 C 
ATOM     18  C   UNL A   1      44.000  44.534  19.377  1.00  0.00     0.004 C 
ATOM     19  C   UNL A   1      41.423  43.281  19.916  1.00  0.00     0.000 C 
ATOM     20  C   UNL A   1      42.809  44.723  18.422  1.00  0.00     0.000 C 
ATOM     21  C   UNL A   1      41.461  44.568  19.116  1.00  0.00     0.000 C 
ENDBRANCH  11  16
ENDBRANCH  10  11
ENDBRANCH   8  10
ENDBRANCH   7   8
ENDBRANCH   6   7
ENDBRANCH   5   6
ENDBRANCH   4   5
ENDBRANCH   3   4
ENDBRANCH   2   3
ENDBRANCH   1   2
BRANCH   1  22
ATOM     22  C   UNL A   1      46.590  39.843  28.171  1.00  0.00     0.188 C 
BRANCH  22  23
ATOM     23  C   UNL A   1      48.087  39.560  28.019  1.00  0.00     0.188 C 
BRANCH  23  24
ATOM     24  O   UNL A   1      48.688  38.594  28.890  1.00  0.00    -0.376 OA
BRANCH  24  25
ATOM     25  C   UNL A   1      50.066  38.276  28.713  1.00  0.00     0.202 C 
BRANCH  25  26
ATOM     26  C   UNL A   1      50.617  38.390  27.295  1.00  0.00     0.261 C 
BRANCH  26  27
ATOM     27  O   UNL A   1      51.358  37.215  26.930  1.00  0.00    -0.460 OA
BRANCH  27  28
ATOM     28  C   UNL A   1      50.840  36.525  25.889  1.00  0.00     0.338 C 
ATOM     29  O   UNL A   1      51.180  36.601  24.723  1.00  0.00    -0.246 OA
BRANCH  28  30
ATOM     30  C   UNL A   1      49.894  35.499  26.367  1.00  0.00     0.060 A 
ATOM     31  C   UNL A   1      48.590  35.602  25.878  1.00  0.00     0.016 A 
ATOM     32  C   UNL A   1      50.211  34.563  27.358  1.00  0.00     0.016 A 
ATOM     33  C   UNL A   1      47.572  34.859  26.456  1.00  0.00     0.010 A 
ATOM     34  C   UNL A   1      49.179  33.809  27.939  1.00  0.00     0.010 A 
ATOM     35  C   UNL A   1      47.846  34.013  27.538  1.00  0.00    -0.014 A 
BRANCH  35  36
ATOM     36  C   UNL A   1      46.682  33.554  28.339  1.00  0.00     0.031 A 
ATOM     37  C   UNL A   1      46.163  34.432  29.449  1.00  0.00     0.074 A 
ATOM     38  C   UNL A   1      45.986  32.465  27.966  1.00  0.00     0.049 A 
ATOM     39  N   UNL A   1      45.049  34.336  30.127  1.00  0.00    -0.248 NA
ATOM     40  C   UNL A   1      47.001  35.579  29.837  1.00  0.00     0.031 C 
ATOM     41  C   UNL A   1      46.364  31.551  26.889  1.00  0.00     0.029 A 
ATOM     42  N   UNL A   1      44.800  31.962  28.436  1.00  0.00    -0.354 N 
ATOM     43  C   UNL A   1      45.057  35.396  31.027  1.00  0.00     0.074 A 
ATOM     44  C   UNL A   1      46.299  36.111  30.826  1.00  0.00     0.031 C 
ATOM     45  C   UNL A   1      45.421  30.602  26.773  1.00  0.00     0.029 A 
ATOM     46  C   UNL A   1      44.383  30.829  27.778  1.00  0.00     0.049 A 
ATOM     47  H   UNL A   1      44.294  32.373  29.174  1.00  0.00     0.167 HD
ATOM     48  C   UNL A   1      44.111  35.761  31.925  1.00  0.00     0.034 A 
ATOM     49  C   UNL A   1      43.290  30.064  27.964  1.00  0.00     0.034 A 
ATOM     50  C   UNL A   1      42.868  35.063  32.118  1.00  0.00     0.049 A 
ATOM     51  C   UNL A   1      42.268  30.472  28.991  1.00  0.00     0.074 A 
ATOM     52  C   UNL A   1      41.835  35.370  32.987  1.00  0.00     0.029 A 
ATOM     53  N   UNL A   1      42.494  33.910  31.448  1.00  0.00    -0.354 N 
ATOM     54  N   UNL A   1      42.246  31.534  29.761  1.00  0.00    -0.248 NA
ATOM     55  C   UNL A   1      41.098  29.597  29.144  1.00  0.00     0.031 C 
ATOM     56  C   UNL A   1      40.855  34.379  32.870  1.00  0.00     0.029 A 
ATOM     57  C   UNL A   1      41.254  33.483  31.893  1.00  0.00     0.049 A 
ATOM     58  H   UNL A   1      43.032  33.460  30.756  1.00  0.00     0.167 HD
ATOM     59  C   UNL A   1      41.044  31.473  30.459  1.00  0.00     0.074 A 
ATOM     60  C   UNL A   1      40.356  30.285  30.002  1.00  0.00     0.031 C 
ATOM     61  C   UNL A   1      40.559  32.319  31.403  1.00  0.00     0.034 A 
BRANCH  48  62
ATOM     62  C   UNL A   1      44.383  36.980  32.769  1.00  0.00     0.023 A 
ATOM     63  C   UNL A   1      45.075  36.854  33.990  1.00  0.00     0.012 A 
ATOM     64  C   UNL A   1      43.992  38.260  32.327  1.00  0.00     0.148 A 
ATOM     65  C   UNL A   1      45.344  37.976  34.774  1.00  0.00     0.002 A 
ATOM     66  C   UNL A   1      44.305  39.378  33.090  1.00  0.00     0.091 A 
ATOM     67  F   UNL A   1      43.313  38.358  31.175  1.00  0.00    -0.205 F 
ATOM     68  C   UNL A   1      44.967  39.237  34.320  1.00  0.00     0.022 A 
BRANCH  66  69
ATOM     69  S   UNL A   1      43.935  41.051  32.551  1.00  0.00     0.127 S 
ATOM     70  O   UNL A   1      42.474  41.065  32.613  1.00  0.00    -0.237 OA
ATOM     71  O   UNL A   1      44.596  41.857  33.580  1.00  0.00    -0.237 OA
ATOM     72  O   UNL A   1      44.504  41.180  31.218  1.00  0.00    -0.744 OA
ENDBRANCH  66  69
ENDBRANCH  48  62
BRANCH  49  73
ATOM     73  C   UNL A   1      43.091  28.839  27.138  1.00  0.00     0.023 A 
ATOM     74  C   UNL A   1      42.317  28.893  25.964  1.00  0.00     0.012 A 
ATOM     75  C   UNL A   1      43.675  27.615  27.520  1.00  0.00     0.148 A 
ATOM     76  C   UNL A   1      42.097  27.744  25.204  1.00  0.00     0.002 A 
ATOM     77  C   UNL A   1      43.505  26.489  26.726  1.00  0.00     0.091 A 
ATOM     78  F   UNL A   1      44.394  27.582  28.651  1.00  0.00    -0.205 F 
ATOM     79  C   UNL A   1      42.700  26.545  25.578  1.00  0.00     0.022 A 
BRANCH  77  80
ATOM     80  S   UNL A   1      44.354  24.944  27.060  1.00  0.00     0.127 S 
ATOM     81  O   UNL A   1      43.795  24.068  26.034  1.00  0.00    -0.237 OA
ATOM     82  O   UNL A   1      45.753  25.322  26.856  1.00  0.00    -0.237 OA
ATOM     83  O   UNL A   1      44.021  24.600  28.435  1.00  0.00    -0.744 OA
ENDBRANCH  77  80
ENDBRANCH  49  73
BRANCH  61  84
ATOM     84  C   UNL A   1      39.194  32.018  31.974  1.00  0.00     0.023 A 
ATOM     85  C   UNL A   1      39.066  31.174  33.097  1.00  0.00     0.012 A 
ATOM     86  C   UNL A   1      38.039  32.601  31.415  1.00  0.00     0.148 A 
ATOM     87  C   UNL A   1      37.807  30.873  33.618  1.00  0.00     0.002 A 
ATOM     88  C   UNL A   1      36.793  32.340  31.975  1.00  0.00     0.091 A 
ATOM     89  F   UNL A   1      38.174  33.388  30.339  1.00  0.00    -0.205 F 
ATOM     90  C   UNL A   1      36.674  31.462  33.064  1.00  0.00     0.022 A 
BRANCH  88  91
ATOM     91  S   UNL A   1      35.293  33.135  31.390  1.00  0.00     0.127 S 
ATOM     92  O   UNL A   1      35.505  34.518  31.814  1.00  0.00    -0.237 OA
ATOM     93  O   UNL A   1      35.371  32.923  29.944  1.00  0.00    -0.237 OA
ATOM     94  O   UNL A   1      34.192  32.440  32.042  1.00  0.00    -0.744 OA
ENDBRANCH  88  91
ENDBRANCH  61  84
ENDBRANCH  35  36
ENDBRANCH  28  30
ENDBRANCH  27  28
ENDBRANCH  26  27
ENDBRANCH  25  26
ENDBRANCH  24  25
ENDBRANCH  23  24
ENDBRANCH  22  23
ENDBRANCH   1  22
TORSDOF 27
ENDMDL
