MODEL 1
REMARK VINA RESULT:      -7.1      0.000      0.000
REMARK SMILES CCN(CC)C(=O)/C(C#N)=C\c1ccc(O[C@H](C)C(=O)OCCOCCOCCOCCOC(=O)c2ccc(-c3c4nc(c(-c5cccc(S(=O)(=O)[O-])c5F)c5ccc([nH]5)c(-c5cccc(S(=O)(=O)[O-])c5F)c5nc(c(-c6cccc(S(=O)(=O)[O-])c6F)c6ccc3[nH]6)C=C5)C=C4)cc2)cc1
REMARK SMILES IDX 26 1 25 2 24 3 23 4 22 5 21 6 19 7 20 8 17 9 18 10 16 11
REMARK SMILES IDX 15 12 12 13 13 14 100 15 14 16 99 17 11 18 8 19 6 20 3 21
REMARK SMILES IDX 7 22 2 23 1 24 4 25 5 26 9 27 10 28 27 29 28 30 29 31 30 32
REMARK SMILES IDX 31 33 32 34 33 35 34 36 35 37 36 38 37 39 98 40 38 41 97 42
REMARK SMILES IDX 39 43 40 44 41 45 91 46 42 47 96 48 90 49 92 50 43 51 95 52
REMARK SMILES IDX 89 53 88 54 44 56 76 57 56 58 75 59 57 60 60 61 74 62 93 63
REMARK SMILES IDX 58 64 59 65 73 67 94 68 61 69 45 70 46 71 54 72 47 73 49 74
REMARK SMILES IDX 55 75 48 76 50 77 51 78 52 79 53 80 77 81 78 82 86 83 79 84
REMARK SMILES IDX 81 85 87 86 80 87 82 88 83 89 84 90 85 91 62 92 63 93 71 94
REMARK SMILES IDX 64 95 66 96 72 97 65 98 67 99 68 100 69 101 70 102
REMARK H PARENT 92 55 60 66
REMARK Flexibility Score: inf
ROOT
ATOM      1  C   UNL A   1      40.590  35.020  39.355  1.00  0.00     0.188 C 
ENDROOT
BRANCH   1   2
ATOM      2  C   UNL A   1      41.057  36.470  39.141  1.00  0.00     0.188 C 
BRANCH   2   3
ATOM      3  O   UNL A   1      41.385  37.319  40.235  1.00  0.00    -0.376 OA
BRANCH   3   4
ATOM      4  C   UNL A   1      40.374  37.924  41.026  1.00  0.00     0.202 C 
BRANCH   4   5
ATOM      5  C   UNL A   1      40.665  39.137  41.925  1.00  0.00     0.261 C 
BRANCH   5   6
ATOM      6  O   UNL A   1      41.974  39.711  41.837  1.00  0.00    -0.461 OA
BRANCH   6   7
ATOM      7  C   UNL A   1      42.022  40.943  41.269  1.00  0.00     0.347 C 
ATOM      8  O   UNL A   1      42.341  41.164  40.104  1.00  0.00    -0.248 OA
BRANCH   7   9
ATOM      9  C   UNL A   1      41.685  42.047  42.258  1.00  0.00     0.279 C 
ATOM     10  C   UNL A   1      42.171  41.886  43.689  1.00  0.00     0.066 C 
BRANCH   9  11
ATOM     11  O   UNL A   1      41.902  43.253  41.550  1.00  0.00    -0.479 OA
BRANCH  11  12
ATOM     12  C   UNL A   1      41.066  44.302  41.416  1.00  0.00     0.120 A 
ATOM     13  C   UNL A   1      38.960  46.102  41.536  1.00  0.00    -0.024 A 
ATOM     14  C   UNL A   1      40.267  46.571  41.586  1.00  0.00     0.012 A 
ATOM     15  C   UNL A   1      38.705  44.769  41.222  1.00  0.00     0.012 A 
ATOM     16  C   UNL A   1      41.324  45.666  41.490  1.00  0.00     0.047 A 
ATOM     17  C   UNL A   1      39.757  43.873  41.197  1.00  0.00     0.047 A 
BRANCH  13  18
ATOM     18  C   UNL A   1      37.865  46.976  41.913  1.00  0.00     0.033 C 
ATOM     19  C   UNL A   1      37.320  46.986  43.143  1.00  0.00     0.117 C 
BRANCH  19  20
ATOM     20  C   UNL A   1      37.734  46.138  44.342  1.00  0.00     0.264 C 
ATOM     21  N   UNL A   1      37.245  44.835  44.544  1.00  0.00    -0.339 N 
ATOM     22  O   UNL A   1      38.549  46.598  45.148  1.00  0.00    -0.268 OA
BRANCH  21  23
ATOM     23  C   UNL A   1      38.006  43.976  45.458  1.00  0.00     0.116 C 
ATOM     24  C   UNL A   1      38.746  42.881  44.700  1.00  0.00     0.027 C 
ENDBRANCH  21  23
BRANCH  21  25
ATOM     25  C   UNL A   1      36.002  44.239  44.034  1.00  0.00     0.116 C 
ATOM     26  C   UNL A   1      34.959  44.116  45.142  1.00  0.00     0.027 C 
ENDBRANCH  21  25
ENDBRANCH  19  20
BRANCH  19  27
ATOM     27  C   UNL A   1      36.089  47.864  43.309  1.00  0.00     0.105 C 
ATOM     28  N   UNL A   1      35.069  48.592  43.446  1.00  0.00    -0.192 NA
ENDBRANCH  19  27
ENDBRANCH  13  18
ENDBRANCH  11  12
ENDBRANCH   9  11
ENDBRANCH   7   9
ENDBRANCH   6   7
ENDBRANCH   5   6
ENDBRANCH   4   5
ENDBRANCH   3   4
ENDBRANCH   2   3
ENDBRANCH   1   2
BRANCH   1  29
ATOM     29  O   UNL A   1      41.492  34.206  40.072  1.00  0.00    -0.377 OA
BRANCH  29  30
ATOM     30  C   UNL A   1      42.644  33.787  39.356  1.00  0.00     0.188 C 
BRANCH  30  31
ATOM     31  C   UNL A   1      43.217  32.398  39.713  1.00  0.00     0.188 C 
BRANCH  31  32
ATOM     32  O   UNL A   1      44.442  32.078  39.062  1.00  0.00    -0.376 OA
BRANCH  32  33
ATOM     33  C   UNL A   1      45.514  31.537  39.822  1.00  0.00     0.202 C 
BRANCH  33  34
ATOM     34  C   UNL A   1      46.840  31.220  39.104  1.00  0.00     0.261 C 
BRANCH  34  35
ATOM     35  O   UNL A   1      46.973  29.899  38.561  1.00  0.00    -0.460 OA
BRANCH  35  36
ATOM     36  C   UNL A   1      47.576  29.775  37.362  1.00  0.00     0.338 C 
ATOM     37  O   UNL A   1      48.763  29.570  37.160  1.00  0.00    -0.246 OA
BRANCH  36  38
ATOM     38  C   UNL A   1      46.524  29.700  36.326  1.00  0.00     0.060 A 
ATOM     39  C   UNL A   1      46.475  30.705  35.352  1.00  0.00     0.016 A 
ATOM     40  C   UNL A   1      45.606  28.647  36.302  1.00  0.00     0.016 A 
ATOM     41  C   UNL A   1      45.485  30.683  34.373  1.00  0.00     0.010 A 
ATOM     42  C   UNL A   1      44.593  28.642  35.337  1.00  0.00     0.010 A 
ATOM     43  C   UNL A   1      44.508  29.682  34.393  1.00  0.00    -0.014 A 
BRANCH  43  44
ATOM     44  C   UNL A   1      43.296  29.846  33.556  1.00  0.00     0.031 A 
ATOM     45  C   UNL A   1      42.083  30.485  34.173  1.00  0.00     0.074 A 
ATOM     46  C   UNL A   1      43.279  29.465  32.268  1.00  0.00     0.049 A 
ATOM     47  N   UNL A   1      40.917  30.738  33.640  1.00  0.00    -0.248 NA
ATOM     48  C   UNL A   1      42.201  30.893  35.583  1.00  0.00     0.031 C 
ATOM     49  C   UNL A   1      44.394  28.845  31.555  1.00  0.00     0.029 A 
ATOM     50  N   UNL A   1      42.271  29.525  31.338  1.00  0.00    -0.354 N 
ATOM     51  C   UNL A   1      40.152  31.298  34.655  1.00  0.00     0.074 A 
ATOM     52  C   UNL A   1      40.982  31.344  35.837  1.00  0.00     0.031 C 
ATOM     53  C   UNL A   1      43.997  28.548  30.306  1.00  0.00     0.029 A 
ATOM     54  C   UNL A   1      42.595  28.933  30.140  1.00  0.00     0.049 A 
ATOM     55  H   UNL A   1      41.400  29.950  31.512  1.00  0.00     0.167 HD
ATOM     56  C   UNL A   1      38.873  31.740  34.606  1.00  0.00     0.034 A 
ATOM     57  C   UNL A   1      41.837  28.701  29.051  1.00  0.00     0.034 A 
ATOM     58  C   UNL A   1      38.052  31.701  33.426  1.00  0.00     0.049 A 
ATOM     59  C   UNL A   1      40.410  29.181  29.025  1.00  0.00     0.074 A 
ATOM     60  C   UNL A   1      36.766  32.183  33.259  1.00  0.00     0.029 A 
ATOM     61  N   UNL A   1      38.422  31.122  32.222  1.00  0.00    -0.354 N 
ATOM     62  N   UNL A   1      39.737  29.823  29.950  1.00  0.00    -0.248 NA
ATOM     63  C   UNL A   1      39.647  28.935  27.793  1.00  0.00     0.031 C 
ATOM     64  C   UNL A   1      36.340  31.848  31.969  1.00  0.00     0.029 A 
ATOM     65  C   UNL A   1      37.380  31.208  31.315  1.00  0.00     0.049 A 
ATOM     66  H   UNL A   1      39.299  30.711  32.040  1.00  0.00     0.167 HD
ATOM     67  C   UNL A   1      38.484  30.083  29.403  1.00  0.00     0.074 A 
ATOM     68  C   UNL A   1      38.501  29.549  28.057  1.00  0.00     0.031 C 
ATOM     69  C   UNL A   1      37.416  30.702  29.966  1.00  0.00     0.034 A 
BRANCH  56  70
ATOM     70  C   UNL A   1      38.280  32.292  35.876  1.00  0.00     0.023 A 
ATOM     71  C   UNL A   1      38.136  33.684  36.046  1.00  0.00     0.012 A 
ATOM     72  C   UNL A   1      37.833  31.422  36.890  1.00  0.00     0.148 A 
ATOM     73  C   UNL A   1      37.596  34.202  37.223  1.00  0.00     0.002 A 
ATOM     74  C   UNL A   1      37.250  31.943  38.037  1.00  0.00     0.091 A 
ATOM     75  F   UNL A   1      38.003  30.103  36.720  1.00  0.00    -0.205 F 
ATOM     76  C   UNL A   1      37.143  33.333  38.212  1.00  0.00     0.022 A 
BRANCH  74  77
ATOM     77  S   UNL A   1      36.563  30.904  39.329  1.00  0.00     0.127 S 
ATOM     78  O   UNL A   1      36.165  29.718  38.572  1.00  0.00    -0.237 OA
ATOM     79  O   UNL A   1      37.714  30.708  40.209  1.00  0.00    -0.237 OA
ATOM     80  O   UNL A   1      35.469  31.664  39.918  1.00  0.00    -0.744 OA
ENDBRANCH  74  77
ENDBRANCH  56  70
BRANCH  57  81
ATOM     81  C   UNL A   1      42.425  27.979  27.886  1.00  0.00     0.023 A 
ATOM     82  C   UNL A   1      43.179  28.684  26.928  1.00  0.00     0.012 A 
ATOM     83  C   UNL A   1      42.261  26.587  27.748  1.00  0.00     0.148 A 
ATOM     84  C   UNL A   1      43.740  28.017  25.839  1.00  0.00     0.002 A 
ATOM     85  C   UNL A   1      42.872  25.920  26.693  1.00  0.00     0.091 A 
ATOM     86  F   UNL A   1      41.527  25.941  28.664  1.00  0.00    -0.205 F 
ATOM     87  C   UNL A   1      43.597  26.635  25.728  1.00  0.00     0.022 A 
BRANCH  85  88
ATOM     88  S   UNL A   1      42.848  24.131  26.541  1.00  0.00     0.127 S 
ATOM     89  O   UNL A   1      43.652  23.922  25.339  1.00  0.00    -0.237 OA
ATOM     90  O   UNL A   1      43.490  23.719  27.790  1.00  0.00    -0.237 OA
ATOM     91  O   UNL A   1      41.445  23.759  26.431  1.00  0.00    -0.744 OA
ENDBRANCH  85  88
ENDBRANCH  57  81
BRANCH  69  92
ATOM     92  C   UNL A   1      36.177  30.871  29.122  1.00  0.00     0.023 A 
ATOM     93  C   UNL A   1      35.543  29.745  28.560  1.00  0.00     0.012 A 
ATOM     94  C   UNL A   1      35.602  32.146  28.945  1.00  0.00     0.148 A 
ATOM     95  C   UNL A   1      34.381  29.890  27.802  1.00  0.00     0.002 A 
ATOM     96  C   UNL A   1      34.414  32.276  28.235  1.00  0.00     0.091 A 
ATOM     97  F   UNL A   1      36.225  33.208  29.475  1.00  0.00    -0.205 F 
ATOM     98  C   UNL A   1      33.811  31.151  27.650  1.00  0.00     0.022 A 
BRANCH  96  99
ATOM     99  S   UNL A   1      33.554  33.845  28.071  1.00  0.00     0.127 S 
ATOM    100  O   UNL A   1      32.346  33.448  27.351  1.00  0.00    -0.237 OA
ATOM    101  O   UNL A   1      33.336  34.224  29.468  1.00  0.00    -0.237 OA
ATOM    102  O   UNL A   1      34.456  34.724  27.339  1.00  0.00    -0.744 OA
ENDBRANCH  96  99
ENDBRANCH  69  92
ENDBRANCH  43  44
ENDBRANCH  36  38
ENDBRANCH  35  36
ENDBRANCH  34  35
ENDBRANCH  33  34
ENDBRANCH  32  33
ENDBRANCH  31  32
ENDBRANCH  30  31
ENDBRANCH  29  30
ENDBRANCH   1  29
TORSDOF 30
ENDMDL
MODEL 2
REMARK VINA RESULT:      -6.9      8.386     13.964
REMARK SMILES CCN(CC)C(=O)/C(C#N)=C\c1ccc(O[C@H](C)C(=O)OCCOCCOCCOCCOC(=O)c2ccc(-c3c4nc(c(-c5cccc(S(=O)(=O)[O-])c5F)c5ccc([nH]5)c(-c5cccc(S(=O)(=O)[O-])c5F)c5nc(c(-c6cccc(S(=O)(=O)[O-])c6F)c6ccc3[nH]6)C=C5)C=C4)cc2)cc1
REMARK SMILES IDX 26 1 25 2 24 3 23 4 22 5 21 6 19 7 20 8 17 9 18 10 16 11
REMARK SMILES IDX 15 12 12 13 13 14 100 15 14 16 99 17 11 18 8 19 6 20 3 21
REMARK SMILES IDX 7 22 2 23 1 24 4 25 5 26 9 27 10 28 27 29 28 30 29 31 30 32
REMARK SMILES IDX 31 33 32 34 33 35 34 36 35 37 36 38 37 39 98 40 38 41 97 42
REMARK SMILES IDX 39 43 40 44 41 45 91 46 42 47 96 48 90 49 92 50 43 51 95 52
REMARK SMILES IDX 89 53 88 54 44 56 76 57 56 58 75 59 57 60 60 61 74 62 93 63
REMARK SMILES IDX 58 64 59 65 73 67 94 68 61 69 45 70 46 71 54 72 47 73 49 74
REMARK SMILES IDX 55 75 48 76 50 77 51 78 52 79 53 80 77 81 78 82 86 83 79 84
REMARK SMILES IDX 81 85 87 86 80 87 82 88 83 89 84 90 85 91 62 92 63 93 71 94
REMARK SMILES IDX 64 95 66 96 72 97 65 98 67 99 68 100 69 101 70 102
REMARK H PARENT 92 55 60 66
REMARK Flexibility Score: inf
ROOT
ATOM      1  C   UNL A   1      50.250  21.166  34.840  1.00  0.00     0.188 C 
ENDROOT
BRANCH   1   2
ATOM      2  C   UNL A   1      48.723  20.996  34.908  1.00  0.00     0.188 C 
BRANCH   2   3
ATOM      3  O   UNL A   1      48.105  20.160  35.878  1.00  0.00    -0.376 OA
BRANCH   3   4
ATOM      4  C   UNL A   1      46.696  19.997  35.922  1.00  0.00     0.202 C 
BRANCH   4   5
ATOM      5  C   UNL A   1      45.993  19.329  37.115  1.00  0.00     0.261 C 
BRANCH   5   6
ATOM      6  O   UNL A   1      46.828  18.842  38.171  1.00  0.00    -0.461 OA
BRANCH   6   7
ATOM      7  C   UNL A   1      46.834  19.603  39.294  1.00  0.00     0.347 C 
ATOM      8  O   UNL A   1      45.880  20.261  39.698  1.00  0.00    -0.248 OA
BRANCH   7   9
ATOM      9  C   UNL A   1      48.188  19.600  39.985  1.00  0.00     0.279 C 
ATOM     10  C   UNL A   1      48.527  18.411  40.869  1.00  0.00     0.066 C 
BRANCH   9  11
ATOM     11  O   UNL A   1      49.102  20.059  39.006  1.00  0.00    -0.479 OA
BRANCH  11  12
ATOM     12  C   UNL A   1      49.414  21.332  38.691  1.00  0.00     0.120 A 
ATOM     13  C   UNL A   1      50.491  23.662  37.641  1.00  0.00    -0.024 A 
ATOM     14  C   UNL A   1      49.119  23.571  37.845  1.00  0.00     0.012 A 
ATOM     15  C   UNL A   1      51.341  22.682  38.145  1.00  0.00     0.012 A 
ATOM     16  C   UNL A   1      48.585  22.411  38.406  1.00  0.00     0.047 A 
ATOM     17  C   UNL A   1      50.796  21.509  38.637  1.00  0.00     0.047 A 
BRANCH  13  18
ATOM     18  C   UNL A   1      51.028  24.724  36.812  1.00  0.00     0.033 C 
ATOM     19  C   UNL A   1      50.972  26.025  37.153  1.00  0.00     0.117 C 
BRANCH  19  20
ATOM     20  C   UNL A   1      50.381  26.619  38.428  1.00  0.00     0.264 C 
ATOM     21  N   UNL A   1      51.096  26.659  39.639  1.00  0.00    -0.339 N 
ATOM     22  O   UNL A   1      49.248  27.109  38.392  1.00  0.00    -0.268 OA
BRANCH  21  23
ATOM     23  C   UNL A   1      50.621  27.602  40.658  1.00  0.00     0.116 C 
ATOM     24  C   UNL A   1      51.725  28.566  41.075  1.00  0.00     0.027 C 
ENDBRANCH  21  23
BRANCH  21  25
ATOM     25  C   UNL A   1      52.210  25.801  40.068  1.00  0.00     0.116 C 
ATOM     26  C   UNL A   1      51.787  24.888  41.216  1.00  0.00     0.027 C 
ENDBRANCH  21  25
ENDBRANCH  19  20
BRANCH  19  27
ATOM     27  C   UNL A   1      51.455  27.004  36.094  1.00  0.00     0.105 C 
ATOM     28  N   UNL A   1      51.857  27.815  35.216  1.00  0.00    -0.192 NA
ENDBRANCH  19  27
ENDBRANCH  13  18
ENDBRANCH  11  12
ENDBRANCH   9  11
ENDBRANCH   7   9
ENDBRANCH   6   7
ENDBRANCH   5   6
ENDBRANCH   4   5
ENDBRANCH   3   4
ENDBRANCH   2   3
ENDBRANCH   1   2
BRANCH   1  29
ATOM     29  O   UNL A   1      50.988  20.147  35.477  1.00  0.00    -0.377 OA
BRANCH  29  30
ATOM     30  C   UNL A   1      52.393  20.192  35.280  1.00  0.00     0.188 C 
BRANCH  30  31
ATOM     31  C   UNL A   1      52.943  19.479  34.025  1.00  0.00     0.188 C 
BRANCH  31  32
ATOM     32  O   UNL A   1      53.805  20.277  33.221  1.00  0.00    -0.376 OA
BRANCH  32  33
ATOM     33  C   UNL A   1      53.298  21.463  32.622  1.00  0.00     0.202 C 
BRANCH  33  34
ATOM     34  C   UNL A   1      54.235  22.679  32.491  1.00  0.00     0.261 C 
BRANCH  34  35
ATOM     35  O   UNL A   1      53.606  23.947  32.257  1.00  0.00    -0.460 OA
BRANCH  35  36
ATOM     36  C   UNL A   1      53.024  24.558  33.308  1.00  0.00     0.338 C 
ATOM     37  O   UNL A   1      53.553  24.836  34.374  1.00  0.00    -0.246 OA
BRANCH  36  38
ATOM     38  C   UNL A   1      51.698  25.047  32.877  1.00  0.00     0.060 A 
ATOM     39  C   UNL A   1      51.642  26.142  32.007  1.00  0.00     0.016 A 
ATOM     40  C   UNL A   1      50.523  24.426  33.310  1.00  0.00     0.016 A 
ATOM     41  C   UNL A   1      50.411  26.648  31.596  1.00  0.00     0.010 A 
ATOM     42  C   UNL A   1      49.286  24.954  32.921  1.00  0.00     0.010 A 
ATOM     43  C   UNL A   1      49.228  26.091  32.093  1.00  0.00    -0.014 A 
BRANCH  43  44
ATOM     44  C   UNL A   1      47.956  26.825  31.906  1.00  0.00     0.031 A 
ATOM     45  C   UNL A   1      47.583  27.879  32.911  1.00  0.00     0.074 A 
ATOM     46  C   UNL A   1      47.159  26.585  30.851  1.00  0.00     0.049 A 
ATOM     47  N   UNL A   1      46.530  28.651  32.952  1.00  0.00    -0.248 NA
ATOM     48  C   UNL A   1      48.528  28.090  34.020  1.00  0.00     0.031 C 
ATOM     49  C   UNL A   1      47.415  25.597  29.805  1.00  0.00     0.029 A 
ATOM     50  N   UNL A   1      45.954  27.144  30.502  1.00  0.00    -0.354 N 
ATOM     51  C   UNL A   1      46.664  29.411  34.107  1.00  0.00     0.074 A 
ATOM     52  C   UNL A   1      47.898  29.005  34.742  1.00  0.00     0.031 C 
ATOM     53  C   UNL A   1      46.380  25.595  28.948  1.00  0.00     0.029 A 
ATOM     54  C   UNL A   1      45.378  26.561  29.400  1.00  0.00     0.049 A 
ATOM     55  H   UNL A   1      45.543  27.891  30.995  1.00  0.00     0.167 HD
ATOM     56  C   UNL A   1      45.837  30.366  34.594  1.00  0.00     0.034 A 
ATOM     57  C   UNL A   1      44.168  26.761  28.841  1.00  0.00     0.034 A 
ATOM     58  C   UNL A   1      44.615  30.774  33.957  1.00  0.00     0.049 A 
ATOM     59  C   UNL A   1      43.254  27.813  29.411  1.00  0.00     0.074 A 
ATOM     60  C   UNL A   1      43.741  31.777  34.337  1.00  0.00     0.029 A 
ATOM     61  N   UNL A   1      44.076  30.183  32.824  1.00  0.00    -0.354 N 
ATOM     62  N   UNL A   1      43.449  28.613  30.432  1.00  0.00    -0.248 NA
ATOM     63  C   UNL A   1      41.964  28.013  28.733  1.00  0.00     0.031 C 
ATOM     64  C   UNL A   1      42.648  31.756  33.464  1.00  0.00     0.029 A 
ATOM     65  C   UNL A   1      42.867  30.778  32.508  1.00  0.00     0.049 A 
ATOM     66  H   UNL A   1      44.493  29.447  32.319  1.00  0.00     0.167 HD
ATOM     67  C   UNL A   1      42.325  29.430  30.501  1.00  0.00     0.074 A 
ATOM     68  C   UNL A   1      41.463  29.042  29.403  1.00  0.00     0.031 C 
ATOM     69  C   UNL A   1      42.030  30.407  31.395  1.00  0.00     0.034 A 
BRANCH  56  70
ATOM     70  C   UNL A   1      46.225  31.026  35.891  1.00  0.00     0.023 A 
ATOM     71  C   UNL A   1      47.042  32.175  35.888  1.00  0.00     0.012 A 
ATOM     72  C   UNL A   1      45.749  30.520  37.117  1.00  0.00     0.148 A 
ATOM     73  C   UNL A   1      47.412  32.785  37.087  1.00  0.00     0.002 A 
ATOM     74  C   UNL A   1      46.080  31.163  38.303  1.00  0.00     0.091 A 
ATOM     75  F   UNL A   1      44.995  29.411  37.101  1.00  0.00    -0.205 F 
ATOM     76  C   UNL A   1      46.922  32.287  38.291  1.00  0.00     0.022 A 
BRANCH  74  77
ATOM     77  S   UNL A   1      45.432  30.646  39.895  1.00  0.00     0.127 S 
ATOM     78  O   UNL A   1      45.976  29.294  40.009  1.00  0.00    -0.237 OA
ATOM     79  O   UNL A   1      46.033  31.623  40.802  1.00  0.00    -0.237 OA
ATOM     80  O   UNL A   1      43.983  30.729  39.786  1.00  0.00    -0.744 OA
ENDBRANCH  74  77
ENDBRANCH  56  70
BRANCH  57  81
ATOM     81  C   UNL A   1      43.757  25.944  27.664  1.00  0.00     0.023 A 
ATOM     82  C   UNL A   1      44.163  26.320  26.369  1.00  0.00     0.012 A 
ATOM     83  C   UNL A   1      42.989  24.775  27.834  1.00  0.00     0.148 A 
ATOM     84  C   UNL A   1      43.791  25.557  25.261  1.00  0.00     0.002 A 
ATOM     85  C   UNL A   1      42.672  23.989  26.733  1.00  0.00     0.091 A 
ATOM     86  F   UNL A   1      42.602  24.447  29.074  1.00  0.00    -0.205 F 
ATOM     87  C   UNL A   1      43.057  24.388  25.444  1.00  0.00     0.022 A 
BRANCH  85  88
ATOM     88  S   UNL A   1      41.842  22.405  26.887  1.00  0.00     0.127 S 
ATOM     89  O   UNL A   1      40.513  22.806  27.345  1.00  0.00    -0.237 OA
ATOM     90  O   UNL A   1      41.895  21.906  25.512  1.00  0.00    -0.237 OA
ATOM     91  O   UNL A   1      42.628  21.634  27.840  1.00  0.00    -0.744 OA
ENDBRANCH  85  88
ENDBRANCH  57  81
BRANCH  69  92
ATOM     92  C   UNL A   1      40.735  31.159  31.213  1.00  0.00     0.023 A 
ATOM     93  C   UNL A   1      40.666  32.246  30.318  1.00  0.00     0.012 A 
ATOM     94  C   UNL A   1      39.567  30.742  31.881  1.00  0.00     0.148 A 
ATOM     95  C   UNL A   1      39.465  32.929  30.123  1.00  0.00     0.002 A 
ATOM     96  C   UNL A   1      38.362  31.393  31.640  1.00  0.00     0.091 A 
ATOM     97  F   UNL A   1      39.653  29.716  32.740  1.00  0.00    -0.205 F 
ATOM     98  C   UNL A   1      38.313  32.495  30.773  1.00  0.00     0.022 A 
BRANCH  96  99
ATOM     99  S   UNL A   1      36.808  30.843  32.356  1.00  0.00     0.127 S 
ATOM    100  O   UNL A   1      36.882  31.414  33.700  1.00  0.00    -0.237 OA
ATOM    101  O   UNL A   1      35.823  31.475  31.477  1.00  0.00    -0.237 OA
ATOM    102  O   UNL A   1      36.829  29.387  32.295  1.00  0.00    -0.744 OA
ENDBRANCH  96  99
ENDBRANCH  69  92
ENDBRANCH  43  44
ENDBRANCH  36  38
ENDBRANCH  35  36
ENDBRANCH  34  35
ENDBRANCH  33  34
ENDBRANCH  32  33
ENDBRANCH  31  32
ENDBRANCH  30  31
ENDBRANCH  29  30
ENDBRANCH   1  29
TORSDOF 30
ENDMDL
MODEL 3
REMARK VINA RESULT:      -6.7      8.353     16.220
REMARK SMILES CCN(CC)C(=O)/C(C#N)=C\c1ccc(O[C@H](C)C(=O)OCCOCCOCCOCCOC(=O)c2ccc(-c3c4nc(c(-c5cccc(S(=O)(=O)[O-])c5F)c5ccc([nH]5)c(-c5cccc(S(=O)(=O)[O-])c5F)c5nc(c(-c6cccc(S(=O)(=O)[O-])c6F)c6ccc3[nH]6)C=C5)C=C4)cc2)cc1
REMARK SMILES IDX 26 1 25 2 24 3 23 4 22 5 21 6 19 7 20 8 17 9 18 10 16 11
REMARK SMILES IDX 15 12 12 13 13 14 100 15 14 16 99 17 11 18 8 19 6 20 3 21
REMARK SMILES IDX 7 22 2 23 1 24 4 25 5 26 9 27 10 28 27 29 28 30 29 31 30 32
REMARK SMILES IDX 31 33 32 34 33 35 34 36 35 37 36 38 37 39 98 40 38 41 97 42
REMARK SMILES IDX 39 43 40 44 41 45 91 46 42 47 96 48 90 49 92 50 43 51 95 52
REMARK SMILES IDX 89 53 88 54 44 56 76 57 56 58 75 59 57 60 60 61 74 62 93 63
REMARK SMILES IDX 58 64 59 65 73 67 94 68 61 69 45 70 46 71 54 72 47 73 49 74
REMARK SMILES IDX 55 75 48 76 50 77 51 78 52 79 53 80 77 81 78 82 86 83 79 84
REMARK SMILES IDX 81 85 87 86 80 87 82 88 83 89 84 90 85 91 62 92 63 93 71 94
REMARK SMILES IDX 64 95 66 96 72 97 65 98 67 99 68 100 69 101 70 102
REMARK H PARENT 92 55 60 66
REMARK Flexibility Score: inf
ROOT
ATOM      1  C   UNL A   1      38.162  33.318  34.884  1.00  0.00     0.188 C 
ENDROOT
BRANCH   1   2
ATOM      2  C   UNL A   1      36.807  33.875  34.414  1.00  0.00     0.188 C 
BRANCH   2   3
ATOM      3  O   UNL A   1      36.642  34.447  33.122  1.00  0.00    -0.376 OA
BRANCH   3   4
ATOM      4  C   UNL A   1      35.353  34.624  32.555  1.00  0.00     0.202 C 
BRANCH   4   5
ATOM      5  C   UNL A   1      35.014  34.125  31.141  1.00  0.00     0.261 C 
BRANCH   5   6
ATOM      6  O   UNL A   1      34.621  32.754  31.013  1.00  0.00    -0.461 OA
BRANCH   6   7
ATOM      7  C   UNL A   1      35.630  31.855  31.136  1.00  0.00     0.347 C 
ATOM      8  O   UNL A   1      35.863  31.201  32.148  1.00  0.00    -0.248 OA
BRANCH   7   9
ATOM      9  C   UNL A   1      36.490  31.779  29.885  1.00  0.00     0.279 C 
ATOM     10  C   UNL A   1      37.807  32.538  29.886  1.00  0.00     0.066 C 
BRANCH   9  11
ATOM     11  O   UNL A   1      36.436  30.423  29.483  1.00  0.00    -0.479 OA
BRANCH  11  12
ATOM     12  C   UNL A   1      37.463  29.594  29.209  1.00  0.00     0.120 A 
ATOM     13  C   UNL A   1      39.203  27.449  28.962  1.00  0.00    -0.024 A 
ATOM     14  C   UNL A   1      39.021  28.313  27.888  1.00  0.00     0.012 A 
ATOM     15  C   UNL A   1      38.682  27.768  30.213  1.00  0.00     0.012 A 
ATOM     16  C   UNL A   1      38.172  29.410  28.028  1.00  0.00     0.047 A 
ATOM     17  C   UNL A   1      37.790  28.819  30.321  1.00  0.00     0.047 A 
BRANCH  13  18
ATOM     18  C   UNL A   1      39.847  26.166  28.754  1.00  0.00     0.033 C 
ATOM     19  C   UNL A   1      41.183  26.010  28.711  1.00  0.00     0.117 C 
BRANCH  19  20
ATOM     20  C   UNL A   1      42.243  27.093  28.883  1.00  0.00     0.264 C 
ATOM     21  N   UNL A   1      42.723  27.852  27.800  1.00  0.00    -0.339 N 
ATOM     22  O   UNL A   1      42.676  27.333  30.014  1.00  0.00    -0.268 OA
BRANCH  21  23
ATOM     23  C   UNL A   1      43.400  29.113  28.124  1.00  0.00     0.116 C 
ATOM     24  C   UNL A   1      43.111  30.180  27.075  1.00  0.00     0.027 C 
ENDBRANCH  21  23
BRANCH  21  25
ATOM     25  C   UNL A   1      42.726  27.502  26.372  1.00  0.00     0.116 C 
ATOM     26  C   UNL A   1      43.836  26.502  26.056  1.00  0.00     0.027 C 
ENDBRANCH  21  25
ENDBRANCH  19  20
BRANCH  19  27
ATOM     27  C   UNL A   1      41.670  24.618  28.340  1.00  0.00     0.105 C 
ATOM     28  N   UNL A   1      42.074  23.463  28.032  1.00  0.00    -0.192 NA
ENDBRANCH  19  27
ENDBRANCH  13  18
ENDBRANCH  11  12
ENDBRANCH   9  11
ENDBRANCH   7   9
ENDBRANCH   6   7
ENDBRANCH   5   6
ENDBRANCH   4   5
ENDBRANCH   3   4
ENDBRANCH   2   3
ENDBRANCH   1   2
BRANCH   1  29
ATOM     29  O   UNL A   1      38.401  31.971  34.542  1.00  0.00    -0.377 OA
BRANCH  29  30
ATOM     30  C   UNL A   1      39.028  31.758  33.286  1.00  0.00     0.188 C 
BRANCH  30  31
ATOM     31  C   UNL A   1      40.419  32.397  33.086  1.00  0.00     0.188 C 
BRANCH  31  32
ATOM     32  O   UNL A   1      40.752  32.679  31.731  1.00  0.00    -0.376 OA
BRANCH  32  33
ATOM     33  C   UNL A   1      41.101  34.007  31.362  1.00  0.00     0.202 C 
BRANCH  33  34
ATOM     34  C   UNL A   1      41.981  34.831  32.321  1.00  0.00     0.261 C 
BRANCH  34  35
ATOM     35  O   UNL A   1      43.110  35.498  31.740  1.00  0.00    -0.460 OA
BRANCH  35  36
ATOM     36  C   UNL A   1      43.521  35.083  30.524  1.00  0.00     0.338 C 
ATOM     37  O   UNL A   1      43.308  35.636  29.456  1.00  0.00    -0.246 OA
BRANCH  36  38
ATOM     38  C   UNL A   1      44.471  33.968  30.717  1.00  0.00     0.060 A 
ATOM     39  C   UNL A   1      44.207  32.750  30.078  1.00  0.00     0.016 A 
ATOM     40  C   UNL A   1      45.616  34.121  31.503  1.00  0.00     0.016 A 
ATOM     41  C   UNL A   1      45.066  31.668  30.254  1.00  0.00     0.010 A 
ATOM     42  C   UNL A   1      46.461  33.024  31.704  1.00  0.00     0.010 A 
ATOM     43  C   UNL A   1      46.167  31.783  31.109  1.00  0.00    -0.014 A 
BRANCH  43  44
ATOM     44  C   UNL A   1      46.878  30.554  31.532  1.00  0.00     0.031 A 
ATOM     45  C   UNL A   1      48.117  30.151  30.781  1.00  0.00     0.074 A 
ATOM     46  C   UNL A   1      46.453  29.825  32.577  1.00  0.00     0.049 A 
ATOM     47  N   UNL A   1      48.905  29.127  30.971  1.00  0.00    -0.248 NA
ATOM     48  C   UNL A   1      48.521  31.023  29.666  1.00  0.00     0.031 C 
ATOM     49  C   UNL A   1      45.274  30.118  33.389  1.00  0.00     0.029 A 
ATOM     50  N   UNL A   1      46.959  28.669  33.118  1.00  0.00    -0.354 N 
ATOM     51  C   UNL A   1      49.874  29.207  29.979  1.00  0.00     0.074 A 
ATOM     52  C   UNL A   1      49.573  30.378  29.186  1.00  0.00     0.031 C 
ATOM     53  C   UNL A   1      45.126  29.145  34.304  1.00  0.00     0.029 A 
ATOM     54  C   UNL A   1      46.183  28.150  34.126  1.00  0.00     0.049 A 
ATOM     55  H   UNL A   1      47.797  28.252  32.812  1.00  0.00     0.167 HD
ATOM     56  C   UNL A   1      50.924  28.384  29.750  1.00  0.00     0.034 A 
ATOM     57  C   UNL A   1      46.297  26.991  34.804  1.00  0.00     0.034 A 
ATOM     58  C   UNL A   1      51.226  27.225  30.546  1.00  0.00     0.049 A 
ATOM     59  C   UNL A   1      47.460  26.078  34.519  1.00  0.00     0.074 A 
ATOM     60  C   UNL A   1      52.302  26.364  30.435  1.00  0.00     0.029 A 
ATOM     61  N   UNL A   1      50.435  26.745  31.579  1.00  0.00    -0.354 N 
ATOM     62  N   UNL A   1      48.441  26.230  33.662  1.00  0.00    -0.248 NA
ATOM     63  C   UNL A   1      47.552  24.847  35.319  1.00  0.00     0.031 C 
ATOM     64  C   UNL A   1      52.135  25.334  31.367  1.00  0.00     0.029 A 
ATOM     65  C   UNL A   1      50.984  25.584  32.095  1.00  0.00     0.049 A 
ATOM     66  H   UNL A   1      49.606  27.170  31.898  1.00  0.00     0.167 HD
ATOM     67  C   UNL A   1      49.280  25.134  33.838  1.00  0.00     0.074 A 
ATOM     68  C   UNL A   1      48.703  24.338  34.901  1.00  0.00     0.031 C 
ATOM     69  C   UNL A   1      50.420  24.814  33.176  1.00  0.00     0.034 A 
BRANCH  56  70
ATOM     70  C   UNL A   1      51.816  28.704  28.580  1.00  0.00     0.023 A 
ATOM     71  C   UNL A   1      51.512  28.205  27.297  1.00  0.00     0.012 A 
ATOM     72  C   UNL A   1      52.944  29.531  28.751  1.00  0.00     0.148 A 
ATOM     73  C   UNL A   1      52.340  28.491  26.211  1.00  0.00     0.002 A 
ATOM     74  C   UNL A   1      53.735  29.853  27.655  1.00  0.00     0.091 A 
ATOM     75  F   UNL A   1      53.231  29.974  29.983  1.00  0.00    -0.205 F 
ATOM     76  C   UNL A   1      53.443  29.322  26.388  1.00  0.00     0.022 A 
BRANCH  74  77
ATOM     77  S   UNL A   1      55.127  30.980  27.766  1.00  0.00     0.127 S 
ATOM     78  O   UNL A   1      55.616  30.981  26.389  1.00  0.00    -0.237 OA
ATOM     79  O   UNL A   1      54.481  32.224  28.185  1.00  0.00    -0.237 OA
ATOM     80  O   UNL A   1      56.033  30.405  28.750  1.00  0.00    -0.744 OA
ENDBRANCH  74  77
ENDBRANCH  56  70
BRANCH  57  81
ATOM     81  C   UNL A   1      45.274  26.634  35.827  1.00  0.00     0.023 A 
ATOM     82  C   UNL A   1      45.544  26.838  37.194  1.00  0.00     0.012 A 
ATOM     83  C   UNL A   1      44.020  26.120  35.440  1.00  0.00     0.148 A 
ATOM     84  C   UNL A   1      44.590  26.514  38.160  1.00  0.00     0.002 A 
ATOM     85  C   UNL A   1      43.054  25.856  36.403  1.00  0.00     0.091 A 
ATOM     86  F   UNL A   1      43.793  25.920  34.135  1.00  0.00    -0.205 F 
ATOM     87  C   UNL A   1      43.343  26.035  37.764  1.00  0.00     0.022 A 
BRANCH  85  88
ATOM     88  S   UNL A   1      41.381  25.359  35.979  1.00  0.00     0.127 S 
ATOM     89  O   UNL A   1      40.693  25.498  37.260  1.00  0.00    -0.237 OA
ATOM     90  O   UNL A   1      41.020  26.361  34.975  1.00  0.00    -0.237 OA
ATOM     91  O   UNL A   1      41.487  24.000  35.467  1.00  0.00    -0.744 OA
ENDBRANCH  85  88
ENDBRANCH  57  81
BRANCH  69  92
ATOM     92  C   UNL A   1      51.150  23.563  33.598  1.00  0.00     0.023 A 
ATOM     93  C   UNL A   1      50.711  22.301  33.148  1.00  0.00     0.012 A 
ATOM     94  C   UNL A   1      52.315  23.646  34.386  1.00  0.00     0.148 A 
ATOM     95  C   UNL A   1      51.397  21.141  33.510  1.00  0.00     0.002 A 
ATOM     96  C   UNL A   1      53.024  22.491  34.697  1.00  0.00     0.091 A 
ATOM     97  F   UNL A   1      52.710  24.853  34.817  1.00  0.00    -0.205 F 
ATOM     98  C   UNL A   1      52.557  21.237  34.273  1.00  0.00     0.022 A 
BRANCH  96  99
ATOM     99  S   UNL A   1      54.582  22.527  35.591  1.00  0.00     0.127 S 
ATOM    100  O   UNL A   1      55.383  23.420  34.757  1.00  0.00    -0.237 OA
ATOM    101  O   UNL A   1      54.184  23.090  36.882  1.00  0.00    -0.237 OA
ATOM    102  O   UNL A   1      55.044  21.146  35.649  1.00  0.00    -0.744 OA
ENDBRANCH  96  99
ENDBRANCH  69  92
ENDBRANCH  43  44
ENDBRANCH  36  38
ENDBRANCH  35  36
ENDBRANCH  34  35
ENDBRANCH  33  34
ENDBRANCH  32  33
ENDBRANCH  31  32
ENDBRANCH  30  31
ENDBRANCH  29  30
ENDBRANCH   1  29
TORSDOF 30
ENDMDL
