MODEL 1
REMARK VINA RESULT:     -11.0      0.000      0.000
REMARK SMILES Cc1ccccc1-c1c(Cl)ccc2c1C=C(C(=O)OCCOCCOCCOCCOC(=O)c1ccc(-c3c4nc(c(-c5cccc(S(=O)(=O)[O-])c5F)c5ccc([nH]5)c(-c5cccc(S(=O)(=O)[O-])c5F)c5nc(c(-c6cccc(S(=O)(=O)[O-])c6F)c6ccc3[nH]6)C=C5)C=C4)cc1)[C@@H](C(F)(F)F)O2
REMARK SMILES IDX 26 1 25 2 24 3 23 4 22 5 21 6 20 7 19 8 17 9 18 10 16 11
REMARK SMILES IDX 8 12 9 13 14 14 10 15 11 16 13 17 15 18 12 19 102 20 97 21
REMARK SMILES IDX 7 22 1 23 2 24 3 25 4 26 6 27 5 28 98 29 99 30 100 31 101 32
REMARK SMILES IDX 27 33 28 34 29 35 30 36 31 37 32 38 33 39 34 40 35 41 96 42
REMARK SMILES IDX 36 43 95 44 37 45 38 46 39 47 89 48 40 49 94 50 88 51 90 52
REMARK SMILES IDX 41 53 93 54 87 55 86 56 42 58 74 59 54 60 73 61 55 62 58 63
REMARK SMILES IDX 72 64 91 65 56 66 57 67 71 69 92 70 59 71 43 72 44 73 52 74
REMARK SMILES IDX 45 75 47 76 53 77 46 78 48 79 49 80 50 81 51 82 75 83 76 84
REMARK SMILES IDX 84 85 77 86 79 87 85 88 78 89 80 90 81 91 82 92 83 93 60 94
REMARK SMILES IDX 61 95 69 96 62 97 64 98 70 99 63 100 65 101 66 102 67 103
REMARK SMILES IDX 68 104
REMARK H PARENT 90 57 58 68
REMARK Flexibility Score: inf
ROOT
ATOM      1  C   UNL A   1      32.734  27.788  23.384  1.00  0.00     0.188 C 
ENDROOT
BRANCH   1   2
ATOM      2  O   UNL A   1      31.576  28.585  23.371  1.00  0.00    -0.377 OA
BRANCH   2   3
ATOM      3  C   UNL A   1      30.352  27.936  23.108  1.00  0.00     0.188 C 
BRANCH   3   4
ATOM      4  C   UNL A   1      30.391  26.422  22.874  1.00  0.00     0.188 C 
BRANCH   4   5
ATOM      5  O   UNL A   1      30.109  25.432  23.856  1.00  0.00    -0.376 OA
BRANCH   5   6
ATOM      6  C   UNL A   1      30.074  25.719  25.241  1.00  0.00     0.202 C 
BRANCH   6   7
ATOM      7  C   UNL A   1      30.417  24.608  26.228  1.00  0.00     0.261 C 
BRANCH   7   8
ATOM      8  O   UNL A   1      31.673  23.990  25.994  1.00  0.00    -0.460 OA
BRANCH   8   9
ATOM      9  C   UNL A   1      31.538  22.681  26.036  1.00  0.00     0.338 C 
ATOM     10  O   UNL A   1      30.590  22.040  25.612  1.00  0.00    -0.246 OA
BRANCH   9  11
ATOM     11  C   UNL A   1      32.868  22.108  26.431  1.00  0.00     0.087 C 
ATOM     12  C   UNL A   1      32.888  19.491  23.964  1.00  0.00     0.012 A 
ATOM     13  C   UNL A   1      32.302  19.603  22.688  1.00  0.00     0.049 A 
ATOM     14  C   UNL A   1      33.175  20.703  24.616  1.00  0.00     0.027 A 
ATOM     15  Cl  UNL A   1      31.845  18.206  21.777  1.00  0.00    -0.084 Cl
ATOM     16  C   UNL A   1      32.045  20.861  22.116  1.00  0.00     0.025 A 
ATOM     17  C   UNL A   1      33.244  21.914  23.898  1.00  0.00     0.128 A 
ATOM     18  C   UNL A   1      33.180  20.837  26.092  1.00  0.00     0.028 C 
ATOM     19  C   UNL A   1      32.570  22.017  22.693  1.00  0.00     0.049 A 
ATOM     20  O   UNL A   1      33.854  23.046  24.429  1.00  0.00    -0.475 OA
ATOM     21  C   UNL A   1      33.811  23.148  25.889  1.00  0.00     0.316 C 
BRANCH  12  22
ATOM     22  C   UNL A   1      33.371  18.203  24.520  1.00  0.00    -0.013 A 
ATOM     23  C   UNL A   1      35.862  18.777  24.415  1.00  0.00     0.045 C 
ATOM     24  C   UNL A   1      34.722  17.854  24.721  1.00  0.00    -0.043 A 
ATOM     25  C   UNL A   1      35.049  16.564  25.187  1.00  0.00     0.004 A 
ATOM     26  C   UNL A   1      34.061  15.629  25.481  1.00  0.00     0.000 A 
ATOM     27  C   UNL A   1      32.390  17.233  24.826  1.00  0.00     0.009 A 
ATOM     28  C   UNL A   1      32.727  15.965  25.305  1.00  0.00     0.001 A 
ENDBRANCH  12  22
BRANCH  21  29
ATOM     29  C   UNL A   1      35.151  23.111  26.603  1.00  0.00     0.430 C 
ATOM     30  F   UNL A   1      34.996  22.877  27.925  1.00  0.00    -0.167 F 
ATOM     31  F   UNL A   1      35.924  22.098  26.122  1.00  0.00    -0.167 F 
ATOM     32  F   UNL A   1      35.856  24.252  26.459  1.00  0.00    -0.167 F 
ENDBRANCH  21  29
ENDBRANCH   9  11
ENDBRANCH   8   9
ENDBRANCH   7   8
ENDBRANCH   6   7
ENDBRANCH   5   6
ENDBRANCH   4   5
ENDBRANCH   3   4
ENDBRANCH   2   3
ENDBRANCH   1   2
BRANCH   1  33
ATOM     33  C   UNL A   1      33.680  27.833  24.617  1.00  0.00     0.188 C 
BRANCH  33  34
ATOM     34  O   UNL A   1      33.614  28.964  25.439  1.00  0.00    -0.376 OA
BRANCH  34  35
ATOM     35  C   UNL A   1      34.063  28.628  26.729  1.00  0.00     0.202 C 
BRANCH  35  36
ATOM     36  C   UNL A   1      35.299  29.395  27.343  1.00  0.00     0.261 C 
BRANCH  36  37
ATOM     37  O   UNL A   1      35.422  30.923  27.753  1.00  0.00    -0.460 OA
BRANCH  37  38
ATOM     38  C   UNL A   1      35.468  32.227  28.141  1.00  0.00     0.338 C 
ATOM     39  O   UNL A   1      34.851  33.028  27.432  1.00  0.00    -0.246 OA
BRANCH  38  40
ATOM     40  C   UNL A   1      36.315  32.867  29.269  1.00  0.00     0.060 A 
ATOM     41  C   UNL A   1      37.517  33.500  28.986  1.00  0.00     0.016 A 
ATOM     42  C   UNL A   1      36.120  32.798  30.625  1.00  0.00     0.016 A 
ATOM     43  C   UNL A   1      38.639  33.294  29.822  1.00  0.00     0.010 A 
ATOM     44  C   UNL A   1      37.218  32.406  31.399  1.00  0.00     0.010 A 
ATOM     45  C   UNL A   1      38.511  32.428  30.875  1.00  0.00    -0.014 A 
BRANCH  45  46
ATOM     46  C   UNL A   1      39.547  31.507  31.453  1.00  0.00     0.031 A 
ATOM     47  C   UNL A   1      39.680  30.154  30.686  1.00  0.00     0.074 A 
ATOM     48  C   UNL A   1      40.525  32.132  32.216  1.00  0.00     0.049 A 
ATOM     49  N   UNL A   1      40.540  29.198  30.848  1.00  0.00    -0.248 NA
ATOM     50  C   UNL A   1      38.756  29.789  29.590  1.00  0.00     0.031 C 
ATOM     51  C   UNL A   1      41.972  32.159  32.034  1.00  0.00     0.029 A 
ATOM     52  N   UNL A   1      40.469  33.063  33.261  1.00  0.00    -0.354 N 
ATOM     53  C   UNL A   1      40.535  28.355  29.706  1.00  0.00     0.074 A 
ATOM     54  C   UNL A   1      39.357  28.752  28.990  1.00  0.00     0.031 C 
ATOM     55  C   UNL A   1      42.679  32.775  32.975  1.00  0.00     0.029 A 
ATOM     56  C   UNL A   1      41.726  33.157  33.934  1.00  0.00     0.049 A 
ATOM     57  H   UNL A   1      39.668  33.583  33.500  1.00  0.00     0.167 HD
ATOM     58  C   UNL A   1      41.600  27.522  29.417  1.00  0.00     0.034 A 
ATOM     59  C   UNL A   1      41.951  32.757  35.210  1.00  0.00     0.034 A 
ATOM     60  C   UNL A   1      42.595  27.561  30.519  1.00  0.00     0.049 A 
ATOM     61  C   UNL A   1      42.346  31.271  35.333  1.00  0.00     0.074 A 
ATOM     62  C   UNL A   1      43.962  27.792  30.582  1.00  0.00     0.029 A 
ATOM     63  N   UNL A   1      42.165  27.546  31.843  1.00  0.00    -0.354 N 
ATOM     64  N   UNL A   1      42.587  30.430  34.340  1.00  0.00    -0.248 NA
ATOM     65  C   UNL A   1      42.588  30.644  36.632  1.00  0.00     0.031 C 
ATOM     66  C   UNL A   1      44.283  28.138  31.917  1.00  0.00     0.029 A 
ATOM     67  C   UNL A   1      43.141  28.035  32.691  1.00  0.00     0.049 A 
ATOM     68  H   UNL A   1      41.281  27.228  32.137  1.00  0.00     0.167 HD
ATOM     69  C   UNL A   1      42.824  29.161  34.843  1.00  0.00     0.074 A 
ATOM     70  C   UNL A   1      42.899  29.385  36.279  1.00  0.00     0.031 C 
ATOM     71  C   UNL A   1      42.932  27.989  34.125  1.00  0.00     0.034 A 
BRANCH  58  72
ATOM     72  C   UNL A   1      41.978  26.781  28.069  1.00  0.00     0.023 A 
ATOM     73  C   UNL A   1      42.093  27.606  26.910  1.00  0.00     0.012 A 
ATOM     74  C   UNL A   1      42.170  25.396  27.800  1.00  0.00     0.148 A 
ATOM     75  C   UNL A   1      42.270  27.132  25.600  1.00  0.00     0.002 A 
ATOM     76  C   UNL A   1      42.431  24.921  26.485  1.00  0.00     0.091 A 
ATOM     77  F   UNL A   1      42.097  24.511  28.797  1.00  0.00    -0.205 F 
ATOM     78  C   UNL A   1      42.445  25.784  25.385  1.00  0.00     0.022 A 
BRANCH  76  79
ATOM     79  S   UNL A   1      42.823  23.200  26.069  1.00  0.00     0.127 S 
ATOM     80  O   UNL A   1      43.260  23.302  24.674  1.00  0.00    -0.237 OA
ATOM     81  O   UNL A   1      43.899  22.890  27.011  1.00  0.00    -0.237 OA
ATOM     82  O   UNL A   1      41.594  22.444  26.268  1.00  0.00    -0.744 OA
ENDBRANCH  76  79
ENDBRANCH  58  72
BRANCH  59  83
ATOM     83  C   UNL A   1      41.228  33.735  36.093  1.00  0.00     0.023 A 
ATOM     84  C   UNL A   1      41.551  35.100  35.781  1.00  0.00     0.012 A 
ATOM     85  C   UNL A   1      39.891  33.404  36.331  1.00  0.00     0.148 A 
ATOM     86  C   UNL A   1      40.556  35.985  35.348  1.00  0.00     0.002 A 
ATOM     87  C   UNL A   1      38.914  34.267  35.842  1.00  0.00     0.091 A 
ATOM     88  F   UNL A   1      39.611  32.157  36.730  1.00  0.00    -0.205 F 
ATOM     89  C   UNL A   1      39.244  35.541  35.323  1.00  0.00     0.022 A 
BRANCH  87  90
ATOM     90  S   UNL A   1      37.345  33.588  35.308  1.00  0.00     0.127 S 
ATOM     91  O   UNL A   1      36.572  33.502  36.538  1.00  0.00    -0.237 OA
ATOM     92  O   UNL A   1      36.919  34.648  34.402  1.00  0.00    -0.237 OA
ATOM     93  O   UNL A   1      37.663  32.321  34.665  1.00  0.00    -0.744 OA
ENDBRANCH  87  90
ENDBRANCH  59  83
BRANCH  71  94
ATOM     94  C   UNL A   1      42.851  26.577  34.717  1.00  0.00     0.023 A 
ATOM     95  C   UNL A   1      41.626  26.028  35.124  1.00  0.00     0.012 A 
ATOM     96  C   UNL A   1      43.967  25.682  34.688  1.00  0.00     0.148 A 
ATOM     97  C   UNL A   1      41.520  24.710  35.576  1.00  0.00     0.002 A 
ATOM     98  C   UNL A   1      43.825  24.336  35.003  1.00  0.00     0.091 A 
ATOM     99  F   UNL A   1      45.188  26.126  34.367  1.00  0.00    -0.205 F 
ATOM    100  C   UNL A   1      42.612  23.856  35.494  1.00  0.00     0.022 A 
BRANCH  98 101
ATOM    101  S   UNL A   1      45.113  23.126  34.650  1.00  0.00     0.127 S 
ATOM    102  O   UNL A   1      46.069  23.384  35.726  1.00  0.00    -0.237 OA
ATOM    103  O   UNL A   1      44.385  21.862  34.773  1.00  0.00    -0.237 OA
ATOM    104  O   UNL A   1      45.584  23.417  33.302  1.00  0.00    -0.744 OA
ENDBRANCH  98 101
ENDBRANCH  71  94
ENDBRANCH  45  46
ENDBRANCH  38  40
ENDBRANCH  37  38
ENDBRANCH  36  37
ENDBRANCH  35  36
ENDBRANCH  34  35
ENDBRANCH  33  34
ENDBRANCH   1  33
TORSDOF 25
ENDMDL
MODEL 2
REMARK VINA RESULT:     -10.9      4.265      8.292
REMARK SMILES Cc1ccccc1-c1c(Cl)ccc2c1C=C(C(=O)OCCOCCOCCOCCOC(=O)c1ccc(-c3c4nc(c(-c5cccc(S(=O)(=O)[O-])c5F)c5ccc([nH]5)c(-c5cccc(S(=O)(=O)[O-])c5F)c5nc(c(-c6cccc(S(=O)(=O)[O-])c6F)c6ccc3[nH]6)C=C5)C=C4)cc1)[C@@H](C(F)(F)F)O2
REMARK SMILES IDX 26 1 25 2 24 3 23 4 22 5 21 6 20 7 19 8 17 9 18 10 16 11
REMARK SMILES IDX 8 12 9 13 14 14 10 15 11 16 13 17 15 18 12 19 102 20 97 21
REMARK SMILES IDX 7 22 1 23 2 24 3 25 4 26 6 27 5 28 98 29 99 30 100 31 101 32
REMARK SMILES IDX 27 33 28 34 29 35 30 36 31 37 32 38 33 39 34 40 35 41 96 42
REMARK SMILES IDX 36 43 95 44 37 45 38 46 39 47 89 48 40 49 94 50 88 51 90 52
REMARK SMILES IDX 41 53 93 54 87 55 86 56 42 58 74 59 54 60 73 61 55 62 58 63
REMARK SMILES IDX 72 64 91 65 56 66 57 67 71 69 92 70 59 71 43 72 44 73 52 74
REMARK SMILES IDX 45 75 47 76 53 77 46 78 48 79 49 80 50 81 51 82 75 83 76 84
REMARK SMILES IDX 84 85 77 86 79 87 85 88 78 89 80 90 81 91 82 92 83 93 60 94
REMARK SMILES IDX 61 95 69 96 62 97 64 98 70 99 63 100 65 101 66 102 67 103
REMARK SMILES IDX 68 104
REMARK H PARENT 90 57 58 68
REMARK Flexibility Score: inf
ROOT
ATOM      1  C   UNL A   1      33.899  16.389  24.262  1.00  0.00     0.188 C 
ENDROOT
BRANCH   1   2
ATOM      2  O   UNL A   1      33.358  16.596  22.982  1.00  0.00    -0.377 OA
BRANCH   2   3
ATOM      3  C   UNL A   1      32.901  17.896  22.680  1.00  0.00     0.188 C 
BRANCH   3   4
ATOM      4  C   UNL A   1      32.245  18.695  23.811  1.00  0.00     0.188 C 
BRANCH   4   5
ATOM      5  O   UNL A   1      32.088  20.108  23.833  1.00  0.00    -0.376 OA
BRANCH   5   6
ATOM      6  C   UNL A   1      32.090  20.896  22.658  1.00  0.00     0.202 C 
BRANCH   6   7
ATOM      7  C   UNL A   1      33.252  21.854  22.420  1.00  0.00     0.261 C 
BRANCH   7   8
ATOM      8  O   UNL A   1      33.948  22.229  23.599  1.00  0.00    -0.460 OA
BRANCH   8   9
ATOM      9  C   UNL A   1      34.093  23.537  23.631  1.00  0.00     0.338 C 
ATOM     10  O   UNL A   1      33.994  24.298  22.682  1.00  0.00    -0.246 OA
BRANCH   9  11
ATOM     11  C   UNL A   1      34.114  23.947  25.076  1.00  0.00     0.087 C 
ATOM     12  C   UNL A   1      31.619  26.519  24.763  1.00  0.00     0.012 A 
ATOM     13  C   UNL A   1      30.540  26.468  23.860  1.00  0.00     0.049 A 
ATOM     14  C   UNL A   1      32.225  25.288  25.066  1.00  0.00     0.027 A 
ATOM     15  Cl  UNL A   1      29.719  27.902  23.349  1.00  0.00    -0.084 Cl
ATOM     16  C   UNL A   1      30.102  25.246  23.321  1.00  0.00     0.025 A 
ATOM     17  C   UNL A   1      31.562  24.070  24.807  1.00  0.00     0.128 A 
ATOM     18  C   UNL A   1      33.655  25.167  25.434  1.00  0.00     0.028 C 
ATOM     19  C   UNL A   1      30.573  24.039  23.840  1.00  0.00     0.049 A 
ATOM     20  O   UNL A   1      31.966  22.878  25.398  1.00  0.00    -0.475 OA
ATOM     21  C   UNL A   1      33.391  22.795  25.721  1.00  0.00     0.316 C 
BRANCH  12  22
ATOM     22  C   UNL A   1      31.982  27.744  25.519  1.00  0.00    -0.013 A 
ATOM     23  C   UNL A   1      33.466  28.759  23.699  1.00  0.00     0.045 C 
ATOM     24  C   UNL A   1      32.831  28.770  25.057  1.00  0.00    -0.043 A 
ATOM     25  C   UNL A   1      33.155  29.846  25.907  1.00  0.00     0.004 A 
ATOM     26  C   UNL A   1      32.630  29.935  27.193  1.00  0.00     0.000 A 
ATOM     27  C   UNL A   1      31.465  27.861  26.829  1.00  0.00     0.009 A 
ATOM     28  C   UNL A   1      31.779  28.942  27.655  1.00  0.00     0.001 A 
ENDBRANCH  12  22
BRANCH  21  29
ATOM     29  C   UNL A   1      33.739  22.675  27.194  1.00  0.00     0.430 C 
ATOM     30  F   UNL A   1      32.788  23.239  27.972  1.00  0.00    -0.167 F 
ATOM     31  F   UNL A   1      33.812  21.367  27.566  1.00  0.00    -0.167 F 
ATOM     32  F   UNL A   1      34.924  23.241  27.503  1.00  0.00    -0.167 F 
ENDBRANCH  21  29
ENDBRANCH   9  11
ENDBRANCH   8   9
ENDBRANCH   7   8
ENDBRANCH   6   7
ENDBRANCH   5   6
ENDBRANCH   4   5
ENDBRANCH   3   4
ENDBRANCH   2   3
ENDBRANCH   1   2
BRANCH   1  33
ATOM     33  C   UNL A   1      34.707  17.529  24.945  1.00  0.00     0.188 C 
BRANCH  33  34
ATOM     34  O   UNL A   1      35.712  18.145  24.192  1.00  0.00    -0.376 OA
BRANCH  34  35
ATOM     35  C   UNL A   1      36.152  19.302  24.863  1.00  0.00     0.202 C 
BRANCH  35  36
ATOM     36  C   UNL A   1      37.689  19.665  24.854  1.00  0.00     0.261 C 
BRANCH  36  37
ATOM     37  O   UNL A   1      38.432  20.876  25.560  1.00  0.00    -0.460 OA
BRANCH  37  38
ATOM     38  C   UNL A   1      39.084  21.941  26.102  1.00  0.00     0.338 C 
ATOM     39  O   UNL A   1      38.470  23.013  26.102  1.00  0.00    -0.246 OA
BRANCH  38  40
ATOM     40  C   UNL A   1      40.552  22.028  26.586  1.00  0.00     0.060 A 
ATOM     41  C   UNL A   1      40.853  22.096  27.939  1.00  0.00     0.016 A 
ATOM     42  C   UNL A   1      41.689  22.188  25.836  1.00  0.00     0.016 A 
ATOM     43  C   UNL A   1      41.848  22.990  28.400  1.00  0.00     0.010 A 
ATOM     44  C   UNL A   1      42.558  23.215  26.222  1.00  0.00     0.010 A 
ATOM     45  C   UNL A   1      42.460  23.804  27.483  1.00  0.00    -0.014 A 
BRANCH  45  46
ATOM     46  C   UNL A   1      42.954  25.209  27.672  1.00  0.00     0.031 A 
ATOM     47  C   UNL A   1      44.510  25.335  27.640  1.00  0.00     0.074 A 
ATOM     48  C   UNL A   1      42.032  26.201  27.366  1.00  0.00     0.049 A 
ATOM     49  N   UNL A   1      45.250  26.400  27.659  1.00  0.00    -0.248 NA
ATOM     50  C   UNL A   1      45.384  24.144  27.575  1.00  0.00     0.031 C 
ATOM     51  C   UNL A   1      42.114  27.277  26.385  1.00  0.00     0.029 A 
ATOM     52  N   UNL A   1      40.693  26.401  27.725  1.00  0.00    -0.354 N 
ATOM     53  C   UNL A   1      46.563  26.074  27.230  1.00  0.00     0.074 A 
ATOM     54  C   UNL A   1      46.587  24.640  27.251  1.00  0.00     0.031 C 
ATOM     55  C   UNL A   1      41.105  28.141  26.363  1.00  0.00     0.029 A 
ATOM     56  C   UNL A   1      40.273  27.732  27.419  1.00  0.00     0.049 A 
ATOM     57  H   UNL A   1      40.118  25.715  28.135  1.00  0.00     0.167 HD
ATOM     58  C   UNL A   1      47.433  27.043  26.765  1.00  0.00     0.034 A 
ATOM     59  C   UNL A   1      39.954  28.673  28.342  1.00  0.00     0.034 A 
ATOM     60  C   UNL A   1      46.835  28.392  26.933  1.00  0.00     0.049 A 
ATOM     61  C   UNL A   1      41.162  29.498  28.830  1.00  0.00     0.074 A 
ATOM     62  C   UNL A   1      46.615  29.466  26.082  1.00  0.00     0.029 A 
ATOM     63  N   UNL A   1      46.157  28.710  28.106  1.00  0.00    -0.354 N 
ATOM     64  N   UNL A   1      42.399  29.446  28.361  1.00  0.00    -0.248 NA
ATOM     65  C   UNL A   1      41.026  30.531  29.856  1.00  0.00     0.031 C 
ATOM     66  C   UNL A   1      45.628  30.293  26.672  1.00  0.00     0.029 A 
ATOM     67  C   UNL A   1      45.306  29.783  27.917  1.00  0.00     0.049 A 
ATOM     68  H   UNL A   1      46.269  28.233  28.960  1.00  0.00     0.167 HD
ATOM     69  C   UNL A   1      43.223  30.268  29.112  1.00  0.00     0.074 A 
ATOM     70  C   UNL A   1      42.286  30.982  29.967  1.00  0.00     0.031 C 
ATOM     71  C   UNL A   1      44.598  30.345  29.051  1.00  0.00     0.034 A 
BRANCH  58  72
ATOM     72  C   UNL A   1      48.769  26.896  25.927  1.00  0.00     0.023 A 
ATOM     73  C   UNL A   1      49.899  26.384  26.632  1.00  0.00     0.012 A 
ATOM     74  C   UNL A   1      49.056  27.250  24.578  1.00  0.00     0.148 A 
ATOM     75  C   UNL A   1      51.205  26.318  26.119  1.00  0.00     0.002 A 
ATOM     76  C   UNL A   1      50.361  27.108  24.031  1.00  0.00     0.091 A 
ATOM     77  F   UNL A   1      48.086  27.738  23.800  1.00  0.00    -0.205 F 
ATOM     78  C   UNL A   1      51.438  26.676  24.811  1.00  0.00     0.022 A 
BRANCH  76  79
ATOM     79  S   UNL A   1      50.789  27.401  22.294  1.00  0.00     0.127 S 
ATOM     80  O   UNL A   1      50.779  28.863  22.207  1.00  0.00    -0.237 OA
ATOM     81  O   UNL A   1      52.122  26.806  22.197  1.00  0.00    -0.237 OA
ATOM     82  O   UNL A   1      49.760  26.737  21.504  1.00  0.00    -0.744 OA
ENDBRANCH  76  79
ENDBRANCH  58  72
BRANCH  59  83
ATOM     83  C   UNL A   1      38.654  28.237  28.957  1.00  0.00     0.023 A 
ATOM     84  C   UNL A   1      38.831  27.651  30.258  1.00  0.00     0.012 A 
ATOM     85  C   UNL A   1      37.605  29.142  28.771  1.00  0.00     0.148 A 
ATOM     86  C   UNL A   1      38.243  28.236  31.386  1.00  0.00     0.002 A 
ATOM     87  C   UNL A   1      37.072  29.756  29.901  1.00  0.00     0.091 A 
ATOM     88  F   UNL A   1      37.377  29.597  27.532  1.00  0.00    -0.205 F 
ATOM     89  C   UNL A   1      37.412  29.329  31.206  1.00  0.00     0.022 A 
BRANCH  87  90
ATOM     90  S   UNL A   1      36.447  31.429  29.765  1.00  0.00     0.127 S 
ATOM     91  O   UNL A   1      35.348  31.309  28.818  1.00  0.00    -0.237 OA
ATOM     92  O   UNL A   1      36.030  31.645  31.146  1.00  0.00    -0.237 OA
ATOM     93  O   UNL A   1      37.577  32.239  29.331  1.00  0.00    -0.744 OA
ENDBRANCH  87  90
ENDBRANCH  59  83
BRANCH  71  94
ATOM     94  C   UNL A   1      45.497  30.995  30.110  1.00  0.00     0.023 A 
ATOM     95  C   UNL A   1      46.004  32.292  29.935  1.00  0.00     0.012 A 
ATOM     96  C   UNL A   1      45.686  30.410  31.401  1.00  0.00     0.148 A 
ATOM     97  C   UNL A   1      46.744  32.935  30.932  1.00  0.00     0.002 A 
ATOM     98  C   UNL A   1      46.298  31.111  32.433  1.00  0.00     0.091 A 
ATOM     99  F   UNL A   1      45.285  29.156  31.645  1.00  0.00    -0.205 F 
ATOM    100  C   UNL A   1      46.871  32.357  32.188  1.00  0.00     0.022 A 
BRANCH  98 101
ATOM    101  S   UNL A   1      46.246  30.544  34.143  1.00  0.00     0.127 S 
ATOM    102  O   UNL A   1      46.692  31.733  34.867  1.00  0.00    -0.237 OA
ATOM    103  O   UNL A   1      44.828  30.224  34.314  1.00  0.00    -0.237 OA
ATOM    104  O   UNL A   1      47.132  29.390  34.213  1.00  0.00    -0.744 OA
ENDBRANCH  98 101
ENDBRANCH  71  94
ENDBRANCH  45  46
ENDBRANCH  38  40
ENDBRANCH  37  38
ENDBRANCH  36  37
ENDBRANCH  35  36
ENDBRANCH  34  35
ENDBRANCH  33  34
ENDBRANCH   1  33
TORSDOF 25
ENDMDL
MODEL 3
REMARK VINA RESULT:     -10.8      1.787      2.115
REMARK SMILES Cc1ccccc1-c1c(Cl)ccc2c1C=C(C(=O)OCCOCCOCCOCCOC(=O)c1ccc(-c3c4nc(c(-c5cccc(S(=O)(=O)[O-])c5F)c5ccc([nH]5)c(-c5cccc(S(=O)(=O)[O-])c5F)c5nc(c(-c6cccc(S(=O)(=O)[O-])c6F)c6ccc3[nH]6)C=C5)C=C4)cc1)[C@@H](C(F)(F)F)O2
REMARK SMILES IDX 26 1 25 2 24 3 23 4 22 5 21 6 20 7 19 8 17 9 18 10 16 11
REMARK SMILES IDX 8 12 9 13 14 14 10 15 11 16 13 17 15 18 12 19 102 20 97 21
REMARK SMILES IDX 7 22 1 23 2 24 3 25 4 26 6 27 5 28 98 29 99 30 100 31 101 32
REMARK SMILES IDX 27 33 28 34 29 35 30 36 31 37 32 38 33 39 34 40 35 41 96 42
REMARK SMILES IDX 36 43 95 44 37 45 38 46 39 47 89 48 40 49 94 50 88 51 90 52
REMARK SMILES IDX 41 53 93 54 87 55 86 56 42 58 74 59 54 60 73 61 55 62 58 63
REMARK SMILES IDX 72 64 91 65 56 66 57 67 71 69 92 70 59 71 43 72 44 73 52 74
REMARK SMILES IDX 45 75 47 76 53 77 46 78 48 79 49 80 50 81 51 82 75 83 76 84
REMARK SMILES IDX 84 85 77 86 79 87 85 88 78 89 80 90 81 91 82 92 83 93 60 94
REMARK SMILES IDX 61 95 69 96 62 97 64 98 70 99 63 100 65 101 66 102 67 103
REMARK SMILES IDX 68 104
REMARK H PARENT 90 57 58 68
REMARK Flexibility Score: inf
ROOT
ATOM      1  C   UNL A   1      32.117  28.946  23.091  1.00  0.00     0.188 C 
ENDROOT
BRANCH   1   2
ATOM      2  O   UNL A   1      30.744  28.987  23.385  1.00  0.00    -0.377 OA
BRANCH   2   3
ATOM      3  C   UNL A   1      29.984  27.843  23.063  1.00  0.00     0.188 C 
BRANCH   3   4
ATOM      4  C   UNL A   1      30.701  26.489  23.085  1.00  0.00     0.188 C 
BRANCH   4   5
ATOM      5  O   UNL A   1      30.356  25.393  23.923  1.00  0.00    -0.376 OA
BRANCH   5   6
ATOM      6  C   UNL A   1      29.981  25.554  25.278  1.00  0.00     0.202 C 
BRANCH   6   7
ATOM      7  C   UNL A   1      30.514  24.566  26.309  1.00  0.00     0.261 C 
BRANCH   7   8
ATOM      8  O   UNL A   1      31.698  23.892  25.911  1.00  0.00    -0.460 OA
BRANCH   8   9
ATOM      9  C   UNL A   1      31.534  22.592  26.043  1.00  0.00     0.338 C 
ATOM     10  O   UNL A   1      30.562  21.948  25.684  1.00  0.00    -0.246 OA
BRANCH   9  11
ATOM     11  C   UNL A   1      32.861  22.014  26.443  1.00  0.00     0.087 C 
ATOM     12  C   UNL A   1      32.890  19.412  23.960  1.00  0.00     0.012 A 
ATOM     13  C   UNL A   1      32.312  19.532  22.681  1.00  0.00     0.049 A 
ATOM     14  C   UNL A   1      33.176  20.618  24.621  1.00  0.00     0.027 A 
ATOM     15  Cl  UNL A   1      31.859  18.141  21.759  1.00  0.00    -0.084 Cl
ATOM     16  C   UNL A   1      32.062  20.794  22.115  1.00  0.00     0.025 A 
ATOM     17  C   UNL A   1      33.252  21.834  23.910  1.00  0.00     0.128 A 
ATOM     18  C   UNL A   1      33.172  20.744  26.097  1.00  0.00     0.028 C 
ATOM     19  C   UNL A   1      32.586  21.946  22.702  1.00  0.00     0.049 A 
ATOM     20  O   UNL A   1      33.861  22.961  24.452  1.00  0.00    -0.475 OA
ATOM     21  C   UNL A   1      33.810  23.054  25.912  1.00  0.00     0.316 C 
BRANCH  12  22
ATOM     22  C   UNL A   1      33.367  18.119  24.511  1.00  0.00    -0.013 A 
ATOM     23  C   UNL A   1      35.861  18.683  24.415  1.00  0.00     0.045 C 
ATOM     24  C   UNL A   1      34.716  17.763  24.714  1.00  0.00    -0.043 A 
ATOM     25  C   UNL A   1      35.037  16.471  25.175  1.00  0.00     0.004 A 
ATOM     26  C   UNL A   1      34.044  15.538  25.462  1.00  0.00     0.000 A 
ATOM     27  C   UNL A   1      32.382  17.151  24.811  1.00  0.00     0.009 A 
ATOM     28  C   UNL A   1      32.712  15.880  25.284  1.00  0.00     0.001 A 
ENDBRANCH  12  22
BRANCH  21  29
ATOM     29  C   UNL A   1      35.144  23.010  26.634  1.00  0.00     0.430 C 
ATOM     30  F   UNL A   1      34.977  22.964  27.975  1.00  0.00    -0.167 F 
ATOM     31  F   UNL A   1      35.837  21.888  26.296  1.00  0.00    -0.167 F 
ATOM     32  F   UNL A   1      35.934  24.065  26.346  1.00  0.00    -0.167 F 
ENDBRANCH  21  29
ENDBRANCH   9  11
ENDBRANCH   8   9
ENDBRANCH   7   8
ENDBRANCH   6   7
ENDBRANCH   5   6
ENDBRANCH   4   5
ENDBRANCH   3   4
ENDBRANCH   2   3
ENDBRANCH   1   2
BRANCH   1  33
ATOM     33  C   UNL A   1      33.137  28.688  24.237  1.00  0.00     0.188 C 
BRANCH  33  34
ATOM     34  O   UNL A   1      32.622  28.396  25.504  1.00  0.00    -0.376 OA
BRANCH  34  35
ATOM     35  C   UNL A   1      33.664  27.947  26.337  1.00  0.00     0.202 C 
BRANCH  35  36
ATOM     36  C   UNL A   1      34.609  29.004  27.033  1.00  0.00     0.261 C 
BRANCH  36  37
ATOM     37  O   UNL A   1      34.291  30.500  27.457  1.00  0.00    -0.460 OA
BRANCH  37  38
ATOM     38  C   UNL A   1      33.970  31.759  27.865  1.00  0.00     0.338 C 
ATOM     39  O   UNL A   1      32.996  32.278  27.310  1.00  0.00    -0.246 OA
BRANCH  38  40
ATOM     40  C   UNL A   1      34.750  32.688  28.825  1.00  0.00     0.060 A 
ATOM     41  C   UNL A   1      35.821  33.445  28.371  1.00  0.00     0.016 A 
ATOM     42  C   UNL A   1      34.629  32.803  30.187  1.00  0.00     0.016 A 
ATOM     43  C   UNL A   1      36.998  33.546  29.149  1.00  0.00     0.010 A 
ATOM     44  C   UNL A   1      35.809  32.709  30.933  1.00  0.00     0.010 A 
ATOM     45  C   UNL A   1      37.058  32.846  30.325  1.00  0.00    -0.014 A 
BRANCH  45  46
ATOM     46  C   UNL A   1      38.253  32.196  30.961  1.00  0.00     0.031 A 
ATOM     47  C   UNL A   1      38.725  30.901  30.227  1.00  0.00     0.074 A 
ATOM     48  C   UNL A   1      39.029  33.038  31.747  1.00  0.00     0.049 A 
ATOM     49  N   UNL A   1      39.775  30.171  30.441  1.00  0.00    -0.248 NA
ATOM     50  C   UNL A   1      37.956  30.320  29.105  1.00  0.00     0.031 C 
ATOM     51  C   UNL A   1      40.437  33.396  31.618  1.00  0.00     0.029 A 
ATOM     52  N   UNL A   1      38.717  33.943  32.769  1.00  0.00    -0.354 N 
ATOM     53  C   UNL A   1      40.011  29.337  29.317  1.00  0.00     0.074 A 
ATOM     54  C   UNL A   1      38.804  29.443  28.549  1.00  0.00     0.031 C 
ATOM     55  C   UNL A   1      40.944  34.169  32.572  1.00  0.00     0.029 A 
ATOM     56  C   UNL A   1      39.889  34.332  33.486  1.00  0.00     0.049 A 
ATOM     57  H   UNL A   1      37.809  34.267  32.967  1.00  0.00     0.167 HD
ATOM     58  C   UNL A   1      41.250  28.768  29.085  1.00  0.00     0.034 A 
ATOM     59  C   UNL A   1      40.149  34.009  34.778  1.00  0.00     0.034 A 
ATOM     60  C   UNL A   1      42.163  29.048  30.223  1.00  0.00     0.049 A 
ATOM     61  C   UNL A   1      40.869  32.656  34.947  1.00  0.00     0.074 A 
ATOM     62  C   UNL A   1      43.436  29.590  30.332  1.00  0.00     0.029 A 
ATOM     63  N   UNL A   1      41.694  28.950  31.530  1.00  0.00    -0.354 N 
ATOM     64  N   UNL A   1      41.337  31.882  33.981  1.00  0.00    -0.248 NA
ATOM     65  C   UNL A   1      41.195  32.116  36.266  1.00  0.00     0.031 C 
ATOM     66  C   UNL A   1      43.614  30.015  31.671  1.00  0.00     0.029 A 
ATOM     67  C   UNL A   1      42.495  29.660  32.404  1.00  0.00     0.049 A 
ATOM     68  H   UNL A   1      40.895  28.439  31.798  1.00  0.00     0.167 HD
ATOM     69  C   UNL A   1      41.839  30.708  34.519  1.00  0.00     0.074 A 
ATOM     70  C   UNL A   1      41.802  30.960  35.951  1.00  0.00     0.031 C 
ATOM     71  C   UNL A   1      42.244  29.584  33.829  1.00  0.00     0.034 A 
BRANCH  58  72
ATOM     72  C   UNL A   1      41.844  28.119  27.768  1.00  0.00     0.023 A 
ATOM     73  C   UNL A   1      41.741  28.904  26.580  1.00  0.00     0.012 A 
ATOM     74  C   UNL A   1      42.422  26.836  27.551  1.00  0.00     0.148 A 
ATOM     75  C   UNL A   1      42.066  28.455  25.289  1.00  0.00     0.002 A 
ATOM     76  C   UNL A   1      42.828  26.410  26.257  1.00  0.00     0.091 A 
ATOM     77  F   UNL A   1      42.583  26.000  28.580  1.00  0.00    -0.205 F 
ATOM     78  C   UNL A   1      42.617  27.205  25.125  1.00  0.00     0.022 A 
BRANCH  76  79
ATOM     79  S   UNL A   1      43.694  24.856  25.907  1.00  0.00     0.127 S 
ATOM     80  O   UNL A   1      44.400  25.160  24.660  1.00  0.00    -0.237 OA
ATOM     81  O   UNL A   1      44.570  24.720  27.071  1.00  0.00    -0.237 OA
ATOM     82  O   UNL A   1      42.664  23.834  25.789  1.00  0.00    -0.744 OA
ENDBRANCH  76  79
ENDBRANCH  58  72
BRANCH  59  83
ATOM     83  C   UNL A   1      39.184  34.804  35.613  1.00  0.00     0.023 A 
ATOM     84  C   UNL A   1      38.242  33.971  36.308  1.00  0.00     0.012 A 
ATOM     85  C   UNL A   1      39.774  35.865  36.307  1.00  0.00     0.148 A 
ATOM     86  C   UNL A   1      38.198  33.962  37.707  1.00  0.00     0.002 A 
ATOM     87  C   UNL A   1      39.771  35.810  37.697  1.00  0.00     0.091 A 
ATOM     88  F   UNL A   1      40.563  36.704  35.623  1.00  0.00    -0.205 F 
ATOM     89  C   UNL A   1      39.013  34.843  38.399  1.00  0.00     0.022 A 
BRANCH  87  90
ATOM     90  S   UNL A   1      41.143  36.529  38.596  1.00  0.00     0.127 S 
ATOM     91  O   UNL A   1      40.576  37.735  39.180  1.00  0.00    -0.237 OA
ATOM     92  O   UNL A   1      41.394  35.458  39.553  1.00  0.00    -0.237 OA
ATOM     93  O   UNL A   1      42.197  36.732  37.611  1.00  0.00    -0.744 OA
ENDBRANCH  87  90
ENDBRANCH  59  83
BRANCH  71  94
ATOM     94  C   UNL A   1      42.466  28.199  34.447  1.00  0.00     0.023 A 
ATOM     95  C   UNL A   1      41.400  27.304  34.629  1.00  0.00     0.012 A 
ATOM     96  C   UNL A   1      43.778  27.673  34.670  1.00  0.00     0.148 A 
ATOM     97  C   UNL A   1      41.599  26.004  35.100  1.00  0.00     0.002 A 
ATOM     98  C   UNL A   1      43.977  26.338  35.000  1.00  0.00     0.091 A 
ATOM     99  F   UNL A   1      44.853  28.465  34.575  1.00  0.00    -0.205 F 
ATOM    100  C   UNL A   1      42.887  25.512  35.264  1.00  0.00     0.022 A 
BRANCH  98 101
ATOM    101  S   UNL A   1      45.607  25.570  34.951  1.00  0.00     0.127 S 
ATOM    102  O   UNL A   1      46.080  25.955  33.622  1.00  0.00    -0.237 OA
ATOM    103  O   UNL A   1      46.292  26.239  36.059  1.00  0.00    -0.237 OA
ATOM    104  O   UNL A   1      45.389  24.145  35.157  1.00  0.00    -0.744 OA
ENDBRANCH  98 101
ENDBRANCH  71  94
ENDBRANCH  45  46
ENDBRANCH  38  40
ENDBRANCH  37  38
ENDBRANCH  36  37
ENDBRANCH  35  36
ENDBRANCH  34  35
ENDBRANCH  33  34
ENDBRANCH   1  33
TORSDOF 25
ENDMDL
