MODEL 1
REMARK VINA RESULT:      -7.8      0.000      0.000
REMARK SMILES Cc1cccc(Nc2ccccc2C(=O)OCCOCCOCCOCCOC(=O)c2ccc(-c3c4nc(c(-c5cccc(S(=O)(=O)[O-])c5F)c5ccc([nH]5)c(-c5cccc(S(=O)(=O)[O-])c5F)c5nc(c(-c6cccc(S(=O)(=O)[O-])c6F)c6ccc3[nH]6)C=C5)C=C4)cc2)c1C
REMARK SMILES IDX 23 1 22 2 21 3 20 4 19 5 18 6 17 7 16 8 14 9 15 10 13 11
REMARK SMILES IDX 8 12 9 13 10 14 12 15 11 16 7 17 6 19 1 20 2 21 3 22 94 23
REMARK SMILES IDX 4 24 95 25 5 26 24 27 25 28 26 29 27 30 28 31 29 32 30 33
REMARK SMILES IDX 31 34 32 35 93 36 33 37 92 38 34 39 35 40 36 41 86 42 37 43
REMARK SMILES IDX 91 44 85 45 87 46 38 47 90 48 84 49 83 50 39 52 71 53 51 54
REMARK SMILES IDX 70 55 52 56 55 57 69 58 88 59 53 60 54 61 68 63 89 64 56 65
REMARK SMILES IDX 40 66 41 67 49 68 42 69 44 70 50 71 43 72 45 73 46 74 47 75
REMARK SMILES IDX 48 76 72 77 73 78 81 79 74 80 76 81 82 82 75 83 77 84 78 85
REMARK SMILES IDX 79 86 80 87 57 88 58 89 66 90 59 91 61 92 67 93 60 94 62 95
REMARK SMILES IDX 63 96 64 97 65 98
REMARK H PARENT 7 18 87 51 55 62
REMARK Flexibility Score: inf
ROOT
ATOM      1  C   UNL A   1      40.657  19.979  26.343  1.00  0.00     0.188 C 
ENDROOT
BRANCH   1   2
ATOM      2  O   UNL A   1      39.822  19.351  25.381  1.00  0.00    -0.377 OA
BRANCH   2   3
ATOM      3  C   UNL A   1      38.418  19.556  25.393  1.00  0.00     0.188 C 
BRANCH   3   4
ATOM      4  C   UNL A   1      37.784  20.908  24.980  1.00  0.00     0.188 C 
BRANCH   4   5
ATOM      5  O   UNL A   1      37.722  21.898  25.984  1.00  0.00    -0.376 OA
BRANCH   5   6
ATOM      6  C   UNL A   1      38.225  23.201  25.764  1.00  0.00     0.202 C 
BRANCH   6   7
ATOM      7  C   UNL A   1      38.731  24.093  26.901  1.00  0.00     0.261 C 
BRANCH   7   8
ATOM      8  O   UNL A   1      39.844  24.929  26.599  1.00  0.00    -0.460 OA
BRANCH   8   9
ATOM      9  C   UNL A   1      40.586  25.346  27.645  1.00  0.00     0.340 C 
ATOM     10  O   UNL A   1      41.050  24.633  28.524  1.00  0.00    -0.246 OA
BRANCH   9  11
ATOM     11  C   UNL A   1      40.959  26.776  27.472  1.00  0.00     0.083 A 
ATOM     12  C   UNL A   1      41.108  27.714  28.516  1.00  0.00     0.053 A 
ATOM     13  C   UNL A   1      41.395  29.046  28.149  1.00  0.00     0.027 A 
ATOM     14  C   UNL A   1      41.536  29.434  26.813  1.00  0.00     0.002 A 
ATOM     15  C   UNL A   1      41.102  27.175  26.126  1.00  0.00     0.018 A 
ATOM     16  C   UNL A   1      41.389  28.497  25.799  1.00  0.00     0.001 A 
BRANCH  12  17
ATOM     17  N   UNL A   1      41.103  27.445  29.902  1.00  0.00    -0.355 N 
ATOM     18  H   UNL A   1      41.607  26.637  30.153  1.00  0.00     0.167 HD
BRANCH  17  19
ATOM     19  C   UNL A   1      40.515  28.116  30.995  1.00  0.00     0.042 A 
ATOM     20  C   UNL A   1      37.692  30.566  31.729  1.00  0.00     0.044 C 
ATOM     21  C   UNL A   1      38.882  29.668  31.921  1.00  0.00    -0.046 A 
ATOM     22  C   UNL A   1      39.711  29.864  33.035  1.00  0.00     0.004 A 
ATOM     23  C   UNL A   1      39.231  28.699  30.951  1.00  0.00    -0.025 A 
ATOM     24  C   UNL A   1      40.899  29.153  33.165  1.00  0.00     0.002 A 
ATOM     25  C   UNL A   1      38.221  28.287  29.908  1.00  0.00     0.047 C 
ATOM     26  C   UNL A   1      41.316  28.319  32.132  1.00  0.00     0.026 A 
ENDBRANCH  17  19
ENDBRANCH  12  17
ENDBRANCH   9  11
ENDBRANCH   8   9
ENDBRANCH   7   8
ENDBRANCH   6   7
ENDBRANCH   5   6
ENDBRANCH   4   5
ENDBRANCH   3   4
ENDBRANCH   2   3
ENDBRANCH   1   2
BRANCH   1  27
ATOM     27  C   UNL A   1      42.182  20.060  26.121  1.00  0.00     0.188 C 
BRANCH  27  28
ATOM     28  O   UNL A   1      42.663  19.307  25.022  1.00  0.00    -0.376 OA
BRANCH  28  29
ATOM     29  C   UNL A   1      44.034  18.955  25.001  1.00  0.00     0.202 C 
BRANCH  29  30
ATOM     30  C   UNL A   1      44.982  19.757  24.097  1.00  0.00     0.261 C 
BRANCH  30  31
ATOM     31  O   UNL A   1      45.383  21.049  24.574  1.00  0.00    -0.460 OA
BRANCH  31  32
ATOM     32  C   UNL A   1      44.906  22.131  23.925  1.00  0.00     0.338 C 
ATOM     33  O   UNL A   1      44.429  22.166  22.801  1.00  0.00    -0.246 OA
BRANCH  32  34
ATOM     34  C   UNL A   1      44.875  23.244  24.893  1.00  0.00     0.060 A 
ATOM     35  C   UNL A   1      46.058  23.619  25.545  1.00  0.00     0.016 A 
ATOM     36  C   UNL A   1      43.682  23.928  25.134  1.00  0.00     0.016 A 
ATOM     37  C   UNL A   1      46.042  24.663  26.467  1.00  0.00     0.010 A 
ATOM     38  C   UNL A   1      43.663  24.955  26.077  1.00  0.00     0.010 A 
ATOM     39  C   UNL A   1      44.835  25.300  26.773  1.00  0.00    -0.014 A 
BRANCH  39  40
ATOM     40  C   UNL A   1      44.753  26.176  27.964  1.00  0.00     0.031 A 
ATOM     41  C   UNL A   1      44.845  27.662  27.756  1.00  0.00     0.074 A 
ATOM     42  C   UNL A   1      44.612  25.670  29.200  1.00  0.00     0.049 A 
ATOM     43  N   UNL A   1      44.847  28.624  28.640  1.00  0.00    -0.248 NA
ATOM     44  C   UNL A   1      44.955  28.121  26.362  1.00  0.00     0.031 C 
ATOM     45  C   UNL A   1      44.507  24.249  29.523  1.00  0.00     0.029 A 
ATOM     46  N   UNL A   1      44.567  26.302  30.416  1.00  0.00    -0.354 N 
ATOM     47  C   UNL A   1      45.003  29.799  27.914  1.00  0.00     0.074 A 
ATOM     48  C   UNL A   1      45.096  29.428  26.519  1.00  0.00     0.031 C 
ATOM     49  C   UNL A   1      44.450  24.114  30.860  1.00  0.00     0.029 A 
ATOM     50  C   UNL A   1      44.545  25.435  31.481  1.00  0.00     0.049 A 
ATOM     51  H   UNL A   1      44.553  27.281  30.516  1.00  0.00     0.167 HD
ATOM     52  C   UNL A   1      45.060  31.073  28.367  1.00  0.00     0.034 A 
ATOM     53  C   UNL A   1      44.631  25.678  32.803  1.00  0.00     0.034 A 
ATOM     54  C   UNL A   1      44.961  31.436  29.754  1.00  0.00     0.049 A 
ATOM     55  C   UNL A   1      44.717  27.101  33.290  1.00  0.00     0.074 A 
ATOM     56  C   UNL A   1      44.940  32.701  30.312  1.00  0.00     0.029 A 
ATOM     57  N   UNL A   1      44.899  30.533  30.805  1.00  0.00    -0.354 N 
ATOM     58  N   UNL A   1      44.737  28.213  32.593  1.00  0.00    -0.248 NA
ATOM     59  C   UNL A   1      44.762  27.306  34.745  1.00  0.00     0.031 C 
ATOM     60  C   UNL A   1      44.918  32.562  31.703  1.00  0.00     0.029 A 
ATOM     61  C   UNL A   1      44.869  31.212  32.011  1.00  0.00     0.049 A 
ATOM     62  H   UNL A   1      44.879  29.554  30.708  1.00  0.00     0.167 HD
ATOM     63  C   UNL A   1      44.764  29.248  33.522  1.00  0.00     0.074 A 
ATOM     64  C   UNL A   1      44.741  28.630  34.832  1.00  0.00     0.031 C 
ATOM     65  C   UNL A   1      44.812  30.587  33.310  1.00  0.00     0.034 A 
BRANCH  52  66
ATOM     66  C   UNL A   1      45.253  32.163  27.346  1.00  0.00     0.023 A 
ATOM     67  C   UNL A   1      44.171  32.588  26.548  1.00  0.00     0.012 A 
ATOM     68  C   UNL A   1      46.509  32.780  27.193  1.00  0.00     0.148 A 
ATOM     69  C   UNL A   1      44.349  33.577  25.581  1.00  0.00     0.002 A 
ATOM     70  C   UNL A   1      46.666  33.800  26.263  1.00  0.00     0.091 A 
ATOM     71  F   UNL A   1      47.532  32.344  27.941  1.00  0.00    -0.205 F 
ATOM     72  C   UNL A   1      45.593  34.189  25.445  1.00  0.00     0.022 A 
BRANCH  70  73
ATOM     73  S   UNL A   1      48.205  34.705  26.075  1.00  0.00     0.127 S 
ATOM     74  O   UNL A   1      49.038  33.729  25.375  1.00  0.00    -0.237 OA
ATOM     75  O   UNL A   1      47.791  35.848  25.261  1.00  0.00    -0.237 OA
ATOM     76  O   UNL A   1      48.639  35.046  27.423  1.00  0.00    -0.744 OA
ENDBRANCH  70  73
ENDBRANCH  52  66
BRANCH  53  77
ATOM     77  C   UNL A   1      44.632  24.537  33.760  1.00  0.00     0.023 A 
ATOM     78  C   UNL A   1      43.416  24.039  34.263  1.00  0.00     0.012 A 
ATOM     79  C   UNL A   1      45.840  23.916  34.136  1.00  0.00     0.148 A 
ATOM     80  C   UNL A   1      43.403  22.953  35.139  1.00  0.00     0.002 A 
ATOM     81  C   UNL A   1      45.815  22.800  34.961  1.00  0.00     0.091 A 
ATOM     82  F   UNL A   1      46.987  24.417  33.655  1.00  0.00    -0.205 F 
ATOM     83  C   UNL A   1      44.599  22.327  35.478  1.00  0.00     0.022 A 
BRANCH  81  84
ATOM     84  S   UNL A   1      47.289  21.845  35.337  1.00  0.00     0.127 S 
ATOM     85  O   UNL A   1      46.941  21.253  36.627  1.00  0.00    -0.237 OA
ATOM     86  O   UNL A   1      47.325  20.908  34.215  1.00  0.00    -0.237 OA
ATOM     87  O   UNL A   1      48.386  22.803  35.361  1.00  0.00    -0.744 OA
ENDBRANCH  81  84
ENDBRANCH  53  77
BRANCH  65  88
ATOM     88  C   UNL A   1      44.804  31.492  34.516  1.00  0.00     0.023 A 
ATOM     89  C   UNL A   1      46.017  31.944  35.071  1.00  0.00     0.012 A 
ATOM     90  C   UNL A   1      43.585  31.956  35.052  1.00  0.00     0.148 A 
ATOM     91  C   UNL A   1      46.018  32.816  36.161  1.00  0.00     0.002 A 
ATOM     92  C   UNL A   1      43.594  32.866  36.102  1.00  0.00     0.091 A 
ATOM     93  F   UNL A   1      42.440  31.503  34.521  1.00  0.00    -0.205 F 
ATOM     94  C   UNL A   1      44.808  33.285  36.668  1.00  0.00     0.022 A 
BRANCH  92  95
ATOM     95  S   UNL A   1      42.090  33.601  36.754  1.00  0.00     0.127 S 
ATOM     96  O   UNL A   1      41.174  33.459  35.625  1.00  0.00    -0.237 OA
ATOM     97  O   UNL A   1      41.792  32.732  37.895  1.00  0.00    -0.237 OA
ATOM     98  O   UNL A   1      42.431  34.971  37.111  1.00  0.00    -0.744 OA
ENDBRANCH  92  95
ENDBRANCH  65  88
ENDBRANCH  39  40
ENDBRANCH  32  34
ENDBRANCH  31  32
ENDBRANCH  30  31
ENDBRANCH  29  30
ENDBRANCH  28  29
ENDBRANCH  27  28
ENDBRANCH   1  27
TORSDOF 25
ENDMDL
MODEL 2
REMARK VINA RESULT:      -7.3      4.991      8.709
REMARK SMILES Cc1cccc(Nc2ccccc2C(=O)OCCOCCOCCOCCOC(=O)c2ccc(-c3c4nc(c(-c5cccc(S(=O)(=O)[O-])c5F)c5ccc([nH]5)c(-c5cccc(S(=O)(=O)[O-])c5F)c5nc(c(-c6cccc(S(=O)(=O)[O-])c6F)c6ccc3[nH]6)C=C5)C=C4)cc2)c1C
REMARK SMILES IDX 23 1 22 2 21 3 20 4 19 5 18 6 17 7 16 8 14 9 15 10 13 11
REMARK SMILES IDX 8 12 9 13 10 14 12 15 11 16 7 17 6 19 1 20 2 21 3 22 94 23
REMARK SMILES IDX 4 24 95 25 5 26 24 27 25 28 26 29 27 30 28 31 29 32 30 33
REMARK SMILES IDX 31 34 32 35 93 36 33 37 92 38 34 39 35 40 36 41 86 42 37 43
REMARK SMILES IDX 91 44 85 45 87 46 38 47 90 48 84 49 83 50 39 52 71 53 51 54
REMARK SMILES IDX 70 55 52 56 55 57 69 58 88 59 53 60 54 61 68 63 89 64 56 65
REMARK SMILES IDX 40 66 41 67 49 68 42 69 44 70 50 71 43 72 45 73 46 74 47 75
REMARK SMILES IDX 48 76 72 77 73 78 81 79 74 80 76 81 82 82 75 83 77 84 78 85
REMARK SMILES IDX 79 86 80 87 57 88 58 89 66 90 59 91 61 92 67 93 60 94 62 95
REMARK SMILES IDX 63 96 64 97 65 98
REMARK H PARENT 7 18 87 51 55 62
REMARK Flexibility Score: inf
ROOT
ATOM      1  C   UNL A   1      36.593  21.322  24.293  1.00  0.00     0.188 C 
ENDROOT
BRANCH   1   2
ATOM      2  O   UNL A   1      35.757  22.469  24.304  1.00  0.00    -0.377 OA
BRANCH   2   3
ATOM      3  C   UNL A   1      36.091  23.605  25.086  1.00  0.00     0.188 C 
BRANCH   3   4
ATOM      4  C   UNL A   1      35.126  24.806  25.243  1.00  0.00     0.188 C 
BRANCH   4   5
ATOM      5  O   UNL A   1      34.015  24.604  26.090  1.00  0.00    -0.376 OA
BRANCH   5   6
ATOM      6  C   UNL A   1      33.927  23.471  26.930  1.00  0.00     0.202 C 
BRANCH   6   7
ATOM      7  C   UNL A   1      32.593  22.801  27.276  1.00  0.00     0.261 C 
BRANCH   7   8
ATOM      8  O   UNL A   1      32.067  21.905  26.301  1.00  0.00    -0.460 OA
BRANCH   8   9
ATOM      9  C   UNL A   1      32.945  21.061  25.722  1.00  0.00     0.340 C 
ATOM     10  O   UNL A   1      33.769  20.372  26.307  1.00  0.00    -0.246 OA
BRANCH   9  11
ATOM     11  C   UNL A   1      32.629  20.907  24.276  1.00  0.00     0.083 A 
ATOM     12  C   UNL A   1      32.394  21.965  23.373  1.00  0.00     0.053 A 
ATOM     13  C   UNL A   1      32.036  21.619  22.053  1.00  0.00     0.027 A 
ATOM     14  C   UNL A   1      31.921  20.288  21.640  1.00  0.00     0.002 A 
ATOM     15  C   UNL A   1      32.511  19.566  23.851  1.00  0.00     0.018 A 
ATOM     16  C   UNL A   1      32.159  19.260  22.541  1.00  0.00     0.001 A 
BRANCH  12  17
ATOM     17  N   UNL A   1      32.579  23.344  23.619  1.00  0.00    -0.355 N 
ATOM     18  H   UNL A   1      33.507  23.588  23.845  1.00  0.00     0.167 HD
BRANCH  17  19
ATOM     19  C   UNL A   1      31.688  24.437  23.602  1.00  0.00     0.042 A 
ATOM     20  C   UNL A   1      31.544  28.056  22.420  1.00  0.00     0.044 C 
ATOM     21  C   UNL A   1      31.159  26.753  23.064  1.00  0.00    -0.046 A 
ATOM     22  C   UNL A   1      30.170  26.751  24.058  1.00  0.00     0.004 A 
ATOM     23  C   UNL A   1      31.842  25.554  22.754  1.00  0.00    -0.025 A 
ATOM     24  C   UNL A   1      29.895  25.593  24.778  1.00  0.00     0.002 A 
ATOM     25  C   UNL A   1      32.699  25.481  21.513  1.00  0.00     0.047 C 
ATOM     26  C   UNL A   1      30.677  24.459  24.579  1.00  0.00     0.026 A 
ENDBRANCH  17  19
ENDBRANCH  12  17
ENDBRANCH   9  11
ENDBRANCH   8   9
ENDBRANCH   7   8
ENDBRANCH   6   7
ENDBRANCH   5   6
ENDBRANCH   4   5
ENDBRANCH   3   4
ENDBRANCH   2   3
ENDBRANCH   1   2
BRANCH   1  27
ATOM     27  C   UNL A   1      37.688  21.141  25.366  1.00  0.00     0.188 C 
BRANCH  27  28
ATOM     28  O   UNL A   1      38.684  20.186  25.043  1.00  0.00    -0.376 OA
BRANCH  28  29
ATOM     29  C   UNL A   1      39.542  19.740  26.077  1.00  0.00     0.202 C 
BRANCH  29  30
ATOM     30  C   UNL A   1      40.837  20.521  26.341  1.00  0.00     0.261 C 
BRANCH  30  31
ATOM     31  O   UNL A   1      40.762  21.948  26.216  1.00  0.00    -0.460 OA
BRANCH  31  32
ATOM     32  C   UNL A   1      41.893  22.607  25.890  1.00  0.00     0.338 C 
ATOM     33  O   UNL A   1      42.774  22.232  25.132  1.00  0.00    -0.246 OA
BRANCH  32  34
ATOM     34  C   UNL A   1      41.787  23.965  26.458  1.00  0.00     0.060 A 
ATOM     35  C   UNL A   1      41.630  25.059  25.596  1.00  0.00     0.016 A 
ATOM     36  C   UNL A   1      41.818  24.149  27.842  1.00  0.00     0.016 A 
ATOM     37  C   UNL A   1      41.536  26.347  26.117  1.00  0.00     0.010 A 
ATOM     38  C   UNL A   1      41.750  25.442  28.361  1.00  0.00     0.010 A 
ATOM     39  C   UNL A   1      41.646  26.547  27.497  1.00  0.00    -0.014 A 
BRANCH  39  40
ATOM     40  C   UNL A   1      41.866  27.914  28.022  1.00  0.00     0.031 A 
ATOM     41  C   UNL A   1      43.276  28.428  28.088  1.00  0.00     0.074 A 
ATOM     42  C   UNL A   1      40.843  28.677  28.442  1.00  0.00     0.049 A 
ATOM     43  N   UNL A   1      43.724  29.564  28.551  1.00  0.00    -0.248 NA
ATOM     44  C   UNL A   1      44.322  27.533  27.567  1.00  0.00     0.031 C 
ATOM     45  C   UNL A   1      39.435  28.289  28.421  1.00  0.00     0.029 A 
ATOM     46  N   UNL A   1      40.844  29.930  28.999  1.00  0.00    -0.354 N 
ATOM     47  C   UNL A   1      45.105  29.505  28.418  1.00  0.00     0.074 A 
ATOM     48  C   UNL A   1      45.422  28.220  27.835  1.00  0.00     0.031 C 
ATOM     49  C   UNL A   1      38.708  29.271  28.981  1.00  0.00     0.029 A 
ATOM     50  C   UNL A   1      39.603  30.340  29.425  1.00  0.00     0.049 A 
ATOM     51  H   UNL A   1      41.654  30.483  29.085  1.00  0.00     0.167 HD
ATOM     52  C   UNL A   1      46.028  30.439  28.746  1.00  0.00     0.034 A 
ATOM     53  C   UNL A   1      39.240  31.432  30.124  1.00  0.00     0.034 A 
ATOM     54  C   UNL A   1      45.708  31.717  29.319  1.00  0.00     0.049 A 
ATOM     55  C   UNL A   1      40.284  32.450  30.503  1.00  0.00     0.074 A 
ATOM     56  C   UNL A   1      46.562  32.760  29.627  1.00  0.00     0.029 A 
ATOM     57  N   UNL A   1      44.435  32.115  29.701  1.00  0.00    -0.354 N 
ATOM     58  N   UNL A   1      41.573  32.441  30.258  1.00  0.00    -0.248 NA
ATOM     59  C   UNL A   1      39.820  33.643  31.226  1.00  0.00     0.031 C 
ATOM     60  C   UNL A   1      45.814  33.768  30.243  1.00  0.00     0.029 A 
ATOM     61  C   UNL A   1      44.484  33.376  30.268  1.00  0.00     0.049 A 
ATOM     62  H   UNL A   1      43.617  31.580  29.586  1.00  0.00     0.167 HD
ATOM     63  C   UNL A   1      42.069  33.637  30.768  1.00  0.00     0.074 A 
ATOM     64  C   UNL A   1      40.937  34.353  31.319  1.00  0.00     0.031 C 
ATOM     65  C   UNL A   1      43.345  34.096  30.784  1.00  0.00     0.034 A 
BRANCH  52  66
ATOM     66  C   UNL A   1      47.475  30.097  28.505  1.00  0.00     0.023 A 
ATOM     67  C   UNL A   1      48.096  30.455  27.290  1.00  0.00     0.012 A 
ATOM     68  C   UNL A   1      48.225  29.436  29.495  1.00  0.00     0.148 A 
ATOM     69  C   UNL A   1      49.427  30.117  27.047  1.00  0.00     0.002 A 
ATOM     70  C   UNL A   1      49.566  29.149  29.267  1.00  0.00     0.091 A 
ATOM     71  F   UNL A   1      47.612  29.080  30.632  1.00  0.00    -0.205 F 
ATOM     72  C   UNL A   1      50.163  29.473  28.038  1.00  0.00     0.022 A 
BRANCH  70  73
ATOM     73  S   UNL A   1      50.617  28.398  30.514  1.00  0.00     0.127 S 
ATOM     74  O   UNL A   1      50.228  26.992  30.421  1.00  0.00    -0.237 OA
ATOM     75  O   UNL A   1      51.956  28.696  30.004  1.00  0.00    -0.237 OA
ATOM     76  O   UNL A   1      50.285  29.058  31.769  1.00  0.00    -0.744 OA
ENDBRANCH  70  73
ENDBRANCH  52  66
BRANCH  53  77
ATOM     77  C   UNL A   1      37.813  31.616  30.506  1.00  0.00     0.023 A 
ATOM     78  C   UNL A   1      37.348  31.142  31.747  1.00  0.00     0.012 A 
ATOM     79  C   UNL A   1      36.925  32.304  29.655  1.00  0.00     0.148 A 
ATOM     80  C   UNL A   1      36.020  31.333  32.126  1.00  0.00     0.002 A 
ATOM     81  C   UNL A   1      35.620  32.543  30.064  1.00  0.00     0.091 A 
ATOM     82  F   UNL A   1      37.387  32.735  28.472  1.00  0.00    -0.205 F 
ATOM     83  C   UNL A   1      35.160  32.043  31.292  1.00  0.00     0.022 A 
BRANCH  81  84
ATOM     84  S   UNL A   1      34.485  33.566  29.121  1.00  0.00     0.127 S 
ATOM     85  O   UNL A   1      35.393  34.526  28.498  1.00  0.00    -0.237 OA
ATOM     86  O   UNL A   1      33.898  32.586  28.207  1.00  0.00    -0.237 OA
ATOM     87  O   UNL A   1      33.553  34.121  30.092  1.00  0.00    -0.744 OA
ENDBRANCH  81  84
ENDBRANCH  53  77
BRANCH  65  88
ATOM     88  C   UNL A   1      43.596  35.457  31.384  1.00  0.00     0.023 A 
ATOM     89  C   UNL A   1      43.803  35.593  32.770  1.00  0.00     0.012 A 
ATOM     90  C   UNL A   1      43.704  36.593  30.555  1.00  0.00     0.148 A 
ATOM     91  C   UNL A   1      44.078  36.843  33.328  1.00  0.00     0.002 A 
ATOM     92  C   UNL A   1      44.032  37.824  31.110  1.00  0.00     0.091 A 
ATOM     93  F   UNL A   1      43.489  36.447  29.240  1.00  0.00    -0.205 F 
ATOM     94  C   UNL A   1      44.204  37.954  32.497  1.00  0.00     0.022 A 
BRANCH  92  95
ATOM     95  S   UNL A   1      44.312  39.289  30.109  1.00  0.00     0.127 S 
ATOM     96  O   UNL A   1      45.364  38.833  29.201  1.00  0.00    -0.237 OA
ATOM     97  O   UNL A   1      43.006  39.487  29.478  1.00  0.00    -0.237 OA
ATOM     98  O   UNL A   1      44.702  40.343  31.034  1.00  0.00    -0.744 OA
ENDBRANCH  92  95
ENDBRANCH  65  88
ENDBRANCH  39  40
ENDBRANCH  32  34
ENDBRANCH  31  32
ENDBRANCH  30  31
ENDBRANCH  29  30
ENDBRANCH  28  29
ENDBRANCH  27  28
ENDBRANCH   1  27
TORSDOF 25
ENDMDL
MODEL 3
REMARK VINA RESULT:      -7.2      4.667      8.480
REMARK SMILES Cc1cccc(Nc2ccccc2C(=O)OCCOCCOCCOCCOC(=O)c2ccc(-c3c4nc(c(-c5cccc(S(=O)(=O)[O-])c5F)c5ccc([nH]5)c(-c5cccc(S(=O)(=O)[O-])c5F)c5nc(c(-c6cccc(S(=O)(=O)[O-])c6F)c6ccc3[nH]6)C=C5)C=C4)cc2)c1C
REMARK SMILES IDX 23 1 22 2 21 3 20 4 19 5 18 6 17 7 16 8 14 9 15 10 13 11
REMARK SMILES IDX 8 12 9 13 10 14 12 15 11 16 7 17 6 19 1 20 2 21 3 22 94 23
REMARK SMILES IDX 4 24 95 25 5 26 24 27 25 28 26 29 27 30 28 31 29 32 30 33
REMARK SMILES IDX 31 34 32 35 93 36 33 37 92 38 34 39 35 40 36 41 86 42 37 43
REMARK SMILES IDX 91 44 85 45 87 46 38 47 90 48 84 49 83 50 39 52 71 53 51 54
REMARK SMILES IDX 70 55 52 56 55 57 69 58 88 59 53 60 54 61 68 63 89 64 56 65
REMARK SMILES IDX 40 66 41 67 49 68 42 69 44 70 50 71 43 72 45 73 46 74 47 75
REMARK SMILES IDX 48 76 72 77 73 78 81 79 74 80 76 81 82 82 75 83 77 84 78 85
REMARK SMILES IDX 79 86 80 87 57 88 58 89 66 90 59 91 61 92 67 93 60 94 62 95
REMARK SMILES IDX 63 96 64 97 65 98
REMARK H PARENT 7 18 87 51 55 62
REMARK Flexibility Score: inf
ROOT
ATOM      1  C   UNL A   1      36.514  21.531  24.182  1.00  0.00     0.188 C 
ENDROOT
BRANCH   1   2
ATOM      2  O   UNL A   1      35.813  22.767  24.176  1.00  0.00    -0.377 OA
BRANCH   2   3
ATOM      3  C   UNL A   1      35.976  23.700  25.233  1.00  0.00     0.188 C 
BRANCH   3   4
ATOM      4  C   UNL A   1      35.069  24.948  25.371  1.00  0.00     0.188 C 
BRANCH   4   5
ATOM      5  O   UNL A   1      33.809  24.737  25.971  1.00  0.00    -0.376 OA
BRANCH   5   6
ATOM      6  C   UNL A   1      33.623  23.749  26.964  1.00  0.00     0.202 C 
BRANCH   6   7
ATOM      7  C   UNL A   1      32.278  23.053  27.194  1.00  0.00     0.261 C 
BRANCH   7   8
ATOM      8  O   UNL A   1      31.908  22.066  26.237  1.00  0.00    -0.460 OA
BRANCH   8   9
ATOM      9  C   UNL A   1      32.905  21.308  25.737  1.00  0.00     0.340 C 
ATOM     10  O   UNL A   1      33.814  20.804  26.381  1.00  0.00    -0.246 OA
BRANCH   9  11
ATOM     11  C   UNL A   1      32.629  20.973  24.313  1.00  0.00     0.083 A 
ATOM     12  C   UNL A   1      32.479  21.910  23.268  1.00  0.00     0.053 A 
ATOM     13  C   UNL A   1      32.147  21.405  21.993  1.00  0.00     0.027 A 
ATOM     14  C   UNL A   1      31.978  20.037  21.757  1.00  0.00     0.002 A 
ATOM     15  C   UNL A   1      32.457  19.594  24.067  1.00  0.00     0.018 A 
ATOM     16  C   UNL A   1      32.133  19.130  22.796  1.00  0.00     0.001 A 
BRANCH  12  17
ATOM     17  N   UNL A   1      32.726  23.299  23.335  1.00  0.00    -0.355 N 
ATOM     18  H   UNL A   1      33.678  23.530  23.436  1.00  0.00     0.167 HD
BRANCH  17  19
ATOM     19  C   UNL A   1      31.868  24.418  23.282  1.00  0.00     0.042 A 
ATOM     20  C   UNL A   1      32.049  28.220  23.146  1.00  0.00     0.044 C 
ATOM     21  C   UNL A   1      31.497  26.824  23.227  1.00  0.00    -0.046 A 
ATOM     22  C   UNL A   1      30.208  26.630  23.745  1.00  0.00     0.004 A 
ATOM     23  C   UNL A   1      32.289  25.704  22.883  1.00  0.00    -0.025 A 
ATOM     24  C   UNL A   1      29.725  25.347  23.974  1.00  0.00     0.002 A 
ATOM     25  C   UNL A   1      33.550  25.898  22.077  1.00  0.00     0.047 C 
ATOM     26  C   UNL A   1      30.565  24.253  23.784  1.00  0.00     0.026 A 
ENDBRANCH  17  19
ENDBRANCH  12  17
ENDBRANCH   9  11
ENDBRANCH   8   9
ENDBRANCH   7   8
ENDBRANCH   6   7
ENDBRANCH   5   6
ENDBRANCH   4   5
ENDBRANCH   3   4
ENDBRANCH   2   3
ENDBRANCH   1   2
BRANCH   1  27
ATOM     27  C   UNL A   1      37.518  21.207  25.308  1.00  0.00     0.188 C 
BRANCH  27  28
ATOM     28  O   UNL A   1      38.557  20.317  24.939  1.00  0.00    -0.376 OA
BRANCH  28  29
ATOM     29  C   UNL A   1      39.370  19.777  25.964  1.00  0.00     0.202 C 
BRANCH  29  30
ATOM     30  C   UNL A   1      40.600  20.576  26.420  1.00  0.00     0.261 C 
BRANCH  30  31
ATOM     31  O   UNL A   1      40.529  22.001  26.275  1.00  0.00    -0.460 OA
BRANCH  31  32
ATOM     32  C   UNL A   1      41.664  22.653  25.946  1.00  0.00     0.338 C 
ATOM     33  O   UNL A   1      42.527  22.284  25.165  1.00  0.00    -0.246 OA
BRANCH  32  34
ATOM     34  C   UNL A   1      41.584  23.998  26.547  1.00  0.00     0.060 A 
ATOM     35  C   UNL A   1      41.571  25.123  25.711  1.00  0.00     0.016 A 
ATOM     36  C   UNL A   1      41.498  24.141  27.933  1.00  0.00     0.016 A 
ATOM     37  C   UNL A   1      41.505  26.400  26.265  1.00  0.00     0.010 A 
ATOM     38  C   UNL A   1      41.458  25.420  28.487  1.00  0.00     0.010 A 
ATOM     39  C   UNL A   1      41.498  26.553  27.655  1.00  0.00    -0.014 A 
BRANCH  39  40
ATOM     40  C   UNL A   1      41.748  27.889  28.243  1.00  0.00     0.031 A 
ATOM     41  C   UNL A   1      43.173  28.305  28.475  1.00  0.00     0.074 A 
ATOM     42  C   UNL A   1      40.737  28.709  28.575  1.00  0.00     0.049 A 
ATOM     43  N   UNL A   1      43.640  29.397  29.018  1.00  0.00    -0.248 NA
ATOM     44  C   UNL A   1      44.210  27.355  28.040  1.00  0.00     0.031 C 
ATOM     45  C   UNL A   1      39.318  28.417  28.393  1.00  0.00     0.029 A 
ATOM     46  N   UNL A   1      40.758  29.946  29.169  1.00  0.00    -0.354 N 
ATOM     47  C   UNL A   1      45.022  29.248  29.030  1.00  0.00     0.074 A 
ATOM     48  C   UNL A   1      45.316  27.959  28.444  1.00  0.00     0.031 C 
ATOM     49  C   UNL A   1      38.599  29.433  28.904  1.00  0.00     0.029 A 
ATOM     50  C   UNL A   1      39.508  30.427  29.473  1.00  0.00     0.049 A 
ATOM     51  H   UNL A   1      41.589  30.440  29.357  1.00  0.00     0.167 HD
ATOM     52  C   UNL A   1      45.962  30.109  29.484  1.00  0.00     0.034 A 
ATOM     53  C   UNL A   1      39.143  31.524  30.164  1.00  0.00     0.034 A 
ATOM     54  C   UNL A   1      45.665  31.392  30.059  1.00  0.00     0.049 A 
ATOM     55  C   UNL A   1      40.203  32.460  30.683  1.00  0.00     0.074 A 
ATOM     56  C   UNL A   1      46.546  32.367  30.489  1.00  0.00     0.029 A 
ATOM     57  N   UNL A   1      44.387  31.865  30.316  1.00  0.00    -0.354 N 
ATOM     58  N   UNL A   1      41.508  32.370  30.577  1.00  0.00    -0.248 NA
ATOM     59  C   UNL A   1      39.742  33.663  31.390  1.00  0.00     0.031 C 
ATOM     60  C   UNL A   1      45.802  33.408  31.053  1.00  0.00     0.029 A 
ATOM     61  C   UNL A   1      44.455  33.106  30.925  1.00  0.00     0.049 A 
ATOM     62  H   UNL A   1      43.553  31.389  30.098  1.00  0.00     0.167 HD
ATOM     63  C   UNL A   1      42.022  33.517  31.173  1.00  0.00     0.074 A 
ATOM     64  C   UNL A   1      40.885  34.294  31.624  1.00  0.00     0.031 C 
ATOM     65  C   UNL A   1      43.316  33.888  31.340  1.00  0.00     0.034 A 
BRANCH  52  66
ATOM     66  C   UNL A   1      47.402  29.677  29.387  1.00  0.00     0.023 A 
ATOM     67  C   UNL A   1      48.033  29.060  30.486  1.00  0.00     0.012 A 
ATOM     68  C   UNL A   1      48.124  29.868  28.194  1.00  0.00     0.148 A 
ATOM     69  C   UNL A   1      49.374  28.683  30.415  1.00  0.00     0.002 A 
ATOM     70  C   UNL A   1      49.444  29.443  28.113  1.00  0.00     0.091 A 
ATOM     71  F   UNL A   1      47.516  30.480  27.168  1.00  0.00    -0.205 F 
ATOM     72  C   UNL A   1      50.075  28.866  29.226  1.00  0.00     0.022 A 
BRANCH  70  73
ATOM     73  S   UNL A   1      50.403  29.559  26.599  1.00  0.00     0.127 S 
ATOM     74  O   UNL A   1      49.616  28.730  25.687  1.00  0.00    -0.237 OA
ATOM     75  O   UNL A   1      50.353  30.994  26.315  1.00  0.00    -0.237 OA
ATOM     76  O   UNL A   1      51.728  29.050  26.922  1.00  0.00    -0.744 OA
ENDBRANCH  70  73
ENDBRANCH  52  66
BRANCH  53  77
ATOM     77  C   UNL A   1      37.697  31.795  30.398  1.00  0.00     0.023 A 
ATOM     78  C   UNL A   1      37.066  31.298  31.553  1.00  0.00     0.012 A 
ATOM     79  C   UNL A   1      36.960  32.586  29.494  1.00  0.00     0.148 A 
ATOM     80  C   UNL A   1      35.719  31.569  31.795  1.00  0.00     0.002 A 
ATOM     81  C   UNL A   1      35.637  32.901  29.771  1.00  0.00     0.091 A 
ATOM     82  F   UNL A   1      37.580  33.036  28.394  1.00  0.00    -0.205 F 
ATOM     83  C   UNL A   1      35.008  32.379  30.913  1.00  0.00     0.022 A 
BRANCH  81  84
ATOM     84  S   UNL A   1      34.687  34.048  28.768  1.00  0.00     0.127 S 
ATOM     85  O   UNL A   1      33.326  33.805  29.243  1.00  0.00    -0.237 OA
ATOM     86  O   UNL A   1      35.262  35.332  29.167  1.00  0.00    -0.237 OA
ATOM     87  O   UNL A   1      34.946  33.673  27.385  1.00  0.00    -0.744 OA
ENDBRANCH  81  84
ENDBRANCH  53  77
BRANCH  65  88
ATOM     88  C   UNL A   1      43.588  35.214  32.005  1.00  0.00     0.023 A 
ATOM     89  C   UNL A   1      43.792  36.369  31.225  1.00  0.00     0.012 A 
ATOM     90  C   UNL A   1      43.564  35.326  33.411  1.00  0.00     0.148 A 
ATOM     91  C   UNL A   1      44.002  37.608  31.833  1.00  0.00     0.002 A 
ATOM     92  C   UNL A   1      43.720  36.571  34.007  1.00  0.00     0.091 A 
ATOM     93  F   UNL A   1      43.384  34.213  34.137  1.00  0.00    -0.205 F 
ATOM     94  C   UNL A   1      43.954  37.710  33.221  1.00  0.00     0.022 A 
BRANCH  92  95
ATOM     95  S   UNL A   1      43.574  36.815  35.781  1.00  0.00     0.127 S 
ATOM     96  O   UNL A   1      42.173  36.471  36.016  1.00  0.00    -0.237 OA
ATOM     97  O   UNL A   1      44.538  35.846  36.306  1.00  0.00    -0.237 OA
ATOM     98  O   UNL A   1      43.922  38.208  36.027  1.00  0.00    -0.744 OA
ENDBRANCH  92  95
ENDBRANCH  65  88
ENDBRANCH  39  40
ENDBRANCH  32  34
ENDBRANCH  31  32
ENDBRANCH  30  31
ENDBRANCH  29  30
ENDBRANCH  28  29
ENDBRANCH  27  28
ENDBRANCH   1  27
TORSDOF 25
ENDMDL
