MODEL 1
REMARK VINA RESULT:      -9.2      0.000      0.000
REMARK SMILES Cc1ccc(C)c(N2C(=O)C[C@@H](SCC(=O)OCCOCCOCCOCCOC(=O)c3ccc(-c4c5nc(c(-c6cccc(S(=O)(=O)[O-])c6F)c6ccc([nH]6)c(-c6cccc(S(=O)(=O)[O-])c6F)c6nc(c(-c7cccc(S(=O)(=O)[O-])c7F)c7ccc4[nH]7)C=C6)C=C5)cc3)C2=O)c1
REMARK SMILES IDX 23 1 22 2 21 3 20 4 19 5 18 6 17 7 15 8 16 9 14 10 13 11
REMARK SMILES IDX 12 12 8 13 9 14 95 15 10 16 11 17 96 18 7 19 1 20 2 21 3 22
REMARK SMILES IDX 97 23 4 24 5 25 6 26 24 27 25 28 26 29 27 30 28 31 29 32
REMARK SMILES IDX 30 33 31 34 32 35 33 36 94 37 34 38 93 39 35 40 36 41 37 42
REMARK SMILES IDX 87 43 38 44 92 45 86 46 88 47 39 48 91 49 85 50 84 51 40 53
REMARK SMILES IDX 72 54 52 55 71 56 53 57 56 58 70 59 89 60 54 61 55 62 69 64
REMARK SMILES IDX 90 65 57 66 41 67 42 68 50 69 43 70 45 71 51 72 44 73 46 74
REMARK SMILES IDX 47 75 48 76 49 77 73 78 74 79 82 80 75 81 77 82 83 83 76 84
REMARK SMILES IDX 78 85 79 86 80 87 81 88 58 89 59 90 67 91 60 92 62 93 68 94
REMARK SMILES IDX 61 95 63 96 64 97 65 98 66 99
REMARK H PARENT 88 52 56 63
REMARK Flexibility Score: inf
ROOT
ATOM      1  O   UNL A   1      35.211  22.518  26.363  1.00  0.00    -0.377 OA
ENDROOT
BRANCH   1   2
ATOM      2  C   UNL A   1      34.143  22.319  25.451  1.00  0.00     0.188 C 
BRANCH   2   3
ATOM      3  C   UNL A   1      32.955  23.258  25.454  1.00  0.00     0.188 C 
BRANCH   3   4
ATOM      4  O   UNL A   1      31.914  22.669  24.703  1.00  0.00    -0.376 OA
BRANCH   4   5
ATOM      5  C   UNL A   1      31.739  23.077  23.363  1.00  0.00     0.202 C 
BRANCH   5   6
ATOM      6  C   UNL A   1      32.861  22.857  22.329  1.00  0.00     0.261 C 
BRANCH   6   7
ATOM      7  O   UNL A   1      33.822  23.935  22.123  1.00  0.00    -0.463 OA
BRANCH   7   8
ATOM      8  C   UNL A   1      33.361  24.993  21.412  1.00  0.00     0.315 C 
ATOM      9  O   UNL A   1      32.982  24.875  20.247  1.00  0.00    -0.251 OA
BRANCH   8  10
ATOM     10  C   UNL A   1      33.422  26.345  22.032  1.00  0.00     0.192 C 
BRANCH  10  11
ATOM     11  S   UNL A   1      33.912  26.471  23.842  1.00  0.00    -0.136 SA
BRANCH  11  12
ATOM     12  C   UNL A   1      33.581  28.201  24.391  1.00  0.00     0.146 C 
ATOM     13  N   UNL A   1      31.451  29.186  24.428  1.00  0.00    -0.249 N 
ATOM     14  C   UNL A   1      31.905  29.310  25.712  1.00  0.00     0.235 C 
ATOM     15  C   UNL A   1      32.484  28.839  23.594  1.00  0.00     0.247 C 
ATOM     16  O   UNL A   1      31.452  30.006  26.609  1.00  0.00    -0.274 OA
ATOM     17  C   UNL A   1      33.171  28.492  25.828  1.00  0.00     0.125 C 
ATOM     18  O   UNL A   1      32.603  29.141  22.408  1.00  0.00    -0.273 OA
BRANCH  13  19
ATOM     19  C   UNL A   1      30.194  29.582  23.907  1.00  0.00     0.055 A 
ATOM     20  C   UNL A   1      28.078  32.693  23.174  1.00  0.00     0.044 C 
ATOM     21  C   UNL A   1      28.558  31.272  23.251  1.00  0.00    -0.049 A 
ATOM     22  C   UNL A   1      27.782  30.276  22.651  1.00  0.00     0.004 A 
ATOM     23  C   UNL A   1      29.757  30.919  23.900  1.00  0.00     0.030 A 
ATOM     24  C   UNL A   1      28.168  28.942  22.719  1.00  0.00     0.006 A 
ATOM     25  C   UNL A   1      29.348  28.579  23.373  1.00  0.00    -0.027 A 
ATOM     26  C   UNL A   1      29.644  27.105  23.513  1.00  0.00     0.046 C 
ENDBRANCH  13  19
ENDBRANCH  11  12
ENDBRANCH  10  11
ENDBRANCH   8  10
ENDBRANCH   7   8
ENDBRANCH   6   7
ENDBRANCH   5   6
ENDBRANCH   4   5
ENDBRANCH   3   4
ENDBRANCH   2   3
ENDBRANCH   1   2
BRANCH   1  27
ATOM     27  C   UNL A   1      36.439  21.933  25.987  1.00  0.00     0.188 C 
BRANCH  27  28
ATOM     28  C   UNL A   1      37.200  22.824  25.016  1.00  0.00     0.188 C 
BRANCH  28  29
ATOM     29  O   UNL A   1      38.483  23.142  25.549  1.00  0.00    -0.376 OA
BRANCH  29  30
ATOM     30  C   UNL A   1      38.462  23.981  26.700  1.00  0.00     0.202 C 
BRANCH  30  31
ATOM     31  C   UNL A   1      39.748  23.770  27.489  1.00  0.00     0.261 C 
BRANCH  31  32
ATOM     32  O   UNL A   1      40.860  23.225  26.734  1.00  0.00    -0.460 OA
BRANCH  32  33
ATOM     33  C   UNL A   1      41.786  24.088  26.240  1.00  0.00     0.338 C 
ATOM     34  O   UNL A   1      42.591  23.806  25.366  1.00  0.00    -0.246 OA
BRANCH  33  35
ATOM     35  C   UNL A   1      41.667  25.425  26.903  1.00  0.00     0.060 A 
ATOM     36  C   UNL A   1      41.070  26.479  26.217  1.00  0.00     0.016 A 
ATOM     37  C   UNL A   1      42.291  25.681  28.136  1.00  0.00     0.016 A 
ATOM     38  C   UNL A   1      41.242  27.786  26.696  1.00  0.00     0.010 A 
ATOM     39  C   UNL A   1      42.508  26.990  28.584  1.00  0.00     0.010 A 
ATOM     40  C   UNL A   1      42.021  28.068  27.849  1.00  0.00    -0.014 A 
BRANCH  40  41
ATOM     41  C   UNL A   1      41.886  29.401  28.502  1.00  0.00     0.031 A 
ATOM     42  C   UNL A   1      43.108  30.141  28.228  1.00  0.00     0.074 A 
ATOM     43  C   UNL A   1      40.917  29.994  29.248  1.00  0.00     0.049 A 
ATOM     44  N   UNL A   1      44.066  30.277  29.087  1.00  0.00    -0.248 NA
ATOM     45  C   UNL A   1      43.453  30.491  26.843  1.00  0.00     0.031 C 
ATOM     46  C   UNL A   1      39.804  29.268  29.774  1.00  0.00     0.029 A 
ATOM     47  N   UNL A   1      40.659  31.243  29.786  1.00  0.00    -0.354 N 
ATOM     48  C   UNL A   1      44.885  31.186  28.461  1.00  0.00     0.074 A 
ATOM     49  C   UNL A   1      44.655  31.036  27.038  1.00  0.00     0.031 C 
ATOM     50  C   UNL A   1      38.814  30.050  30.234  1.00  0.00     0.029 A 
ATOM     51  C   UNL A   1      39.326  31.404  30.230  1.00  0.00     0.049 A 
ATOM     52  H   UNL A   1      41.339  31.952  29.854  1.00  0.00     0.167 HD
ATOM     53  C   UNL A   1      45.092  32.342  29.144  1.00  0.00     0.034 A 
ATOM     54  C   UNL A   1      38.640  32.450  30.766  1.00  0.00     0.034 A 
ATOM     55  C   UNL A   1      44.976  32.198  30.571  1.00  0.00     0.049 A 
ATOM     56  C   UNL A   1      39.635  33.274  31.474  1.00  0.00     0.074 A 
ATOM     57  C   UNL A   1      45.565  31.421  31.545  1.00  0.00     0.029 A 
ATOM     58  N   UNL A   1      43.817  32.691  31.102  1.00  0.00    -0.354 N 
ATOM     59  N   UNL A   1      40.098  32.977  32.659  1.00  0.00    -0.248 NA
ATOM     60  C   UNL A   1      40.377  34.285  30.733  1.00  0.00     0.031 C 
ATOM     61  C   UNL A   1      44.715  31.472  32.684  1.00  0.00     0.029 A 
ATOM     62  C   UNL A   1      43.636  32.303  32.400  1.00  0.00     0.049 A 
ATOM     63  H   UNL A   1      43.185  33.261  30.607  1.00  0.00     0.167 HD
ATOM     64  C   UNL A   1      41.420  33.374  32.582  1.00  0.00     0.074 A 
ATOM     65  C   UNL A   1      41.484  34.318  31.476  1.00  0.00     0.031 C 
ATOM     66  C   UNL A   1      42.402  32.587  33.104  1.00  0.00     0.034 A 
BRANCH  53  67
ATOM     67  C   UNL A   1      44.767  33.631  28.452  1.00  0.00     0.023 A 
ATOM     68  C   UNL A   1      43.439  33.940  28.166  1.00  0.00     0.012 A 
ATOM     69  C   UNL A   1      45.772  34.465  27.906  1.00  0.00     0.148 A 
ATOM     70  C   UNL A   1      43.126  35.103  27.454  1.00  0.00     0.002 A 
ATOM     71  C   UNL A   1      45.460  35.689  27.353  1.00  0.00     0.091 A 
ATOM     72  F   UNL A   1      47.022  33.999  27.777  1.00  0.00    -0.205 F 
ATOM     73  C   UNL A   1      44.130  36.008  27.102  1.00  0.00     0.022 A 
BRANCH  71  74
ATOM     74  S   UNL A   1      46.743  36.909  27.070  1.00  0.00     0.127 S 
ATOM     75  O   UNL A   1      46.989  37.395  28.423  1.00  0.00    -0.237 OA
ATOM     76  O   UNL A   1      47.811  36.092  26.493  1.00  0.00    -0.237 OA
ATOM     77  O   UNL A   1      46.153  37.859  26.133  1.00  0.00    -0.744 OA
ENDBRANCH  71  74
ENDBRANCH  53  67
BRANCH  54  78
ATOM     78  C   UNL A   1      37.169  32.739  30.854  1.00  0.00     0.023 A 
ATOM     79  C   UNL A   1      36.631  33.243  32.065  1.00  0.00     0.012 A 
ATOM     80  C   UNL A   1      36.332  32.796  29.717  1.00  0.00     0.148 A 
ATOM     81  C   UNL A   1      35.369  33.859  32.114  1.00  0.00     0.002 A 
ATOM     82  C   UNL A   1      35.080  33.413  29.769  1.00  0.00     0.091 A 
ATOM     83  F   UNL A   1      36.768  32.313  28.549  1.00  0.00    -0.205 F 
ATOM     84  C   UNL A   1      34.604  33.967  30.959  1.00  0.00     0.022 A 
BRANCH  82  85
ATOM     85  S   UNL A   1      34.073  33.593  28.287  1.00  0.00     0.127 S 
ATOM     86  O   UNL A   1      34.950  34.356  27.397  1.00  0.00    -0.237 OA
ATOM     87  O   UNL A   1      33.867  32.203  27.892  1.00  0.00    -0.237 OA
ATOM     88  O   UNL A   1      32.888  34.327  28.718  1.00  0.00    -0.744 OA
ENDBRANCH  82  85
ENDBRANCH  54  78
BRANCH  66  89
ATOM     89  C   UNL A   1      42.161  31.908  34.416  1.00  0.00     0.023 A 
ATOM     90  C   UNL A   1      41.652  30.605  34.556  1.00  0.00     0.012 A 
ATOM     91  C   UNL A   1      42.559  32.615  35.569  1.00  0.00     0.148 A 
ATOM     92  C   UNL A   1      41.546  30.023  35.824  1.00  0.00     0.002 A 
ATOM     93  C   UNL A   1      42.496  32.018  36.817  1.00  0.00     0.091 A 
ATOM     94  F   UNL A   1      43.004  33.873  35.421  1.00  0.00    -0.205 F 
ATOM     95  C   UNL A   1      41.983  30.720  36.952  1.00  0.00     0.022 A 
BRANCH  93  96
ATOM     96  S   UNL A   1      43.146  32.844  38.272  1.00  0.00     0.127 S 
ATOM     97  O   UNL A   1      42.903  31.856  39.319  1.00  0.00    -0.237 OA
ATOM     98  O   UNL A   1      44.554  33.036  37.922  1.00  0.00    -0.237 OA
ATOM     99  O   UNL A   1      42.392  34.087  38.388  1.00  0.00    -0.744 OA
ENDBRANCH  93  96
ENDBRANCH  66  89
ENDBRANCH  40  41
ENDBRANCH  33  35
ENDBRANCH  32  33
ENDBRANCH  31  32
ENDBRANCH  30  31
ENDBRANCH  29  30
ENDBRANCH  28  29
ENDBRANCH  27  28
ENDBRANCH   1  27
TORSDOF 26
ENDMDL
MODEL 2
REMARK VINA RESULT:      -9.0      3.530      7.946
REMARK SMILES Cc1ccc(C)c(N2C(=O)C[C@@H](SCC(=O)OCCOCCOCCOCCOC(=O)c3ccc(-c4c5nc(c(-c6cccc(S(=O)(=O)[O-])c6F)c6ccc([nH]6)c(-c6cccc(S(=O)(=O)[O-])c6F)c6nc(c(-c7cccc(S(=O)(=O)[O-])c7F)c7ccc4[nH]7)C=C6)C=C5)cc3)C2=O)c1
REMARK SMILES IDX 23 1 22 2 21 3 20 4 19 5 18 6 17 7 15 8 16 9 14 10 13 11
REMARK SMILES IDX 12 12 8 13 9 14 95 15 10 16 11 17 96 18 7 19 1 20 2 21 3 22
REMARK SMILES IDX 97 23 4 24 5 25 6 26 24 27 25 28 26 29 27 30 28 31 29 32
REMARK SMILES IDX 30 33 31 34 32 35 33 36 94 37 34 38 93 39 35 40 36 41 37 42
REMARK SMILES IDX 87 43 38 44 92 45 86 46 88 47 39 48 91 49 85 50 84 51 40 53
REMARK SMILES IDX 72 54 52 55 71 56 53 57 56 58 70 59 89 60 54 61 55 62 69 64
REMARK SMILES IDX 90 65 57 66 41 67 42 68 50 69 43 70 45 71 51 72 44 73 46 74
REMARK SMILES IDX 47 75 48 76 49 77 73 78 74 79 82 80 75 81 77 82 83 83 76 84
REMARK SMILES IDX 78 85 79 86 80 87 81 88 58 89 59 90 67 91 60 92 62 93 68 94
REMARK SMILES IDX 61 95 63 96 64 97 65 98 66 99
REMARK H PARENT 88 52 56 63
REMARK Flexibility Score: inf
ROOT
ATOM      1  O   UNL A   1      38.962  22.676  26.629  1.00  0.00    -0.377 OA
ENDROOT
BRANCH   1   2
ATOM      2  C   UNL A   1      38.120  23.347  25.705  1.00  0.00     0.188 C 
BRANCH   2   3
ATOM      3  C   UNL A   1      36.616  23.294  25.870  1.00  0.00     0.188 C 
BRANCH   3   4
ATOM      4  O   UNL A   1      36.093  22.372  24.935  1.00  0.00    -0.376 OA
BRANCH   4   5
ATOM      5  C   UNL A   1      35.822  21.056  25.370  1.00  0.00     0.202 C 
BRANCH   5   6
ATOM      6  C   UNL A   1      34.611  20.284  24.809  1.00  0.00     0.261 C 
BRANCH   6   7
ATOM      7  O   UNL A   1      33.441  20.130  25.667  1.00  0.00    -0.463 OA
BRANCH   7   8
ATOM      8  C   UNL A   1      33.082  21.237  26.362  1.00  0.00     0.315 C 
ATOM      9  O   UNL A   1      33.643  21.554  27.411  1.00  0.00    -0.251 OA
BRANCH   8  10
ATOM     10  C   UNL A   1      31.908  22.020  25.890  1.00  0.00     0.192 C 
BRANCH  10  11
ATOM     11  S   UNL A   1      31.939  22.699  24.137  1.00  0.00    -0.136 SA
BRANCH  11  12
ATOM     12  C   UNL A   1      32.861  24.297  24.173  1.00  0.00     0.146 C 
ATOM     13  N   UNL A   1      31.844  26.407  24.017  1.00  0.00    -0.249 N 
ATOM     14  C   UNL A   1      32.548  26.455  25.187  1.00  0.00     0.235 C 
ATOM     15  C   UNL A   1      32.237  25.321  23.275  1.00  0.00     0.247 C 
ATOM     16  O   UNL A   1      32.824  27.436  25.863  1.00  0.00    -0.274 OA
ATOM     17  C   UNL A   1      33.042  25.056  25.480  1.00  0.00     0.125 C 
ATOM     18  O   UNL A   1      32.250  25.236  22.048  1.00  0.00    -0.273 OA
BRANCH  13  19
ATOM     19  C   UNL A   1      31.012  27.409  23.460  1.00  0.00     0.055 A 
ATOM     20  C   UNL A   1      27.339  28.466  23.181  1.00  0.00     0.044 C 
ATOM     21  C   UNL A   1      28.836  28.450  23.078  1.00  0.00    -0.049 A 
ATOM     22  C   UNL A   1      29.475  29.559  22.513  1.00  0.00     0.004 A 
ATOM     23  C   UNL A   1      29.609  27.363  23.532  1.00  0.00     0.030 A 
ATOM     24  C   UNL A   1      30.857  29.580  22.369  1.00  0.00     0.006 A 
ATOM     25  C   UNL A   1      31.631  28.501  22.803  1.00  0.00    -0.027 A 
ATOM     26  C   UNL A   1      33.111  28.539  22.506  1.00  0.00     0.046 C 
ENDBRANCH  13  19
ENDBRANCH  11  12
ENDBRANCH  10  11
ENDBRANCH   8  10
ENDBRANCH   7   8
ENDBRANCH   6   7
ENDBRANCH   5   6
ENDBRANCH   4   5
ENDBRANCH   3   4
ENDBRANCH   2   3
ENDBRANCH   1   2
BRANCH   1  27
ATOM     27  C   UNL A   1      39.760  21.651  26.077  1.00  0.00     0.188 C 
BRANCH  27  28
ATOM     28  C   UNL A   1      40.660  21.024  27.131  1.00  0.00     0.188 C 
BRANCH  28  29
ATOM     29  O   UNL A   1      41.945  20.751  26.578  1.00  0.00    -0.376 OA
BRANCH  29  30
ATOM     30  C   UNL A   1      42.122  19.417  26.109  1.00  0.00     0.202 C 
BRANCH  30  31
ATOM     31  C   UNL A   1      43.489  19.303  25.447  1.00  0.00     0.261 C 
BRANCH  31  32
ATOM     32  O   UNL A   1      43.798  20.334  24.473  1.00  0.00    -0.460 OA
BRANCH  32  33
ATOM     33  C   UNL A   1      44.913  21.087  24.667  1.00  0.00     0.338 C 
ATOM     34  O   UNL A   1      45.994  20.860  24.146  1.00  0.00    -0.246 OA
BRANCH  33  35
ATOM     35  C   UNL A   1      44.622  22.231  25.587  1.00  0.00     0.060 A 
ATOM     36  C   UNL A   1      45.154  22.228  26.874  1.00  0.00     0.016 A 
ATOM     37  C   UNL A   1      43.690  23.223  25.238  1.00  0.00     0.016 A 
ATOM     38  C   UNL A   1      44.633  23.115  27.827  1.00  0.00     0.010 A 
ATOM     39  C   UNL A   1      43.133  24.071  26.204  1.00  0.00     0.010 A 
ATOM     40  C   UNL A   1      43.568  24.003  27.525  1.00  0.00    -0.014 A 
BRANCH  40  41
ATOM     41  C   UNL A   1      43.294  25.141  28.448  1.00  0.00     0.031 A 
ATOM     42  C   UNL A   1      42.225  25.930  27.855  1.00  0.00     0.074 A 
ATOM     43  C   UNL A   1      43.822  25.544  29.634  1.00  0.00     0.049 A 
ATOM     44  N   UNL A   1      42.428  27.037  27.215  1.00  0.00    -0.248 NA
ATOM     45  C   UNL A   1      40.895  25.334  27.672  1.00  0.00     0.031 C 
ATOM     46  C   UNL A   1      45.027  24.986  30.164  1.00  0.00     0.029 A 
ATOM     47  N   UNL A   1      43.560  26.499  30.600  1.00  0.00    -0.354 N 
ATOM     48  C   UNL A   1      41.146  27.494  27.023  1.00  0.00     0.074 A 
ATOM     49  C   UNL A   1      40.288  26.326  27.019  1.00  0.00     0.031 C 
ATOM     50  C   UNL A   1      45.243  25.289  31.454  1.00  0.00     0.029 A 
ATOM     51  C   UNL A   1      44.255  26.284  31.812  1.00  0.00     0.049 A 
ATOM     52  H   UNL A   1      42.948  27.257  30.458  1.00  0.00     0.167 HD
ATOM     53  C   UNL A   1      40.879  28.709  27.568  1.00  0.00     0.034 A 
ATOM     54  C   UNL A   1      44.262  26.927  33.012  1.00  0.00     0.034 A 
ATOM     55  C   UNL A   1      42.036  29.555  27.685  1.00  0.00     0.049 A 
ATOM     56  C   UNL A   1      43.933  28.334  32.725  1.00  0.00     0.074 A 
ATOM     57  C   UNL A   1      42.994  30.058  26.830  1.00  0.00     0.029 A 
ATOM     58  N   UNL A   1      42.535  29.667  28.953  1.00  0.00    -0.354 N 
ATOM     59  N   UNL A   1      44.802  29.193  32.265  1.00  0.00    -0.248 NA
ATOM     60  C   UNL A   1      42.535  28.734  32.645  1.00  0.00     0.031 C 
ATOM     61  C   UNL A   1      44.087  30.480  27.637  1.00  0.00     0.029 A 
ATOM     62  C   UNL A   1      43.768  30.257  28.973  1.00  0.00     0.049 A 
ATOM     63  H   UNL A   1      42.062  29.358  29.758  1.00  0.00     0.167 HD
ATOM     64  C   UNL A   1      44.044  29.970  31.408  1.00  0.00     0.074 A 
ATOM     65  C   UNL A   1      42.661  29.772  31.816  1.00  0.00     0.031 C 
ATOM     66  C   UNL A   1      44.543  30.336  30.195  1.00  0.00     0.034 A 
BRANCH  53  67
ATOM     67  C   UNL A   1      39.727  28.811  28.521  1.00  0.00     0.023 A 
ATOM     68  C   UNL A   1      39.725  28.035  29.678  1.00  0.00     0.012 A 
ATOM     69  C   UNL A   1      38.547  29.525  28.201  1.00  0.00     0.148 A 
ATOM     70  C   UNL A   1      38.623  28.063  30.539  1.00  0.00     0.002 A 
ATOM     71  C   UNL A   1      37.536  29.682  29.125  1.00  0.00     0.091 A 
ATOM     72  F   UNL A   1      38.333  29.919  26.938  1.00  0.00    -0.205 F 
ATOM     73  C   UNL A   1      37.556  28.932  30.296  1.00  0.00     0.022 A 
BRANCH  71  74
ATOM     74  S   UNL A   1      36.269  30.927  28.880  1.00  0.00     0.127 S 
ATOM     75  O   UNL A   1      37.068  32.086  28.501  1.00  0.00    -0.237 OA
ATOM     76  O   UNL A   1      35.472  30.335  27.805  1.00  0.00    -0.237 OA
ATOM     77  O   UNL A   1      35.571  31.005  30.159  1.00  0.00    -0.744 OA
ENDBRANCH  71  74
ENDBRANCH  53  67
BRANCH  54  78
ATOM     78  C   UNL A   1      44.673  26.476  34.384  1.00  0.00     0.023 A 
ATOM     79  C   UNL A   1      43.691  25.978  35.275  1.00  0.00     0.012 A 
ATOM     80  C   UNL A   1      46.023  26.265  34.748  1.00  0.00     0.148 A 
ATOM     81  C   UNL A   1      44.034  25.223  36.410  1.00  0.00     0.002 A 
ATOM     82  C   UNL A   1      46.360  25.512  35.874  1.00  0.00     0.091 A 
ATOM     83  F   UNL A   1      47.001  26.735  33.965  1.00  0.00    -0.205 F 
ATOM     84  C   UNL A   1      45.370  24.969  36.696  1.00  0.00     0.022 A 
BRANCH  82  85
ATOM     85  S   UNL A   1      48.080  25.141  36.260  1.00  0.00     0.127 S 
ATOM     86  O   UNL A   1      48.666  26.474  36.419  1.00  0.00    -0.237 OA
ATOM     87  O   UNL A   1      47.953  24.382  37.501  1.00  0.00    -0.237 OA
ATOM     88  O   UNL A   1      48.582  24.411  35.102  1.00  0.00    -0.744 OA
ENDBRANCH  82  85
ENDBRANCH  54  78
BRANCH  66  89
ATOM     89  C   UNL A   1      45.980  30.745  30.099  1.00  0.00     0.023 A 
ATOM     90  C   UNL A   1      47.039  29.868  29.809  1.00  0.00     0.012 A 
ATOM     91  C   UNL A   1      46.249  32.122  30.230  1.00  0.00     0.148 A 
ATOM     92  C   UNL A   1      48.340  30.360  29.651  1.00  0.00     0.002 A 
ATOM     93  C   UNL A   1      47.528  32.612  30.027  1.00  0.00     0.091 A 
ATOM     94  F   UNL A   1      45.233  32.940  30.547  1.00  0.00    -0.205 F 
ATOM     95  C   UNL A   1      48.582  31.733  29.743  1.00  0.00     0.022 A 
BRANCH  93  96
ATOM     96  S   UNL A   1      47.855  34.377  30.033  1.00  0.00     0.127 S 
ATOM     97  O   UNL A   1      49.205  34.439  29.478  1.00  0.00    -0.237 OA
ATOM     98  O   UNL A   1      46.805  34.895  29.156  1.00  0.00    -0.237 OA
ATOM     99  O   UNL A   1      47.723  34.797  31.423  1.00  0.00    -0.744 OA
ENDBRANCH  93  96
ENDBRANCH  66  89
ENDBRANCH  40  41
ENDBRANCH  33  35
ENDBRANCH  32  33
ENDBRANCH  31  32
ENDBRANCH  30  31
ENDBRANCH  29  30
ENDBRANCH  28  29
ENDBRANCH  27  28
ENDBRANCH   1  27
TORSDOF 26
ENDMDL
MODEL 3
REMARK VINA RESULT:      -8.9      3.605      6.951
REMARK SMILES Cc1ccc(C)c(N2C(=O)C[C@@H](SCC(=O)OCCOCCOCCOCCOC(=O)c3ccc(-c4c5nc(c(-c6cccc(S(=O)(=O)[O-])c6F)c6ccc([nH]6)c(-c6cccc(S(=O)(=O)[O-])c6F)c6nc(c(-c7cccc(S(=O)(=O)[O-])c7F)c7ccc4[nH]7)C=C6)C=C5)cc3)C2=O)c1
REMARK SMILES IDX 23 1 22 2 21 3 20 4 19 5 18 6 17 7 15 8 16 9 14 10 13 11
REMARK SMILES IDX 12 12 8 13 9 14 95 15 10 16 11 17 96 18 7 19 1 20 2 21 3 22
REMARK SMILES IDX 97 23 4 24 5 25 6 26 24 27 25 28 26 29 27 30 28 31 29 32
REMARK SMILES IDX 30 33 31 34 32 35 33 36 94 37 34 38 93 39 35 40 36 41 37 42
REMARK SMILES IDX 87 43 38 44 92 45 86 46 88 47 39 48 91 49 85 50 84 51 40 53
REMARK SMILES IDX 72 54 52 55 71 56 53 57 56 58 70 59 89 60 54 61 55 62 69 64
REMARK SMILES IDX 90 65 57 66 41 67 42 68 50 69 43 70 45 71 51 72 44 73 46 74
REMARK SMILES IDX 47 75 48 76 49 77 73 78 74 79 82 80 75 81 77 82 83 83 76 84
REMARK SMILES IDX 78 85 79 86 80 87 81 88 58 89 59 90 67 91 60 92 62 93 68 94
REMARK SMILES IDX 61 95 63 96 64 97 65 98 66 99
REMARK H PARENT 88 52 56 63
REMARK Flexibility Score: inf
ROOT
ATOM      1  O   UNL A   1      34.324  23.342  22.353  1.00  0.00    -0.377 OA
ENDROOT
BRANCH   1   2
ATOM      2  C   UNL A   1      32.928  23.472  22.569  1.00  0.00     0.188 C 
BRANCH   2   3
ATOM      3  C   UNL A   1      32.349  24.795  23.027  1.00  0.00     0.188 C 
BRANCH   3   4
ATOM      4  O   UNL A   1      31.898  25.506  21.893  1.00  0.00    -0.376 OA
BRANCH   4   5
ATOM      5  C   UNL A   1      31.353  26.795  22.082  1.00  0.00     0.202 C 
BRANCH   5   6
ATOM      6  C   UNL A   1      30.986  27.285  23.497  1.00  0.00     0.261 C 
BRANCH   6   7
ATOM      7  O   UNL A   1      31.262  28.678  23.831  1.00  0.00    -0.463 OA
BRANCH   7   8
ATOM      8  C   UNL A   1      32.338  28.880  24.631  1.00  0.00     0.315 C 
ATOM      9  O   UNL A   1      33.484  28.897  24.183  1.00  0.00    -0.251 OA
BRANCH   8  10
ATOM     10  C   UNL A   1      32.120  28.973  26.101  1.00  0.00     0.192 C 
BRANCH  10  11
ATOM     11  S   UNL A   1      32.531  30.595  26.958  1.00  0.00    -0.136 SA
BRANCH  11  12
ATOM     12  C   UNL A   1      34.363  30.667  27.167  1.00  0.00     0.146 C 
ATOM     13  N   UNL A   1      35.438  31.371  29.131  1.00  0.00    -0.249 N 
ATOM     14  C   UNL A   1      35.933  30.117  28.903  1.00  0.00     0.235 C 
ATOM     15  C   UNL A   1      34.783  31.829  28.015  1.00  0.00     0.247 C 
ATOM     16  O   UNL A   1      36.903  29.583  29.421  1.00  0.00    -0.274 OA
ATOM     17  C   UNL A   1      35.118  29.501  27.789  1.00  0.00     0.125 C 
ATOM     18  O   UNL A   1      34.686  32.999  27.649  1.00  0.00    -0.273 OA
BRANCH  13  19
ATOM     19  C   UNL A   1      35.725  32.237  30.215  1.00  0.00     0.055 A 
ATOM     20  C   UNL A   1      34.351  33.381  33.605  1.00  0.00     0.044 C 
ATOM     21  C   UNL A   1      35.238  33.194  32.408  1.00  0.00    -0.049 A 
ATOM     22  C   UNL A   1      36.496  33.806  32.411  1.00  0.00     0.004 A 
ATOM     23  C   UNL A   1      34.845  32.425  31.295  1.00  0.00     0.030 A 
ATOM     24  C   UNL A   1      37.341  33.688  31.315  1.00  0.00     0.006 A 
ATOM     25  C   UNL A   1      36.955  32.939  30.200  1.00  0.00    -0.027 A 
ATOM     26  C   UNL A   1      37.870  32.953  28.999  1.00  0.00     0.046 C 
ENDBRANCH  13  19
ENDBRANCH  11  12
ENDBRANCH  10  11
ENDBRANCH   8  10
ENDBRANCH   7   8
ENDBRANCH   6   7
ENDBRANCH   5   6
ENDBRANCH   4   5
ENDBRANCH   3   4
ENDBRANCH   2   3
ENDBRANCH   1   2
BRANCH   1  27
ATOM     27  C   UNL A   1      35.082  23.039  23.503  1.00  0.00     0.188 C 
BRANCH  27  28
ATOM     28  C   UNL A   1      36.566  22.950  23.178  1.00  0.00     0.188 C 
BRANCH  28  29
ATOM     29  O   UNL A   1      37.120  21.764  23.742  1.00  0.00    -0.376 OA
BRANCH  29  30
ATOM     30  C   UNL A   1      36.775  21.533  25.105  1.00  0.00     0.202 C 
BRANCH  30  31
ATOM     31  C   UNL A   1      38.049  21.277  25.901  1.00  0.00     0.261 C 
BRANCH  31  32
ATOM     32  O   UNL A   1      38.975  22.391  25.970  1.00  0.00    -0.460 OA
BRANCH  32  33
ATOM     33  C   UNL A   1      38.505  23.591  26.404  1.00  0.00     0.338 C 
ATOM     34  O   UNL A   1      37.320  23.882  26.465  1.00  0.00    -0.246 OA
BRANCH  33  35
ATOM     35  C   UNL A   1      39.635  24.486  26.806  1.00  0.00     0.060 A 
ATOM     36  C   UNL A   1      40.097  25.449  25.913  1.00  0.00     0.016 A 
ATOM     37  C   UNL A   1      40.348  24.264  27.997  1.00  0.00     0.016 A 
ATOM     38  C   UNL A   1      41.337  26.059  26.153  1.00  0.00     0.010 A 
ATOM     39  C   UNL A   1      41.609  24.832  28.207  1.00  0.00     0.010 A 
ATOM     40  C   UNL A   1      42.144  25.710  27.268  1.00  0.00    -0.014 A 
BRANCH  40  41
ATOM     41  C   UNL A   1      43.262  26.614  27.659  1.00  0.00     0.031 A 
ATOM     42  C   UNL A   1      44.404  25.773  27.982  1.00  0.00     0.074 A 
ATOM     43  C   UNL A   1      43.394  27.962  27.768  1.00  0.00     0.049 A 
ATOM     44  N   UNL A   1      44.759  25.487  29.194  1.00  0.00    -0.248 NA
ATOM     45  C   UNL A   1      45.013  24.938  26.937  1.00  0.00     0.031 C 
ATOM     46  C   UNL A   1      42.272  28.847  27.716  1.00  0.00     0.029 A 
ATOM     47  N   UNL A   1      44.404  28.877  28.005  1.00  0.00    -0.354 N 
ATOM     48  C   UNL A   1      45.961  24.851  28.997  1.00  0.00     0.074 A 
ATOM     49  C   UNL A   1      45.911  24.275  27.669  1.00  0.00     0.031 C 
ATOM     50  C   UNL A   1      42.606  30.137  27.553  1.00  0.00     0.029 A 
ATOM     51  C   UNL A   1      44.043  30.211  27.704  1.00  0.00     0.049 A 
ATOM     52  H   UNL A   1      45.291  28.624  28.352  1.00  0.00     0.167 HD
ATOM     53  C   UNL A   1      47.029  25.437  29.600  1.00  0.00     0.034 A 
ATOM     54  C   UNL A   1      44.719  31.392  27.740  1.00  0.00     0.034 A 
ATOM     55  C   UNL A   1      46.686  26.184  30.781  1.00  0.00     0.049 A 
ATOM     56  C   UNL A   1      45.745  31.247  28.787  1.00  0.00     0.074 A 
ATOM     57  C   UNL A   1      46.050  25.924  31.976  1.00  0.00     0.029 A 
ATOM     58  N   UNL A   1      46.684  27.541  30.616  1.00  0.00    -0.354 N 
ATOM     59  N   UNL A   1      45.487  31.362  30.062  1.00  0.00    -0.248 NA
ATOM     60  C   UNL A   1      47.029  30.651  28.445  1.00  0.00     0.031 C 
ATOM     61  C   UNL A   1      45.670  27.180  32.524  1.00  0.00     0.029 A 
ATOM     62  C   UNL A   1      46.106  28.189  31.672  1.00  0.00     0.049 A 
ATOM     63  H   UNL A   1      47.056  27.999  29.829  1.00  0.00     0.167 HD
ATOM     64  C   UNL A   1      46.321  30.417  30.631  1.00  0.00     0.074 A 
ATOM     65  C   UNL A   1      47.353  30.154  29.640  1.00  0.00     0.031 C 
ATOM     66  C   UNL A   1      45.864  29.617  31.636  1.00  0.00     0.034 A 
BRANCH  53  67
ATOM     67  C   UNL A   1      48.200  25.809  28.743  1.00  0.00     0.023 A 
ATOM     68  C   UNL A   1      49.478  25.395  29.112  1.00  0.00     0.012 A 
ATOM     69  C   UNL A   1      48.086  26.728  27.672  1.00  0.00     0.148 A 
ATOM     70  C   UNL A   1      50.590  25.798  28.365  1.00  0.00     0.002 A 
ATOM     71  C   UNL A   1      49.155  26.989  26.840  1.00  0.00     0.091 A 
ATOM     72  F   UNL A   1      46.980  27.475  27.554  1.00  0.00    -0.205 F 
ATOM     73  C   UNL A   1      50.423  26.543  27.195  1.00  0.00     0.022 A 
BRANCH  71  74
ATOM     74  S   UNL A   1      48.896  27.792  25.258  1.00  0.00     0.127 S 
ATOM     75  O   UNL A   1      50.069  28.653  25.171  1.00  0.00    -0.237 OA
ATOM     76  O   UNL A   1      48.884  26.651  24.342  1.00  0.00    -0.237 OA
ATOM     77  O   UNL A   1      47.605  28.460  25.386  1.00  0.00    -0.744 OA
ENDBRANCH  71  74
ENDBRANCH  53  67
BRANCH  54  78
ATOM     78  C   UNL A   1      44.472  32.705  27.053  1.00  0.00     0.023 A 
ATOM     79  C   UNL A   1      44.403  32.746  25.638  1.00  0.00     0.012 A 
ATOM     80  C   UNL A   1      44.034  33.858  27.742  1.00  0.00     0.148 A 
ATOM     81  C   UNL A   1      43.835  33.836  24.957  1.00  0.00     0.002 A 
ATOM     82  C   UNL A   1      43.467  34.937  27.062  1.00  0.00     0.091 A 
ATOM     83  F   UNL A   1      44.098  33.896  29.078  1.00  0.00    -0.205 F 
ATOM     84  C   UNL A   1      43.343  34.922  25.671  1.00  0.00     0.022 A 
BRANCH  82  85
ATOM     85  S   UNL A   1      42.796  36.349  27.957  1.00  0.00     0.127 S 
ATOM     86  O   UNL A   1      41.617  35.779  28.613  1.00  0.00    -0.237 OA
ATOM     87  O   UNL A   1      43.892  36.682  28.860  1.00  0.00    -0.237 OA
ATOM     88  O   UNL A   1      42.479  37.336  26.930  1.00  0.00    -0.744 OA
ENDBRANCH  82  85
ENDBRANCH  54  78
BRANCH  66  89
ATOM     89  C   UNL A   1      44.993  30.217  32.695  1.00  0.00     0.023 A 
ATOM     90  C   UNL A   1      45.473  30.877  33.839  1.00  0.00     0.012 A 
ATOM     91  C   UNL A   1      43.605  30.177  32.460  1.00  0.00     0.148 A 
ATOM     92  C   UNL A   1      44.579  31.485  34.729  1.00  0.00     0.002 A 
ATOM     93  C   UNL A   1      42.726  30.821  33.317  1.00  0.00     0.091 A 
ATOM     94  F   UNL A   1      43.161  29.508  31.384  1.00  0.00    -0.205 F 
ATOM     95  C   UNL A   1      43.209  31.473  34.460  1.00  0.00     0.022 A 
BRANCH  93  96
ATOM     96  S   UNL A   1      40.973  30.913  32.947  1.00  0.00     0.127 S 
ATOM     97  O   UNL A   1      40.849  29.992  31.819  1.00  0.00    -0.237 OA
ATOM     98  O   UNL A   1      40.363  30.445  34.192  1.00  0.00    -0.237 OA
ATOM     99  O   UNL A   1      40.706  32.315  32.650  1.00  0.00    -0.744 OA
ENDBRANCH  93  96
ENDBRANCH  66  89
ENDBRANCH  40  41
ENDBRANCH  33  35
ENDBRANCH  32  33
ENDBRANCH  31  32
ENDBRANCH  30  31
ENDBRANCH  29  30
ENDBRANCH  28  29
ENDBRANCH  27  28
ENDBRANCH   1  27
TORSDOF 26
ENDMDL
