MODEL 1
REMARK VINA RESULT:      -9.9      0.000      0.000
REMARK SMILES O=C(OCCOCCOCCOCCOC(=O)[C@H](c1c[nH]c2ccc(Cl)cc12)[NH+]1CCN(c2cccc(Cl)c2)CC1)c1ccc(-c2c3nc(c(-c4cccc(S(=O)(=O)[O-])c4F)c4ccc([nH]4)c(-c4cccc(S(=O)(=O)[O-])c4F)c4nc(c(-c5cccc(S(=O)(=O)[O-])c5F)c5ccc2[nH]5)C=C4)C=C3)cc1
REMARK SMILES IDX 8 1 7 2 6 3 5 4 4 5 3 6 2 7 1 8 42 9 43 10 104 11 44 12
REMARK SMILES IDX 103 13 45 14 46 15 47 16 97 17 48 18 102 19 96 20 98 21
REMARK SMILES IDX 49 22 101 23 95 24 94 25 50 27 82 28 62 29 81 30 63 31 66 32
REMARK SMILES IDX 80 33 99 34 64 35 65 36 79 38 100 39 67 40 51 41 52 42 60 43
REMARK SMILES IDX 53 44 55 45 61 46 54 47 56 48 57 49 58 50 59 51 83 52 84 53
REMARK SMILES IDX 92 54 85 55 87 56 93 57 86 58 88 59 89 60 90 61 91 62 68 63
REMARK SMILES IDX 69 64 77 65 70 66 72 67 78 68 71 69 73 70 74 71 75 72 76 73
REMARK SMILES IDX 9 74 10 75 11 76 12 77 13 78 14 79 15 80 16 81 17 82 18 83
REMARK SMILES IDX 29 84 30 85 41 86 31 88 40 89 32 90 33 91 34 92 39 93 35 94
REMARK SMILES IDX 37 95 36 96 38 97 19 98 20 99 28 100 21 101 22 102 27 103
REMARK SMILES IDX 23 105 25 106 24 107 26 108
REMARK H PARENT 98 26 66 37 29 87 21 104
REMARK Flexibility Score: inf
ROOT
ATOM      1  C   UNL A   1      35.690  32.723  28.478  1.00  0.00     0.188 C 
ENDROOT
BRANCH   1   2
ATOM      2  C   UNL A   1      34.665  33.714  29.065  1.00  0.00     0.188 C 
BRANCH   2   3
ATOM      3  O   UNL A   1      35.025  34.421  30.251  1.00  0.00    -0.376 OA
BRANCH   3   4
ATOM      4  C   UNL A   1      35.069  33.753  31.506  1.00  0.00     0.202 C 
BRANCH   4   5
ATOM      5  C   UNL A   1      36.465  33.450  32.073  1.00  0.00     0.261 C 
BRANCH   5   6
ATOM      6  O   UNL A   1      37.406  34.552  32.064  1.00  0.00    -0.460 OA
BRANCH   6   7
ATOM      7  C   UNL A   1      38.665  34.588  32.571  1.00  0.00     0.338 C 
ATOM      8  O   UNL A   1      38.862  34.747  33.770  1.00  0.00    -0.246 OA
BRANCH   7   9
ATOM      9  C   UNL A   1      39.809  34.489  31.648  1.00  0.00     0.060 A 
ATOM     10  C   UNL A   1      41.083  34.217  32.125  1.00  0.00     0.016 A 
ATOM     11  C   UNL A   1      39.619  34.614  30.278  1.00  0.00     0.016 A 
ATOM     12  C   UNL A   1      42.197  34.381  31.330  1.00  0.00     0.010 A 
ATOM     13  C   UNL A   1      40.733  34.609  29.434  1.00  0.00     0.010 A 
ATOM     14  C   UNL A   1      42.035  34.585  29.969  1.00  0.00    -0.014 A 
BRANCH  14  15
ATOM     15  C   UNL A   1      43.212  34.928  29.141  1.00  0.00     0.031 A 
ATOM     16  C   UNL A   1      44.033  33.791  28.608  1.00  0.00     0.074 A 
ATOM     17  C   UNL A   1      43.504  36.202  28.814  1.00  0.00     0.049 A 
ATOM     18  N   UNL A   1      45.260  33.788  28.176  1.00  0.00    -0.248 NA
ATOM     19  C   UNL A   1      43.389  32.463  28.600  1.00  0.00     0.031 C 
ATOM     20  C   UNL A   1      42.703  37.382  29.152  1.00  0.00     0.029 A 
ATOM     21  N   UNL A   1      44.564  36.719  28.114  1.00  0.00    -0.354 N 
ATOM     22  C   UNL A   1      45.583  32.449  27.989  1.00  0.00     0.074 A 
ATOM     23  C   UNL A   1      44.408  31.672  28.303  1.00  0.00     0.031 C 
ATOM     24  C   UNL A   1      43.277  38.475  28.631  1.00  0.00     0.029 A 
ATOM     25  C   UNL A   1      44.557  38.094  28.055  1.00  0.00     0.049 A 
ATOM     26  H   UNL A   1      45.259  36.162  27.696  1.00  0.00     0.167 HD
ATOM     27  C   UNL A   1      46.773  31.932  27.611  1.00  0.00     0.034 A 
ATOM     28  C   UNL A   1      45.520  38.950  27.665  1.00  0.00     0.034 A 
ATOM     29  C   UNL A   1      47.881  32.760  27.223  1.00  0.00     0.049 A 
ATOM     30  C   UNL A   1      46.836  38.359  27.240  1.00  0.00     0.074 A 
ATOM     31  C   UNL A   1      49.152  32.386  26.836  1.00  0.00     0.029 A 
ATOM     32  N   UNL A   1      47.825  34.146  27.148  1.00  0.00    -0.354 N 
ATOM     33  N   UNL A   1      47.181  37.095  27.150  1.00  0.00    -0.248 NA
ATOM     34  C   UNL A   1      47.899  39.303  26.877  1.00  0.00     0.031 C 
ATOM     35  C   UNL A   1      49.868  33.552  26.536  1.00  0.00     0.029 A 
ATOM     36  C   UNL A   1      49.034  34.647  26.711  1.00  0.00     0.049 A 
ATOM     37  H   UNL A   1      47.038  34.692  27.376  1.00  0.00     0.167 HD
ATOM     38  C   UNL A   1      48.495  37.088  26.704  1.00  0.00     0.074 A 
ATOM     39  C   UNL A   1      48.872  38.478  26.516  1.00  0.00     0.031 C 
ATOM     40  C   UNL A   1      49.331  36.041  26.491  1.00  0.00     0.034 A 
BRANCH  27  41
ATOM     41  C   UNL A   1      46.928  30.436  27.657  1.00  0.00     0.023 A 
ATOM     42  C   UNL A   1      47.319  29.788  28.845  1.00  0.00     0.012 A 
ATOM     43  C   UNL A   1      46.711  29.669  26.494  1.00  0.00     0.148 A 
ATOM     44  C   UNL A   1      47.538  28.409  28.864  1.00  0.00     0.002 A 
ATOM     45  C   UNL A   1      46.888  28.290  26.532  1.00  0.00     0.091 A 
ATOM     46  F   UNL A   1      46.369  30.303  25.364  1.00  0.00    -0.205 F 
ATOM     47  C   UNL A   1      47.316  27.661  27.712  1.00  0.00     0.022 A 
BRANCH  45  48
ATOM     48  S   UNL A   1      46.570  27.232  25.116  1.00  0.00     0.127 S 
ATOM     49  O   UNL A   1      45.139  27.443  24.904  1.00  0.00    -0.237 OA
ATOM     50  O   UNL A   1      47.432  27.825  24.092  1.00  0.00    -0.237 OA
ATOM     51  O   UNL A   1      46.948  25.886  25.525  1.00  0.00    -0.744 OA
ENDBRANCH  45  48
ENDBRANCH  27  41
BRANCH  28  52
ATOM     52  C   UNL A   1      45.289  40.425  27.708  1.00  0.00     0.023 A 
ATOM     53  C   UNL A   1      45.376  41.104  28.938  1.00  0.00     0.012 A 
ATOM     54  C   UNL A   1      45.032  41.167  26.537  1.00  0.00     0.148 A 
ATOM     55  C   UNL A   1      45.195  42.489  29.002  1.00  0.00     0.002 A 
ATOM     56  C   UNL A   1      44.919  42.552  26.598  1.00  0.00     0.091 A 
ATOM     57  F   UNL A   1      44.923  40.506  25.376  1.00  0.00    -0.205 F 
ATOM     58  C   UNL A   1      44.984  43.214  27.832  1.00  0.00     0.022 A 
BRANCH  56  59
ATOM     59  S   UNL A   1      44.796  43.568  25.119  1.00  0.00     0.127 S 
ATOM     60  O   UNL A   1      45.017  44.907  25.657  1.00  0.00    -0.237 OA
ATOM     61  O   UNL A   1      45.886  43.046  24.296  1.00  0.00    -0.237 OA
ATOM     62  O   UNL A   1      43.466  43.308  24.582  1.00  0.00    -0.744 OA
ENDBRANCH  56  59
ENDBRANCH  28  52
BRANCH  40  63
ATOM     63  C   UNL A   1      50.704  36.364  25.980  1.00  0.00     0.023 A 
ATOM     64  C   UNL A   1      50.926  36.502  24.597  1.00  0.00     0.012 A 
ATOM     65  C   UNL A   1      51.751  36.612  26.887  1.00  0.00     0.148 A 
ATOM     66  C   UNL A   1      52.185  36.855  24.120  1.00  0.00     0.002 A 
ATOM     67  C   UNL A   1      52.987  37.015  26.407  1.00  0.00     0.091 A 
ATOM     68  F   UNL A   1      51.516  36.450  28.197  1.00  0.00    -0.205 F 
ATOM     69  C   UNL A   1      53.211  37.126  25.024  1.00  0.00     0.022 A 
BRANCH  67  70
ATOM     70  S   UNL A   1      54.325  37.487  27.507  1.00  0.00     0.127 S 
ATOM     71  O   UNL A   1      53.618  38.268  28.519  1.00  0.00    -0.237 OA
ATOM     72  O   UNL A   1      54.819  36.188  27.969  1.00  0.00    -0.237 OA
ATOM     73  O   UNL A   1      55.272  38.232  26.687  1.00  0.00    -0.744 OA
ENDBRANCH  67  70
ENDBRANCH  40  63
ENDBRANCH  14  15
ENDBRANCH   7   9
ENDBRANCH   6   7
ENDBRANCH   5   6
ENDBRANCH   4   5
ENDBRANCH   3   4
ENDBRANCH   2   3
ENDBRANCH   1   2
BRANCH   1  74
ATOM     74  O   UNL A   1      35.146  31.700  27.662  1.00  0.00    -0.377 OA
BRANCH  74  75
ATOM     75  C   UNL A   1      33.731  31.547  27.720  1.00  0.00     0.188 C 
BRANCH  75  76
ATOM     76  C   UNL A   1      33.328  30.192  27.125  1.00  0.00     0.188 C 
BRANCH  76  77
ATOM     77  O   UNL A   1      32.115  30.206  26.377  1.00  0.00    -0.376 OA
BRANCH  77  78
ATOM     78  C   UNL A   1      31.901  29.122  25.473  1.00  0.00     0.202 C 
BRANCH  78  79
ATOM     79  C   UNL A   1      32.590  27.786  25.815  1.00  0.00     0.261 C 
BRANCH  79  80
ATOM     80  O   UNL A   1      31.940  26.967  26.824  1.00  0.00    -0.459 OA
BRANCH  80  81
ATOM     81  C   UNL A   1      31.442  25.762  26.415  1.00  0.00     0.370 C 
ATOM     82  O   UNL A   1      30.240  25.573  26.224  1.00  0.00    -0.245 OA
BRANCH  81  83
ATOM     83  C   UNL A   1      32.480  24.607  26.248  1.00  0.00     0.328 C 
BRANCH  83  84
ATOM     84  N   UNL A   1      31.957  23.326  26.802  1.00  0.00    -0.316 N 
ATOM     85  C   UNL A   1      31.139  22.472  25.931  1.00  0.00     0.284 C 
ATOM     86  C   UNL A   1      32.884  22.524  27.613  1.00  0.00     0.284 C 
ATOM     87  H   UNL A   1      31.289  23.746  27.448  1.00  0.00     0.349 HD
ATOM     88  C   UNL A   1      31.830  21.289  25.227  1.00  0.00     0.178 C 
ATOM     89  C   UNL A   1      33.641  21.369  26.897  1.00  0.00     0.178 C 
ATOM     90  N   UNL A   1      32.709  20.530  26.130  1.00  0.00    -0.360 N 
BRANCH  90  91
ATOM     91  C   UNL A   1      33.211  19.377  25.514  1.00  0.00     0.038 A 
ATOM     92  C   UNL A   1      34.445  19.451  24.857  1.00  0.00     0.026 A 
ATOM     93  C   UNL A   1      32.605  18.121  25.653  1.00  0.00     0.046 A 
ATOM     94  C   UNL A   1      35.078  18.303  24.375  1.00  0.00     0.004 A 
ATOM     95  C   UNL A   1      33.242  16.972  25.179  1.00  0.00     0.043 A 
ATOM     96  C   UNL A   1      34.481  17.056  24.547  1.00  0.00     0.020 A 
ATOM     97  Cl  UNL A   1      32.514  15.429  25.420  1.00  0.00    -0.084 Cl
ENDBRANCH  90  91
ENDBRANCH  83  84
BRANCH  83  98
ATOM     98  C   UNL A   1      33.162  24.417  24.917  1.00  0.00     0.046 A 
ATOM     99  C   UNL A   1      32.584  24.505  23.677  1.00  0.00     0.094 A 
ATOM    100  C   UNL A   1      34.516  23.998  24.664  1.00  0.00     0.011 A 
ATOM    101  N   UNL A   1      33.444  24.076  22.716  1.00  0.00    -0.361 N 
ATOM    102  C   UNL A   1      34.639  23.742  23.293  1.00  0.00     0.046 A 
ATOM    103  C   UNL A   1      35.633  23.745  25.484  1.00  0.00     0.031 A 
ATOM    104  H   UNL A   1      33.238  24.016  21.755  1.00  0.00     0.166 HD
ATOM    105  C   UNL A   1      35.790  23.216  22.703  1.00  0.00     0.028 A 
ATOM    106  C   UNL A   1      36.800  23.238  24.904  1.00  0.00     0.041 A 
ATOM    107  C   UNL A   1      36.877  22.965  23.540  1.00  0.00     0.022 A 
ATOM    108  Cl  UNL A   1      38.168  22.930  25.905  1.00  0.00    -0.084 Cl
ENDBRANCH  83  98
ENDBRANCH  81  83
ENDBRANCH  80  81
ENDBRANCH  79  80
ENDBRANCH  78  79
ENDBRANCH  77  78
ENDBRANCH  76  77
ENDBRANCH  75  76
ENDBRANCH  74  75
ENDBRANCH   1  74
TORSDOF 26
ENDMDL
MODEL 2
REMARK VINA RESULT:      -9.9      8.154     10.279
REMARK SMILES O=C(OCCOCCOCCOCCOC(=O)[C@H](c1c[nH]c2ccc(Cl)cc12)[NH+]1CCN(c2cccc(Cl)c2)CC1)c1ccc(-c2c3nc(c(-c4cccc(S(=O)(=O)[O-])c4F)c4ccc([nH]4)c(-c4cccc(S(=O)(=O)[O-])c4F)c4nc(c(-c5cccc(S(=O)(=O)[O-])c5F)c5ccc2[nH]5)C=C4)C=C3)cc1
REMARK SMILES IDX 8 1 7 2 6 3 5 4 4 5 3 6 2 7 1 8 42 9 43 10 104 11 44 12
REMARK SMILES IDX 103 13 45 14 46 15 47 16 97 17 48 18 102 19 96 20 98 21
REMARK SMILES IDX 49 22 101 23 95 24 94 25 50 27 82 28 62 29 81 30 63 31 66 32
REMARK SMILES IDX 80 33 99 34 64 35 65 36 79 38 100 39 67 40 51 41 52 42 60 43
REMARK SMILES IDX 53 44 55 45 61 46 54 47 56 48 57 49 58 50 59 51 83 52 84 53
REMARK SMILES IDX 92 54 85 55 87 56 93 57 86 58 88 59 89 60 90 61 91 62 68 63
REMARK SMILES IDX 69 64 77 65 70 66 72 67 78 68 71 69 73 70 74 71 75 72 76 73
REMARK SMILES IDX 9 74 10 75 11 76 12 77 13 78 14 79 15 80 16 81 17 82 18 83
REMARK SMILES IDX 29 84 30 85 41 86 31 88 40 89 32 90 33 91 34 92 39 93 35 94
REMARK SMILES IDX 37 95 36 96 38 97 19 98 20 99 28 100 21 101 22 102 27 103
REMARK SMILES IDX 23 105 25 106 24 107 26 108
REMARK H PARENT 98 26 66 37 29 87 21 104
REMARK Flexibility Score: inf
ROOT
ATOM      1  C   UNL A   1      33.967  34.231  28.074  1.00  0.00     0.188 C 
ENDROOT
BRANCH   1   2
ATOM      2  C   UNL A   1      33.324  35.101  29.173  1.00  0.00     0.188 C 
BRANCH   2   3
ATOM      3  O   UNL A   1      33.620  36.496  29.177  1.00  0.00    -0.376 OA
BRANCH   3   4
ATOM      4  C   UNL A   1      33.349  37.290  30.326  1.00  0.00     0.202 C 
BRANCH   4   5
ATOM      5  C   UNL A   1      32.646  36.585  31.496  1.00  0.00     0.261 C 
BRANCH   5   6
ATOM      6  O   UNL A   1      33.503  36.148  32.580  1.00  0.00    -0.460 OA
BRANCH   6   7
ATOM      7  C   UNL A   1      33.818  34.878  32.945  1.00  0.00     0.338 C 
ATOM      8  O   UNL A   1      32.989  33.977  32.888  1.00  0.00    -0.246 OA
BRANCH   7   9
ATOM      9  C   UNL A   1      35.166  34.599  33.469  1.00  0.00     0.060 A 
ATOM     10  C   UNL A   1      36.295  35.000  32.771  1.00  0.00     0.016 A 
ATOM     11  C   UNL A   1      35.326  33.977  34.700  1.00  0.00     0.016 A 
ATOM     12  C   UNL A   1      37.547  34.525  33.098  1.00  0.00     0.010 A 
ATOM     13  C   UNL A   1      36.612  33.640  35.130  1.00  0.00     0.010 A 
ATOM     14  C   UNL A   1      37.721  33.832  34.285  1.00  0.00    -0.014 A 
BRANCH  14  15
ATOM     15  C   UNL A   1      39.019  33.177  34.560  1.00  0.00     0.031 A 
ATOM     16  C   UNL A   1      39.472  32.118  33.600  1.00  0.00     0.074 A 
ATOM     17  C   UNL A   1      39.803  33.558  35.587  1.00  0.00     0.049 A 
ATOM     18  N   UNL A   1      40.345  31.168  33.768  1.00  0.00    -0.248 NA
ATOM     19  C   UNL A   1      38.816  32.105  32.277  1.00  0.00     0.031 C 
ATOM     20  C   UNL A   1      39.539  34.671  36.504  1.00  0.00     0.029 A 
ATOM     21  N   UNL A   1      40.995  33.047  36.032  1.00  0.00    -0.354 N 
ATOM     22  C   UNL A   1      40.237  30.362  32.641  1.00  0.00     0.074 A 
ATOM     23  C   UNL A   1      39.251  30.961  31.772  1.00  0.00     0.031 C 
ATOM     24  C   UNL A   1      40.552  34.781  37.376  1.00  0.00     0.029 A 
ATOM     25  C   UNL A   1      41.457  33.660  37.175  1.00  0.00     0.049 A 
ATOM     26  H   UNL A   1      41.472  32.315  35.579  1.00  0.00     0.167 HD
ATOM     27  C   UNL A   1      40.893  29.208  32.385  1.00  0.00     0.034 A 
ATOM     28  C   UNL A   1      42.444  33.298  38.015  1.00  0.00     0.034 A 
ATOM     29  C   UNL A   1      41.929  28.708  33.244  1.00  0.00     0.049 A 
ATOM     30  C   UNL A   1      43.171  32.016  37.711  1.00  0.00     0.074 A 
ATOM     31  C   UNL A   1      42.671  27.549  33.129  1.00  0.00     0.029 A 
ATOM     32  N   UNL A   1      42.388  29.373  34.375  1.00  0.00    -0.354 N 
ATOM     33  N   UNL A   1      43.010  31.198  36.697  1.00  0.00    -0.248 NA
ATOM     34  C   UNL A   1      44.202  31.598  38.667  1.00  0.00     0.031 C 
ATOM     35  C   UNL A   1      43.573  27.510  34.199  1.00  0.00     0.029 A 
ATOM     36  C   UNL A   1      43.410  28.657  34.964  1.00  0.00     0.049 A 
ATOM     37  H   UNL A   1      42.034  30.229  34.708  1.00  0.00     0.167 HD
ATOM     38  C   UNL A   1      43.929  30.175  36.881  1.00  0.00     0.074 A 
ATOM     39  C   UNL A   1      44.663  30.496  38.092  1.00  0.00     0.031 C 
ATOM     40  C   UNL A   1      44.140  29.058  36.141  1.00  0.00     0.034 A 
BRANCH  27  41
ATOM     41  C   UNL A   1      40.467  28.419  31.176  1.00  0.00     0.023 A 
ATOM     42  C   UNL A   1      39.301  27.629  31.206  1.00  0.00     0.012 A 
ATOM     43  C   UNL A   1      41.254  28.440  30.007  1.00  0.00     0.148 A 
ATOM     44  C   UNL A   1      38.951  26.836  30.112  1.00  0.00     0.002 A 
ATOM     45  C   UNL A   1      40.876  27.683  28.904  1.00  0.00     0.091 A 
ATOM     46  F   UNL A   1      42.377  29.173  30.004  1.00  0.00    -0.205 F 
ATOM     47  C   UNL A   1      39.733  26.869  28.960  1.00  0.00     0.022 A 
BRANCH  45  48
ATOM     48  S   UNL A   1      41.784  27.703  27.355  1.00  0.00     0.127 S 
ATOM     49  O   UNL A   1      40.947  26.852  26.510  1.00  0.00    -0.237 OA
ATOM     50  O   UNL A   1      41.759  29.123  27.004  1.00  0.00    -0.237 OA
ATOM     51  O   UNL A   1      43.107  27.173  27.656  1.00  0.00    -0.744 OA
ENDBRANCH  45  48
ENDBRANCH  27  41
BRANCH  28  52
ATOM     52  C   UNL A   1      42.756  34.120  39.221  1.00  0.00     0.023 A 
ATOM     53  C   UNL A   1      42.120  33.829  40.443  1.00  0.00     0.012 A 
ATOM     54  C   UNL A   1      43.711  35.158  39.182  1.00  0.00     0.148 A 
ATOM     55  C   UNL A   1      42.417  34.562  41.595  1.00  0.00     0.002 A 
ATOM     56  C   UNL A   1      44.049  35.840  40.345  1.00  0.00     0.091 A 
ATOM     57  F   UNL A   1      44.288  35.446  38.007  1.00  0.00    -0.205 F 
ATOM     58  C   UNL A   1      43.392  35.556  41.550  1.00  0.00     0.022 A 
BRANCH  56  59
ATOM     59  S   UNL A   1      45.398  37.027  40.399  1.00  0.00     0.127 S 
ATOM     60  O   UNL A   1      44.881  38.107  39.563  1.00  0.00    -0.237 OA
ATOM     61  O   UNL A   1      45.478  37.338  41.826  1.00  0.00    -0.237 OA
ATOM     62  O   UNL A   1      46.560  36.318  39.878  1.00  0.00    -0.744 OA
ENDBRANCH  56  59
ENDBRANCH  28  52
BRANCH  40  63
ATOM     63  C   UNL A   1      45.239  28.143  36.595  1.00  0.00     0.023 A 
ATOM     64  C   UNL A   1      46.563  28.371  36.175  1.00  0.00     0.012 A 
ATOM     65  C   UNL A   1      44.960  27.108  37.507  1.00  0.00     0.148 A 
ATOM     66  C   UNL A   1      47.595  27.559  36.636  1.00  0.00     0.002 A 
ATOM     67  C   UNL A   1      46.001  26.338  38.003  1.00  0.00     0.091 A 
ATOM     68  F   UNL A   1      43.687  26.899  37.871  1.00  0.00    -0.205 F 
ATOM     69  C   UNL A   1      47.317  26.552  37.560  1.00  0.00     0.022 A 
BRANCH  67  70
ATOM     70  S   UNL A   1      45.742  25.097  39.274  1.00  0.00     0.127 S 
ATOM     71  O   UNL A   1      45.100  25.880  40.328  1.00  0.00    -0.237 OA
ATOM     72  O   UNL A   1      44.863  24.140  38.600  1.00  0.00    -0.237 OA
ATOM     73  O   UNL A   1      47.064  24.575  39.596  1.00  0.00    -0.744 OA
ENDBRANCH  67  70
ENDBRANCH  40  63
ENDBRANCH  14  15
ENDBRANCH   7   9
ENDBRANCH   6   7
ENDBRANCH   5   6
ENDBRANCH   4   5
ENDBRANCH   3   4
ENDBRANCH   2   3
ENDBRANCH   1   2
BRANCH   1  74
ATOM     74  O   UNL A   1      34.665  33.088  28.535  1.00  0.00    -0.377 OA
BRANCH  74  75
ATOM     75  C   UNL A   1      34.281  31.848  27.949  1.00  0.00     0.188 C 
BRANCH  75  76
ATOM     76  C   UNL A   1      35.503  30.931  27.817  1.00  0.00     0.188 C 
BRANCH  76  77
ATOM     77  O   UNL A   1      35.211  29.538  27.843  1.00  0.00    -0.376 OA
BRANCH  77  78
ATOM     78  C   UNL A   1      33.873  29.153  27.530  1.00  0.00     0.202 C 
BRANCH  78  79
ATOM     79  C   UNL A   1      33.664  28.367  26.220  1.00  0.00     0.261 C 
BRANCH  79  80
ATOM     80  O   UNL A   1      33.782  26.922  26.311  1.00  0.00    -0.459 OA
BRANCH  80  81
ATOM     81  C   UNL A   1      32.631  26.198  26.180  1.00  0.00     0.370 C 
ATOM     82  O   UNL A   1      31.578  26.523  26.733  1.00  0.00    -0.245 OA
BRANCH  81  83
ATOM     83  C   UNL A   1      32.726  24.894  25.326  1.00  0.00     0.328 C 
BRANCH  83  84
ATOM     84  N   UNL A   1      32.187  25.108  23.953  1.00  0.00    -0.316 N 
ATOM     85  C   UNL A   1      30.766  24.826  23.710  1.00  0.00     0.284 C 
ATOM     86  C   UNL A   1      32.614  26.328  23.252  1.00  0.00     0.284 C 
ATOM     87  H   UNL A   1      32.680  24.329  23.514  1.00  0.00     0.349 HD
ATOM     88  C   UNL A   1      29.784  26.013  23.725  1.00  0.00     0.178 C 
ATOM     89  C   UNL A   1      31.662  27.556  23.317  1.00  0.00     0.178 C 
ATOM     90  N   UNL A   1      30.287  27.171  22.969  1.00  0.00    -0.360 N 
BRANCH  90  91
ATOM     91  C   UNL A   1      29.322  28.181  22.870  1.00  0.00     0.038 A 
ATOM     92  C   UNL A   1      28.009  27.897  23.267  1.00  0.00     0.026 A 
ATOM     93  C   UNL A   1      29.644  29.502  22.531  1.00  0.00     0.046 A 
ATOM     94  C   UNL A   1      27.046  28.904  23.355  1.00  0.00     0.004 A 
ATOM     95  C   UNL A   1      28.682  30.511  22.628  1.00  0.00     0.043 A 
ATOM     96  C   UNL A   1      27.385  30.219  23.046  1.00  0.00     0.020 A 
ATOM     97  Cl  UNL A   1      29.114  32.141  22.273  1.00  0.00    -0.084 Cl
ENDBRANCH  90  91
ENDBRANCH  83  84
BRANCH  83  98
ATOM     98  C   UNL A   1      34.015  24.112  25.318  1.00  0.00     0.046 A 
ATOM     99  C   UNL A   1      35.284  24.620  25.225  1.00  0.00     0.094 A 
ATOM    100  C   UNL A   1      34.186  22.683  25.292  1.00  0.00     0.011 A 
ATOM    101  N   UNL A   1      36.188  23.622  25.042  1.00  0.00    -0.361 N 
ATOM    102  C   UNL A   1      35.541  22.416  25.063  1.00  0.00     0.046 A 
ATOM    103  C   UNL A   1      33.303  21.589  25.372  1.00  0.00     0.031 A 
ATOM    104  H   UNL A   1      37.156  23.748  24.915  1.00  0.00     0.166 HD
ATOM    105  C   UNL A   1      36.056  21.131  24.874  1.00  0.00     0.028 A 
ATOM    106  C   UNL A   1      33.808  20.296  25.206  1.00  0.00     0.041 A 
ATOM    107  C   UNL A   1      35.158  20.067  24.947  1.00  0.00     0.022 A 
ATOM    108  Cl  UNL A   1      32.731  18.955  25.305  1.00  0.00    -0.084 Cl
ENDBRANCH  83  98
ENDBRANCH  81  83
ENDBRANCH  80  81
ENDBRANCH  79  80
ENDBRANCH  78  79
ENDBRANCH  77  78
ENDBRANCH  76  77
ENDBRANCH  75  76
ENDBRANCH  74  75
ENDBRANCH   1  74
TORSDOF 26
ENDMDL
MODEL 3
REMARK VINA RESULT:      -9.7      3.900      6.865
REMARK SMILES O=C(OCCOCCOCCOCCOC(=O)[C@H](c1c[nH]c2ccc(Cl)cc12)[NH+]1CCN(c2cccc(Cl)c2)CC1)c1ccc(-c2c3nc(c(-c4cccc(S(=O)(=O)[O-])c4F)c4ccc([nH]4)c(-c4cccc(S(=O)(=O)[O-])c4F)c4nc(c(-c5cccc(S(=O)(=O)[O-])c5F)c5ccc2[nH]5)C=C4)C=C3)cc1
REMARK SMILES IDX 8 1 7 2 6 3 5 4 4 5 3 6 2 7 1 8 42 9 43 10 104 11 44 12
REMARK SMILES IDX 103 13 45 14 46 15 47 16 97 17 48 18 102 19 96 20 98 21
REMARK SMILES IDX 49 22 101 23 95 24 94 25 50 27 82 28 62 29 81 30 63 31 66 32
REMARK SMILES IDX 80 33 99 34 64 35 65 36 79 38 100 39 67 40 51 41 52 42 60 43
REMARK SMILES IDX 53 44 55 45 61 46 54 47 56 48 57 49 58 50 59 51 83 52 84 53
REMARK SMILES IDX 92 54 85 55 87 56 93 57 86 58 88 59 89 60 90 61 91 62 68 63
REMARK SMILES IDX 69 64 77 65 70 66 72 67 78 68 71 69 73 70 74 71 75 72 76 73
REMARK SMILES IDX 9 74 10 75 11 76 12 77 13 78 14 79 15 80 16 81 17 82 18 83
REMARK SMILES IDX 29 84 30 85 41 86 31 88 40 89 32 90 33 91 34 92 39 93 35 94
REMARK SMILES IDX 37 95 36 96 38 97 19 98 20 99 28 100 21 101 22 102 27 103
REMARK SMILES IDX 23 105 25 106 24 107 26 108
REMARK H PARENT 98 26 66 37 29 87 21 104
REMARK Flexibility Score: inf
ROOT
ATOM      1  C   UNL A   1      34.621  33.001  28.513  1.00  0.00     0.188 C 
ENDROOT
BRANCH   1   2
ATOM      2  C   UNL A   1      35.532  34.031  29.211  1.00  0.00     0.188 C 
BRANCH   2   3
ATOM      3  O   UNL A   1      35.376  34.214  30.617  1.00  0.00    -0.376 OA
BRANCH   3   4
ATOM      4  C   UNL A   1      35.017  33.122  31.454  1.00  0.00     0.202 C 
BRANCH   4   5
ATOM      5  C   UNL A   1      36.141  32.513  32.307  1.00  0.00     0.261 C 
BRANCH   5   6
ATOM      6  O   UNL A   1      36.220  31.067  32.313  1.00  0.00    -0.460 OA
BRANCH   6   7
ATOM      7  C   UNL A   1      36.773  30.249  31.380  1.00  0.00     0.338 C 
ATOM      8  O   UNL A   1      36.151  29.300  30.919  1.00  0.00    -0.246 OA
BRANCH   7   9
ATOM      9  C   UNL A   1      38.166  30.484  30.960  1.00  0.00     0.060 A 
ATOM     10  C   UNL A   1      38.455  30.915  29.674  1.00  0.00     0.016 A 
ATOM     11  C   UNL A   1      39.207  30.328  31.865  1.00  0.00     0.016 A 
ATOM     12  C   UNL A   1      39.742  30.886  29.181  1.00  0.00     0.010 A 
ATOM     13  C   UNL A   1      40.524  30.465  31.417  1.00  0.00     0.010 A 
ATOM     14  C   UNL A   1      40.797  30.654  30.049  1.00  0.00    -0.014 A 
BRANCH  14  15
ATOM     15  C   UNL A   1      42.157  30.455  29.502  1.00  0.00     0.031 A 
ATOM     16  C   UNL A   1      42.515  29.075  29.035  1.00  0.00     0.074 A 
ATOM     17  C   UNL A   1      43.023  31.478  29.360  1.00  0.00     0.049 A 
ATOM     18  N   UNL A   1      43.688  28.542  28.853  1.00  0.00    -0.248 NA
ATOM     19  C   UNL A   1      41.390  28.156  28.777  1.00  0.00     0.031 C 
ATOM     20  C   UNL A   1      42.742  32.888  29.644  1.00  0.00     0.029 A 
ATOM     21  N   UNL A   1      44.325  31.486  28.932  1.00  0.00    -0.354 N 
ATOM     22  C   UNL A   1      43.448  27.195  28.607  1.00  0.00     0.074 A 
ATOM     23  C   UNL A   1      42.017  27.002  28.612  1.00  0.00     0.031 C 
ATOM     24  C   UNL A   1      43.822  33.626  29.350  1.00  0.00     0.029 A 
ATOM     25  C   UNL A   1      44.912  32.729  29.002  1.00  0.00     0.049 A 
ATOM     26  H   UNL A   1      44.793  30.683  28.607  1.00  0.00     0.167 HD
ATOM     27  C   UNL A   1      44.359  26.214  28.423  1.00  0.00     0.034 A 
ATOM     28  C   UNL A   1      46.206  33.085  28.889  1.00  0.00     0.034 A 
ATOM     29  C   UNL A   1      45.767  26.482  28.338  1.00  0.00     0.049 A 
ATOM     30  C   UNL A   1      47.207  31.983  28.675  1.00  0.00     0.074 A 
ATOM     31  C   UNL A   1      46.813  25.596  28.172  1.00  0.00     0.029 A 
ATOM     32  N   UNL A   1      46.320  27.757  28.384  1.00  0.00    -0.354 N 
ATOM     33  N   UNL A   1      46.997  30.694  28.536  1.00  0.00    -0.248 NA
ATOM     34  C   UNL A   1      48.620  32.375  28.617  1.00  0.00     0.031 C 
ATOM     35  C   UNL A   1      48.000  26.337  28.128  1.00  0.00     0.029 A 
ATOM     36  C   UNL A   1      47.690  27.686  28.240  1.00  0.00     0.049 A 
ATOM     37  H   UNL A   1      45.808  28.589  28.503  1.00  0.00     0.167 HD
ATOM     38  C   UNL A   1      48.247  30.120  28.356  1.00  0.00     0.074 A 
ATOM     39  C   UNL A   1      49.206  31.210  28.377  1.00  0.00     0.031 C 
ATOM     40  C   UNL A   1      48.587  28.814  28.213  1.00  0.00     0.034 A 
BRANCH  27  41
ATOM     41  C   UNL A   1      43.854  24.798  28.357  1.00  0.00     0.023 A 
ATOM     42  C   UNL A   1      43.440  24.127  29.524  1.00  0.00     0.012 A 
ATOM     43  C   UNL A   1      43.820  24.118  27.123  1.00  0.00     0.148 A 
ATOM     44  C   UNL A   1      43.047  22.788  29.472  1.00  0.00     0.002 A 
ATOM     45  C   UNL A   1      43.385  22.799  27.071  1.00  0.00     0.091 A 
ATOM     46  F   UNL A   1      44.246  24.761  26.027  1.00  0.00    -0.205 F 
ATOM     47  C   UNL A   1      43.013  22.128  28.247  1.00  0.00     0.022 A 
BRANCH  45  48
ATOM     48  S   UNL A   1      43.249  21.881  25.534  1.00  0.00     0.127 S 
ATOM     49  O   UNL A   1      44.501  21.126  25.529  1.00  0.00    -0.237 OA
ATOM     50  O   UNL A   1      42.051  21.073  25.765  1.00  0.00    -0.237 OA
ATOM     51  O   UNL A   1      43.117  22.877  24.479  1.00  0.00    -0.744 OA
ENDBRANCH  45  48
ENDBRANCH  27  41
BRANCH  28  52
ATOM     52  C   UNL A   1      46.615  34.514  29.024  1.00  0.00     0.023 A 
ATOM     53  C   UNL A   1      46.720  35.087  30.306  1.00  0.00     0.012 A 
ATOM     54  C   UNL A   1      46.948  35.298  27.900  1.00  0.00     0.148 A 
ATOM     55  C   UNL A   1      47.132  36.414  30.463  1.00  0.00     0.002 A 
ATOM     56  C   UNL A   1      47.420  36.595  28.067  1.00  0.00     0.091 A 
ATOM     57  F   UNL A   1      46.816  34.751  26.682  1.00  0.00    -0.205 F 
ATOM     58  C   UNL A   1      47.497  37.161  29.346  1.00  0.00     0.022 A 
BRANCH  56  59
ATOM     59  S   UNL A   1      48.049  37.568  26.692  1.00  0.00     0.127 S 
ATOM     60  O   UNL A   1      48.410  38.820  27.351  1.00  0.00    -0.237 OA
ATOM     61  O   UNL A   1      49.183  36.761  26.238  1.00  0.00    -0.237 OA
ATOM     62  O   UNL A   1      46.952  37.643  25.736  1.00  0.00    -0.744 OA
ENDBRANCH  56  59
ENDBRANCH  28  52
BRANCH  40  63
ATOM     63  C   UNL A   1      50.043  28.513  28.013  1.00  0.00     0.023 A 
ATOM     64  C   UNL A   1      50.884  28.332  29.127  1.00  0.00     0.012 A 
ATOM     65  C   UNL A   1      50.550  28.327  26.713  1.00  0.00     0.148 A 
ATOM     66  C   UNL A   1      52.224  27.998  28.948  1.00  0.00     0.002 A 
ATOM     67  C   UNL A   1      51.871  27.943  26.545  1.00  0.00     0.091 A 
ATOM     68  F   UNL A   1      49.731  28.529  25.671  1.00  0.00    -0.205 F 
ATOM     69  C   UNL A   1      52.714  27.790  27.660  1.00  0.00     0.022 A 
BRANCH  67  70
ATOM     70  S   UNL A   1      52.548  27.549  24.930  1.00  0.00     0.127 S 
ATOM     71  O   UNL A   1      51.445  26.815  24.315  1.00  0.00    -0.237 OA
ATOM     72  O   UNL A   1      52.792  28.877  24.363  1.00  0.00    -0.237 OA
ATOM     73  O   UNL A   1      53.756  26.774  25.182  1.00  0.00    -0.744 OA
ENDBRANCH  67  70
ENDBRANCH  40  63
ENDBRANCH  14  15
ENDBRANCH   7   9
ENDBRANCH   6   7
ENDBRANCH   5   6
ENDBRANCH   4   5
ENDBRANCH   3   4
ENDBRANCH   2   3
ENDBRANCH   1   2
BRANCH   1  74
ATOM     74  O   UNL A   1      35.231  31.760  28.207  1.00  0.00    -0.377 OA
BRANCH  74  75
ATOM     75  C   UNL A   1      34.369  30.759  27.677  1.00  0.00     0.188 C 
BRANCH  75  76
ATOM     76  C   UNL A   1      35.151  29.457  27.460  1.00  0.00     0.188 C 
BRANCH  76  77
ATOM     77  O   UNL A   1      34.705  28.668  26.361  1.00  0.00    -0.376 OA
BRANCH  77  78
ATOM     78  C   UNL A   1      33.536  27.875  26.567  1.00  0.00     0.202 C 
BRANCH  78  79
ATOM     79  C   UNL A   1      33.049  27.031  25.371  1.00  0.00     0.261 C 
BRANCH  79  80
ATOM     80  O   UNL A   1      34.001  26.838  24.291  1.00  0.00    -0.459 OA
BRANCH  80  81
ATOM     81  C   UNL A   1      33.723  25.848  23.391  1.00  0.00     0.370 C 
ATOM     82  O   UNL A   1      34.274  25.778  22.292  1.00  0.00    -0.245 OA
BRANCH  81  83
ATOM     83  C   UNL A   1      32.621  24.823  23.810  1.00  0.00     0.328 C 
BRANCH  83  84
ATOM     84  N   UNL A   1      31.340  25.085  23.096  1.00  0.00    -0.316 N 
ATOM     85  C   UNL A   1      30.144  25.379  23.895  1.00  0.00     0.284 C 
ATOM     86  C   UNL A   1      31.406  25.943  21.904  1.00  0.00     0.284 C 
ATOM     87  H   UNL A   1      31.197  24.131  22.764  1.00  0.00     0.349 HD
ATOM     88  C   UNL A   1      29.747  26.856  24.082  1.00  0.00     0.178 C 
ATOM     89  C   UNL A   1      31.074  27.451  22.092  1.00  0.00     0.178 C 
ATOM     90  N   UNL A   1      29.812  27.621  22.827  1.00  0.00    -0.360 N 
BRANCH  90  91
ATOM     91  C   UNL A   1      29.309  28.917  22.985  1.00  0.00     0.038 A 
ATOM     92  C   UNL A   1      28.025  29.203  22.502  1.00  0.00     0.026 A 
ATOM     93  C   UNL A   1      29.971  29.900  23.735  1.00  0.00     0.046 A 
ATOM     94  C   UNL A   1      27.402  30.422  22.780  1.00  0.00     0.004 A 
ATOM     95  C   UNL A   1      29.343  31.114  24.021  1.00  0.00     0.043 A 
ATOM     96  C   UNL A   1      28.057  31.377  23.554  1.00  0.00     0.020 A 
ATOM     97  Cl  UNL A   1      30.146  32.281  25.002  1.00  0.00    -0.084 Cl
ENDBRANCH  90  91
ENDBRANCH  83  84
BRANCH  83  98
ATOM     98  C   UNL A   1      32.961  23.355  23.855  1.00  0.00     0.046 A 
ATOM     99  C   UNL A   1      32.127  22.309  23.555  1.00  0.00     0.094 A 
ATOM    100  C   UNL A   1      34.174  22.737  24.323  1.00  0.00     0.011 A 
ATOM    101  N   UNL A   1      32.700  21.126  23.900  1.00  0.00    -0.361 N 
ATOM    102  C   UNL A   1      33.956  21.356  24.390  1.00  0.00     0.046 A 
ATOM    103  C   UNL A   1      35.418  23.231  24.761  1.00  0.00     0.031 A 
ATOM    104  H   UNL A   1      32.276  20.242  23.809  1.00  0.00     0.166 HD
ATOM    105  C   UNL A   1      34.887  20.450  24.902  1.00  0.00     0.028 A 
ATOM    106  C   UNL A   1      36.368  22.332  25.257  1.00  0.00     0.041 A 
ATOM    107  C   UNL A   1      36.106  20.966  25.340  1.00  0.00     0.022 A 
ATOM    108  Cl  UNL A   1      37.891  22.932  25.794  1.00  0.00    -0.084 Cl
ENDBRANCH  83  98
ENDBRANCH  81  83
ENDBRANCH  80  81
ENDBRANCH  79  80
ENDBRANCH  78  79
ENDBRANCH  77  78
ENDBRANCH  76  77
ENDBRANCH  75  76
ENDBRANCH  74  75
ENDBRANCH   1  74
TORSDOF 26
ENDMDL
