MODEL 1
REMARK VINA RESULT:      -9.5      0.000      0.000
REMARK SMILES CC(C)(O)C#Cc1ccc(C(=O)N[C@@H](CC2=c3ccccc3=NC2)C(=O)OCCOCCOCCOCCOC(=O)c2ccc(-c3c4nc(c(-c5cccc(S(=O)(=O)[O-])c5F)c5ccc([nH]5)c(-c5cccc(S(=O)(=O)[O-])c5F)c5nc(c(-c6cccc(S(=O)(=O)[O-])c6F)c6ccc3[nH]6)C=C5)C=C4)cc2)s1
REMARK SMILES IDX 32 1 31 2 30 3 29 4 28 5 27 6 25 7 26 8 14 9 13 10 11 11
REMARK SMILES IDX 12 12 10 14 7 15 8 16 105 17 9 18 6 19 5 20 2 21 1 22 3 23
REMARK SMILES IDX 4 24 15 26 16 27 17 28 24 29 18 30 22 31 23 32 19 33 21 34
REMARK SMILES IDX 20 35 33 36 34 37 35 38 36 39 37 40 38 41 39 42 40 43 41 44
REMARK SMILES IDX 42 45 43 46 104 47 44 48 103 49 45 50 46 51 47 52 97 53
REMARK SMILES IDX 48 54 102 55 96 56 98 57 49 58 101 59 95 60 94 61 50 63
REMARK SMILES IDX 82 64 62 65 81 66 63 67 66 68 80 69 99 70 64 71 65 72 79 74
REMARK SMILES IDX 100 75 67 76 51 77 52 78 60 79 53 80 55 81 61 82 54 83 56 84
REMARK SMILES IDX 57 85 58 86 59 87 83 88 84 89 92 90 85 91 87 92 93 93 86 94
REMARK SMILES IDX 88 95 89 96 90 97 91 98 68 99 69 100 77 101 70 102 72 103
REMARK SMILES IDX 78 104 71 105 73 106 74 107 75 108 76 109
REMARK H PARENT 13 13 4 25 98 62 66 73
REMARK Flexibility Score: inf
ROOT
ATOM      1  C   UNL A   1      35.085  22.065  26.093  1.00  0.00     0.188 C 
ENDROOT
BRANCH   1   2
ATOM      2  C   UNL A   1      33.818  21.474  26.716  1.00  0.00     0.188 C 
BRANCH   2   3
ATOM      3  O   UNL A   1      33.052  22.213  27.646  1.00  0.00    -0.376 OA
BRANCH   3   4
ATOM      4  C   UNL A   1      32.250  23.316  27.243  1.00  0.00     0.202 C 
BRANCH   4   5
ATOM      5  C   UNL A   1      31.030  23.174  26.322  1.00  0.00     0.261 C 
BRANCH   5   6
ATOM      6  O   UNL A   1      30.499  24.415  25.837  1.00  0.00    -0.462 OA
BRANCH   6   7
ATOM      7  C   UNL A   1      30.786  24.712  24.551  1.00  0.00     0.329 C 
ATOM      8  O   UNL A   1      30.529  23.994  23.588  1.00  0.00    -0.250 OA
BRANCH   7   9
ATOM      9  C   UNL A   1      31.522  26.045  24.378  1.00  0.00     0.196 C 
BRANCH   9  10
ATOM     10  N   UNL A   1      32.912  26.195  24.863  1.00  0.00    -0.338 N 
ATOM     11  C   UNL A   1      33.643  27.252  25.365  1.00  0.00     0.262 C 
ATOM     12  O   UNL A   1      34.872  27.141  25.353  1.00  0.00    -0.268 OA
ATOM     13  H   UNL A   1      33.428  25.358  24.817  1.00  0.00     0.164 HD
BRANCH  11  14
ATOM     14  C   UNL A   1      33.004  28.353  26.064  1.00  0.00     0.093 A 
ATOM     15  C   UNL A   1      32.903  30.537  27.072  1.00  0.00     0.078 A 
ATOM     16  C   UNL A   1      31.851  30.369  26.203  1.00  0.00     0.030 A 
ATOM     17  S   UNL A   1      33.526  29.026  27.537  1.00  0.00    -0.121 S 
ATOM     18  C   UNL A   1      31.880  29.053  25.638  1.00  0.00     0.027 A 
BRANCH  15  19
ATOM     19  C   UNL A   1      33.408  31.747  27.602  1.00  0.00    -0.053 C 
ATOM     20  C   UNL A   1      33.931  32.896  27.926  1.00  0.00    -0.063 C 
BRANCH  20  21
ATOM     21  C   UNL A   1      34.541  34.236  28.303  1.00  0.00     0.120 C 
ATOM     22  C   UNL A   1      35.941  34.022  28.875  1.00  0.00     0.056 C 
ATOM     23  C   UNL A   1      33.638  34.954  29.302  1.00  0.00     0.056 C 
BRANCH  21  24
ATOM     24  O   UNL A   1      34.620  35.030  27.122  1.00  0.00    -0.378 OA
ATOM     25  H   UNL A   1      34.268  34.528  26.371  1.00  0.00     0.212 HD
ENDBRANCH  21  24
ENDBRANCH  20  21
ENDBRANCH  15  19
ENDBRANCH  11  14
ENDBRANCH   9  10
BRANCH   9  26
ATOM     26  C   UNL A   1      31.448  26.449  22.893  1.00  0.00     0.070 C 
BRANCH  26  27
ATOM     27  C   UNL A   1      30.569  27.641  22.667  1.00  0.00    -0.037 C 
ATOM     28  C   UNL A   1      29.280  27.771  22.974  1.00  0.00     0.001 A 
ATOM     29  C   UNL A   1      31.116  28.927  22.115  1.00  0.00     0.174 C 
ATOM     30  C   UNL A   1      28.287  26.928  23.556  1.00  0.00     0.010 A 
ATOM     31  C   UNL A   1      29.026  29.192  22.698  1.00  0.00     0.065 A 
ATOM     32  N   UNL A   1      30.000  29.893  22.213  1.00  0.00    -0.280 NA
ATOM     33  C   UNL A   1      27.096  27.459  23.873  1.00  0.00     0.001 A 
ATOM     34  C   UNL A   1      27.683  29.697  23.047  1.00  0.00     0.028 A 
ATOM     35  C   UNL A   1      26.796  28.856  23.607  1.00  0.00     0.002 A 
ENDBRANCH  26  27
ENDBRANCH   9  26
ENDBRANCH   7   9
ENDBRANCH   6   7
ENDBRANCH   5   6
ENDBRANCH   4   5
ENDBRANCH   3   4
ENDBRANCH   2   3
ENDBRANCH   1   2
BRANCH   1  36
ATOM     36  O   UNL A   1      35.599  21.398  24.963  1.00  0.00    -0.377 OA
BRANCH  36  37
ATOM     37  C   UNL A   1      36.973  21.031  24.959  1.00  0.00     0.188 C 
BRANCH  37  38
ATOM     38  C   UNL A   1      38.001  21.976  25.603  1.00  0.00     0.188 C 
BRANCH  38  39
ATOM     39  O   UNL A   1      39.147  21.282  26.096  1.00  0.00    -0.376 OA
BRANCH  39  40
ATOM     40  C   UNL A   1      39.967  21.965  27.036  1.00  0.00     0.202 C 
BRANCH  40  41
ATOM     41  C   UNL A   1      41.464  21.991  26.697  1.00  0.00     0.261 C 
BRANCH  41  42
ATOM     42  O   UNL A   1      41.813  23.039  25.781  1.00  0.00    -0.460 OA
BRANCH  42  43
ATOM     43  C   UNL A   1      42.960  23.720  26.022  1.00  0.00     0.338 C 
ATOM     44  O   UNL A   1      43.993  23.644  25.390  1.00  0.00    -0.246 OA
BRANCH  43  45
ATOM     45  C   UNL A   1      42.576  24.822  26.941  1.00  0.00     0.060 A 
ATOM     46  C   UNL A   1      41.774  25.883  26.506  1.00  0.00     0.016 A 
ATOM     47  C   UNL A   1      43.278  24.908  28.152  1.00  0.00     0.016 A 
ATOM     48  C   UNL A   1      41.753  27.065  27.241  1.00  0.00     0.010 A 
ATOM     49  C   UNL A   1      43.273  26.100  28.870  1.00  0.00     0.010 A 
ATOM     50  C   UNL A   1      42.537  27.192  28.399  1.00  0.00    -0.014 A 
BRANCH  50  51
ATOM     51  C   UNL A   1      42.381  28.412  29.199  1.00  0.00     0.031 A 
ATOM     52  C   UNL A   1      43.358  29.481  28.850  1.00  0.00     0.074 A 
ATOM     53  C   UNL A   1      41.359  28.708  30.030  1.00  0.00     0.049 A 
ATOM     54  N   UNL A   1      44.217  30.083  29.609  1.00  0.00    -0.248 NA
ATOM     55  C   UNL A   1      43.426  29.856  27.428  1.00  0.00     0.031 C 
ATOM     56  C   UNL A   1      40.119  27.956  30.214  1.00  0.00     0.029 A 
ATOM     57  N   UNL A   1      41.160  29.834  30.787  1.00  0.00    -0.354 N 
ATOM     58  C   UNL A   1      44.809  31.042  28.793  1.00  0.00     0.074 A 
ATOM     59  C   UNL A   1      44.392  30.768  27.440  1.00  0.00     0.031 C 
ATOM     60  C   UNL A   1      39.222  28.733  30.859  1.00  0.00     0.029 A 
ATOM     61  C   UNL A   1      39.837  30.006  31.188  1.00  0.00     0.049 A 
ATOM     62  H   UNL A   1      41.881  30.460  31.023  1.00  0.00     0.167 HD
ATOM     63  C   UNL A   1      45.447  32.145  29.263  1.00  0.00     0.034 A 
ATOM     64  C   UNL A   1      39.268  31.147  31.655  1.00  0.00     0.034 A 
ATOM     65  C   UNL A   1      45.773  32.082  30.652  1.00  0.00     0.049 A 
ATOM     66  C   UNL A   1      40.355  32.050  32.099  1.00  0.00     0.074 A 
ATOM     67  C   UNL A   1      46.554  31.265  31.442  1.00  0.00     0.029 A 
ATOM     68  N   UNL A   1      44.986  32.808  31.509  1.00  0.00    -0.354 N 
ATOM     69  N   UNL A   1      41.110  31.850  33.141  1.00  0.00    -0.248 NA
ATOM     70  C   UNL A   1      40.808  33.091  31.190  1.00  0.00     0.031 C 
ATOM     71  C   UNL A   1      45.901  31.231  32.708  1.00  0.00     0.029 A 
ATOM     72  C   UNL A   1      44.758  32.027  32.612  1.00  0.00     0.049 A 
ATOM     73  H   UNL A   1      44.648  33.721  31.360  1.00  0.00     0.167 HD
ATOM     74  C   UNL A   1      42.320  32.447  32.820  1.00  0.00     0.074 A 
ATOM     75  C   UNL A   1      42.029  33.306  31.680  1.00  0.00     0.031 C 
ATOM     76  C   UNL A   1      43.497  31.974  33.323  1.00  0.00     0.034 A 
BRANCH  63  77
ATOM     77  C   UNL A   1      45.501  33.417  28.474  1.00  0.00     0.023 A 
ATOM     78  C   UNL A   1      46.744  33.970  28.130  1.00  0.00     0.012 A 
ATOM     79  C   UNL A   1      44.341  34.180  28.211  1.00  0.00     0.148 A 
ATOM     80  C   UNL A   1      46.823  35.219  27.502  1.00  0.00     0.002 A 
ATOM     81  C   UNL A   1      44.417  35.373  27.509  1.00  0.00     0.091 A 
ATOM     82  F   UNL A   1      43.167  33.790  28.731  1.00  0.00    -0.205 F 
ATOM     83  C   UNL A   1      45.660  35.907  27.164  1.00  0.00     0.022 A 
BRANCH  81  84
ATOM     84  S   UNL A   1      42.932  36.222  26.969  1.00  0.00     0.127 S 
ATOM     85  O   UNL A   1      42.493  35.378  25.863  1.00  0.00    -0.237 OA
ATOM     86  O   UNL A   1      42.094  36.161  28.167  1.00  0.00    -0.237 OA
ATOM     87  O   UNL A   1      43.375  37.567  26.625  1.00  0.00    -0.744 OA
ENDBRANCH  81  84
ENDBRANCH  63  77
BRANCH  64  88
ATOM     88  C   UNL A   1      37.860  31.628  31.564  1.00  0.00     0.023 A 
ATOM     89  C   UNL A   1      36.942  30.934  30.746  1.00  0.00     0.012 A 
ATOM     90  C   UNL A   1      37.339  32.596  32.450  1.00  0.00     0.148 A 
ATOM     91  C   UNL A   1      35.562  31.164  30.837  1.00  0.00     0.002 A 
ATOM     92  C   UNL A   1      35.968  32.844  32.515  1.00  0.00     0.091 A 
ATOM     93  F   UNL A   1      38.160  33.208  33.312  1.00  0.00    -0.205 F 
ATOM     94  C   UNL A   1      35.074  32.119  31.723  1.00  0.00     0.022 A 
BRANCH  92  95
ATOM     95  S   UNL A   1      35.302  34.086  33.632  1.00  0.00     0.127 S 
ATOM     96  O   UNL A   1      35.573  33.505  34.948  1.00  0.00    -0.237 OA
ATOM     97  O   UNL A   1      36.107  35.257  33.303  1.00  0.00    -0.237 OA
ATOM     98  O   UNL A   1      33.882  34.170  33.305  1.00  0.00    -0.744 OA
ENDBRANCH  92  95
ENDBRANCH  64  88
BRANCH  76  99
ATOM     99  C   UNL A   1      43.444  31.048  34.509  1.00  0.00     0.023 A 
ATOM    100  C   UNL A   1      43.601  31.524  35.827  1.00  0.00     0.012 A 
ATOM    101  C   UNL A   1      43.045  29.716  34.304  1.00  0.00     0.148 A 
ATOM    102  C   UNL A   1      43.373  30.683  36.919  1.00  0.00     0.002 A 
ATOM    103  C   UNL A   1      42.784  28.893  35.393  1.00  0.00     0.091 A 
ATOM    104  F   UNL A   1      42.889  29.290  33.040  1.00  0.00    -0.205 F 
ATOM    105  C   UNL A   1      42.951  29.373  36.702  1.00  0.00     0.022 A 
BRANCH 103 106
ATOM    106  S   UNL A   1      42.146  27.225  35.198  1.00  0.00     0.127 S 
ATOM    107  O   UNL A   1      43.307  26.514  34.665  1.00  0.00    -0.237 OA
ATOM    108  O   UNL A   1      41.788  26.863  36.571  1.00  0.00    -0.237 OA
ATOM    109  O   UNL A   1      41.012  27.326  34.289  1.00  0.00    -0.744 OA
ENDBRANCH 103 106
ENDBRANCH  76  99
ENDBRANCH  50  51
ENDBRANCH  43  45
ENDBRANCH  42  43
ENDBRANCH  41  42
ENDBRANCH  40  41
ENDBRANCH  39  40
ENDBRANCH  38  39
ENDBRANCH  37  38
ENDBRANCH  36  37
ENDBRANCH   1  36
TORSDOF 30
ENDMDL
MODEL 2
REMARK VINA RESULT:      -9.2      2.884      6.095
REMARK SMILES CC(C)(O)C#Cc1ccc(C(=O)N[C@@H](CC2=c3ccccc3=NC2)C(=O)OCCOCCOCCOCCOC(=O)c2ccc(-c3c4nc(c(-c5cccc(S(=O)(=O)[O-])c5F)c5ccc([nH]5)c(-c5cccc(S(=O)(=O)[O-])c5F)c5nc(c(-c6cccc(S(=O)(=O)[O-])c6F)c6ccc3[nH]6)C=C5)C=C4)cc2)s1
REMARK SMILES IDX 32 1 31 2 30 3 29 4 28 5 27 6 25 7 26 8 14 9 13 10 11 11
REMARK SMILES IDX 12 12 10 14 7 15 8 16 105 17 9 18 6 19 5 20 2 21 1 22 3 23
REMARK SMILES IDX 4 24 15 26 16 27 17 28 24 29 18 30 22 31 23 32 19 33 21 34
REMARK SMILES IDX 20 35 33 36 34 37 35 38 36 39 37 40 38 41 39 42 40 43 41 44
REMARK SMILES IDX 42 45 43 46 104 47 44 48 103 49 45 50 46 51 47 52 97 53
REMARK SMILES IDX 48 54 102 55 96 56 98 57 49 58 101 59 95 60 94 61 50 63
REMARK SMILES IDX 82 64 62 65 81 66 63 67 66 68 80 69 99 70 64 71 65 72 79 74
REMARK SMILES IDX 100 75 67 76 51 77 52 78 60 79 53 80 55 81 61 82 54 83 56 84
REMARK SMILES IDX 57 85 58 86 59 87 83 88 84 89 92 90 85 91 87 92 93 93 86 94
REMARK SMILES IDX 88 95 89 96 90 97 91 98 68 99 69 100 77 101 70 102 72 103
REMARK SMILES IDX 78 104 71 105 73 106 74 107 75 108 76 109
REMARK H PARENT 13 13 4 25 98 62 66 73
REMARK Flexibility Score: inf
ROOT
ATOM      1  C   UNL A   1      36.094  21.090  25.441  1.00  0.00     0.188 C 
ENDROOT
BRANCH   1   2
ATOM      2  C   UNL A   1      34.663  21.349  25.919  1.00  0.00     0.188 C 
BRANCH   2   3
ATOM      3  O   UNL A   1      34.412  22.085  27.100  1.00  0.00    -0.376 OA
BRANCH   3   4
ATOM      4  C   UNL A   1      33.715  23.324  27.073  1.00  0.00     0.202 C 
BRANCH   4   5
ATOM      5  C   UNL A   1      32.199  23.429  26.858  1.00  0.00     0.261 C 
BRANCH   5   6
ATOM      6  O   UNL A   1      31.678  24.764  26.911  1.00  0.00    -0.462 OA
BRANCH   6   7
ATOM      7  C   UNL A   1      30.604  25.005  26.128  1.00  0.00     0.329 C 
ATOM      8  O   UNL A   1      29.538  24.397  26.187  1.00  0.00    -0.250 OA
BRANCH   7   9
ATOM      9  C   UNL A   1      30.835  26.111  25.092  1.00  0.00     0.196 C 
BRANCH   9  10
ATOM     10  N   UNL A   1      32.203  26.404  24.610  1.00  0.00    -0.338 N 
ATOM     11  C   UNL A   1      33.086  27.445  24.806  1.00  0.00     0.262 C 
ATOM     12  O   UNL A   1      34.006  27.562  23.993  1.00  0.00    -0.268 OA
ATOM     13  H   UNL A   1      32.561  25.701  24.020  1.00  0.00     0.164 HD
BRANCH  11  14
ATOM     14  C   UNL A   1      33.062  28.242  26.020  1.00  0.00     0.093 A 
ATOM     15  C   UNL A   1      33.440  30.215  27.347  1.00  0.00     0.078 A 
ATOM     16  C   UNL A   1      32.147  29.775  27.512  1.00  0.00     0.030 A 
ATOM     17  S   UNL A   1      34.418  28.953  26.762  1.00  0.00    -0.121 S 
ATOM     18  C   UNL A   1      31.933  28.573  26.763  1.00  0.00     0.027 A 
BRANCH  15  19
ATOM     19  C   UNL A   1      33.972  31.487  27.659  1.00  0.00    -0.053 C 
ATOM     20  C   UNL A   1      34.294  32.715  27.955  1.00  0.00    -0.063 C 
BRANCH  20  21
ATOM     21  C   UNL A   1      34.667  34.148  28.300  1.00  0.00     0.120 C 
ATOM     22  C   UNL A   1      35.972  34.162  29.095  1.00  0.00     0.056 C 
ATOM     23  C   UNL A   1      33.534  34.804  29.083  1.00  0.00     0.056 C 
BRANCH  21  24
ATOM     24  O   UNL A   1      34.839  34.863  27.080  1.00  0.00    -0.378 OA
ATOM     25  H   UNL A   1      34.714  34.260  26.331  1.00  0.00     0.212 HD
ENDBRANCH  21  24
ENDBRANCH  20  21
ENDBRANCH  15  19
ENDBRANCH  11  14
ENDBRANCH   9  10
BRANCH   9  26
ATOM     26  C   UNL A   1      29.910  25.846  23.889  1.00  0.00     0.070 C 
BRANCH  26  27
ATOM     27  C   UNL A   1      28.945  26.966  23.650  1.00  0.00    -0.037 C 
ATOM     28  C   UNL A   1      29.189  28.141  23.075  1.00  0.00     0.001 A 
ATOM     29  C   UNL A   1      27.485  26.828  23.976  1.00  0.00     0.174 C 
ATOM     30  C   UNL A   1      30.341  28.781  22.526  1.00  0.00     0.010 A 
ATOM     31  C   UNL A   1      27.847  28.724  22.950  1.00  0.00     0.065 A 
ATOM     32  N   UNL A   1      26.852  28.052  23.435  1.00  0.00    -0.280 NA
ATOM     33  C   UNL A   1      30.183  29.939  21.866  1.00  0.00     0.001 A 
ATOM     34  C   UNL A   1      27.755  30.014  22.236  1.00  0.00     0.028 A 
ATOM     35  C   UNL A   1      28.875  30.558  21.729  1.00  0.00     0.002 A 
ENDBRANCH  26  27
ENDBRANCH   9  26
ENDBRANCH   7   9
ENDBRANCH   6   7
ENDBRANCH   5   6
ENDBRANCH   4   5
ENDBRANCH   3   4
ENDBRANCH   2   3
ENDBRANCH   1   2
BRANCH   1  36
ATOM     36  O   UNL A   1      36.315  19.883  24.749  1.00  0.00    -0.377 OA
BRANCH  36  37
ATOM     37  C   UNL A   1      37.544  19.196  24.960  1.00  0.00     0.188 C 
BRANCH  37  38
ATOM     38  C   UNL A   1      38.807  20.008  25.292  1.00  0.00     0.188 C 
BRANCH  38  39
ATOM     39  O   UNL A   1      39.953  19.179  25.486  1.00  0.00    -0.376 OA
BRANCH  39  40
ATOM     40  C   UNL A   1      40.876  19.572  26.494  1.00  0.00     0.202 C 
BRANCH  40  41
ATOM     41  C   UNL A   1      42.139  20.276  25.982  1.00  0.00     0.261 C 
BRANCH  41  42
ATOM     42  O   UNL A   1      41.925  21.664  25.682  1.00  0.00    -0.460 OA
BRANCH  42  43
ATOM     43  C   UNL A   1      42.995  22.381  25.259  1.00  0.00     0.338 C 
ATOM     44  O   UNL A   1      43.636  22.195  24.246  1.00  0.00    -0.246 OA
BRANCH  43  45
ATOM     45  C   UNL A   1      42.970  23.632  26.060  1.00  0.00     0.060 A 
ATOM     46  C   UNL A   1      43.962  24.609  25.911  1.00  0.00     0.016 A 
ATOM     47  C   UNL A   1      42.100  23.660  27.158  1.00  0.00     0.016 A 
ATOM     48  C   UNL A   1      44.138  25.557  26.915  1.00  0.00     0.010 A 
ATOM     49  C   UNL A   1      42.295  24.596  28.171  1.00  0.00     0.010 A 
ATOM     50  C   UNL A   1      43.335  25.525  28.067  1.00  0.00    -0.014 A 
BRANCH  50  51
ATOM     51  C   UNL A   1      43.482  26.620  29.033  1.00  0.00     0.031 A 
ATOM     52  C   UNL A   1      44.320  26.265  30.212  1.00  0.00     0.074 A 
ATOM     53  C   UNL A   1      43.118  27.908  28.854  1.00  0.00     0.049 A 
ATOM     54  N   UNL A   1      44.016  26.299  31.470  1.00  0.00    -0.248 NA
ATOM     55  C   UNL A   1      45.654  25.717  29.916  1.00  0.00     0.031 C 
ATOM     56  C   UNL A   1      42.630  28.530  27.625  1.00  0.00     0.029 A 
ATOM     57  N   UNL A   1      43.244  28.968  29.715  1.00  0.00    -0.354 N 
ATOM     58  C   UNL A   1      45.189  25.946  32.132  1.00  0.00     0.074 A 
ATOM     59  C   UNL A   1      46.114  25.466  31.136  1.00  0.00     0.031 C 
ATOM     60  C   UNL A   1      42.696  29.873  27.752  1.00  0.00     0.029 A 
ATOM     61  C   UNL A   1      43.167  30.207  29.085  1.00  0.00     0.049 A 
ATOM     62  H   UNL A   1      43.377  28.863  30.685  1.00  0.00     0.167 HD
ATOM     63  C   UNL A   1      45.442  26.248  33.432  1.00  0.00     0.034 A 
ATOM     64  C   UNL A   1      43.565  31.404  29.586  1.00  0.00     0.034 A 
ATOM     65  C   UNL A   1      44.289  26.647  34.174  1.00  0.00     0.049 A 
ATOM     66  C   UNL A   1      43.671  31.268  31.058  1.00  0.00     0.074 A 
ATOM     67  C   UNL A   1      43.091  26.058  34.520  1.00  0.00     0.029 A 
ATOM     68  N   UNL A   1      44.147  27.987  34.430  1.00  0.00    -0.354 N 
ATOM     69  N   UNL A   1      42.661  31.122  31.866  1.00  0.00    -0.248 NA
ATOM     70  C   UNL A   1      44.980  31.013  31.638  1.00  0.00     0.031 C 
ATOM     71  C   UNL A   1      42.148  27.125  34.565  1.00  0.00     0.029 A 
ATOM     72  C   UNL A   1      42.827  28.300  34.240  1.00  0.00     0.049 A 
ATOM     73  H   UNL A   1      44.861  28.609  34.701  1.00  0.00     0.167 HD
ATOM     74  C   UNL A   1      43.163  30.379  32.926  1.00  0.00     0.074 A 
ATOM     75  C   UNL A   1      44.611  30.465  32.797  1.00  0.00     0.031 C 
ATOM     76  C   UNL A   1      42.364  29.533  33.637  1.00  0.00     0.034 A 
BRANCH  63  77
ATOM     77  C   UNL A   1      46.839  26.453  33.932  1.00  0.00     0.023 A 
ATOM     78  C   UNL A   1      47.401  27.740  33.916  1.00  0.00     0.012 A 
ATOM     79  C   UNL A   1      47.682  25.366  34.258  1.00  0.00     0.148 A 
ATOM     80  C   UNL A   1      48.743  27.939  34.261  1.00  0.00     0.002 A 
ATOM     81  C   UNL A   1      48.983  25.578  34.686  1.00  0.00     0.091 A 
ATOM     82  F   UNL A   1      47.243  24.114  34.059  1.00  0.00    -0.205 F 
ATOM     83  C   UNL A   1      49.526  26.864  34.675  1.00  0.00     0.022 A 
BRANCH  81  84
ATOM     84  S   UNL A   1      49.976  24.226  35.324  1.00  0.00     0.127 S 
ATOM     85  O   UNL A   1      49.325  23.958  36.601  1.00  0.00    -0.237 OA
ATOM     86  O   UNL A   1      49.783  23.197  34.300  1.00  0.00    -0.237 OA
ATOM     87  O   UNL A   1      51.333  24.754  35.383  1.00  0.00    -0.744 OA
ENDBRANCH  81  84
ENDBRANCH  63  77
BRANCH  64  88
ATOM     88  C   UNL A   1      44.071  32.621  28.890  1.00  0.00     0.023 A 
ATOM     89  C   UNL A   1      45.117  32.495  27.949  1.00  0.00     0.012 A 
ATOM     90  C   UNL A   1      43.388  33.855  28.941  1.00  0.00     0.148 A 
ATOM     91  C   UNL A   1      45.439  33.539  27.069  1.00  0.00     0.002 A 
ATOM     92  C   UNL A   1      43.732  34.902  28.086  1.00  0.00     0.091 A 
ATOM     93  F   UNL A   1      42.328  33.986  29.748  1.00  0.00    -0.205 F 
ATOM     94  C   UNL A   1      44.746  34.743  27.137  1.00  0.00     0.022 A 
BRANCH  92  95
ATOM     95  S   UNL A   1      42.873  36.480  28.159  1.00  0.00     0.127 S 
ATOM     96  O   UNL A   1      43.022  36.856  29.566  1.00  0.00    -0.237 OA
ATOM     97  O   UNL A   1      43.643  37.292  27.223  1.00  0.00    -0.237 OA
ATOM     98  O   UNL A   1      41.498  36.182  27.772  1.00  0.00    -0.744 OA
ENDBRANCH  92  95
ENDBRANCH  64  88
BRANCH  76  99
ATOM     99  C   UNL A   1      40.871  29.688  33.510  1.00  0.00     0.023 A 
ATOM    100  C   UNL A   1      40.136  30.519  34.380  1.00  0.00     0.012 A 
ATOM    101  C   UNL A   1      40.232  29.138  32.385  1.00  0.00     0.148 A 
ATOM    102  C   UNL A   1      38.787  30.787  34.137  1.00  0.00     0.002 A 
ATOM    103  C   UNL A   1      38.899  29.436  32.126  1.00  0.00     0.091 A 
ATOM    104  F   UNL A   1      40.956  28.360  31.563  1.00  0.00    -0.205 F 
ATOM    105  C   UNL A   1      38.173  30.258  33.004  1.00  0.00     0.022 A 
BRANCH 103 106
ATOM    106  S   UNL A   1      38.065  28.871  30.640  1.00  0.00     0.127 S 
ATOM    107  O   UNL A   1      38.409  27.451  30.617  1.00  0.00    -0.237 OA
ATOM    108  O   UNL A   1      36.660  29.153  30.942  1.00  0.00    -0.237 OA
ATOM    109  O   UNL A   1      38.612  29.658  29.542  1.00  0.00    -0.744 OA
ENDBRANCH 103 106
ENDBRANCH  76  99
ENDBRANCH  50  51
ENDBRANCH  43  45
ENDBRANCH  42  43
ENDBRANCH  41  42
ENDBRANCH  40  41
ENDBRANCH  39  40
ENDBRANCH  38  39
ENDBRANCH  37  38
ENDBRANCH  36  37
ENDBRANCH   1  36
TORSDOF 30
ENDMDL
MODEL 3
REMARK VINA RESULT:      -9.1      4.951     13.178
REMARK SMILES CC(C)(O)C#Cc1ccc(C(=O)N[C@@H](CC2=c3ccccc3=NC2)C(=O)OCCOCCOCCOCCOC(=O)c2ccc(-c3c4nc(c(-c5cccc(S(=O)(=O)[O-])c5F)c5ccc([nH]5)c(-c5cccc(S(=O)(=O)[O-])c5F)c5nc(c(-c6cccc(S(=O)(=O)[O-])c6F)c6ccc3[nH]6)C=C5)C=C4)cc2)s1
REMARK SMILES IDX 32 1 31 2 30 3 29 4 28 5 27 6 25 7 26 8 14 9 13 10 11 11
REMARK SMILES IDX 12 12 10 14 7 15 8 16 105 17 9 18 6 19 5 20 2 21 1 22 3 23
REMARK SMILES IDX 4 24 15 26 16 27 17 28 24 29 18 30 22 31 23 32 19 33 21 34
REMARK SMILES IDX 20 35 33 36 34 37 35 38 36 39 37 40 38 41 39 42 40 43 41 44
REMARK SMILES IDX 42 45 43 46 104 47 44 48 103 49 45 50 46 51 47 52 97 53
REMARK SMILES IDX 48 54 102 55 96 56 98 57 49 58 101 59 95 60 94 61 50 63
REMARK SMILES IDX 82 64 62 65 81 66 63 67 66 68 80 69 99 70 64 71 65 72 79 74
REMARK SMILES IDX 100 75 67 76 51 77 52 78 60 79 53 80 55 81 61 82 54 83 56 84
REMARK SMILES IDX 57 85 58 86 59 87 83 88 84 89 92 90 85 91 87 92 93 93 86 94
REMARK SMILES IDX 88 95 89 96 90 97 91 98 68 99 69 100 77 101 70 102 72 103
REMARK SMILES IDX 78 104 71 105 73 106 74 107 75 108 76 109
REMARK H PARENT 13 13 4 25 98 62 66 73
REMARK Flexibility Score: inf
ROOT
ATOM      1  C   UNL A   1      34.628  35.097  34.090  1.00  0.00     0.188 C 
ENDROOT
BRANCH   1   2
ATOM      2  C   UNL A   1      35.590  33.943  33.799  1.00  0.00     0.188 C 
BRANCH   2   3
ATOM      3  O   UNL A   1      36.133  33.166  34.848  1.00  0.00    -0.376 OA
BRANCH   3   4
ATOM      4  C   UNL A   1      37.441  32.614  34.767  1.00  0.00     0.202 C 
BRANCH   4   5
ATOM      5  C   UNL A   1      37.966  31.555  35.746  1.00  0.00     0.261 C 
BRANCH   5   6
ATOM      6  O   UNL A   1      37.574  31.754  37.111  1.00  0.00    -0.462 OA
BRANCH   6   7
ATOM      7  C   UNL A   1      38.383  32.553  37.842  1.00  0.00     0.329 C 
ATOM      8  O   UNL A   1      39.370  33.141  37.409  1.00  0.00    -0.250 OA
BRANCH   7   9
ATOM      9  C   UNL A   1      37.984  32.643  39.319  1.00  0.00     0.196 C 
BRANCH   9  10
ATOM     10  N   UNL A   1      37.848  33.964  39.973  1.00  0.00    -0.338 N 
ATOM     11  C   UNL A   1      38.671  34.723  40.779  1.00  0.00     0.262 C 
ATOM     12  O   UNL A   1      38.137  35.615  41.444  1.00  0.00    -0.268 OA
ATOM     13  H   UNL A   1      36.981  34.394  39.794  1.00  0.00     0.164 HD
BRANCH  11  14
ATOM     14  C   UNL A   1      40.117  34.620  40.699  1.00  0.00     0.093 A 
ATOM     15  C   UNL A   1      42.206  33.818  39.809  1.00  0.00     0.078 A 
ATOM     16  C   UNL A   1      42.225  35.191  39.897  1.00  0.00     0.030 A 
ATOM     17  S   UNL A   1      41.016  33.182  40.842  1.00  0.00    -0.121 S 
ATOM     18  C   UNL A   1      41.003  35.668  40.473  1.00  0.00     0.027 A 
BRANCH  15  19
ATOM     19  C   UNL A   1      43.058  32.984  39.050  1.00  0.00    -0.053 C 
ATOM     20  C   UNL A   1      43.850  32.348  38.234  1.00  0.00    -0.063 C 
BRANCH  20  21
ATOM     21  C   UNL A   1      44.775  31.607  37.281  1.00  0.00     0.120 C 
ATOM     22  C   UNL A   1      44.171  30.249  36.930  1.00  0.00     0.056 C 
ATOM     23  C   UNL A   1      46.155  31.453  37.913  1.00  0.00     0.056 C 
BRANCH  21  24
ATOM     24  O   UNL A   1      44.910  32.393  36.101  1.00  0.00    -0.378 OA
ATOM     25  H   UNL A   1      45.635  32.043  35.560  1.00  0.00     0.212 HD
ENDBRANCH  21  24
ENDBRANCH  20  21
ENDBRANCH  15  19
ENDBRANCH  11  14
ENDBRANCH   9  10
BRANCH   9  26
ATOM     26  C   UNL A   1      36.689  31.832  39.520  1.00  0.00     0.070 C 
BRANCH  26  27
ATOM     27  C   UNL A   1      36.273  31.764  40.957  1.00  0.00    -0.037 C 
ATOM     28  C   UNL A   1      36.846  31.069  41.938  1.00  0.00     0.001 A 
ATOM     29  C   UNL A   1      35.145  32.602  41.489  1.00  0.00     0.174 C 
ATOM     30  C   UNL A   1      37.953  30.174  42.032  1.00  0.00     0.010 A 
ATOM     31  C   UNL A   1      36.128  31.542  43.129  1.00  0.00     0.065 A 
ATOM     32  N   UNL A   1      35.166  32.390  42.954  1.00  0.00    -0.280 NA
ATOM     33  C   UNL A   1      38.355  29.770  43.247  1.00  0.00     0.001 A 
ATOM     34  C   UNL A   1      36.609  31.033  44.430  1.00  0.00     0.028 A 
ATOM     35  C   UNL A   1      37.667  30.204  44.453  1.00  0.00     0.002 A 
ENDBRANCH  26  27
ENDBRANCH   9  26
ENDBRANCH   7   9
ENDBRANCH   6   7
ENDBRANCH   5   6
ENDBRANCH   4   5
ENDBRANCH   3   4
ENDBRANCH   2   3
ENDBRANCH   1   2
BRANCH   1  36
ATOM     36  O   UNL A   1      34.797  36.265  33.320  1.00  0.00    -0.377 OA
BRANCH  36  37
ATOM     37  C   UNL A   1      33.692  36.742  32.561  1.00  0.00     0.188 C 
BRANCH  37  38
ATOM     38  C   UNL A   1      33.011  35.798  31.557  1.00  0.00     0.188 C 
BRANCH  38  39
ATOM     39  O   UNL A   1      33.773  35.629  30.363  1.00  0.00    -0.376 OA
BRANCH  39  40
ATOM     40  C   UNL A   1      33.269  34.721  29.391  1.00  0.00     0.202 C 
BRANCH  40  41
ATOM     41  C   UNL A   1      34.330  34.077  28.489  1.00  0.00     0.261 C 
BRANCH  41  42
ATOM     42  O   UNL A   1      35.013  32.982  29.118  1.00  0.00    -0.460 OA
BRANCH  42  43
ATOM     43  C   UNL A   1      35.052  31.805  28.448  1.00  0.00     0.338 C 
ATOM     44  O   UNL A   1      34.396  31.505  27.473  1.00  0.00    -0.246 OA
BRANCH  43  45
ATOM     45  C   UNL A   1      36.299  31.137  28.901  1.00  0.00     0.060 A 
ATOM     46  C   UNL A   1      37.388  31.879  29.376  1.00  0.00     0.016 A 
ATOM     47  C   UNL A   1      36.450  29.786  28.563  1.00  0.00     0.016 A 
ATOM     48  C   UNL A   1      38.646  31.286  29.421  1.00  0.00     0.010 A 
ATOM     49  C   UNL A   1      37.715  29.204  28.587  1.00  0.00     0.010 A 
ATOM     50  C   UNL A   1      38.821  29.963  28.984  1.00  0.00    -0.014 A 
BRANCH  50  51
ATOM     51  C   UNL A   1      40.142  29.351  29.169  1.00  0.00     0.031 A 
ATOM     52  C   UNL A   1      40.481  29.086  30.595  1.00  0.00     0.074 A 
ATOM     53  C   UNL A   1      40.940  28.848  28.203  1.00  0.00     0.049 A 
ATOM     54  N   UNL A   1      41.493  29.505  31.285  1.00  0.00    -0.248 NA
ATOM     55  C   UNL A   1      39.492  28.310  31.361  1.00  0.00     0.031 C 
ATOM     56  C   UNL A   1      40.617  28.670  26.789  1.00  0.00     0.029 A 
ATOM     57  N   UNL A   1      42.172  28.257  28.322  1.00  0.00    -0.354 N 
ATOM     58  C   UNL A   1      41.359  28.893  32.528  1.00  0.00     0.074 A 
ATOM     59  C   UNL A   1      40.050  28.288  32.567  1.00  0.00     0.031 C 
ATOM     60  C   UNL A   1      41.526  27.842  26.228  1.00  0.00     0.029 A 
ATOM     61  C   UNL A   1      42.526  27.484  27.219  1.00  0.00     0.049 A 
ATOM     62  H   UNL A   1      42.750  28.367  29.111  1.00  0.00     0.167 HD
ATOM     63  C   UNL A   1      42.385  28.719  33.400  1.00  0.00     0.034 A 
ATOM     64  C   UNL A   1      43.499  26.540  27.163  1.00  0.00     0.034 A 
ATOM     65  C   UNL A   1      43.538  29.512  33.110  1.00  0.00     0.049 A 
ATOM     66  C   UNL A   1      44.422  26.769  28.299  1.00  0.00     0.074 A 
ATOM     67  C   UNL A   1      43.806  30.861  33.025  1.00  0.00     0.029 A 
ATOM     68  N   UNL A   1      44.604  28.871  32.532  1.00  0.00    -0.354 N 
ATOM     69  N   UNL A   1      45.234  27.782  28.405  1.00  0.00    -0.248 NA
ATOM     70  C   UNL A   1      44.246  25.978  29.507  1.00  0.00     0.031 C 
ATOM     71  C   UNL A   1      44.814  30.982  32.025  1.00  0.00     0.029 A 
ATOM     72  C   UNL A   1      45.096  29.698  31.557  1.00  0.00     0.049 A 
ATOM     73  H   UNL A   1      44.951  27.981  32.772  1.00  0.00     0.167 HD
ATOM     74  C   UNL A   1      45.356  27.993  29.772  1.00  0.00     0.074 A 
ATOM     75  C   UNL A   1      44.845  26.778  30.391  1.00  0.00     0.031 C 
ATOM     76  C   UNL A   1      45.592  29.239  30.276  1.00  0.00     0.034 A 
BRANCH  63  77
ATOM     77  C   UNL A   1      42.411  27.574  34.364  1.00  0.00     0.023 A 
ATOM     78  C   UNL A   1      41.797  27.707  35.620  1.00  0.00     0.012 A 
ATOM     79  C   UNL A   1      43.187  26.417  34.126  1.00  0.00     0.148 A 
ATOM     80  C   UNL A   1      41.913  26.699  36.584  1.00  0.00     0.002 A 
ATOM     81  C   UNL A   1      43.224  25.382  35.048  1.00  0.00     0.091 A 
ATOM     82  F   UNL A   1      43.969  26.364  33.037  1.00  0.00    -0.205 F 
ATOM     83  C   UNL A   1      42.601  25.524  36.289  1.00  0.00     0.022 A 
BRANCH  81  84
ATOM     84  S   UNL A   1      44.011  23.819  34.649  1.00  0.00     0.127 S 
ATOM     85  O   UNL A   1      42.996  23.180  33.819  1.00  0.00    -0.237 OA
ATOM     86  O   UNL A   1      45.212  24.256  33.937  1.00  0.00    -0.237 OA
ATOM     87  O   UNL A   1      44.282  23.198  35.940  1.00  0.00    -0.744 OA
ENDBRANCH  81  84
ENDBRANCH  63  77
BRANCH  64  88
ATOM     88  C   UNL A   1      43.601  25.309  26.328  1.00  0.00     0.023 A 
ATOM     89  C   UNL A   1      44.663  25.183  25.406  1.00  0.00     0.012 A 
ATOM     90  C   UNL A   1      42.831  24.156  26.594  1.00  0.00     0.148 A 
ATOM     91  C   UNL A   1      44.970  23.953  24.807  1.00  0.00     0.002 A 
ATOM     92  C   UNL A   1      43.119  22.941  25.972  1.00  0.00     0.091 A 
ATOM     93  F   UNL A   1      41.878  24.204  27.533  1.00  0.00    -0.205 F 
ATOM     94  C   UNL A   1      44.198  22.831  25.090  1.00  0.00     0.022 A 
BRANCH  92  95
ATOM     95  S   UNL A   1      42.132  21.474  26.297  1.00  0.00     0.127 S 
ATOM     96  O   UNL A   1      42.758  20.473  25.432  1.00  0.00    -0.237 OA
ATOM     97  O   UNL A   1      42.347  21.271  27.726  1.00  0.00    -0.237 OA
ATOM     98  O   UNL A   1      40.775  21.833  25.897  1.00  0.00    -0.744 OA
ENDBRANCH  92  95
ENDBRANCH  64  88
BRANCH  76  99
ATOM     99  C   UNL A   1      46.086  30.306  29.335  1.00  0.00     0.023 A 
ATOM    100  C   UNL A   1      47.462  30.528  29.126  1.00  0.00     0.012 A 
ATOM    101  C   UNL A   1      45.153  30.963  28.515  1.00  0.00     0.148 A 
ATOM    102  C   UNL A   1      47.898  31.397  28.123  1.00  0.00     0.002 A 
ATOM    103  C   UNL A   1      45.591  31.799  27.494  1.00  0.00     0.091 A 
ATOM    104  F   UNL A   1      43.848  30.726  28.725  1.00  0.00    -0.205 F 
ATOM    105  C   UNL A   1      46.964  32.020  27.298  1.00  0.00     0.022 A 
BRANCH 103 106
ATOM    106  S   UNL A   1      44.456  32.563  26.332  1.00  0.00     0.127 S 
ATOM    107  O   UNL A   1      43.637  31.427  25.912  1.00  0.00    -0.237 OA
ATOM    108  O   UNL A   1      43.758  33.540  27.170  1.00  0.00    -0.237 OA
ATOM    109  O   UNL A   1      45.280  33.152  25.284  1.00  0.00    -0.744 OA
ENDBRANCH 103 106
ENDBRANCH  76  99
ENDBRANCH  50  51
ENDBRANCH  43  45
ENDBRANCH  42  43
ENDBRANCH  41  42
ENDBRANCH  40  41
ENDBRANCH  39  40
ENDBRANCH  38  39
ENDBRANCH  37  38
ENDBRANCH  36  37
ENDBRANCH   1  36
TORSDOF 30
ENDMDL
