MODEL 1
REMARK VINA RESULT:      -9.8      0.000      0.000
REMARK SMILES C[C@@H](C(=O)OCCOCCOCCOCCOC(=O)c1ccc(-c2c3nc(c(-c4cccc(S(=O)(=O)[O-])c4F)c4ccc([nH]4)c(-c4cccc(S(=O)(=O)[O-])c4F)c4nc(c(-c5cccc(S(=O)(=O)[O-])c5F)c5ccc2[nH]5)C=C4)C=C3)cc1)c1ccc(-c2ccn(C(F)F)c(=O)c2)cc1
REMARK SMILES IDX 11 1 10 2 9 3 8 4 7 5 6 6 5 7 3 8 4 9 2 10 1 11 83 12 84 13
REMARK SMILES IDX 98 14 85 15 97 16 86 17 87 18 88 19 96 20 89 21 94 22 90 23
REMARK SMILES IDX 95 24 91 25 92 26 93 27 12 28 13 29 14 30 15 31 16 32 17 33
REMARK SMILES IDX 18 34 19 35 20 36 21 37 82 38 22 39 81 40 23 41 24 42 25 43
REMARK SMILES IDX 75 44 26 45 80 46 74 47 76 48 27 49 79 50 73 51 72 52 28 54
REMARK SMILES IDX 60 55 40 56 59 57 41 58 44 59 58 60 77 61 42 62 43 63 57 65
REMARK SMILES IDX 78 66 45 67 29 68 30 69 38 70 31 71 33 72 39 73 32 74 34 75
REMARK SMILES IDX 35 76 36 77 37 78 61 79 62 80 70 81 63 82 65 83 71 84 64 85
REMARK SMILES IDX 66 86 67 87 68 88 69 89 46 90 47 91 55 92 48 93 50 94 56 95
REMARK SMILES IDX 49 96 51 97 52 98 53 99 54 100
REMARK H PARENT 76 53 44 64
REMARK Flexibility Score: inf
ROOT
ATOM      1  O   UNL A   1      33.623  28.433  26.532  1.00  0.00    -0.377 OA
ENDROOT
BRANCH   1   2
ATOM      2  C   UNL A   1      33.128  27.170  26.146  1.00  0.00     0.188 C 
BRANCH   2   3
ATOM      3  C   UNL A   1      33.668  26.643  24.800  1.00  0.00     0.188 C 
BRANCH   3   4
ATOM      4  O   UNL A   1      34.577  25.553  24.765  1.00  0.00    -0.376 OA
BRANCH   4   5
ATOM      5  C   UNL A   1      34.814  24.790  25.941  1.00  0.00     0.202 C 
BRANCH   5   6
ATOM      6  C   UNL A   1      34.249  23.365  26.109  1.00  0.00     0.261 C 
BRANCH   6   7
ATOM      7  O   UNL A   1      33.457  22.837  25.027  1.00  0.00    -0.463 OA
BRANCH   7   8
ATOM      8  C   UNL A   1      32.108  22.852  25.186  1.00  0.00     0.313 C 
ATOM      9  O   UNL A   1      31.552  22.725  26.274  1.00  0.00    -0.252 OA
BRANCH   8  10
ATOM     10  C   UNL A   1      31.319  23.057  23.875  1.00  0.00     0.126 C 
ATOM     11  C   UNL A   1      31.840  22.410  22.585  1.00  0.00     0.025 C 
BRANCH  10  12
ATOM     12  C   UNL A   1      30.943  24.534  23.699  1.00  0.00    -0.034 A 
ATOM     13  C   UNL A   1      31.448  25.228  22.593  1.00  0.00     0.005 A 
ATOM     14  C   UNL A   1      30.029  25.201  24.531  1.00  0.00     0.005 A 
ATOM     15  C   UNL A   1      31.030  26.532  22.310  1.00  0.00     0.009 A 
ATOM     16  C   UNL A   1      29.586  26.495  24.232  1.00  0.00     0.009 A 
ATOM     17  C   UNL A   1      30.074  27.168  23.110  1.00  0.00    -0.018 A 
BRANCH  17  18
ATOM     18  C   UNL A   1      29.571  28.516  22.771  1.00  0.00    -0.011 A 
ATOM     19  C   UNL A   1      30.180  29.352  21.754  1.00  0.00     0.027 A 
ATOM     20  C   UNL A   1      28.519  28.992  23.460  1.00  0.00     0.080 A 
ATOM     21  C   UNL A   1      29.701  30.576  21.502  1.00  0.00     0.095 A 
ATOM     22  C   UNL A   1      27.964  30.345  23.180  1.00  0.00     0.255 A 
ATOM     23  N   UNL A   1      28.613  31.073  22.196  1.00  0.00    -0.258 N 
ATOM     24  O   UNL A   1      26.989  30.726  23.821  1.00  0.00    -0.269 OA
BRANCH  23  25
ATOM     25  C   UNL A   1      28.112  32.393  21.925  1.00  0.00     0.451 C 
ATOM     26  F   UNL A   1      28.894  33.346  22.490  1.00  0.00    -0.185 F 
ATOM     27  F   UNL A   1      28.056  32.632  20.592  1.00  0.00    -0.185 F 
ENDBRANCH  23  25
ENDBRANCH  17  18
ENDBRANCH  10  12
ENDBRANCH   8  10
ENDBRANCH   7   8
ENDBRANCH   6   7
ENDBRANCH   5   6
ENDBRANCH   4   5
ENDBRANCH   3   4
ENDBRANCH   2   3
ENDBRANCH   1   2
BRANCH   1  28
ATOM     28  C   UNL A   1      32.713  29.283  27.210  1.00  0.00     0.188 C 
BRANCH  28  29
ATOM     29  C   UNL A   1      31.749  30.118  26.344  1.00  0.00     0.188 C 
BRANCH  29  30
ATOM     30  O   UNL A   1      31.886  31.525  26.518  1.00  0.00    -0.376 OA
BRANCH  30  31
ATOM     31  C   UNL A   1      32.883  32.009  27.405  1.00  0.00     0.202 C 
BRANCH  31  32
ATOM     32  C   UNL A   1      32.981  33.531  27.603  1.00  0.00     0.261 C 
BRANCH  32  33
ATOM     33  O   UNL A   1      32.529  34.044  28.864  1.00  0.00    -0.460 OA
BRANCH  33  34
ATOM     34  C   UNL A   1      33.354  34.867  29.544  1.00  0.00     0.338 C 
ATOM     35  O   UNL A   1      33.104  35.996  29.933  1.00  0.00    -0.246 OA
BRANCH  34  36
ATOM     36  C   UNL A   1      34.547  34.086  29.935  1.00  0.00     0.060 A 
ATOM     37  C   UNL A   1      34.390  33.018  30.828  1.00  0.00     0.016 A 
ATOM     38  C   UNL A   1      35.805  34.388  29.408  1.00  0.00     0.016 A 
ATOM     39  C   UNL A   1      35.497  32.270  31.226  1.00  0.00     0.010 A 
ATOM     40  C   UNL A   1      36.918  33.654  29.828  1.00  0.00     0.010 A 
ATOM     41  C   UNL A   1      36.774  32.618  30.767  1.00  0.00    -0.014 A 
BRANCH  41  42
ATOM     42  C   UNL A   1      37.970  32.046  31.431  1.00  0.00     0.031 A 
ATOM     43  C   UNL A   1      38.677  30.905  30.751  1.00  0.00     0.074 A 
ATOM     44  C   UNL A   1      38.425  32.526  32.602  1.00  0.00     0.049 A 
ATOM     45  N   UNL A   1      39.715  30.218  31.147  1.00  0.00    -0.248 NA
ATOM     46  C   UNL A   1      38.137  30.482  29.447  1.00  0.00     0.031 C 
ATOM     47  C   UNL A   1      37.839  33.638  33.346  1.00  0.00     0.029 A 
ATOM     48  N   UNL A   1      39.477  32.114  33.381  1.00  0.00    -0.354 N 
ATOM     49  C   UNL A   1      39.930  29.260  30.164  1.00  0.00     0.074 A 
ATOM     50  C   UNL A   1      38.912  29.448  29.155  1.00  0.00     0.031 C 
ATOM     51  C   UNL A   1      38.525  33.803  34.491  1.00  0.00     0.029 A 
ATOM     52  C   UNL A   1      39.576  32.790  34.573  1.00  0.00     0.049 A 
ATOM     53  H   UNL A   1      40.102  31.402  33.111  1.00  0.00     0.167 HD
ATOM     54  C   UNL A   1      40.894  28.312  30.100  1.00  0.00     0.034 A 
ATOM     55  C   UNL A   1      40.402  32.592  35.620  1.00  0.00     0.034 A 
ATOM     56  C   UNL A   1      41.911  28.133  31.099  1.00  0.00     0.049 A 
ATOM     57  C   UNL A   1      41.443  31.502  35.543  1.00  0.00     0.074 A 
ATOM     58  C   UNL A   1      42.961  27.232  31.104  1.00  0.00     0.029 A 
ATOM     59  N   UNL A   1      41.994  28.852  32.281  1.00  0.00    -0.354 N 
ATOM     60  N   UNL A   1      41.704  30.676  34.559  1.00  0.00    -0.248 NA
ATOM     61  C   UNL A   1      42.323  31.338  36.711  1.00  0.00     0.031 C 
ATOM     62  C   UNL A   1      43.652  27.376  32.311  1.00  0.00     0.029 A 
ATOM     63  C   UNL A   1      43.065  28.402  33.034  1.00  0.00     0.049 A 
ATOM     64  H   UNL A   1      41.383  29.577  32.546  1.00  0.00     0.167 HD
ATOM     65  C   UNL A   1      42.803  29.926  34.970  1.00  0.00     0.074 A 
ATOM     66  C   UNL A   1      43.166  30.407  36.286  1.00  0.00     0.031 C 
ATOM     67  C   UNL A   1      43.446  28.924  34.321  1.00  0.00     0.034 A 
BRANCH  54  68
ATOM     68  C   UNL A   1      40.892  27.391  28.908  1.00  0.00     0.023 A 
ATOM     69  C   UNL A   1      39.918  26.378  28.799  1.00  0.00     0.012 A 
ATOM     70  C   UNL A   1      41.832  27.563  27.873  1.00  0.00     0.148 A 
ATOM     71  C   UNL A   1      39.901  25.528  27.693  1.00  0.00     0.002 A 
ATOM     72  C   UNL A   1      41.777  26.745  26.753  1.00  0.00     0.091 A 
ATOM     73  F   UNL A   1      42.765  28.516  28.009  1.00  0.00    -0.205 F 
ATOM     74  C   UNL A   1      40.823  25.719  26.666  1.00  0.00     0.022 A 
BRANCH  72  75
ATOM     75  S   UNL A   1      42.867  26.962  25.342  1.00  0.00     0.127 S 
ATOM     76  O   UNL A   1      44.164  27.134  25.995  1.00  0.00    -0.237 OA
ATOM     77  O   UNL A   1      42.704  25.694  24.632  1.00  0.00    -0.237 OA
ATOM     78  O   UNL A   1      42.371  28.130  24.625  1.00  0.00    -0.744 OA
ENDBRANCH  72  75
ENDBRANCH  54  68
BRANCH  55  79
ATOM     79  C   UNL A   1      40.298  33.455  36.832  1.00  0.00     0.023 A 
ATOM     80  C   UNL A   1      40.889  34.734  36.832  1.00  0.00     0.012 A 
ATOM     81  C   UNL A   1      39.622  33.014  37.985  1.00  0.00     0.148 A 
ATOM     82  C   UNL A   1      40.838  35.542  37.968  1.00  0.00     0.002 A 
ATOM     83  C   UNL A   1      39.525  33.846  39.095  1.00  0.00     0.091 A 
ATOM     84  F   UNL A   1      39.080  31.787  37.973  1.00  0.00    -0.205 F 
ATOM     85  C   UNL A   1      40.149  35.102  39.095  1.00  0.00     0.022 A 
BRANCH  83  86
ATOM     86  S   UNL A   1      38.556  33.415  40.545  1.00  0.00     0.127 S 
ATOM     87  O   UNL A   1      38.717  31.964  40.591  1.00  0.00    -0.237 OA
ATOM     88  O   UNL A   1      39.256  34.149  41.599  1.00  0.00    -0.237 OA
ATOM     89  O   UNL A   1      37.206  33.891  40.275  1.00  0.00    -0.744 OA
ENDBRANCH  83  86
ENDBRANCH  55  79
BRANCH  67  90
ATOM     90  C   UNL A   1      44.650  28.308  34.990  1.00  0.00     0.023 A 
ATOM     91  C   UNL A   1      45.920  28.900  34.848  1.00  0.00     0.012 A 
ATOM     92  C   UNL A   1      44.501  27.182  35.825  1.00  0.00     0.148 A 
ATOM     93  C   UNL A   1      47.030  28.359  35.497  1.00  0.00     0.002 A 
ATOM     94  C   UNL A   1      45.601  26.682  36.513  1.00  0.00     0.091 A 
ATOM     95  F   UNL A   1      43.287  26.625  35.936  1.00  0.00    -0.205 F 
ATOM     96  C   UNL A   1      46.869  27.259  36.338  1.00  0.00     0.022 A 
BRANCH  94  97
ATOM     97  S   UNL A   1      45.468  25.335  37.694  1.00  0.00     0.127 S 
ATOM     98  O   UNL A   1      44.905  24.269  36.867  1.00  0.00    -0.237 OA
ATOM     99  O   UNL A   1      46.864  25.131  38.086  1.00  0.00    -0.237 OA
ATOM    100  O   UNL A   1      44.604  25.818  38.762  1.00  0.00    -0.744 OA
ENDBRANCH  94  97
ENDBRANCH  67  90
ENDBRANCH  41  42
ENDBRANCH  34  36
ENDBRANCH  33  34
ENDBRANCH  32  33
ENDBRANCH  31  32
ENDBRANCH  30  31
ENDBRANCH  29  30
ENDBRANCH  28  29
ENDBRANCH   1  28
TORSDOF 26
ENDMDL
MODEL 2
REMARK VINA RESULT:      -9.4      5.808     10.157
REMARK SMILES C[C@@H](C(=O)OCCOCCOCCOCCOC(=O)c1ccc(-c2c3nc(c(-c4cccc(S(=O)(=O)[O-])c4F)c4ccc([nH]4)c(-c4cccc(S(=O)(=O)[O-])c4F)c4nc(c(-c5cccc(S(=O)(=O)[O-])c5F)c5ccc2[nH]5)C=C4)C=C3)cc1)c1ccc(-c2ccn(C(F)F)c(=O)c2)cc1
REMARK SMILES IDX 11 1 10 2 9 3 8 4 7 5 6 6 5 7 3 8 4 9 2 10 1 11 83 12 84 13
REMARK SMILES IDX 98 14 85 15 97 16 86 17 87 18 88 19 96 20 89 21 94 22 90 23
REMARK SMILES IDX 95 24 91 25 92 26 93 27 12 28 13 29 14 30 15 31 16 32 17 33
REMARK SMILES IDX 18 34 19 35 20 36 21 37 82 38 22 39 81 40 23 41 24 42 25 43
REMARK SMILES IDX 75 44 26 45 80 46 74 47 76 48 27 49 79 50 73 51 72 52 28 54
REMARK SMILES IDX 60 55 40 56 59 57 41 58 44 59 58 60 77 61 42 62 43 63 57 65
REMARK SMILES IDX 78 66 45 67 29 68 30 69 38 70 31 71 33 72 39 73 32 74 34 75
REMARK SMILES IDX 35 76 36 77 37 78 61 79 62 80 70 81 63 82 65 83 71 84 64 85
REMARK SMILES IDX 66 86 67 87 68 88 69 89 46 90 47 91 55 92 48 93 50 94 56 95
REMARK SMILES IDX 49 96 51 97 52 98 53 99 54 100
REMARK H PARENT 76 53 44 64
REMARK Flexibility Score: inf
ROOT
ATOM      1  O   UNL A   1      35.601  23.172  22.864  1.00  0.00    -0.377 OA
ENDROOT
BRANCH   1   2
ATOM      2  C   UNL A   1      34.350  23.173  23.517  1.00  0.00     0.188 C 
BRANCH   2   3
ATOM      3  C   UNL A   1      33.159  23.608  22.639  1.00  0.00     0.188 C 
BRANCH   3   4
ATOM      4  O   UNL A   1      31.844  23.649  23.176  1.00  0.00    -0.376 OA
BRANCH   4   5
ATOM      5  C   UNL A   1      31.365  24.841  23.783  1.00  0.00     0.202 C 
BRANCH   5   6
ATOM      6  C   UNL A   1      31.673  25.179  25.256  1.00  0.00     0.261 C 
BRANCH   6   7
ATOM      7  O   UNL A   1      32.893  25.896  25.528  1.00  0.00    -0.463 OA
BRANCH   7   8
ATOM      8  C   UNL A   1      33.058  27.089  24.902  1.00  0.00     0.313 C 
ATOM      9  O   UNL A   1      33.786  27.248  23.924  1.00  0.00    -0.252 OA
BRANCH   8  10
ATOM     10  C   UNL A   1      32.240  28.246  25.517  1.00  0.00     0.126 C 
ATOM     11  C   UNL A   1      31.218  28.982  24.639  1.00  0.00     0.025 C 
BRANCH  10  12
ATOM     12  C   UNL A   1      33.155  29.194  26.300  1.00  0.00    -0.034 A 
ATOM     13  C   UNL A   1      32.719  30.504  26.538  1.00  0.00     0.005 A 
ATOM     14  C   UNL A   1      34.364  28.788  26.889  1.00  0.00     0.005 A 
ATOM     15  C   UNL A   1      33.449  31.367  27.361  1.00  0.00     0.009 A 
ATOM     16  C   UNL A   1      35.080  29.641  27.737  1.00  0.00     0.009 A 
ATOM     17  C   UNL A   1      34.622  30.936  27.991  1.00  0.00    -0.018 A 
BRANCH  17  18
ATOM     18  C   UNL A   1      35.356  31.818  28.922  1.00  0.00    -0.011 A 
ATOM     19  C   UNL A   1      36.212  32.899  28.474  1.00  0.00     0.027 A 
ATOM     20  C   UNL A   1      35.241  31.585  30.242  1.00  0.00     0.080 A 
ATOM     21  C   UNL A   1      36.875  33.655  29.358  1.00  0.00     0.095 A 
ATOM     22  C   UNL A   1      35.958  32.426  31.238  1.00  0.00     0.255 A 
ATOM     23  N   UNL A   1      36.756  33.431  30.717  1.00  0.00    -0.258 N 
ATOM     24  O   UNL A   1      35.803  32.187  32.432  1.00  0.00    -0.269 OA
BRANCH  23  25
ATOM     25  C   UNL A   1      37.480  34.242  31.659  1.00  0.00     0.451 C 
ATOM     26  F   UNL A   1      38.466  34.948  31.052  1.00  0.00    -0.185 F 
ATOM     27  F   UNL A   1      36.657  35.121  32.282  1.00  0.00    -0.185 F 
ENDBRANCH  23  25
ENDBRANCH  17  18
ENDBRANCH  10  12
ENDBRANCH   8  10
ENDBRANCH   7   8
ENDBRANCH   6   7
ENDBRANCH   5   6
ENDBRANCH   4   5
ENDBRANCH   3   4
ENDBRANCH   2   3
ENDBRANCH   1   2
BRANCH   1  28
ATOM     28  C   UNL A   1      36.641  22.450  23.502  1.00  0.00     0.188 C 
BRANCH  28  29
ATOM     29  C   UNL A   1      37.074  22.926  24.902  1.00  0.00     0.188 C 
BRANCH  29  30
ATOM     30  O   UNL A   1      37.556  21.883  25.745  1.00  0.00    -0.376 OA
BRANCH  30  31
ATOM     31  C   UNL A   1      38.842  21.339  25.489  1.00  0.00     0.202 C 
BRANCH  31  32
ATOM     32  C   UNL A   1      39.878  21.400  26.624  1.00  0.00     0.261 C 
BRANCH  32  33
ATOM     33  O   UNL A   1      40.711  20.245  26.795  1.00  0.00    -0.460 OA
BRANCH  33  34
ATOM     34  C   UNL A   1      41.850  20.174  26.075  1.00  0.00     0.338 C 
ATOM     35  O   UNL A   1      42.154  19.309  25.270  1.00  0.00    -0.246 OA
BRANCH  34  36
ATOM     36  C   UNL A   1      42.581  21.445  26.262  1.00  0.00     0.060 A 
ATOM     37  C   UNL A   1      43.097  21.747  27.529  1.00  0.00     0.016 A 
ATOM     38  C   UNL A   1      42.779  22.321  25.191  1.00  0.00     0.016 A 
ATOM     39  C   UNL A   1      43.781  22.943  27.740  1.00  0.00     0.010 A 
ATOM     40  C   UNL A   1      43.442  23.532  25.410  1.00  0.00     0.010 A 
ATOM     41  C   UNL A   1      43.911  23.864  26.694  1.00  0.00    -0.014 A 
BRANCH  41  42
ATOM     42  C   UNL A   1      44.339  25.252  26.991  1.00  0.00     0.031 A 
ATOM     43  C   UNL A   1      45.758  25.637  26.673  1.00  0.00     0.074 A 
ATOM     44  C   UNL A   1      43.494  26.153  27.522  1.00  0.00     0.049 A 
ATOM     45  N   UNL A   1      46.376  26.771  26.873  1.00  0.00    -0.248 NA
ATOM     46  C   UNL A   1      46.595  24.599  26.044  1.00  0.00     0.031 C 
ATOM     47  C   UNL A   1      42.093  25.907  27.855  1.00  0.00     0.029 A 
ATOM     48  N   UNL A   1      43.708  27.456  27.898  1.00  0.00    -0.354 N 
ATOM     49  C   UNL A   1      47.679  26.573  26.432  1.00  0.00     0.074 A 
ATOM     50  C   UNL A   1      47.767  25.210  25.959  1.00  0.00     0.031 C 
ATOM     51  C   UNL A   1      41.578  27.017  28.413  1.00  0.00     0.029 A 
ATOM     52  C   UNL A   1      42.620  28.039  28.504  1.00  0.00     0.049 A 
ATOM     53  H   UNL A   1      44.558  27.928  27.748  1.00  0.00     0.167 HD
ATOM     54  C   UNL A   1      48.710  27.450  26.414  1.00  0.00     0.034 A 
ATOM     55  C   UNL A   1      42.493  29.247  29.090  1.00  0.00     0.034 A 
ATOM     56  C   UNL A   1      48.617  28.808  26.875  1.00  0.00     0.049 A 
ATOM     57  C   UNL A   1      43.669  30.192  29.093  1.00  0.00     0.074 A 
ATOM     58  C   UNL A   1      49.592  29.790  26.855  1.00  0.00     0.029 A 
ATOM     59  N   UNL A   1      47.493  29.370  27.459  1.00  0.00    -0.354 N 
ATOM     60  N   UNL A   1      44.862  30.030  28.574  1.00  0.00    -0.248 NA
ATOM     61  C   UNL A   1      43.470  31.499  29.737  1.00  0.00     0.031 C 
ATOM     62  C   UNL A   1      49.070  30.932  27.469  1.00  0.00     0.029 A 
ATOM     63  C   UNL A   1      47.755  30.679  27.824  1.00  0.00     0.049 A 
ATOM     64  H   UNL A   1      46.635  28.907  27.595  1.00  0.00     0.167 HD
ATOM     65  C   UNL A   1      45.539  31.228  28.789  1.00  0.00     0.074 A 
ATOM     66  C   UNL A   1      44.617  32.110  29.473  1.00  0.00     0.031 C 
ATOM     67  C   UNL A   1      46.811  31.563  28.460  1.00  0.00     0.034 A 
BRANCH  54  68
ATOM     68  C   UNL A   1      50.031  26.965  25.878  1.00  0.00     0.023 A 
ATOM     69  C   UNL A   1      50.874  26.174  26.685  1.00  0.00     0.012 A 
ATOM     70  C   UNL A   1      50.415  27.257  24.555  1.00  0.00     0.148 A 
ATOM     71  C   UNL A   1      52.094  25.711  26.194  1.00  0.00     0.002 A 
ATOM     72  C   UNL A   1      51.608  26.750  24.058  1.00  0.00     0.091 A 
ATOM     73  F   UNL A   1      49.610  28.032  23.812  1.00  0.00    -0.205 F 
ATOM     74  C   UNL A   1      52.455  25.989  24.878  1.00  0.00     0.022 A 
BRANCH  72  75
ATOM     75  S   UNL A   1      52.123  26.985  22.353  1.00  0.00     0.127 S 
ATOM     76  O   UNL A   1      53.181  25.985  22.225  1.00  0.00    -0.237 OA
ATOM     77  O   UNL A   1      50.896  26.674  21.619  1.00  0.00    -0.237 OA
ATOM     78  O   UNL A   1      52.561  28.371  22.250  1.00  0.00    -0.744 OA
ENDBRANCH  72  75
ENDBRANCH  54  68
BRANCH  55  79
ATOM     79  C   UNL A   1      41.197  29.647  29.710  1.00  0.00     0.023 A 
ATOM     80  C   UNL A   1      40.154  30.131  28.896  1.00  0.00     0.012 A 
ATOM     81  C   UNL A   1      40.996  29.557  31.100  1.00  0.00     0.148 A 
ATOM     82  C   UNL A   1      38.948  30.549  29.460  1.00  0.00     0.002 A 
ATOM     83  C   UNL A   1      39.772  29.921  31.650  1.00  0.00     0.091 A 
ATOM     84  F   UNL A   1      42.007  29.111  31.860  1.00  0.00    -0.205 F 
ATOM     85  C   UNL A   1      38.753  30.436  30.834  1.00  0.00     0.022 A 
BRANCH  83  86
ATOM     86  S   UNL A   1      39.389  29.697  33.390  1.00  0.00     0.127 S 
ATOM     87  O   UNL A   1      39.825  28.321  33.617  1.00  0.00    -0.237 OA
ATOM     88  O   UNL A   1      40.226  30.721  34.014  1.00  0.00    -0.237 OA
ATOM     89  O   UNL A   1      37.957  29.932  33.514  1.00  0.00    -0.744 OA
ENDBRANCH  83  86
ENDBRANCH  55  79
BRANCH  67  90
ATOM     90  C   UNL A   1      47.277  32.962  28.778  1.00  0.00     0.023 A 
ATOM     91  C   UNL A   1      47.988  33.220  29.966  1.00  0.00     0.012 A 
ATOM     92  C   UNL A   1      47.074  34.007  27.853  1.00  0.00     0.148 A 
ATOM     93  C   UNL A   1      48.457  34.503  30.247  1.00  0.00     0.002 A 
ATOM     94  C   UNL A   1      47.592  35.270  28.113  1.00  0.00     0.091 A 
ATOM     95  F   UNL A   1      46.383  33.745  26.735  1.00  0.00    -0.205 F 
ATOM     96  C   UNL A   1      48.270  35.524  29.316  1.00  0.00     0.022 A 
BRANCH  94  97
ATOM     97  S   UNL A   1      47.490  36.617  26.929  1.00  0.00     0.127 S 
ATOM     98  O   UNL A   1      48.175  37.693  27.644  1.00  0.00    -0.237 OA
ATOM     99  O   UNL A   1      48.227  36.078  25.785  1.00  0.00    -0.237 OA
ATOM    100  O   UNL A   1      46.071  36.834  26.687  1.00  0.00    -0.744 OA
ENDBRANCH  94  97
ENDBRANCH  67  90
ENDBRANCH  41  42
ENDBRANCH  34  36
ENDBRANCH  33  34
ENDBRANCH  32  33
ENDBRANCH  31  32
ENDBRANCH  30  31
ENDBRANCH  29  30
ENDBRANCH  28  29
ENDBRANCH   1  28
TORSDOF 26
ENDMDL
MODEL 3
REMARK VINA RESULT:      -9.1      5.764      9.370
REMARK SMILES C[C@@H](C(=O)OCCOCCOCCOCCOC(=O)c1ccc(-c2c3nc(c(-c4cccc(S(=O)(=O)[O-])c4F)c4ccc([nH]4)c(-c4cccc(S(=O)(=O)[O-])c4F)c4nc(c(-c5cccc(S(=O)(=O)[O-])c5F)c5ccc2[nH]5)C=C4)C=C3)cc1)c1ccc(-c2ccn(C(F)F)c(=O)c2)cc1
REMARK SMILES IDX 11 1 10 2 9 3 8 4 7 5 6 6 5 7 3 8 4 9 2 10 1 11 83 12 84 13
REMARK SMILES IDX 98 14 85 15 97 16 86 17 87 18 88 19 96 20 89 21 94 22 90 23
REMARK SMILES IDX 95 24 91 25 92 26 93 27 12 28 13 29 14 30 15 31 16 32 17 33
REMARK SMILES IDX 18 34 19 35 20 36 21 37 82 38 22 39 81 40 23 41 24 42 25 43
REMARK SMILES IDX 75 44 26 45 80 46 74 47 76 48 27 49 79 50 73 51 72 52 28 54
REMARK SMILES IDX 60 55 40 56 59 57 41 58 44 59 58 60 77 61 42 62 43 63 57 65
REMARK SMILES IDX 78 66 45 67 29 68 30 69 38 70 31 71 33 72 39 73 32 74 34 75
REMARK SMILES IDX 35 76 36 77 37 78 61 79 62 80 70 81 63 82 65 83 71 84 64 85
REMARK SMILES IDX 66 86 67 87 68 88 69 89 46 90 47 91 55 92 48 93 50 94 56 95
REMARK SMILES IDX 49 96 51 97 52 98 53 99 54 100
REMARK H PARENT 76 53 44 64
REMARK Flexibility Score: inf
ROOT
ATOM      1  O   UNL A   1      35.587  23.239  23.143  1.00  0.00    -0.377 OA
ENDROOT
BRANCH   1   2
ATOM      2  C   UNL A   1      34.386  22.609  23.531  1.00  0.00     0.188 C 
BRANCH   2   3
ATOM      3  C   UNL A   1      33.265  22.636  22.471  1.00  0.00     0.188 C 
BRANCH   3   4
ATOM      4  O   UNL A   1      31.984  22.097  22.762  1.00  0.00    -0.376 OA
BRANCH   4   5
ATOM      5  C   UNL A   1      31.034  22.878  23.476  1.00  0.00     0.202 C 
BRANCH   5   6
ATOM      6  C   UNL A   1      31.175  23.137  24.990  1.00  0.00     0.261 C 
BRANCH   6   7
ATOM      7  O   UNL A   1      32.040  24.215  25.398  1.00  0.00    -0.463 OA
BRANCH   7   8
ATOM      8  C   UNL A   1      31.973  25.364  24.677  1.00  0.00     0.313 C 
ATOM      9  O   UNL A   1      32.859  25.739  23.913  1.00  0.00    -0.252 OA
BRANCH   8  10
ATOM     10  C   UNL A   1      30.672  26.169  24.889  1.00  0.00     0.126 C 
ATOM     11  C   UNL A   1      29.629  26.205  23.762  1.00  0.00     0.025 C 
BRANCH  10  12
ATOM     12  C   UNL A   1      30.985  27.555  25.465  1.00  0.00    -0.034 A 
ATOM     13  C   UNL A   1      31.407  27.649  26.797  1.00  0.00     0.005 A 
ATOM     14  C   UNL A   1      30.974  28.730  24.696  1.00  0.00     0.005 A 
ATOM     15  C   UNL A   1      31.835  28.868  27.331  1.00  0.00     0.009 A 
ATOM     16  C   UNL A   1      31.431  29.945  25.220  1.00  0.00     0.009 A 
ATOM     17  C   UNL A   1      31.878  30.022  26.541  1.00  0.00    -0.018 A 
BRANCH  17  18
ATOM     18  C   UNL A   1      32.402  31.295  27.078  1.00  0.00    -0.011 A 
ATOM     19  C   UNL A   1      31.696  32.555  26.948  1.00  0.00     0.027 A 
ATOM     20  C   UNL A   1      33.600  31.281  27.690  1.00  0.00     0.080 A 
ATOM     21  C   UNL A   1      32.225  33.685  27.432  1.00  0.00     0.095 A 
ATOM     22  C   UNL A   1      34.194  32.527  28.247  1.00  0.00     0.255 A 
ATOM     23  N   UNL A   1      33.451  33.683  28.072  1.00  0.00    -0.258 N 
ATOM     24  O   UNL A   1      35.280  32.458  28.815  1.00  0.00    -0.269 OA
BRANCH  23  25
ATOM     25  C   UNL A   1      34.016  34.904  28.579  1.00  0.00     0.451 C 
ATOM     26  F   UNL A   1      34.950  35.406  27.734  1.00  0.00    -0.185 F 
ATOM     27  F   UNL A   1      33.060  35.849  28.757  1.00  0.00    -0.185 F 
ENDBRANCH  23  25
ENDBRANCH  17  18
ENDBRANCH  10  12
ENDBRANCH   8  10
ENDBRANCH   7   8
ENDBRANCH   6   7
ENDBRANCH   5   6
ENDBRANCH   4   5
ENDBRANCH   3   4
ENDBRANCH   2   3
ENDBRANCH   1   2
BRANCH   1  28
ATOM     28  C   UNL A   1      36.788  22.618  23.571  1.00  0.00     0.188 C 
BRANCH  28  29
ATOM     29  C   UNL A   1      37.096  22.643  25.080  1.00  0.00     0.188 C 
BRANCH  29  30
ATOM     30  O   UNL A   1      37.660  21.433  25.577  1.00  0.00    -0.376 OA
BRANCH  30  31
ATOM     31  C   UNL A   1      39.045  21.194  25.379  1.00  0.00     0.202 C 
BRANCH  31  32
ATOM     32  C   UNL A   1      39.938  21.110  26.628  1.00  0.00     0.261 C 
BRANCH  32  33
ATOM     33  O   UNL A   1      40.805  19.971  26.722  1.00  0.00    -0.460 OA
BRANCH  33  34
ATOM     34  C   UNL A   1      41.981  20.014  26.063  1.00  0.00     0.338 C 
ATOM     35  O   UNL A   1      42.410  19.186  25.276  1.00  0.00    -0.246 OA
BRANCH  34  36
ATOM     36  C   UNL A   1      42.572  21.351  26.284  1.00  0.00     0.060 A 
ATOM     37  C   UNL A   1      42.958  21.712  27.582  1.00  0.00     0.016 A 
ATOM     38  C   UNL A   1      42.767  22.233  25.218  1.00  0.00     0.016 A 
ATOM     39  C   UNL A   1      43.508  22.970  27.824  1.00  0.00     0.010 A 
ATOM     40  C   UNL A   1      43.294  23.504  25.467  1.00  0.00     0.010 A 
ATOM     41  C   UNL A   1      43.630  23.890  26.777  1.00  0.00    -0.014 A 
BRANCH  41  42
ATOM     42  C   UNL A   1      43.901  25.315  27.084  1.00  0.00     0.031 A 
ATOM     43  C   UNL A   1      45.308  25.819  26.913  1.00  0.00     0.074 A 
ATOM     44  C   UNL A   1      42.927  26.146  27.496  1.00  0.00     0.049 A 
ATOM     45  N   UNL A   1      45.799  27.006  27.151  1.00  0.00    -0.248 NA
ATOM     46  C   UNL A   1      46.296  24.850  26.407  1.00  0.00     0.031 C 
ATOM     47  C   UNL A   1      41.524  25.782  27.679  1.00  0.00     0.029 A 
ATOM     48  N   UNL A   1      42.984  27.468  27.860  1.00  0.00    -0.354 N 
ATOM     49  C   UNL A   1      47.155  26.918  26.861  1.00  0.00     0.074 A 
ATOM     50  C   UNL A   1      47.413  25.561  26.435  1.00  0.00     0.031 C 
ATOM     51  C   UNL A   1      40.857  26.850  28.150  1.00  0.00     0.029 A 
ATOM     52  C   UNL A   1      41.790  27.962  28.328  1.00  0.00     0.049 A 
ATOM     53  H   UNL A   1      43.803  28.012  27.791  1.00  0.00     0.167 HD
ATOM     54  C   UNL A   1      48.102  27.882  26.933  1.00  0.00     0.034 A 
ATOM     55  C   UNL A   1      41.495  29.163  28.865  1.00  0.00     0.034 A 
ATOM     56  C   UNL A   1      47.842  29.233  27.347  1.00  0.00     0.049 A 
ATOM     57  C   UNL A   1      42.577  30.209  28.973  1.00  0.00     0.074 A 
ATOM     58  C   UNL A   1      48.724  30.298  27.408  1.00  0.00     0.029 A 
ATOM     59  N   UNL A   1      46.616  29.703  27.790  1.00  0.00    -0.354 N 
ATOM     60  N   UNL A   1      43.830  30.145  28.592  1.00  0.00    -0.248 NA
ATOM     61  C   UNL A   1      42.195  31.503  29.558  1.00  0.00     0.031 C 
ATOM     62  C   UNL A   1      48.041  31.399  27.932  1.00  0.00     0.029 A 
ATOM     63  C   UNL A   1      46.721  31.035  28.147  1.00  0.00     0.049 A 
ATOM     64  H   UNL A   1      45.791  29.168  27.842  1.00  0.00     0.167 HD
ATOM     65  C   UNL A   1      44.373  31.401  28.850  1.00  0.00     0.074 A 
ATOM     66  C   UNL A   1      43.307  32.208  29.406  1.00  0.00     0.031 C 
ATOM     67  C   UNL A   1      45.640  31.842  28.653  1.00  0.00     0.034 A 
BRANCH  54  68
ATOM     68  C   UNL A   1      49.512  27.508  26.558  1.00  0.00     0.023 A 
ATOM     69  C   UNL A   1      49.887  27.434  25.202  1.00  0.00     0.012 A 
ATOM     70  C   UNL A   1      50.477  27.273  27.557  1.00  0.00     0.148 A 
ATOM     71  C   UNL A   1      51.192  27.100  24.844  1.00  0.00     0.002 A 
ATOM     72  C   UNL A   1      51.787  26.988  27.193  1.00  0.00     0.091 A 
ATOM     73  F   UNL A   1      50.094  27.322  28.841  1.00  0.00    -0.205 F 
ATOM     74  C   UNL A   1      52.144  26.888  25.839  1.00  0.00     0.022 A 
BRANCH  72  75
ATOM     75  S   UNL A   1      53.102  26.780  28.398  1.00  0.00     0.127 S 
ATOM     76  O   UNL A   1      52.379  26.191  29.524  1.00  0.00    -0.237 OA
ATOM     77  O   UNL A   1      54.008  25.863  27.707  1.00  0.00    -0.237 OA
ATOM     78  O   UNL A   1      53.646  28.111  28.637  1.00  0.00    -0.744 OA
ENDBRANCH  72  75
ENDBRANCH  54  68
BRANCH  55  79
ATOM     79  C   UNL A   1      40.108  29.457  29.329  1.00  0.00     0.023 A 
ATOM     80  C   UNL A   1      39.140  29.895  28.404  1.00  0.00     0.012 A 
ATOM     81  C   UNL A   1      39.746  29.309  30.681  1.00  0.00     0.148 A 
ATOM     82  C   UNL A   1      37.849  30.214  28.823  1.00  0.00     0.002 A 
ATOM     83  C   UNL A   1      38.441  29.574  31.083  1.00  0.00     0.091 A 
ATOM     84  F   UNL A   1      40.685  28.907  31.550  1.00  0.00    -0.205 F 
ATOM     85  C   UNL A   1      37.496  30.045  30.160  1.00  0.00     0.022 A 
BRANCH  83  86
ATOM     86  S   UNL A   1      37.865  29.269  32.757  1.00  0.00     0.127 S 
ATOM     87  O   UNL A   1      38.011  27.820  32.864  1.00  0.00    -0.237 OA
ATOM     88  O   UNL A   1      38.821  30.046  33.547  1.00  0.00    -0.237 OA
ATOM     89  O   UNL A   1      36.499  29.770  32.803  1.00  0.00    -0.744 OA
ENDBRANCH  83  86
ENDBRANCH  55  79
BRANCH  67  90
ATOM     90  C   UNL A   1      45.945  33.282  28.984  1.00  0.00     0.023 A 
ATOM     91  C   UNL A   1      45.920  34.263  27.974  1.00  0.00     0.012 A 
ATOM     92  C   UNL A   1      46.181  33.670  30.319  1.00  0.00     0.148 A 
ATOM     93  C   UNL A   1      46.161  35.602  28.281  1.00  0.00     0.002 A 
ATOM     94  C   UNL A   1      46.365  35.013  30.626  1.00  0.00     0.091 A 
ATOM     95  F   UNL A   1      46.215  32.720  31.264  1.00  0.00    -0.205 F 
ATOM     96  C   UNL A   1      46.372  35.979  29.606  1.00  0.00     0.022 A 
BRANCH  94  97
ATOM     97  S   UNL A   1      46.540  35.601  32.314  1.00  0.00     0.127 S 
ATOM     98  O   UNL A   1      47.922  35.231  32.615  1.00  0.00    -0.237 OA
ATOM     99  O   UNL A   1      46.313  37.040  32.164  1.00  0.00    -0.237 OA
ATOM    100  O   UNL A   1      45.525  34.906  33.091  1.00  0.00    -0.744 OA
ENDBRANCH  94  97
ENDBRANCH  67  90
ENDBRANCH  41  42
ENDBRANCH  34  36
ENDBRANCH  33  34
ENDBRANCH  32  33
ENDBRANCH  31  32
ENDBRANCH  30  31
ENDBRANCH  29  30
ENDBRANCH  28  29
ENDBRANCH   1  28
TORSDOF 26
ENDMDL
