MODEL 1
REMARK VINA RESULT:     -10.6      0.000      0.000
REMARK SMILES C[C@@H](C(=O)OCCOCCOCCOCCOC(=O)c1ccc(-c2c3nc(c(-c4cccc(S(=O)(=O)[O-])c4F)c4ccc([nH]4)c(-c4cccc(S(=O)(=O)[O-])c4F)c4nc(c(-c5cccc(S(=O)(=O)[O-])c5F)c5ccc2[nH]5)C=C4)C=C3)cc1)c1ccc2c(c1)[nH]c1ccc(Cl)cc12
REMARK SMILES IDX 12 1 11 2 10 3 9 4 8 5 7 6 6 7 5 8 3 9 4 10 2 11 1 12 83 13
REMARK SMILES IDX 84 14 88 15 85 16 87 17 86 18 89 19 96 20 90 21 95 23 91 24
REMARK SMILES IDX 93 25 92 26 94 27 13 28 14 29 15 30 16 31 17 32 18 33 19 34
REMARK SMILES IDX 20 35 21 36 82 37 22 38 81 39 23 40 24 41 25 42 75 43 26 44
REMARK SMILES IDX 80 45 74 46 76 47 27 48 79 49 73 50 72 51 28 53 60 54 40 55
REMARK SMILES IDX 59 56 41 57 44 58 58 59 77 60 42 61 43 62 57 64 78 65 45 66
REMARK SMILES IDX 29 67 30 68 38 69 31 70 33 71 39 72 32 73 34 74 35 75 36 76
REMARK SMILES IDX 37 77 61 78 62 79 70 80 63 81 65 82 71 83 64 84 66 85 67 86
REMARK SMILES IDX 68 87 69 88 46 89 47 90 55 91 48 92 50 93 56 94 49 95 51 96
REMARK SMILES IDX 52 97 53 98 54 99
REMARK H PARENT 89 22 76 52 44 63
REMARK Flexibility Score: inf
ROOT
ATOM      1  C   UNL A   1      35.283  21.066  25.340  1.00  0.00     0.188 C 
ENDROOT
BRANCH   1   2
ATOM      2  O   UNL A   1      34.012  20.429  25.344  1.00  0.00    -0.377 OA
BRANCH   2   3
ATOM      3  C   UNL A   1      33.901  19.074  24.956  1.00  0.00     0.188 C 
BRANCH   3   4
ATOM      4  C   UNL A   1      32.767  18.720  23.985  1.00  0.00     0.188 C 
BRANCH   4   5
ATOM      5  O   UNL A   1      31.928  19.783  23.589  1.00  0.00    -0.376 OA
BRANCH   5   6
ATOM      6  C   UNL A   1      32.202  20.542  22.422  1.00  0.00     0.202 C 
BRANCH   6   7
ATOM      7  C   UNL A   1      32.238  22.083  22.317  1.00  0.00     0.261 C 
BRANCH   7   8
ATOM      8  O   UNL A   1      33.281  22.773  23.016  1.00  0.00    -0.463 OA
BRANCH   8   9
ATOM      9  C   UNL A   1      32.927  23.447  24.131  1.00  0.00     0.313 C 
ATOM     10  O   UNL A   1      32.117  23.005  24.942  1.00  0.00    -0.252 OA
BRANCH   9  11
ATOM     11  C   UNL A   1      33.696  24.782  24.340  1.00  0.00     0.126 C 
ATOM     12  C   UNL A   1      34.322  24.990  25.726  1.00  0.00     0.025 C 
BRANCH  11  13
ATOM     13  C   UNL A   1      32.924  25.960  23.718  1.00  0.00    -0.032 A 
ATOM     14  C   UNL A   1      33.465  27.145  23.195  1.00  0.00     0.005 A 
ATOM     15  C   UNL A   1      31.528  25.831  23.726  1.00  0.00     0.031 A 
ATOM     16  C   UNL A   1      32.633  28.183  22.691  1.00  0.00     0.011 A 
ATOM     17  C   UNL A   1      30.735  26.916  23.386  1.00  0.00     0.047 A 
ATOM     18  C   UNL A   1      31.228  28.077  22.811  1.00  0.00     0.007 A 
ATOM     19  N   UNL A   1      29.392  27.070  23.579  1.00  0.00    -0.355 N 
ATOM     20  C   UNL A   1      30.075  28.869  22.466  1.00  0.00     0.009 A 
ATOM     21  C   UNL A   1      28.968  28.267  23.073  1.00  0.00     0.047 A 
ATOM     22  H   UNL A   1      28.810  26.411  24.021  1.00  0.00     0.167 HD
ATOM     23  C   UNL A   1      29.847  30.046  21.720  1.00  0.00     0.031 A 
ATOM     24  C   UNL A   1      27.690  28.828  23.104  1.00  0.00     0.028 A 
ATOM     25  C   UNL A   1      28.544  30.569  21.661  1.00  0.00     0.041 A 
ATOM     26  C   UNL A   1      27.493  29.996  22.375  1.00  0.00     0.022 A 
ATOM     27  Cl  UNL A   1      28.223  31.941  20.668  1.00  0.00    -0.084 Cl
ENDBRANCH  11  13
ENDBRANCH   9  11
ENDBRANCH   8   9
ENDBRANCH   7   8
ENDBRANCH   6   7
ENDBRANCH   5   6
ENDBRANCH   4   5
ENDBRANCH   3   4
ENDBRANCH   2   3
ENDBRANCH   1   2
BRANCH   1  28
ATOM     28  C   UNL A   1      36.527  20.378  24.738  1.00  0.00     0.188 C 
BRANCH  28  29
ATOM     29  O   UNL A   1      37.714  21.155  24.744  1.00  0.00    -0.376 OA
BRANCH  29  30
ATOM     30  C   UNL A   1      38.612  21.011  25.833  1.00  0.00     0.202 C 
BRANCH  30  31
ATOM     31  C   UNL A   1      39.505  19.760  25.870  1.00  0.00     0.261 C 
BRANCH  31  32
ATOM     32  O   UNL A   1      40.543  19.747  26.862  1.00  0.00    -0.460 OA
BRANCH  32  33
ATOM     33  C   UNL A   1      41.748  20.251  26.524  1.00  0.00     0.338 C 
ATOM     34  O   UNL A   1      42.628  19.688  25.891  1.00  0.00    -0.246 OA
BRANCH  33  35
ATOM     35  C   UNL A   1      41.754  21.685  26.873  1.00  0.00     0.060 A 
ATOM     36  C   UNL A   1      41.578  22.632  25.855  1.00  0.00     0.016 A 
ATOM     37  C   UNL A   1      41.927  22.093  28.199  1.00  0.00     0.016 A 
ATOM     38  C   UNL A   1      41.621  23.994  26.153  1.00  0.00     0.010 A 
ATOM     39  C   UNL A   1      41.989  23.458  28.491  1.00  0.00     0.010 A 
ATOM     40  C   UNL A   1      41.877  24.412  27.465  1.00  0.00    -0.014 A 
BRANCH  40  41
ATOM     41  C   UNL A   1      42.231  25.829  27.726  1.00  0.00     0.031 A 
ATOM     42  C   UNL A   1      43.593  26.312  27.307  1.00  0.00     0.074 A 
ATOM     43  C   UNL A   1      41.365  26.672  28.315  1.00  0.00     0.049 A 
ATOM     44  N   UNL A   1      44.145  27.484  27.472  1.00  0.00    -0.248 NA
ATOM     45  C   UNL A   1      44.449  25.336  26.611  1.00  0.00     0.031 C 
ATOM     46  C   UNL A   1      40.014  26.330  28.751  1.00  0.00     0.029 A 
ATOM     47  N   UNL A   1      41.513  27.990  28.671  1.00  0.00    -0.354 N 
ATOM     48  C   UNL A   1      45.421  27.381  26.930  1.00  0.00     0.074 A 
ATOM     49  C   UNL A   1      45.566  26.026  26.444  1.00  0.00     0.031 C 
ATOM     50  C   UNL A   1      39.466  27.402  29.350  1.00  0.00     0.029 A 
ATOM     51  C   UNL A   1      40.439  28.494  29.366  1.00  0.00     0.049 A 
ATOM     52  H   UNL A   1      42.311  28.523  28.451  1.00  0.00     0.167 HD
ATOM     53  C   UNL A   1      46.383  28.328  26.835  1.00  0.00     0.034 A 
ATOM     54  C   UNL A   1      40.275  29.687  29.972  1.00  0.00     0.034 A 
ATOM     55  C   UNL A   1      46.234  29.675  27.313  1.00  0.00     0.049 A 
ATOM     56  C   UNL A   1      41.375  30.715  29.889  1.00  0.00     0.074 A 
ATOM     57  C   UNL A   1      47.135  30.721  27.230  1.00  0.00     0.029 A 
ATOM     58  N   UNL A   1      45.119  30.158  27.982  1.00  0.00    -0.354 N 
ATOM     59  N   UNL A   1      42.536  30.637  29.285  1.00  0.00    -0.248 NA
ATOM     60  C   UNL A   1      41.129  32.008  30.545  1.00  0.00     0.031 C 
ATOM     61  C   UNL A   1      46.581  31.826  27.886  1.00  0.00     0.029 A 
ATOM     62  C   UNL A   1      45.315  31.483  28.332  1.00  0.00     0.049 A 
ATOM     63  H   UNL A   1      44.308  29.636  28.178  1.00  0.00     0.167 HD
ATOM     64  C   UNL A   1      43.141  31.879  29.452  1.00  0.00     0.074 A 
ATOM     65  C   UNL A   1      42.209  32.697  30.201  1.00  0.00     0.031 C 
ATOM     66  C   UNL A   1      44.360  32.302  29.034  1.00  0.00     0.034 A 
BRANCH  53  67
ATOM     67  C   UNL A   1      47.683  27.940  26.181  1.00  0.00     0.023 A 
ATOM     68  C   UNL A   1      48.771  27.519  26.973  1.00  0.00     0.012 A 
ATOM     69  C   UNL A   1      47.813  27.951  24.779  1.00  0.00     0.148 A 
ATOM     70  C   UNL A   1      49.980  27.151  26.382  1.00  0.00     0.002 A 
ATOM     71  C   UNL A   1      49.004  27.536  24.195  1.00  0.00     0.091 A 
ATOM     72  F   UNL A   1      46.776  28.375  24.044  1.00  0.00    -0.205 F 
ATOM     73  C   UNL A   1      50.092  27.150  24.995  1.00  0.00     0.022 A 
BRANCH  71  74
ATOM     74  S   UNL A   1      49.222  27.420  22.417  1.00  0.00     0.127 S 
ATOM     75  O   UNL A   1      48.439  28.563  21.948  1.00  0.00    -0.237 OA
ATOM     76  O   UNL A   1      50.670  27.575  22.275  1.00  0.00    -0.237 OA
ATOM     77  O   UNL A   1      48.709  26.114  22.031  1.00  0.00    -0.744 OA
ENDBRANCH  71  74
ENDBRANCH  53  67
BRANCH  54  78
ATOM     78  C   UNL A   1      39.011  29.984  30.708  1.00  0.00     0.023 A 
ATOM     79  C   UNL A   1      38.814  29.462  32.000  1.00  0.00     0.012 A 
ATOM     80  C   UNL A   1      38.007  30.784  30.130  1.00  0.00     0.148 A 
ATOM     81  C   UNL A   1      37.625  29.705  32.691  1.00  0.00     0.002 A 
ATOM     82  C   UNL A   1      36.851  31.070  30.845  1.00  0.00     0.091 A 
ATOM     83  F   UNL A   1      38.208  31.256  28.891  1.00  0.00    -0.205 F 
ATOM     84  C   UNL A   1      36.649  30.516  32.119  1.00  0.00     0.022 A 
BRANCH  82  85
ATOM     85  S   UNL A   1      35.599  32.206  30.242  1.00  0.00     0.127 S 
ATOM     86  O   UNL A   1      36.375  33.428  30.043  1.00  0.00    -0.237 OA
ATOM     87  O   UNL A   1      35.163  31.545  29.012  1.00  0.00    -0.237 OA
ATOM     88  O   UNL A   1      34.585  32.269  31.284  1.00  0.00    -0.744 OA
ENDBRANCH  82  85
ENDBRANCH  54  78
BRANCH  66  89
ATOM     89  C   UNL A   1      44.747  33.730  29.322  1.00  0.00     0.023 A 
ATOM     90  C   UNL A   1      45.473  34.049  30.487  1.00  0.00     0.012 A 
ATOM     91  C   UNL A   1      44.454  34.749  28.391  1.00  0.00     0.148 A 
ATOM     92  C   UNL A   1      45.868  35.364  30.739  1.00  0.00     0.002 A 
ATOM     93  C   UNL A   1      44.897  36.045  28.623  1.00  0.00     0.091 A 
ATOM     94  F   UNL A   1      43.750  34.429  27.295  1.00  0.00    -0.205 F 
ATOM     95  C   UNL A   1      45.591  36.357  29.802  1.00  0.00     0.022 A 
BRANCH  93  96
ATOM     96  S   UNL A   1      44.676  37.368  27.428  1.00  0.00     0.127 S 
ATOM     97  O   UNL A   1      45.769  37.108  26.490  1.00  0.00    -0.237 OA
ATOM     98  O   UNL A   1      43.340  37.088  26.900  1.00  0.00    -0.237 OA
ATOM     99  O   UNL A   1      44.783  38.612  28.177  1.00  0.00    -0.744 OA
ENDBRANCH  93  96
ENDBRANCH  66  89
ENDBRANCH  40  41
ENDBRANCH  33  35
ENDBRANCH  32  33
ENDBRANCH  31  32
ENDBRANCH  30  31
ENDBRANCH  29  30
ENDBRANCH  28  29
ENDBRANCH   1  28
TORSDOF 24
ENDMDL
MODEL 2
REMARK VINA RESULT:     -10.5      2.816      3.880
REMARK SMILES C[C@@H](C(=O)OCCOCCOCCOCCOC(=O)c1ccc(-c2c3nc(c(-c4cccc(S(=O)(=O)[O-])c4F)c4ccc([nH]4)c(-c4cccc(S(=O)(=O)[O-])c4F)c4nc(c(-c5cccc(S(=O)(=O)[O-])c5F)c5ccc2[nH]5)C=C4)C=C3)cc1)c1ccc2c(c1)[nH]c1ccc(Cl)cc12
REMARK SMILES IDX 12 1 11 2 10 3 9 4 8 5 7 6 6 7 5 8 3 9 4 10 2 11 1 12 83 13
REMARK SMILES IDX 84 14 88 15 85 16 87 17 86 18 89 19 96 20 90 21 95 23 91 24
REMARK SMILES IDX 93 25 92 26 94 27 13 28 14 29 15 30 16 31 17 32 18 33 19 34
REMARK SMILES IDX 20 35 21 36 82 37 22 38 81 39 23 40 24 41 25 42 75 43 26 44
REMARK SMILES IDX 80 45 74 46 76 47 27 48 79 49 73 50 72 51 28 53 60 54 40 55
REMARK SMILES IDX 59 56 41 57 44 58 58 59 77 60 42 61 43 62 57 64 78 65 45 66
REMARK SMILES IDX 29 67 30 68 38 69 31 70 33 71 39 72 32 73 34 74 35 75 36 76
REMARK SMILES IDX 37 77 61 78 62 79 70 80 63 81 65 82 71 83 64 84 66 85 67 86
REMARK SMILES IDX 68 87 69 88 46 89 47 90 55 91 48 92 50 93 56 94 49 95 51 96
REMARK SMILES IDX 52 97 53 98 54 99
REMARK H PARENT 89 22 76 52 44 63
REMARK Flexibility Score: inf
ROOT
ATOM      1  C   UNL A   1      35.746  22.503  25.267  1.00  0.00     0.188 C 
ENDROOT
BRANCH   1   2
ATOM      2  O   UNL A   1      34.345  22.529  25.507  1.00  0.00    -0.377 OA
BRANCH   2   3
ATOM      3  C   UNL A   1      33.564  21.381  25.242  1.00  0.00     0.188 C 
BRANCH   3   4
ATOM      4  C   UNL A   1      32.136  21.615  24.731  1.00  0.00     0.188 C 
BRANCH   4   5
ATOM      5  O   UNL A   1      31.105  21.516  25.689  1.00  0.00    -0.376 OA
BRANCH   5   6
ATOM      6  C   UNL A   1      30.589  22.667  26.337  1.00  0.00     0.202 C 
BRANCH   6   7
ATOM      7  C   UNL A   1      31.407  23.870  26.859  1.00  0.00     0.261 C 
BRANCH   7   8
ATOM      8  O   UNL A   1      30.917  25.184  26.568  1.00  0.00    -0.463 OA
BRANCH   8   9
ATOM      9  C   UNL A   1      31.535  25.861  25.578  1.00  0.00     0.313 C 
ATOM     10  O   UNL A   1      32.358  25.336  24.830  1.00  0.00    -0.252 OA
BRANCH   9  11
ATOM     11  C   UNL A   1      31.054  27.331  25.412  1.00  0.00     0.126 C 
ATOM     12  C   UNL A   1      30.440  27.690  24.052  1.00  0.00     0.025 C 
BRANCH  11  13
ATOM     13  C   UNL A   1      32.073  28.311  26.020  1.00  0.00    -0.032 A 
ATOM     14  C   UNL A   1      33.281  27.989  26.659  1.00  0.00     0.005 A 
ATOM     15  C   UNL A   1      31.712  29.664  25.955  1.00  0.00     0.031 A 
ATOM     16  C   UNL A   1      34.114  28.995  27.224  1.00  0.00     0.011 A 
ATOM     17  C   UNL A   1      32.451  30.607  26.654  1.00  0.00     0.047 A 
ATOM     18  C   UNL A   1      33.677  30.339  27.243  1.00  0.00     0.007 A 
ATOM     19  N   UNL A   1      32.119  31.904  26.927  1.00  0.00    -0.355 N 
ATOM     20  C   UNL A   1      34.177  31.607  27.711  1.00  0.00     0.009 A 
ATOM     21  C   UNL A   1      33.127  32.524  27.609  1.00  0.00     0.047 A 
ATOM     22  H   UNL A   1      31.271  32.331  26.667  1.00  0.00     0.167 HD
ATOM     23  C   UNL A   1      35.402  32.077  28.232  1.00  0.00     0.031 A 
ATOM     24  C   UNL A   1      33.172  33.826  28.113  1.00  0.00     0.028 A 
ATOM     25  C   UNL A   1      35.491  33.414  28.654  1.00  0.00     0.041 A 
ATOM     26  C   UNL A   1      34.385  34.261  28.636  1.00  0.00     0.022 A 
ATOM     27  Cl  UNL A   1      37.006  34.038  29.189  1.00  0.00    -0.084 Cl
ENDBRANCH  11  13
ENDBRANCH   9  11
ENDBRANCH   8   9
ENDBRANCH   7   8
ENDBRANCH   6   7
ENDBRANCH   5   6
ENDBRANCH   4   5
ENDBRANCH   3   4
ENDBRANCH   2   3
ENDBRANCH   1   2
BRANCH   1  28
ATOM     28  C   UNL A   1      36.476  21.196  24.893  1.00  0.00     0.188 C 
BRANCH  28  29
ATOM     29  O   UNL A   1      37.873  21.318  24.684  1.00  0.00    -0.376 OA
BRANCH  29  30
ATOM     30  C   UNL A   1      38.748  21.032  25.764  1.00  0.00     0.202 C 
BRANCH  30  31
ATOM     31  C   UNL A   1      39.523  19.704  25.732  1.00  0.00     0.261 C 
BRANCH  31  32
ATOM     32  O   UNL A   1      40.609  19.577  26.662  1.00  0.00    -0.460 OA
BRANCH  32  33
ATOM     33  C   UNL A   1      41.863  19.526  26.168  1.00  0.00     0.338 C 
ATOM     34  O   UNL A   1      42.346  18.639  25.479  1.00  0.00    -0.246 OA
BRANCH  33  35
ATOM     35  C   UNL A   1      42.507  20.828  26.429  1.00  0.00     0.060 A 
ATOM     36  C   UNL A   1      42.642  21.263  27.754  1.00  0.00     0.016 A 
ATOM     37  C   UNL A   1      42.979  21.612  25.373  1.00  0.00     0.016 A 
ATOM     38  C   UNL A   1      43.210  22.508  28.026  1.00  0.00     0.010 A 
ATOM     39  C   UNL A   1      43.529  22.867  25.647  1.00  0.00     0.010 A 
ATOM     40  C   UNL A   1      43.610  23.337  26.970  1.00  0.00    -0.014 A 
BRANCH  40  41
ATOM     41  C   UNL A   1      43.917  24.764  27.234  1.00  0.00     0.031 A 
ATOM     42  C   UNL A   1      45.346  25.219  27.111  1.00  0.00     0.074 A 
ATOM     43  C   UNL A   1      42.953  25.639  27.569  1.00  0.00     0.049 A 
ATOM     44  N   UNL A   1      45.864  26.397  27.339  1.00  0.00    -0.248 NA
ATOM     45  C   UNL A   1      46.322  24.206  26.676  1.00  0.00     0.031 C 
ATOM     46  C   UNL A   1      41.534  25.325  27.704  1.00  0.00     0.029 A 
ATOM     47  N   UNL A   1      43.037  26.973  27.885  1.00  0.00    -0.354 N 
ATOM     48  C   UNL A   1      47.228  26.261  27.106  1.00  0.00     0.074 A 
ATOM     49  C   UNL A   1      47.459  24.882  26.733  1.00  0.00     0.031 C 
ATOM     50  C   UNL A   1      40.881  26.428  28.110  1.00  0.00     0.029 A 
ATOM     51  C   UNL A   1      41.841  27.515  28.292  1.00  0.00     0.049 A 
ATOM     52  H   UNL A   1      43.872  27.490  27.825  1.00  0.00     0.167 HD
ATOM     53  C   UNL A   1      48.200  27.199  27.185  1.00  0.00     0.034 A 
ATOM     54  C   UNL A   1      41.562  28.739  28.786  1.00  0.00     0.034 A 
ATOM     55  C   UNL A   1      47.967  28.569  27.550  1.00  0.00     0.049 A 
ATOM     56  C   UNL A   1      42.669  29.757  28.904  1.00  0.00     0.074 A 
ATOM     57  C   UNL A   1      48.880  29.606  27.622  1.00  0.00     0.029 A 
ATOM     58  N   UNL A   1      46.738  29.090  27.924  1.00  0.00    -0.354 N 
ATOM     59  N   UNL A   1      43.935  29.644  28.583  1.00  0.00    -0.248 NA
ATOM     60  C   UNL A   1      42.300  31.083  29.422  1.00  0.00     0.031 C 
ATOM     61  C   UNL A   1      48.209  30.745  28.080  1.00  0.00     0.029 A 
ATOM     62  C   UNL A   1      46.869  30.430  28.244  1.00  0.00     0.049 A 
ATOM     63  H   UNL A   1      45.896  28.582  27.957  1.00  0.00     0.167 HD
ATOM     64  C   UNL A   1      44.505  30.891  28.822  1.00  0.00     0.074 A 
ATOM     65  C   UNL A   1      43.441  31.750  29.298  1.00  0.00     0.031 C 
ATOM     66  C   UNL A   1      45.793  31.287  28.670  1.00  0.00     0.034 A 
BRANCH  53  67
ATOM     67  C   UNL A   1      49.609  26.772  26.862  1.00  0.00     0.023 A 
ATOM     68  C   UNL A   1      50.339  25.998  27.787  1.00  0.00     0.012 A 
ATOM     69  C   UNL A   1      50.194  27.104  25.625  1.00  0.00     0.148 A 
ATOM     70  C   UNL A   1      51.642  25.591  27.502  1.00  0.00     0.002 A 
ATOM     71  C   UNL A   1      51.474  26.652  25.327  1.00  0.00     0.091 A 
ATOM     72  F   UNL A   1      49.493  27.859  24.768  1.00  0.00    -0.205 F 
ATOM     73  C   UNL A   1      52.205  25.910  26.269  1.00  0.00     0.022 A 
BRANCH  71  74
ATOM     74  S   UNL A   1      52.256  26.939  23.736  1.00  0.00     0.127 S 
ATOM     75  O   UNL A   1      53.106  25.757  23.607  1.00  0.00    -0.237 OA
ATOM     76  O   UNL A   1      51.106  26.966  22.831  1.00  0.00    -0.237 OA
ATOM     77  O   UNL A   1      52.965  28.205  23.857  1.00  0.00    -0.744 OA
ENDBRANCH  71  74
ENDBRANCH  53  67
BRANCH  54  78
ATOM     78  C   UNL A   1      40.170  29.077  29.200  1.00  0.00     0.023 A 
ATOM     79  C   UNL A   1      39.222  29.454  28.230  1.00  0.00     0.012 A 
ATOM     80  C   UNL A   1      39.784  29.024  30.554  1.00  0.00     0.148 A 
ATOM     81  C   UNL A   1      37.923  29.804  28.604  1.00  0.00     0.002 A 
ATOM     82  C   UNL A   1      38.474  29.317  30.912  1.00  0.00     0.091 A 
ATOM     83  F   UNL A   1      40.707  28.680  31.463  1.00  0.00    -0.205 F 
ATOM     84  C   UNL A   1      37.546  29.725  29.942  1.00  0.00     0.022 A 
BRANCH  82  85
ATOM     85  S   UNL A   1      37.866  29.120  32.591  1.00  0.00     0.127 S 
ATOM     86  O   UNL A   1      36.463  29.498  32.446  1.00  0.00    -0.237 OA
ATOM     87  O   UNL A   1      38.101  27.696  32.828  1.00  0.00    -0.237 OA
ATOM     88  O   UNL A   1      38.676  30.009  33.412  1.00  0.00    -0.744 OA
ENDBRANCH  82  85
ENDBRANCH  54  78
BRANCH  66  89
ATOM     89  C   UNL A   1      46.127  32.727  28.968  1.00  0.00     0.023 A 
ATOM     90  C   UNL A   1      46.433  33.129  30.283  1.00  0.00     0.012 A 
ATOM     91  C   UNL A   1      46.211  33.669  27.921  1.00  0.00     0.148 A 
ATOM     92  C   UNL A   1      46.781  34.452  30.558  1.00  0.00     0.002 A 
ATOM     93  C   UNL A   1      46.610  34.972  28.195  1.00  0.00     0.091 A 
ATOM     94  F   UNL A   1      45.901  33.273  26.678  1.00  0.00    -0.205 F 
ATOM     95  C   UNL A   1      46.881  35.368  29.513  1.00  0.00     0.022 A 
BRANCH  93  96
ATOM     96  S   UNL A   1      46.864  36.194  26.902  1.00  0.00     0.127 S 
ATOM     97  O   UNL A   1      47.347  35.365  25.799  1.00  0.00    -0.237 OA
ATOM     98  O   UNL A   1      45.515  36.731  26.717  1.00  0.00    -0.237 OA
ATOM     99  O   UNL A   1      47.829  37.148  27.432  1.00  0.00    -0.744 OA
ENDBRANCH  93  96
ENDBRANCH  66  89
ENDBRANCH  40  41
ENDBRANCH  33  35
ENDBRANCH  32  33
ENDBRANCH  31  32
ENDBRANCH  30  31
ENDBRANCH  29  30
ENDBRANCH  28  29
ENDBRANCH   1  28
TORSDOF 24
ENDMDL
MODEL 3
REMARK VINA RESULT:      -9.3      5.060      9.839
REMARK SMILES C[C@@H](C(=O)OCCOCCOCCOCCOC(=O)c1ccc(-c2c3nc(c(-c4cccc(S(=O)(=O)[O-])c4F)c4ccc([nH]4)c(-c4cccc(S(=O)(=O)[O-])c4F)c4nc(c(-c5cccc(S(=O)(=O)[O-])c5F)c5ccc2[nH]5)C=C4)C=C3)cc1)c1ccc2c(c1)[nH]c1ccc(Cl)cc12
REMARK SMILES IDX 12 1 11 2 10 3 9 4 8 5 7 6 6 7 5 8 3 9 4 10 2 11 1 12 83 13
REMARK SMILES IDX 84 14 88 15 85 16 87 17 86 18 89 19 96 20 90 21 95 23 91 24
REMARK SMILES IDX 93 25 92 26 94 27 13 28 14 29 15 30 16 31 17 32 18 33 19 34
REMARK SMILES IDX 20 35 21 36 82 37 22 38 81 39 23 40 24 41 25 42 75 43 26 44
REMARK SMILES IDX 80 45 74 46 76 47 27 48 79 49 73 50 72 51 28 53 60 54 40 55
REMARK SMILES IDX 59 56 41 57 44 58 58 59 77 60 42 61 43 62 57 64 78 65 45 66
REMARK SMILES IDX 29 67 30 68 38 69 31 70 33 71 39 72 32 73 34 74 35 75 36 76
REMARK SMILES IDX 37 77 61 78 62 79 70 80 63 81 65 82 71 83 64 84 66 85 67 86
REMARK SMILES IDX 68 87 69 88 46 89 47 90 55 91 48 92 50 93 56 94 49 95 51 96
REMARK SMILES IDX 52 97 53 98 54 99
REMARK H PARENT 89 22 76 52 44 63
REMARK Flexibility Score: inf
ROOT
ATOM      1  C   UNL A   1      34.710  23.633  24.312  1.00  0.00     0.188 C 
ENDROOT
BRANCH   1   2
ATOM      2  O   UNL A   1      33.617  24.450  23.913  1.00  0.00    -0.377 OA
BRANCH   2   3
ATOM      3  C   UNL A   1      32.897  24.139  22.737  1.00  0.00     0.188 C 
BRANCH   3   4
ATOM      4  C   UNL A   1      32.821  25.229  21.659  1.00  0.00     0.188 C 
BRANCH   4   5
ATOM      5  O   UNL A   1      32.166  26.424  22.026  1.00  0.00    -0.376 OA
BRANCH   5   6
ATOM      6  C   UNL A   1      32.894  27.620  22.260  1.00  0.00     0.202 C 
BRANCH   6   7
ATOM      7  C   UNL A   1      33.579  28.033  23.582  1.00  0.00     0.261 C 
BRANCH   7   8
ATOM      8  O   UNL A   1      33.253  29.317  24.126  1.00  0.00    -0.463 OA
BRANCH   8   9
ATOM      9  C   UNL A   1      32.280  29.356  25.060  1.00  0.00     0.313 C 
ATOM     10  O   UNL A   1      31.141  29.749  24.813  1.00  0.00    -0.252 OA
BRANCH   9  11
ATOM     11  C   UNL A   1      32.699  28.783  26.443  1.00  0.00     0.126 C 
ATOM     12  C   UNL A   1      31.594  28.078  27.243  1.00  0.00     0.025 C 
BRANCH  11  13
ATOM     13  C   UNL A   1      33.607  29.773  27.194  1.00  0.00    -0.032 A 
ATOM     14  C   UNL A   1      33.409  31.155  27.346  1.00  0.00     0.005 A 
ATOM     15  C   UNL A   1      34.773  29.219  27.739  1.00  0.00     0.031 A 
ATOM     16  C   UNL A   1      34.355  31.970  28.026  1.00  0.00     0.011 A 
ATOM     17  C   UNL A   1      35.757  30.053  28.249  1.00  0.00     0.047 A 
ATOM     18  C   UNL A   1      35.575  31.409  28.470  1.00  0.00     0.007 A 
ATOM     19  N   UNL A   1      37.045  29.734  28.575  1.00  0.00    -0.355 N 
ATOM     20  C   UNL A   1      36.760  31.862  29.153  1.00  0.00     0.009 A 
ATOM     21  C   UNL A   1      37.695  30.824  29.083  1.00  0.00     0.047 A 
ATOM     22  H   UNL A   1      37.448  28.844  28.460  1.00  0.00     0.167 HD
ATOM     23  C   UNL A   1      37.156  33.049  29.807  1.00  0.00     0.031 A 
ATOM     24  C   UNL A   1      39.024  30.938  29.493  1.00  0.00     0.028 A 
ATOM     25  C   UNL A   1      38.463  33.141  30.312  1.00  0.00     0.041 A 
ATOM     26  C   UNL A   1      39.395  32.123  30.121  1.00  0.00     0.022 A 
ATOM     27  Cl  UNL A   1      38.932  34.536  31.210  1.00  0.00    -0.084 Cl
ENDBRANCH  11  13
ENDBRANCH   9  11
ENDBRANCH   8   9
ENDBRANCH   7   8
ENDBRANCH   6   7
ENDBRANCH   5   6
ENDBRANCH   4   5
ENDBRANCH   3   4
ENDBRANCH   2   3
ENDBRANCH   1   2
BRANCH   1  28
ATOM     28  C   UNL A   1      34.506  22.163  24.734  1.00  0.00     0.188 C 
BRANCH  28  29
ATOM     29  O   UNL A   1      35.628  21.316  24.549  1.00  0.00    -0.376 OA
BRANCH  29  30
ATOM     30  C   UNL A   1      36.923  21.844  24.792  1.00  0.00     0.202 C 
BRANCH  30  31
ATOM     31  C   UNL A   1      38.043  20.861  25.173  1.00  0.00     0.261 C 
BRANCH  31  32
ATOM     32  O   UNL A   1      39.247  21.439  25.699  1.00  0.00    -0.460 OA
BRANCH  32  33
ATOM     33  C   UNL A   1      40.309  20.629  25.884  1.00  0.00     0.338 C 
ATOM     34  O   UNL A   1      40.370  19.432  25.646  1.00  0.00    -0.246 OA
BRANCH  33  35
ATOM     35  C   UNL A   1      41.467  21.473  26.237  1.00  0.00     0.060 A 
ATOM     36  C   UNL A   1      42.714  20.864  26.435  1.00  0.00     0.016 A 
ATOM     37  C   UNL A   1      41.325  22.857  26.366  1.00  0.00     0.016 A 
ATOM     38  C   UNL A   1      43.815  21.634  26.810  1.00  0.00     0.010 A 
ATOM     39  C   UNL A   1      42.425  23.623  26.761  1.00  0.00     0.010 A 
ATOM     40  C   UNL A   1      43.663  23.010  27.023  1.00  0.00    -0.014 A 
BRANCH  40  41
ATOM     41  C   UNL A   1      44.735  23.768  27.713  1.00  0.00     0.031 A 
ATOM     42  C   UNL A   1      44.611  23.984  29.197  1.00  0.00     0.074 A 
ATOM     43  C   UNL A   1      45.798  24.248  27.045  1.00  0.00     0.049 A 
ATOM     44  N   UNL A   1      45.390  24.652  30.006  1.00  0.00    -0.248 NA
ATOM     45  C   UNL A   1      43.447  23.367  29.856  1.00  0.00     0.031 C 
ATOM     46  C   UNL A   1      46.041  24.090  25.614  1.00  0.00     0.029 A 
ATOM     47  N   UNL A   1      46.862  24.994  27.489  1.00  0.00    -0.354 N 
ATOM     48  C   UNL A   1      44.798  24.563  31.260  1.00  0.00     0.074 A 
ATOM     49  C   UNL A   1      43.586  23.787  31.103  1.00  0.00     0.031 C 
ATOM     50  C   UNL A   1      47.165  24.751  25.287  1.00  0.00     0.029 A 
ATOM     51  C   UNL A   1      47.704  25.402  26.480  1.00  0.00     0.049 A 
ATOM     52  H   UNL A   1      47.009  25.215  28.436  1.00  0.00     0.167 HD
ATOM     53  C   UNL A   1      45.226  25.069  32.440  1.00  0.00     0.034 A 
ATOM     54  C   UNL A   1      48.765  26.232  26.514  1.00  0.00     0.034 A 
ATOM     55  C   UNL A   1      46.433  25.834  32.596  1.00  0.00     0.049 A 
ATOM     56  C   UNL A   1      49.202  26.820  27.833  1.00  0.00     0.074 A 
ATOM     57  C   UNL A   1      46.975  26.359  33.755  1.00  0.00     0.029 A 
ATOM     58  N   UNL A   1      47.277  26.199  31.557  1.00  0.00    -0.354 N 
ATOM     59  N   UNL A   1      48.691  26.643  29.027  1.00  0.00    -0.248 NA
ATOM     60  C   UNL A   1      50.384  27.695  27.813  1.00  0.00     0.031 C 
ATOM     61  C   UNL A   1      48.124  27.078  33.412  1.00  0.00     0.029 A 
ATOM     62  C   UNL A   1      48.327  26.957  32.046  1.00  0.00     0.049 A 
ATOM     63  H   UNL A   1      47.148  25.955  30.613  1.00  0.00     0.167 HD
ATOM     64  C   UNL A   1      49.508  27.350  29.904  1.00  0.00     0.074 A 
ATOM     65  C   UNL A   1      50.559  27.944  29.104  1.00  0.00     0.031 C 
ATOM     66  C   UNL A   1      49.394  27.503  31.247  1.00  0.00     0.034 A 
BRANCH  53  67
ATOM     67  C   UNL A   1      44.383  24.806  33.661  1.00  0.00     0.023 A 
ATOM     68  C   UNL A   1      44.479  23.568  34.329  1.00  0.00     0.012 A 
ATOM     69  C   UNL A   1      43.526  25.801  34.169  1.00  0.00     0.148 A 
ATOM     70  C   UNL A   1      43.709  23.311  35.463  1.00  0.00     0.002 A 
ATOM     71  C   UNL A   1      42.799  25.556  35.328  1.00  0.00     0.091 A 
ATOM     72  F   UNL A   1      43.432  26.962  33.508  1.00  0.00    -0.205 F 
ATOM     73  C   UNL A   1      42.878  24.308  35.967  1.00  0.00     0.022 A 
BRANCH  71  74
ATOM     74  S   UNL A   1      41.764  26.801  36.103  1.00  0.00     0.127 S 
ATOM     75  O   UNL A   1      42.763  27.700  36.679  1.00  0.00    -0.237 OA
ATOM     76  O   UNL A   1      41.038  27.351  34.958  1.00  0.00    -0.237 OA
ATOM     77  O   UNL A   1      40.934  26.094  37.068  1.00  0.00    -0.744 OA
ENDBRANCH  71  74
ENDBRANCH  53  67
BRANCH  54  78
ATOM     78  C   UNL A   1      49.501  26.555  25.257  1.00  0.00     0.023 A 
ATOM     79  C   UNL A   1      48.864  27.293  24.242  1.00  0.00     0.012 A 
ATOM     80  C   UNL A   1      50.832  26.136  25.069  1.00  0.00     0.148 A 
ATOM     81  C   UNL A   1      49.527  27.578  23.047  1.00  0.00     0.002 A 
ATOM     82  C   UNL A   1      51.506  26.473  23.902  1.00  0.00     0.091 A 
ATOM     83  F   UNL A   1      51.414  25.420  26.041  1.00  0.00    -0.205 F 
ATOM     84  C   UNL A   1      50.850  27.178  22.881  1.00  0.00     0.022 A 
BRANCH  82  85
ATOM     85  S   UNL A   1      53.247  26.111  23.654  1.00  0.00     0.127 S 
ATOM     86  O   UNL A   1      53.363  24.780  24.245  1.00  0.00    -0.237 OA
ATOM     87  O   UNL A   1      53.356  26.151  22.196  1.00  0.00    -0.237 OA
ATOM     88  O   UNL A   1      53.974  27.169  24.342  1.00  0.00    -0.744 OA
ENDBRANCH  82  85
ENDBRANCH  54  78
BRANCH  66  89
ATOM     89  C   UNL A   1      50.459  28.299  31.958  1.00  0.00     0.023 A 
ATOM     90  C   UNL A   1      51.624  27.663  32.431  1.00  0.00     0.012 A 
ATOM     91  C   UNL A   1      50.336  29.698  32.087  1.00  0.00     0.148 A 
ATOM     92  C   UNL A   1      52.631  28.401  33.055  1.00  0.00     0.002 A 
ATOM     93  C   UNL A   1      51.366  30.432  32.661  1.00  0.00     0.091 A 
ATOM     94  F   UNL A   1      49.214  30.283  31.644  1.00  0.00    -0.205 F 
ATOM     95  C   UNL A   1      52.507  29.784  33.158  1.00  0.00     0.022 A 
BRANCH  93  96
ATOM     96  S   UNL A   1      51.340  32.227  32.746  1.00  0.00     0.127 S 
ATOM     97  O   UNL A   1      50.216  32.465  33.651  1.00  0.00    -0.237 OA
ATOM     98  O   UNL A   1      52.655  32.528  33.314  1.00  0.00    -0.237 OA
ATOM     99  O   UNL A   1      51.148  32.694  31.380  1.00  0.00    -0.744 OA
ENDBRANCH  93  96
ENDBRANCH  66  89
ENDBRANCH  40  41
ENDBRANCH  33  35
ENDBRANCH  32  33
ENDBRANCH  31  32
ENDBRANCH  30  31
ENDBRANCH  29  30
ENDBRANCH  28  29
ENDBRANCH   1  28
TORSDOF 24
ENDMDL
