MODEL 1
REMARK VINA RESULT:      -8.3      0.000      0.000
REMARK SMILES Nc1cc(C(=O)OCCOCCOCCOCCOC(=O)c2ccc(-c3c4nc(c(-c5cccc(S(=O)(=O)[O-])c5F)c5ccc([nH]5)c(-c5cccc(S(=O)(=O)[O-])c5F)c5nc(c(-c6cccc(S(=O)(=O)[O-])c6F)c6ccc3[nH]6)C=C5)C=C4)cc2)ccc1N1CC2(CCOCC2)C1
REMARK SMILES IDX 14 1 13 2 12 3 11 4 10 5 9 6 8 7 7 8 5 9 6 10 4 11 2 12 3 13
REMARK SMILES IDX 87 14 86 15 85 16 1 17 88 20 89 21 96 22 90 23 91 24 95 25
REMARK SMILES IDX 92 26 94 27 93 28 15 29 16 30 17 31 18 32 19 33 20 34 21 35
REMARK SMILES IDX 22 36 23 37 84 38 24 39 83 40 25 41 26 42 27 43 77 44 28 45
REMARK SMILES IDX 82 46 76 47 78 48 29 49 81 50 75 51 74 52 30 54 62 55 42 56
REMARK SMILES IDX 61 57 43 58 46 59 60 60 79 61 44 62 45 63 59 65 80 66 47 67
REMARK SMILES IDX 31 68 32 69 40 70 33 71 35 72 41 73 34 74 36 75 37 76 38 77
REMARK SMILES IDX 39 78 63 79 64 80 72 81 65 82 67 83 73 84 66 85 68 86 69 87
REMARK SMILES IDX 70 88 71 89 48 90 49 91 57 92 50 93 52 94 58 95 51 96 53 97
REMARK SMILES IDX 54 98 55 99 56 100
REMARK H PARENT 1 18 1 19 78 53 46 64
REMARK Flexibility Score: inf
ROOT
ATOM      1  C   UNL A   1      32.973  36.470  31.179  1.00  0.00     0.188 C 
ENDROOT
BRANCH   1   2
ATOM      2  O   UNL A   1      33.494  36.141  32.463  1.00  0.00    -0.377 OA
BRANCH   2   3
ATOM      3  C   UNL A   1      34.067  34.865  32.700  1.00  0.00     0.188 C 
BRANCH   3   4
ATOM      4  C   UNL A   1      35.421  34.774  33.436  1.00  0.00     0.188 C 
BRANCH   4   5
ATOM      5  O   UNL A   1      36.378  33.957  32.790  1.00  0.00    -0.376 OA
BRANCH   5   6
ATOM      6  C   UNL A   1      37.637  33.743  33.398  1.00  0.00     0.202 C 
BRANCH   6   7
ATOM      7  C   UNL A   1      38.870  34.546  32.951  1.00  0.00     0.261 C 
BRANCH   7   8
ATOM      8  O   UNL A   1      39.648  33.990  31.887  1.00  0.00    -0.460 OA
BRANCH   8   9
ATOM      9  C   UNL A   1      39.408  34.454  30.642  1.00  0.00     0.338 C 
ATOM     10  O   UNL A   1      38.376  34.957  30.234  1.00  0.00    -0.246 OA
BRANCH   9  11
ATOM     11  C   UNL A   1      40.694  34.470  29.907  1.00  0.00     0.062 A 
ATOM     12  C   UNL A   1      41.999  35.425  28.072  1.00  0.00     0.056 A 
ATOM     13  C   UNL A   1      40.810  35.334  28.812  1.00  0.00     0.043 A 
ATOM     14  C   UNL A   1      43.087  34.599  28.429  1.00  0.00     0.060 A 
ATOM     15  C   UNL A   1      42.961  33.765  29.564  1.00  0.00     0.029 A 
ATOM     16  C   UNL A   1      41.785  33.709  30.312  1.00  0.00     0.018 A 
BRANCH  12  17
ATOM     17  N   UNL A   1      42.029  36.339  27.028  1.00  0.00    -0.397 N 
ATOM     18  H   UNL A   1      42.404  36.078  26.156  1.00  0.00     0.156 HD
ATOM     19  H   UNL A   1      41.676  37.248  27.160  1.00  0.00     0.156 HD
ENDBRANCH  12  17
BRANCH  14  20
ATOM     20  N   UNL A   1      44.278  34.455  27.682  1.00  0.00    -0.369 N 
ATOM     21  C   UNL A   1      45.044  33.352  27.208  1.00  0.00     0.125 C 
ATOM     22  C   UNL A   1      45.418  35.315  27.851  1.00  0.00     0.125 C 
ATOM     23  C   UNL A   1      46.315  34.068  27.736  1.00  0.00     0.010 C 
ATOM     24  C   UNL A   1      47.477  34.227  26.754  1.00  0.00     0.039 C 
ATOM     25  C   UNL A   1      46.846  33.564  29.087  1.00  0.00     0.039 C 
ATOM     26  C   UNL A   1      48.234  32.908  26.660  1.00  0.00     0.161 C 
ATOM     27  C   UNL A   1      47.623  32.273  28.860  1.00  0.00     0.161 C 
ATOM     28  O   UNL A   1      48.702  32.501  27.949  1.00  0.00    -0.381 OA
ENDBRANCH  14  20
ENDBRANCH   9  11
ENDBRANCH   8   9
ENDBRANCH   7   8
ENDBRANCH   6   7
ENDBRANCH   5   6
ENDBRANCH   4   5
ENDBRANCH   3   4
ENDBRANCH   2   3
ENDBRANCH   1   2
BRANCH   1  29
ATOM     29  C   UNL A   1      33.009  35.469  30.000  1.00  0.00     0.188 C 
BRANCH  29  30
ATOM     30  O   UNL A   1      33.674  35.937  28.837  1.00  0.00    -0.376 OA
BRANCH  30  31
ATOM     31  C   UNL A   1      34.526  35.033  28.159  1.00  0.00     0.202 C 
BRANCH  31  32
ATOM     32  C   UNL A   1      34.116  33.554  28.155  1.00  0.00     0.261 C 
BRANCH  32  33
ATOM     33  O   UNL A   1      35.188  32.600  28.163  1.00  0.00    -0.460 OA
BRANCH  33  34
ATOM     34  C   UNL A   1      34.859  31.297  27.998  1.00  0.00     0.338 C 
ATOM     35  O   UNL A   1      33.840  30.853  27.514  1.00  0.00    -0.246 OA
BRANCH  34  36
ATOM     36  C   UNL A   1      36.057  30.498  28.341  1.00  0.00     0.060 A 
ATOM     37  C   UNL A   1      36.080  29.783  29.546  1.00  0.00     0.016 A 
ATOM     38  C   UNL A   1      37.143  30.445  27.465  1.00  0.00     0.016 A 
ATOM     39  C   UNL A   1      37.207  29.038  29.893  1.00  0.00     0.010 A 
ATOM     40  C   UNL A   1      38.278  29.716  27.823  1.00  0.00     0.010 A 
ATOM     41  C   UNL A   1      38.329  29.037  29.053  1.00  0.00    -0.014 A 
BRANCH  41  42
ATOM     42  C   UNL A   1      39.618  28.492  29.542  1.00  0.00     0.031 A 
ATOM     43  C   UNL A   1      40.310  29.208  30.672  1.00  0.00     0.074 A 
ATOM     44  C   UNL A   1      40.172  27.396  28.993  1.00  0.00     0.049 A 
ATOM     45  N   UNL A   1      41.463  28.956  31.230  1.00  0.00    -0.248 NA
ATOM     46  C   UNL A   1      39.605  30.367  31.245  1.00  0.00     0.031 C 
ATOM     47  C   UNL A   1      39.597  26.611  27.905  1.00  0.00     0.029 A 
ATOM     48  N   UNL A   1      41.366  26.772  29.265  1.00  0.00    -0.354 N 
ATOM     49  C   UNL A   1      41.640  29.942  32.193  1.00  0.00     0.074 A 
ATOM     50  C   UNL A   1      40.479  30.802  32.140  1.00  0.00     0.031 C 
ATOM     51  C   UNL A   1      40.451  25.624  27.580  1.00  0.00     0.029 A 
ATOM     52  C   UNL A   1      41.647  25.729  28.415  1.00  0.00     0.049 A 
ATOM     53  H   UNL A   1      41.962  27.047  29.999  1.00  0.00     0.167 HD
ATOM     54  C   UNL A   1      42.673  30.114  33.050  1.00  0.00     0.034 A 
ATOM     55  C   UNL A   1      42.755  24.968  28.306  1.00  0.00     0.034 A 
ATOM     56  C   UNL A   1      43.820  29.250  33.112  1.00  0.00     0.049 A 
ATOM     57  C   UNL A   1      43.906  25.203  29.253  1.00  0.00     0.074 A 
ATOM     58  C   UNL A   1      44.894  29.312  33.980  1.00  0.00     0.029 A 
ATOM     59  N   UNL A   1      44.054  28.184  32.260  1.00  0.00    -0.354 N 
ATOM     60  N   UNL A   1      44.009  26.066  30.234  1.00  0.00    -0.248 NA
ATOM     61  C   UNL A   1      45.085  24.337  29.096  1.00  0.00     0.031 C 
ATOM     62  C   UNL A   1      45.799  28.307  33.625  1.00  0.00     0.029 A 
ATOM     63  C   UNL A   1      45.264  27.589  32.568  1.00  0.00     0.049 A 
ATOM     64  H   UNL A   1      43.448  27.893  31.540  1.00  0.00     0.167 HD
ATOM     65  C   UNL A   1      45.238  25.817  30.838  1.00  0.00     0.074 A 
ATOM     66  C   UNL A   1      45.837  24.711  30.122  1.00  0.00     0.031 C 
ATOM     67  C   UNL A   1      45.823  26.452  31.884  1.00  0.00     0.034 A 
BRANCH  54  68
ATOM     68  C   UNL A   1      42.610  31.280  34.002  1.00  0.00     0.023 A 
ATOM     69  C   UNL A   1      41.930  31.151  35.229  1.00  0.00     0.012 A 
ATOM     70  C   UNL A   1      43.285  32.480  33.706  1.00  0.00     0.148 A 
ATOM     71  C   UNL A   1      41.899  32.209  36.137  1.00  0.00     0.002 A 
ATOM     72  C   UNL A   1      43.291  33.513  34.636  1.00  0.00     0.091 A 
ATOM     73  F   UNL A   1      43.907  32.588  32.523  1.00  0.00    -0.205 F 
ATOM     74  C   UNL A   1      42.589  33.384  35.846  1.00  0.00     0.022 A 
BRANCH  72  75
ATOM     75  S   UNL A   1      44.216  35.032  34.391  1.00  0.00     0.127 S 
ATOM     76  O   UNL A   1      45.595  34.552  34.458  1.00  0.00    -0.237 OA
ATOM     77  O   UNL A   1      43.778  35.444  33.059  1.00  0.00    -0.237 OA
ATOM     78  O   UNL A   1      43.818  35.926  35.469  1.00  0.00    -0.744 OA
ENDBRANCH  72  75
ENDBRANCH  54  68
BRANCH  55  79
ATOM     79  C   UNL A   1      42.836  23.896  27.273  1.00  0.00     0.023 A 
ATOM     80  C   UNL A   1      43.551  24.127  26.081  1.00  0.00     0.012 A 
ATOM     81  C   UNL A   1      42.195  22.655  27.457  1.00  0.00     0.148 A 
ATOM     82  C   UNL A   1      43.590  23.161  25.075  1.00  0.00     0.002 A 
ATOM     83  C   UNL A   1      42.286  21.674  26.475  1.00  0.00     0.091 A 
ATOM     84  F   UNL A   1      41.505  22.459  28.589  1.00  0.00    -0.205 F 
ATOM     85  C   UNL A   1      42.965  21.933  25.275  1.00  0.00     0.022 A 
BRANCH  83  86
ATOM     86  S   UNL A   1      41.618  20.023  26.696  1.00  0.00     0.127 S 
ATOM     87  O   UNL A   1      40.214  20.303  26.987  1.00  0.00    -0.237 OA
ATOM     88  O   UNL A   1      41.869  19.421  25.386  1.00  0.00    -0.237 OA
ATOM     89  O   UNL A   1      42.382  19.431  27.785  1.00  0.00    -0.744 OA
ENDBRANCH  83  86
ENDBRANCH  55  79
BRANCH  67  90
ATOM     90  C   UNL A   1      47.156  25.936  32.367  1.00  0.00     0.023 A 
ATOM     91  C   UNL A   1      48.352  26.462  31.844  1.00  0.00     0.012 A 
ATOM     92  C   UNL A   1      47.214  24.981  33.402  1.00  0.00     0.148 A 
ATOM     93  C   UNL A   1      49.588  26.018  32.317  1.00  0.00     0.002 A 
ATOM     94  C   UNL A   1      48.447  24.585  33.906  1.00  0.00     0.091 A 
ATOM     95  F   UNL A   1      46.064  24.482  33.878  1.00  0.00    -0.205 F 
ATOM     96  C   UNL A   1      49.634  25.090  33.355  1.00  0.00     0.022 A 
BRANCH  94  97
ATOM     97  S   UNL A   1      48.603  23.472  35.309  1.00  0.00     0.127 S 
ATOM     98  O   UNL A   1      47.590  23.999  36.222  1.00  0.00    -0.237 OA
ATOM     99  O   UNL A   1      48.273  22.177  34.714  1.00  0.00    -0.237 OA
ATOM    100  O   UNL A   1      49.980  23.594  35.769  1.00  0.00    -0.744 OA
ENDBRANCH  94  97
ENDBRANCH  67  90
ENDBRANCH  41  42
ENDBRANCH  34  36
ENDBRANCH  33  34
ENDBRANCH  32  33
ENDBRANCH  31  32
ENDBRANCH  30  31
ENDBRANCH  29  30
ENDBRANCH   1  29
TORSDOF 25
ENDMDL
MODEL 2
REMARK VINA RESULT:      -7.8      5.208     13.364
REMARK SMILES Nc1cc(C(=O)OCCOCCOCCOCCOC(=O)c2ccc(-c3c4nc(c(-c5cccc(S(=O)(=O)[O-])c5F)c5ccc([nH]5)c(-c5cccc(S(=O)(=O)[O-])c5F)c5nc(c(-c6cccc(S(=O)(=O)[O-])c6F)c6ccc3[nH]6)C=C5)C=C4)cc2)ccc1N1CC2(CCOCC2)C1
REMARK SMILES IDX 14 1 13 2 12 3 11 4 10 5 9 6 8 7 7 8 5 9 6 10 4 11 2 12 3 13
REMARK SMILES IDX 87 14 86 15 85 16 1 17 88 20 89 21 96 22 90 23 91 24 95 25
REMARK SMILES IDX 92 26 94 27 93 28 15 29 16 30 17 31 18 32 19 33 20 34 21 35
REMARK SMILES IDX 22 36 23 37 84 38 24 39 83 40 25 41 26 42 27 43 77 44 28 45
REMARK SMILES IDX 82 46 76 47 78 48 29 49 81 50 75 51 74 52 30 54 62 55 42 56
REMARK SMILES IDX 61 57 43 58 46 59 60 60 79 61 44 62 45 63 59 65 80 66 47 67
REMARK SMILES IDX 31 68 32 69 40 70 33 71 35 72 41 73 34 74 36 75 37 76 38 77
REMARK SMILES IDX 39 78 63 79 64 80 72 81 65 82 67 83 73 84 66 85 68 86 69 87
REMARK SMILES IDX 70 88 71 89 48 90 49 91 57 92 50 93 52 94 58 95 51 96 53 97
REMARK SMILES IDX 54 98 55 99 56 100
REMARK H PARENT 1 18 1 19 78 53 46 64
REMARK Flexibility Score: inf
ROOT
ATOM      1  C   UNL A   1      45.531  21.732  25.271  1.00  0.00     0.188 C 
ENDROOT
BRANCH   1   2
ATOM      2  O   UNL A   1      46.397  20.616  25.095  1.00  0.00    -0.377 OA
BRANCH   2   3
ATOM      3  C   UNL A   1      45.894  19.388  24.593  1.00  0.00     0.188 C 
BRANCH   3   4
ATOM      4  C   UNL A   1      44.951  18.545  25.477  1.00  0.00     0.188 C 
BRANCH   4   5
ATOM      5  O   UNL A   1      43.575  18.797  25.262  1.00  0.00    -0.376 OA
BRANCH   5   6
ATOM      6  C   UNL A   1      42.648  18.541  26.298  1.00  0.00     0.202 C 
BRANCH   6   7
ATOM      7  C   UNL A   1      41.983  19.701  27.059  1.00  0.00     0.261 C 
BRANCH   7   8
ATOM      8  O   UNL A   1      40.849  20.311  26.436  1.00  0.00    -0.460 OA
BRANCH   8   9
ATOM      9  C   UNL A   1      40.945  21.621  26.131  1.00  0.00     0.338 C 
ATOM     10  O   UNL A   1      41.940  22.214  25.752  1.00  0.00    -0.246 OA
BRANCH   9  11
ATOM     11  C   UNL A   1      39.575  22.184  26.101  1.00  0.00     0.062 A 
ATOM     12  C   UNL A   1      37.211  21.810  25.598  1.00  0.00     0.056 A 
ATOM     13  C   UNL A   1      38.540  21.362  25.640  1.00  0.00     0.043 A 
ATOM     14  C   UNL A   1      36.926  23.132  26.001  1.00  0.00     0.060 A 
ATOM     15  C   UNL A   1      37.979  23.930  26.503  1.00  0.00     0.029 A 
ATOM     16  C   UNL A   1      39.291  23.461  26.573  1.00  0.00     0.018 A 
BRANCH  12  17
ATOM     17  N   UNL A   1      36.250  20.907  25.162  1.00  0.00    -0.397 N 
ATOM     18  H   UNL A   1      35.304  21.176  25.124  1.00  0.00     0.156 HD
ATOM     19  H   UNL A   1      36.516  19.999  24.891  1.00  0.00     0.156 HD
ENDBRANCH  12  17
BRANCH  14  20
ATOM     20  N   UNL A   1      35.676  23.775  25.855  1.00  0.00    -0.369 N 
ATOM     21  C   UNL A   1      34.358  23.542  26.342  1.00  0.00     0.125 C 
ATOM     22  C   UNL A   1      35.233  24.356  24.617  1.00  0.00     0.125 C 
ATOM     23  C   UNL A   1      33.834  23.777  24.902  1.00  0.00     0.010 C 
ATOM     24  C   UNL A   1      32.698  24.787  24.736  1.00  0.00     0.039 C 
ATOM     25  C   UNL A   1      33.517  22.507  24.097  1.00  0.00     0.039 C 
ATOM     26  C   UNL A   1      31.383  24.127  25.129  1.00  0.00     0.161 C 
ATOM     27  C   UNL A   1      32.163  21.968  24.541  1.00  0.00     0.161 C 
ATOM     28  O   UNL A   1      31.149  22.956  24.340  1.00  0.00    -0.381 OA
ENDBRANCH  14  20
ENDBRANCH   9  11
ENDBRANCH   8   9
ENDBRANCH   7   8
ENDBRANCH   6   7
ENDBRANCH   5   6
ENDBRANCH   4   5
ENDBRANCH   3   4
ENDBRANCH   2   3
ENDBRANCH   1   2
BRANCH   1  29
ATOM     29  C   UNL A   1      45.437  22.868  24.224  1.00  0.00     0.188 C 
BRANCH  29  30
ATOM     30  O   UNL A   1      46.630  23.613  24.039  1.00  0.00    -0.376 OA
BRANCH  30  31
ATOM     31  C   UNL A   1      46.867  24.700  24.914  1.00  0.00     0.202 C 
BRANCH  31  32
ATOM     32  C   UNL A   1      45.749  25.742  25.056  1.00  0.00     0.261 C 
BRANCH  32  33
ATOM     33  O   UNL A   1      44.973  25.679  26.262  1.00  0.00    -0.460 OA
BRANCH  33  34
ATOM     34  C   UNL A   1      43.680  26.074  26.188  1.00  0.00     0.338 C 
ATOM     35  O   UNL A   1      42.754  25.465  25.697  1.00  0.00    -0.246 OA
BRANCH  34  36
ATOM     36  C   UNL A   1      43.556  27.311  26.990  1.00  0.00     0.060 A 
ATOM     37  C   UNL A   1      42.758  28.359  26.512  1.00  0.00     0.016 A 
ATOM     38  C   UNL A   1      44.214  27.423  28.217  1.00  0.00     0.016 A 
ATOM     39  C   UNL A   1      42.643  29.538  27.248  1.00  0.00     0.010 A 
ATOM     40  C   UNL A   1      44.114  28.612  28.942  1.00  0.00     0.010 A 
ATOM     41  C   UNL A   1      43.356  29.687  28.445  1.00  0.00    -0.014 A 
BRANCH  41  42
ATOM     42  C   UNL A   1      43.469  31.023  29.078  1.00  0.00     0.031 A 
ATOM     43  C   UNL A   1      44.538  31.959  28.580  1.00  0.00     0.074 A 
ATOM     44  C   UNL A   1      42.652  31.398  30.080  1.00  0.00     0.049 A 
ATOM     45  N   UNL A   1      44.864  33.149  29.008  1.00  0.00    -0.248 NA
ATOM     46  C   UNL A   1      45.350  31.484  27.446  1.00  0.00     0.031 C 
ATOM     47  C   UNL A   1      41.574  30.589  30.642  1.00  0.00     0.029 A 
ATOM     48  N   UNL A   1      42.627  32.555  30.820  1.00  0.00    -0.354 N 
ATOM     49  C   UNL A   1      45.939  33.550  28.224  1.00  0.00     0.074 A 
ATOM     50  C   UNL A   1      46.216  32.476  27.297  1.00  0.00     0.031 C 
ATOM     51  C   UNL A   1      41.010  31.262  31.660  1.00  0.00     0.029 A 
ATOM     52  C   UNL A   1      41.707  32.534  31.842  1.00  0.00     0.049 A 
ATOM     53  H   UNL A   1      43.212  33.325  30.636  1.00  0.00     0.167 HD
ATOM     54  C   UNL A   1      46.631  34.713  28.267  1.00  0.00     0.034 A 
ATOM     55  C   UNL A   1      41.478  33.427  32.826  1.00  0.00     0.034 A 
ATOM     56  C   UNL A   1      46.346  35.786  29.179  1.00  0.00     0.049 A 
ATOM     57  C   UNL A   1      42.287  34.700  32.870  1.00  0.00     0.074 A 
ATOM     58  C   UNL A   1      46.958  37.023  29.265  1.00  0.00     0.029 A 
ATOM     59  N   UNL A   1      45.385  35.743  30.175  1.00  0.00    -0.354 N 
ATOM     60  N   UNL A   1      43.223  35.115  32.051  1.00  0.00    -0.248 NA
ATOM     61  C   UNL A   1      41.987  35.642  33.959  1.00  0.00     0.031 C 
ATOM     62  C   UNL A   1      46.394  37.713  30.343  1.00  0.00     0.029 A 
ATOM     63  C   UNL A   1      45.398  36.925  30.895  1.00  0.00     0.049 A 
ATOM     64  H   UNL A   1      44.782  34.983  30.346  1.00  0.00     0.167 HD
ATOM     65  C   UNL A   1      43.589  36.382  32.497  1.00  0.00     0.074 A 
ATOM     66  C   UNL A   1      42.762  36.673  33.649  1.00  0.00     0.031 C 
ATOM     67  C   UNL A   1      44.531  37.225  32.005  1.00  0.00     0.034 A 
BRANCH  54  68
ATOM     68  C   UNL A   1      47.765  34.892  27.292  1.00  0.00     0.023 A 
ATOM     69  C   UNL A   1      47.527  35.485  26.037  1.00  0.00     0.012 A 
ATOM     70  C   UNL A   1      49.078  34.532  27.651  1.00  0.00     0.148 A 
ATOM     71  C   UNL A   1      48.576  35.693  25.141  1.00  0.00     0.002 A 
ATOM     72  C   UNL A   1      50.125  34.787  26.774  1.00  0.00     0.091 A 
ATOM     73  F   UNL A   1      49.278  33.949  28.842  1.00  0.00    -0.205 F 
ATOM     74  C   UNL A   1      49.875  35.356  25.514  1.00  0.00     0.022 A 
BRANCH  72  75
ATOM     75  S   UNL A   1      51.841  34.466  27.193  1.00  0.00     0.127 S 
ATOM     76  O   UNL A   1      51.815  33.031  27.468  1.00  0.00    -0.237 OA
ATOM     77  O   UNL A   1      52.531  34.839  25.959  1.00  0.00    -0.237 OA
ATOM     78  O   UNL A   1      52.143  35.312  28.340  1.00  0.00    -0.744 OA
ENDBRANCH  72  75
ENDBRANCH  54  68
BRANCH  55  79
ATOM     79  C   UNL A   1      40.426  33.167  33.851  1.00  0.00     0.023 A 
ATOM     80  C   UNL A   1      40.777  32.568  35.076  1.00  0.00     0.012 A 
ATOM     81  C   UNL A   1      39.077  33.495  33.611  1.00  0.00     0.148 A 
ATOM     82  C   UNL A   1      39.801  32.261  36.025  1.00  0.00     0.002 A 
ATOM     83  C   UNL A   1      38.117  33.239  34.584  1.00  0.00     0.091 A 
ATOM     84  F   UNL A   1      38.758  34.049  32.433  1.00  0.00    -0.205 F 
ATOM     85  C   UNL A   1      38.474  32.603  35.783  1.00  0.00     0.022 A 
BRANCH  83  86
ATOM     86  S   UNL A   1      36.406  33.756  34.411  1.00  0.00     0.127 S 
ATOM     87  O   UNL A   1      36.553  35.118  33.908  1.00  0.00    -0.237 OA
ATOM     88  O   UNL A   1      35.899  32.788  33.437  1.00  0.00    -0.237 OA
ATOM     89  O   UNL A   1      35.821  33.633  35.740  1.00  0.00    -0.744 OA
ENDBRANCH  83  86
ENDBRANCH  55  79
BRANCH  67  90
ATOM     90  C   UNL A   1      44.686  38.572  32.664  1.00  0.00     0.023 A 
ATOM     91  C   UNL A   1      43.902  39.663  32.242  1.00  0.00     0.012 A 
ATOM     92  C   UNL A   1      45.559  38.730  33.760  1.00  0.00     0.148 A 
ATOM     93  C   UNL A   1      44.012  40.901  32.876  1.00  0.00     0.002 A 
ATOM     94  C   UNL A   1      45.622  39.950  34.422  1.00  0.00     0.091 A 
ATOM     95  F   UNL A   1      46.306  37.683  34.139  1.00  0.00    -0.205 F 
ATOM     96  C   UNL A   1      44.861  41.041  33.972  1.00  0.00     0.022 A 
BRANCH  94  97
ATOM     97  S   UNL A   1      46.609  40.195  35.903  1.00  0.00     0.127 S 
ATOM     98  O   UNL A   1      47.966  40.004  35.392  1.00  0.00    -0.237 OA
ATOM     99  O   UNL A   1      46.283  41.574  36.267  1.00  0.00    -0.237 OA
ATOM    100  O   UNL A   1      46.158  39.193  36.859  1.00  0.00    -0.744 OA
ENDBRANCH  94  97
ENDBRANCH  67  90
ENDBRANCH  41  42
ENDBRANCH  34  36
ENDBRANCH  33  34
ENDBRANCH  32  33
ENDBRANCH  31  32
ENDBRANCH  30  31
ENDBRANCH  29  30
ENDBRANCH   1  29
TORSDOF 25
ENDMDL
MODEL 3
REMARK VINA RESULT:      -7.7      4.495     12.724
REMARK SMILES Nc1cc(C(=O)OCCOCCOCCOCCOC(=O)c2ccc(-c3c4nc(c(-c5cccc(S(=O)(=O)[O-])c5F)c5ccc([nH]5)c(-c5cccc(S(=O)(=O)[O-])c5F)c5nc(c(-c6cccc(S(=O)(=O)[O-])c6F)c6ccc3[nH]6)C=C5)C=C4)cc2)ccc1N1CC2(CCOCC2)C1
REMARK SMILES IDX 14 1 13 2 12 3 11 4 10 5 9 6 8 7 7 8 5 9 6 10 4 11 2 12 3 13
REMARK SMILES IDX 87 14 86 15 85 16 1 17 88 20 89 21 96 22 90 23 91 24 95 25
REMARK SMILES IDX 92 26 94 27 93 28 15 29 16 30 17 31 18 32 19 33 20 34 21 35
REMARK SMILES IDX 22 36 23 37 84 38 24 39 83 40 25 41 26 42 27 43 77 44 28 45
REMARK SMILES IDX 82 46 76 47 78 48 29 49 81 50 75 51 74 52 30 54 62 55 42 56
REMARK SMILES IDX 61 57 43 58 46 59 60 60 79 61 44 62 45 63 59 65 80 66 47 67
REMARK SMILES IDX 31 68 32 69 40 70 33 71 35 72 41 73 34 74 36 75 37 76 38 77
REMARK SMILES IDX 39 78 63 79 64 80 72 81 65 82 67 83 73 84 66 85 68 86 69 87
REMARK SMILES IDX 70 88 71 89 48 90 49 91 57 92 50 93 52 94 58 95 51 96 53 97
REMARK SMILES IDX 54 98 55 99 56 100
REMARK H PARENT 1 18 1 19 78 53 46 64
REMARK Flexibility Score: inf
ROOT
ATOM      1  C   UNL A   1      42.637  24.193  25.680  1.00  0.00     0.188 C 
ENDROOT
BRANCH   1   2
ATOM      2  O   UNL A   1      42.720  24.272  27.099  1.00  0.00    -0.377 OA
BRANCH   2   3
ATOM      3  C   UNL A   1      41.559  24.110  27.897  1.00  0.00     0.188 C 
BRANCH   3   4
ATOM      4  C   UNL A   1      40.193  24.558  27.336  1.00  0.00     0.188 C 
BRANCH   4   5
ATOM      5  O   UNL A   1      39.254  23.509  27.189  1.00  0.00    -0.376 OA
BRANCH   5   6
ATOM      6  C   UNL A   1      39.673  22.266  26.661  1.00  0.00     0.202 C 
BRANCH   6   7
ATOM      7  C   UNL A   1      38.736  21.439  25.764  1.00  0.00     0.261 C 
BRANCH   7   8
ATOM      8  O   UNL A   1      37.353  21.807  25.770  1.00  0.00    -0.460 OA
BRANCH   8   9
ATOM      9  C   UNL A   1      36.503  21.017  25.081  1.00  0.00     0.338 C 
ATOM     10  O   UNL A   1      36.650  19.836  24.819  1.00  0.00    -0.246 OA
BRANCH   9  11
ATOM     11  C   UNL A   1      35.238  21.763  24.895  1.00  0.00     0.062 A 
ATOM     12  C   UNL A   1      34.145  23.945  24.726  1.00  0.00     0.056 A 
ATOM     13  C   UNL A   1      35.294  23.162  24.914  1.00  0.00     0.043 A 
ATOM     14  C   UNL A   1      32.903  23.299  24.548  1.00  0.00     0.060 A 
ATOM     15  C   UNL A   1      32.876  21.886  24.490  1.00  0.00     0.029 A 
ATOM     16  C   UNL A   1      34.031  21.120  24.643  1.00  0.00     0.018 A 
BRANCH  12  17
ATOM     17  N   UNL A   1      34.310  25.324  24.723  1.00  0.00    -0.397 N 
ATOM     18  H   UNL A   1      33.562  25.908  24.461  1.00  0.00     0.156 HD
ATOM     19  H   UNL A   1      35.175  25.716  24.981  1.00  0.00     0.156 HD
ENDBRANCH  12  17
BRANCH  14  20
ATOM     20  N   UNL A   1      31.646  23.945  24.518  1.00  0.00    -0.369 N 
ATOM     21  C   UNL A   1      30.838  24.531  23.504  1.00  0.00     0.125 C 
ATOM     22  C   UNL A   1      31.205  24.849  25.546  1.00  0.00     0.125 C 
ATOM     23  C   UNL A   1      30.635  25.753  24.436  1.00  0.00     0.010 C 
ATOM     24  C   UNL A   1      29.194  26.204  24.682  1.00  0.00     0.039 C 
ATOM     25  C   UNL A   1      31.512  26.976  24.127  1.00  0.00     0.039 C 
ATOM     26  C   UNL A   1      28.714  27.013  23.484  1.00  0.00     0.161 C 
ATOM     27  C   UNL A   1      30.908  27.730  22.948  1.00  0.00     0.161 C 
ATOM     28  O   UNL A   1      29.571  28.136  23.255  1.00  0.00    -0.381 OA
ENDBRANCH  14  20
ENDBRANCH   9  11
ENDBRANCH   8   9
ENDBRANCH   7   8
ENDBRANCH   6   7
ENDBRANCH   5   6
ENDBRANCH   4   5
ENDBRANCH   3   4
ENDBRANCH   2   3
ENDBRANCH   1   2
BRANCH   1  29
ATOM     29  C   UNL A   1      42.911  22.876  24.916  1.00  0.00     0.188 C 
BRANCH  29  30
ATOM     30  O   UNL A   1      44.114  22.214  25.275  1.00  0.00    -0.376 OA
BRANCH  30  31
ATOM     31  C   UNL A   1      45.173  22.223  24.336  1.00  0.00     0.202 C 
BRANCH  31  32
ATOM     32  C   UNL A   1      46.324  23.205  24.589  1.00  0.00     0.261 C 
BRANCH  32  33
ATOM     33  O   UNL A   1      45.972  24.596  24.634  1.00  0.00    -0.460 OA
BRANCH  33  34
ATOM     34  C   UNL A   1      46.954  25.474  24.950  1.00  0.00     0.338 C 
ATOM     35  O   UNL A   1      48.025  25.606  24.398  1.00  0.00    -0.246 OA
BRANCH  34  36
ATOM     36  C   UNL A   1      46.408  26.385  25.980  1.00  0.00     0.060 A 
ATOM     37  C   UNL A   1      47.284  26.988  26.893  1.00  0.00     0.016 A 
ATOM     38  C   UNL A   1      45.038  26.652  26.030  1.00  0.00     0.016 A 
ATOM     39  C   UNL A   1      46.785  27.837  27.880  1.00  0.00     0.010 A 
ATOM     40  C   UNL A   1      44.538  27.486  27.032  1.00  0.00     0.010 A 
ATOM     41  C   UNL A   1      45.404  28.054  27.982  1.00  0.00    -0.014 A 
BRANCH  41  42
ATOM     42  C   UNL A   1      44.845  28.713  29.187  1.00  0.00     0.031 A 
ATOM     43  C   UNL A   1      44.674  27.887  30.434  1.00  0.00     0.074 A 
ATOM     44  C   UNL A   1      44.487  30.010  29.178  1.00  0.00     0.049 A 
ATOM     45  N   UNL A   1      44.160  28.223  31.587  1.00  0.00    -0.248 NA
ATOM     46  C   UNL A   1      45.142  26.492  30.368  1.00  0.00     0.031 C 
ATOM     47  C   UNL A   1      44.614  30.915  28.039  1.00  0.00     0.029 A 
ATOM     48  N   UNL A   1      43.913  30.780  30.160  1.00  0.00    -0.354 N 
ATOM     49  C   UNL A   1      44.210  27.076  32.371  1.00  0.00     0.074 A 
ATOM     50  C   UNL A   1      44.797  26.032  31.561  1.00  0.00     0.031 C 
ATOM     51  C   UNL A   1      44.105  32.113  28.377  1.00  0.00     0.029 A 
ATOM     52  C   UNL A   1      43.588  32.050  29.743  1.00  0.00     0.049 A 
ATOM     53  H   UNL A   1      43.751  30.455  31.075  1.00  0.00     0.167 HD
ATOM     54  C   UNL A   1      43.809  26.908  33.652  1.00  0.00     0.034 A 
ATOM     55  C   UNL A   1      42.923  33.033  30.382  1.00  0.00     0.034 A 
ATOM     56  C   UNL A   1      43.238  27.951  34.461  1.00  0.00     0.049 A 
ATOM     57  C   UNL A   1      42.457  32.807  31.800  1.00  0.00     0.074 A 
ATOM     58  C   UNL A   1      42.848  27.891  35.786  1.00  0.00     0.029 A 
ATOM     59  N   UNL A   1      42.957  29.231  34.016  1.00  0.00    -0.354 N 
ATOM     60  N   UNL A   1      42.614  31.755  32.565  1.00  0.00    -0.248 NA
ATOM     61  C   UNL A   1      41.746  33.918  32.452  1.00  0.00     0.031 C 
ATOM     62  C   UNL A   1      42.290  29.126  36.131  1.00  0.00     0.029 A 
ATOM     63  C   UNL A   1      42.380  29.968  35.035  1.00  0.00     0.049 A 
ATOM     64  H   UNL A   1      43.140  29.567  33.108  1.00  0.00     0.167 HD
ATOM     65  C   UNL A   1      42.065  32.092  33.800  1.00  0.00     0.074 A 
ATOM     66  C   UNL A   1      41.586  33.453  33.684  1.00  0.00     0.031 C 
ATOM     67  C   UNL A   1      41.958  31.341  34.924  1.00  0.00     0.034 A 
BRANCH  54  68
ATOM     68  C   UNL A   1      43.978  25.544  34.269  1.00  0.00     0.023 A 
ATOM     69  C   UNL A   1      42.917  24.618  34.231  1.00  0.00     0.012 A 
ATOM     70  C   UNL A   1      45.214  25.160  34.824  1.00  0.00     0.148 A 
ATOM     71  C   UNL A   1      43.075  23.338  34.763  1.00  0.00     0.002 A 
ATOM     72  C   UNL A   1      45.380  23.868  35.307  1.00  0.00     0.091 A 
ATOM     73  F   UNL A   1      46.203  26.065  34.868  1.00  0.00    -0.205 F 
ATOM     74  C   UNL A   1      44.308  22.960  35.288  1.00  0.00     0.022 A 
BRANCH  72  75
ATOM     75  S   UNL A   1      46.950  23.259  35.928  1.00  0.00     0.127 S 
ATOM     76  O   UNL A   1      47.740  23.173  34.700  1.00  0.00    -0.237 OA
ATOM     77  O   UNL A   1      47.354  24.329  36.839  1.00  0.00    -0.237 OA
ATOM     78  O   UNL A   1      46.664  21.984  36.571  1.00  0.00    -0.744 OA
ENDBRANCH  72  75
ENDBRANCH  54  68
BRANCH  55  79
ATOM     79  C   UNL A   1      42.664  34.336  29.703  1.00  0.00     0.023 A 
ATOM     80  C   UNL A   1      41.458  34.531  29.004  1.00  0.00     0.012 A 
ATOM     81  C   UNL A   1      43.615  35.374  29.731  1.00  0.00     0.148 A 
ATOM     82  C   UNL A   1      41.219  35.719  28.310  1.00  0.00     0.002 A 
ATOM     83  C   UNL A   1      43.348  36.578  29.087  1.00  0.00     0.091 A 
ATOM     84  F   UNL A   1      44.765  35.165  30.387  1.00  0.00    -0.205 F 
ATOM     85  C   UNL A   1      42.160  36.744  28.359  1.00  0.00     0.022 A 
BRANCH  83  86
ATOM     86  S   UNL A   1      44.444  37.995  29.197  1.00  0.00     0.127 S 
ATOM     87  O   UNL A   1      44.845  37.957  30.600  1.00  0.00    -0.237 OA
ATOM     88  O   UNL A   1      45.495  37.635  28.244  1.00  0.00    -0.237 OA
ATOM     89  O   UNL A   1      43.642  39.145  28.800  1.00  0.00    -0.744 OA
ENDBRANCH  83  86
ENDBRANCH  55  79
BRANCH  67  90
ATOM     90  C   UNL A   1      41.354  31.984  36.147  1.00  0.00     0.023 A 
ATOM     91  C   UNL A   1      42.147  32.779  36.996  1.00  0.00     0.012 A 
ATOM     92  C   UNL A   1      39.974  31.860  36.406  1.00  0.00     0.148 A 
ATOM     93  C   UNL A   1      41.584  33.410  38.106  1.00  0.00     0.002 A 
ATOM     94  C   UNL A   1      39.410  32.536  37.481  1.00  0.00     0.091 A 
ATOM     95  F   UNL A   1      39.237  31.089  35.594  1.00  0.00    -0.205 F 
ATOM     96  C   UNL A   1      40.216  33.299  38.341  1.00  0.00     0.022 A 
BRANCH  94  97
ATOM     97  S   UNL A   1      37.642  32.535  37.802  1.00  0.00     0.127 S 
ATOM     98  O   UNL A   1      37.376  31.110  38.000  1.00  0.00    -0.237 OA
ATOM     99  O   UNL A   1      37.547  33.347  39.015  1.00  0.00    -0.237 OA
ATOM    100  O   UNL A   1      37.018  33.127  36.626  1.00  0.00    -0.744 OA
ENDBRANCH  94  97
ENDBRANCH  67  90
ENDBRANCH  41  42
ENDBRANCH  34  36
ENDBRANCH  33  34
ENDBRANCH  32  33
ENDBRANCH  31  32
ENDBRANCH  30  31
ENDBRANCH  29  30
ENDBRANCH   1  29
TORSDOF 25
ENDMDL
