MODEL 1
REMARK VINA RESULT:     -10.2      0.000      0.000
REMARK SMILES Cc1ccccc1NC(=O)CSc1nc(C(=O)OCCOCCOCCOCCOC(=O)c2ccc(-c3c4nc(c(-c5cccc(S(=O)(=O)[O-])c5F)c5ccc([nH]5)c(-c5cccc(S(=O)(=O)[O-])c5F)c5nc(c(-c6cccc(S(=O)(=O)[O-])c6F)c6ccc3[nH]6)C=C5)C=C4)cc2)c2ccccc2n1
REMARK SMILES IDX 23 1 22 2 21 3 20 4 19 5 18 6 16 7 17 8 15 9 13 10 14 11
REMARK SMILES IDX 102 12 101 13 96 14 100 15 97 16 99 17 98 18 12 19 11 20
REMARK SMILES IDX 9 21 8 22 10 24 7 25 1 26 2 27 3 28 4 29 6 30 5 31 24 32
REMARK SMILES IDX 25 33 26 34 27 35 28 36 29 37 30 38 31 39 32 40 33 41 34 42
REMARK SMILES IDX 95 43 35 44 94 45 36 46 37 47 38 48 88 49 39 50 93 51 87 52
REMARK SMILES IDX 89 53 40 54 92 55 86 56 85 57 41 59 73 60 53 61 72 62 54 63
REMARK SMILES IDX 57 64 71 65 90 66 55 67 56 68 70 70 91 71 58 72 42 73 43 74
REMARK SMILES IDX 51 75 44 76 46 77 52 78 45 79 47 80 48 81 49 82 50 83 74 84
REMARK SMILES IDX 75 85 83 86 76 87 78 88 84 89 77 90 79 91 80 92 81 93 82 94
REMARK SMILES IDX 59 95 60 96 68 97 61 98 63 99 69 100 62 101 64 102 65 103
REMARK SMILES IDX 66 104 67 105
REMARK H PARENT 8 23 89 58 57 69
REMARK Flexibility Score: inf
ROOT
ATOM      1  C   UNL A   1      34.164  22.820  26.455  1.00  0.00     0.188 C 
ENDROOT
BRANCH   1   2
ATOM      2  C   UNL A   1      32.983  22.175  25.717  1.00  0.00     0.188 C 
BRANCH   2   3
ATOM      3  O   UNL A   1      31.783  22.919  25.581  1.00  0.00    -0.376 OA
BRANCH   3   4
ATOM      4  C   UNL A   1      31.483  23.839  26.634  1.00  0.00     0.202 C 
BRANCH   4   5
ATOM      5  C   UNL A   1      30.890  25.175  26.190  1.00  0.00     0.261 C 
BRANCH   5   6
ATOM      6  O   UNL A   1      31.333  26.212  27.091  1.00  0.00    -0.458 OA
BRANCH   6   7
ATOM      7  C   UNL A   1      32.317  26.986  26.586  1.00  0.00     0.357 C 
ATOM      8  O   UNL A   1      33.310  26.615  25.991  1.00  0.00    -0.244 OA
BRANCH   7   9
ATOM      9  C   UNL A   1      31.790  28.342  26.339  1.00  0.00     0.160 A 
ATOM     10  C   UNL A   1      32.417  30.366  27.047  1.00  0.00     0.189 A 
ATOM     11  N   UNL A   1      32.197  29.116  27.350  1.00  0.00    -0.215 NA
ATOM     12  N   UNL A   1      31.747  31.008  26.087  1.00  0.00    -0.222 NA
ATOM     13  C   UNL A   1      31.052  30.244  25.229  1.00  0.00     0.076 A 
ATOM     14  C   UNL A   1      31.181  28.853  25.202  1.00  0.00     0.034 A 
ATOM     15  C   UNL A   1      30.246  30.848  24.271  1.00  0.00     0.029 A 
ATOM     16  C   UNL A   1      30.707  28.136  24.084  1.00  0.00     0.013 A 
ATOM     17  C   UNL A   1      29.673  30.119  23.226  1.00  0.00     0.002 A 
ATOM     18  C   UNL A   1      29.958  28.767  23.098  1.00  0.00     0.001 A 
BRANCH  10  19
ATOM     19  S   UNL A   1      34.079  30.860  27.429  1.00  0.00    -0.076 SA
BRANCH  19  20
ATOM     20  C   UNL A   1      33.760  32.451  28.346  1.00  0.00     0.178 C 
BRANCH  20  21
ATOM     21  C   UNL A   1      34.843  33.535  28.259  1.00  0.00     0.234 C 
ATOM     22  N   UNL A   1      35.871  33.657  29.151  1.00  0.00    -0.325 N 
ATOM     23  H   UNL A   1      36.609  34.237  28.853  1.00  0.00     0.169 HD
ATOM     24  O   UNL A   1      34.800  34.390  27.367  1.00  0.00    -0.274 OA
BRANCH  22  25
ATOM     25  C   UNL A   1      36.046  33.090  30.419  1.00  0.00     0.044 A 
ATOM     26  C   UNL A   1      38.274  32.022  29.719  1.00  0.00     0.046 C 
ATOM     27  C   UNL A   1      37.132  32.238  30.672  1.00  0.00    -0.027 A 
ATOM     28  C   UNL A   1      37.158  31.538  31.891  1.00  0.00     0.005 A 
ATOM     29  C   UNL A   1      36.145  31.694  32.839  1.00  0.00     0.000 A 
ATOM     30  C   UNL A   1      35.118  33.345  31.437  1.00  0.00     0.026 A 
ATOM     31  C   UNL A   1      35.135  32.619  32.621  1.00  0.00     0.002 A 
ENDBRANCH  22  25
ENDBRANCH  20  21
ENDBRANCH  19  20
ENDBRANCH  10  19
ENDBRANCH   7   9
ENDBRANCH   6   7
ENDBRANCH   5   6
ENDBRANCH   4   5
ENDBRANCH   3   4
ENDBRANCH   2   3
ENDBRANCH   1   2
BRANCH   1  32
ATOM     32  O   UNL A   1      34.976  23.756  25.764  1.00  0.00    -0.377 OA
BRANCH  32  33
ATOM     33  C   UNL A   1      35.230  23.571  24.364  1.00  0.00     0.188 C 
BRANCH  33  34
ATOM     34  C   UNL A   1      35.731  22.208  23.881  1.00  0.00     0.188 C 
BRANCH  34  35
ATOM     35  O   UNL A   1      37.129  22.107  24.140  1.00  0.00    -0.376 OA
BRANCH  35  36
ATOM     36  C   UNL A   1      37.512  21.658  25.434  1.00  0.00     0.202 C 
BRANCH  36  37
ATOM     37  C   UNL A   1      38.326  22.670  26.247  1.00  0.00     0.261 C 
BRANCH  37  38
ATOM     38  O   UNL A   1      39.672  22.733  25.745  1.00  0.00    -0.460 OA
BRANCH  38  39
ATOM     39  C   UNL A   1      40.555  21.939  26.415  1.00  0.00     0.338 C 
ATOM     40  O   UNL A   1      40.577  20.725  26.333  1.00  0.00    -0.246 OA
BRANCH  39  41
ATOM     41  C   UNL A   1      41.319  22.758  27.400  1.00  0.00     0.060 A 
ATOM     42  C   UNL A   1      41.682  24.075  27.090  1.00  0.00     0.016 A 
ATOM     43  C   UNL A   1      41.916  22.121  28.482  1.00  0.00     0.016 A 
ATOM     44  C   UNL A   1      42.769  24.682  27.745  1.00  0.00     0.010 A 
ATOM     45  C   UNL A   1      43.047  22.684  29.042  1.00  0.00     0.010 A 
ATOM     46  C   UNL A   1      43.523  23.952  28.657  1.00  0.00    -0.014 A 
BRANCH  46  47
ATOM     47  C   UNL A   1      44.868  24.300  29.171  1.00  0.00     0.031 A 
ATOM     48  C   UNL A   1      46.027  24.306  28.192  1.00  0.00     0.074 A 
ATOM     49  C   UNL A   1      44.946  25.095  30.271  1.00  0.00     0.049 A 
ATOM     50  N   UNL A   1      47.151  24.927  28.346  1.00  0.00    -0.248 NA
ATOM     51  C   UNL A   1      45.983  23.588  26.919  1.00  0.00     0.031 C 
ATOM     52  C   UNL A   1      45.848  26.230  30.352  1.00  0.00     0.029 A 
ATOM     53  N   UNL A   1      44.274  25.150  31.505  1.00  0.00    -0.354 N 
ATOM     54  C   UNL A   1      47.811  24.968  27.133  1.00  0.00     0.074 A 
ATOM     55  C   UNL A   1      47.087  24.037  26.308  1.00  0.00     0.031 C 
ATOM     56  C   UNL A   1      45.755  26.837  31.529  1.00  0.00     0.029 A 
ATOM     57  C   UNL A   1      45.070  25.918  32.383  1.00  0.00     0.049 A 
ATOM     58  H   UNL A   1      43.410  24.731  31.718  1.00  0.00     0.167 HD
ATOM     59  C   UNL A   1      48.825  25.863  26.933  1.00  0.00     0.034 A 
ATOM     60  C   UNL A   1      45.624  25.571  33.581  1.00  0.00     0.034 A 
ATOM     61  C   UNL A   1      49.257  26.515  28.195  1.00  0.00     0.049 A 
ATOM     62  C   UNL A   1      47.151  25.698  33.585  1.00  0.00     0.074 A 
ATOM     63  C   UNL A   1      49.524  27.821  28.561  1.00  0.00     0.029 A 
ATOM     64  N   UNL A   1      49.417  25.771  29.372  1.00  0.00    -0.354 N 
ATOM     65  N   UNL A   1      47.850  25.837  32.481  1.00  0.00    -0.248 NA
ATOM     66  C   UNL A   1      48.022  25.724  34.756  1.00  0.00     0.031 C 
ATOM     67  C   UNL A   1      49.701  27.877  29.972  1.00  0.00     0.029 A 
ATOM     68  C   UNL A   1      49.675  26.584  30.461  1.00  0.00     0.049 A 
ATOM     69  H   UNL A   1      49.352  24.790  29.418  1.00  0.00     0.167 HD
ATOM     70  C   UNL A   1      49.185  25.944  32.739  1.00  0.00     0.074 A 
ATOM     71  C   UNL A   1      49.240  25.875  34.192  1.00  0.00     0.031 C 
ATOM     72  C   UNL A   1      50.120  26.043  31.741  1.00  0.00     0.034 A 
BRANCH  59  73
ATOM     73  C   UNL A   1      49.385  26.316  25.558  1.00  0.00     0.023 A 
ATOM     74  C   UNL A   1      50.791  26.275  25.378  1.00  0.00     0.012 A 
ATOM     75  C   UNL A   1      48.666  26.866  24.462  1.00  0.00     0.148 A 
ATOM     76  C   UNL A   1      51.444  26.786  24.245  1.00  0.00     0.002 A 
ATOM     77  C   UNL A   1      49.311  27.288  23.284  1.00  0.00     0.091 A 
ATOM     78  F   UNL A   1      47.351  27.069  24.558  1.00  0.00    -0.205 F 
ATOM     79  C   UNL A   1      50.704  27.281  23.187  1.00  0.00     0.022 A 
BRANCH  77  80
ATOM     80  S   UNL A   1      48.423  27.839  21.810  1.00  0.00     0.127 S 
ATOM     81  O   UNL A   1      49.352  28.804  21.224  1.00  0.00    -0.237 OA
ATOM     82  O   UNL A   1      48.281  26.597  21.048  1.00  0.00    -0.237 OA
ATOM     83  O   UNL A   1      47.163  28.404  22.278  1.00  0.00    -0.744 OA
ENDBRANCH  77  80
ENDBRANCH  59  73
BRANCH  60  84
ATOM     84  C   UNL A   1      44.661  24.941  34.526  1.00  0.00     0.023 A 
ATOM     85  C   UNL A   1      44.823  23.536  34.612  1.00  0.00     0.012 A 
ATOM     86  C   UNL A   1      44.358  25.655  35.695  1.00  0.00     0.148 A 
ATOM     87  C   UNL A   1      45.006  22.923  35.854  1.00  0.00     0.002 A 
ATOM     88  C   UNL A   1      44.595  25.050  36.930  1.00  0.00     0.091 A 
ATOM     89  F   UNL A   1      44.057  26.955  35.583  1.00  0.00    -0.205 F 
ATOM     90  C   UNL A   1      44.963  23.697  37.009  1.00  0.00     0.022 A 
BRANCH  88  91
ATOM     91  S   UNL A   1      44.834  26.062  38.402  1.00  0.00     0.127 S 
ATOM     92  O   UNL A   1      45.301  25.085  39.378  1.00  0.00    -0.237 OA
ATOM     93  O   UNL A   1      45.838  27.027  37.954  1.00  0.00    -0.237 OA
ATOM     94  O   UNL A   1      43.526  26.654  38.645  1.00  0.00    -0.744 OA
ENDBRANCH  88  91
ENDBRANCH  60  84
BRANCH  72  95
ATOM     95  C   UNL A   1      51.596  25.669  31.851  1.00  0.00     0.023 A 
ATOM     96  C   UNL A   1      52.610  26.632  31.715  1.00  0.00     0.012 A 
ATOM     97  C   UNL A   1      52.007  24.381  32.316  1.00  0.00     0.148 A 
ATOM     98  C   UNL A   1      53.949  26.344  31.999  1.00  0.00     0.002 A 
ATOM     99  C   UNL A   1      53.322  24.128  32.689  1.00  0.00     0.091 A 
ATOM    100  F   UNL A   1      51.129  23.376  32.399  1.00  0.00    -0.205 F 
ATOM    101  C   UNL A   1      54.301  25.104  32.511  1.00  0.00     0.022 A 
BRANCH  99 102
ATOM    102  S   UNL A   1      53.806  22.618  33.546  1.00  0.00     0.127 S 
ATOM    103  O   UNL A   1      52.590  21.813  33.438  1.00  0.00    -0.237 OA
ATOM    104  O   UNL A   1      54.921  22.148  32.722  1.00  0.00    -0.237 OA
ATOM    105  O   UNL A   1      54.183  23.020  34.893  1.00  0.00    -0.744 OA
ENDBRANCH  99 102
ENDBRANCH  72  95
ENDBRANCH  46  47
ENDBRANCH  39  41
ENDBRANCH  38  39
ENDBRANCH  37  38
ENDBRANCH  36  37
ENDBRANCH  35  36
ENDBRANCH  34  35
ENDBRANCH  33  34
ENDBRANCH  32  33
ENDBRANCH   1  32
TORSDOF 27
ENDMDL
MODEL 2
REMARK VINA RESULT:     -10.1      4.886     10.014
REMARK SMILES Cc1ccccc1NC(=O)CSc1nc(C(=O)OCCOCCOCCOCCOC(=O)c2ccc(-c3c4nc(c(-c5cccc(S(=O)(=O)[O-])c5F)c5ccc([nH]5)c(-c5cccc(S(=O)(=O)[O-])c5F)c5nc(c(-c6cccc(S(=O)(=O)[O-])c6F)c6ccc3[nH]6)C=C5)C=C4)cc2)c2ccccc2n1
REMARK SMILES IDX 23 1 22 2 21 3 20 4 19 5 18 6 16 7 17 8 15 9 13 10 14 11
REMARK SMILES IDX 102 12 101 13 96 14 100 15 97 16 99 17 98 18 12 19 11 20
REMARK SMILES IDX 9 21 8 22 10 24 7 25 1 26 2 27 3 28 4 29 6 30 5 31 24 32
REMARK SMILES IDX 25 33 26 34 27 35 28 36 29 37 30 38 31 39 32 40 33 41 34 42
REMARK SMILES IDX 95 43 35 44 94 45 36 46 37 47 38 48 88 49 39 50 93 51 87 52
REMARK SMILES IDX 89 53 40 54 92 55 86 56 85 57 41 59 73 60 53 61 72 62 54 63
REMARK SMILES IDX 57 64 71 65 90 66 55 67 56 68 70 70 91 71 58 72 42 73 43 74
REMARK SMILES IDX 51 75 44 76 46 77 52 78 45 79 47 80 48 81 49 82 50 83 74 84
REMARK SMILES IDX 75 85 83 86 76 87 78 88 84 89 77 90 79 91 80 92 81 93 82 94
REMARK SMILES IDX 59 95 60 96 68 97 61 98 63 99 69 100 62 101 64 102 65 103
REMARK SMILES IDX 66 104 67 105
REMARK H PARENT 8 23 89 58 57 69
REMARK Flexibility Score: inf
ROOT
ATOM      1  C   UNL A   1      39.668  22.143  26.679  1.00  0.00     0.188 C 
ENDROOT
BRANCH   1   2
ATOM      2  C   UNL A   1      38.428  22.574  25.884  1.00  0.00     0.188 C 
BRANCH   2   3
ATOM      3  O   UNL A   1      37.712  21.588  25.159  1.00  0.00    -0.376 OA
BRANCH   3   4
ATOM      4  C   UNL A   1      36.969  22.045  24.026  1.00  0.00     0.202 C 
BRANCH   4   5
ATOM      5  C   UNL A   1      35.455  22.108  24.216  1.00  0.00     0.261 C 
BRANCH   5   6
ATOM      6  O   UNL A   1      35.090  23.425  24.683  1.00  0.00    -0.458 OA
BRANCH   6   7
ATOM      7  C   UNL A   1      34.506  23.425  25.900  1.00  0.00     0.357 C 
ATOM      8  O   UNL A   1      35.014  23.108  26.958  1.00  0.00    -0.244 OA
BRANCH   7   9
ATOM      9  C   UNL A   1      33.376  24.374  25.897  1.00  0.00     0.160 A 
ATOM     10  C   UNL A   1      32.966  26.244  24.745  1.00  0.00     0.189 A 
ATOM     11  N   UNL A   1      33.832  25.534  25.415  1.00  0.00    -0.215 NA
ATOM     12  N   UNL A   1      31.657  26.224  25.003  1.00  0.00    -0.222 NA
ATOM     13  C   UNL A   1      31.214  25.216  25.773  1.00  0.00     0.076 A 
ATOM     14  C   UNL A   1      32.027  24.133  26.116  1.00  0.00     0.034 A 
ATOM     15  C   UNL A   1      29.883  25.191  26.171  1.00  0.00     0.029 A 
ATOM     16  C   UNL A   1      31.435  22.958  26.623  1.00  0.00     0.013 A 
ATOM     17  C   UNL A   1      29.320  24.070  26.786  1.00  0.00     0.002 A 
ATOM     18  C   UNL A   1      30.086  22.925  26.955  1.00  0.00     0.001 A 
BRANCH  10  19
ATOM     19  S   UNL A   1      33.524  26.585  23.094  1.00  0.00    -0.076 SA
BRANCH  19  20
ATOM     20  C   UNL A   1      32.588  28.157  22.736  1.00  0.00     0.178 C 
BRANCH  20  21
ATOM     21  C   UNL A   1      32.413  29.144  23.897  1.00  0.00     0.234 C 
ATOM     22  N   UNL A   1      31.200  29.591  24.341  1.00  0.00    -0.325 N 
ATOM     23  H   UNL A   1      31.219  30.029  25.223  1.00  0.00     0.169 HD
ATOM     24  O   UNL A   1      33.402  29.616  24.470  1.00  0.00    -0.274 OA
BRANCH  22  25
ATOM     25  C   UNL A   1      29.935  29.526  23.744  1.00  0.00     0.044 A 
ATOM     26  C   UNL A   1      29.615  32.065  23.967  1.00  0.00     0.046 C 
ATOM     27  C   UNL A   1      29.137  30.677  23.647  1.00  0.00    -0.027 A 
ATOM     28  C   UNL A   1      27.803  30.527  23.224  1.00  0.00     0.005 A 
ATOM     29  C   UNL A   1      27.284  29.275  22.892  1.00  0.00     0.000 A 
ATOM     30  C   UNL A   1      29.443  28.303  23.269  1.00  0.00     0.026 A 
ATOM     31  C   UNL A   1      28.114  28.163  22.891  1.00  0.00     0.002 A 
ENDBRANCH  22  25
ENDBRANCH  20  21
ENDBRANCH  19  20
ENDBRANCH  10  19
ENDBRANCH   7   9
ENDBRANCH   6   7
ENDBRANCH   5   6
ENDBRANCH   4   5
ENDBRANCH   3   4
ENDBRANCH   2   3
ENDBRANCH   1   2
BRANCH   1  32
ATOM     32  O   UNL A   1      40.886  22.844  26.484  1.00  0.00    -0.377 OA
BRANCH  32  33
ATOM     33  C   UNL A   1      42.030  22.141  25.979  1.00  0.00     0.188 C 
BRANCH  33  34
ATOM     34  C   UNL A   1      42.073  20.616  26.110  1.00  0.00     0.188 C 
BRANCH  34  35
ATOM     35  O   UNL A   1      43.174  20.114  25.357  1.00  0.00    -0.376 OA
BRANCH  35  36
ATOM     36  C   UNL A   1      44.112  21.070  24.878  1.00  0.00     0.202 C 
BRANCH  36  37
ATOM     37  C   UNL A   1      45.564  20.800  25.285  1.00  0.00     0.261 C 
BRANCH  37  38
ATOM     38  O   UNL A   1      46.159  21.999  25.810  1.00  0.00    -0.460 OA
BRANCH  38  39
ATOM     39  C   UNL A   1      45.977  23.100  25.027  1.00  0.00     0.338 C 
ATOM     40  O   UNL A   1      46.566  23.298  23.980  1.00  0.00    -0.246 OA
BRANCH  39  41
ATOM     41  C   UNL A   1      45.130  24.094  25.748  1.00  0.00     0.060 A 
ATOM     42  C   UNL A   1      44.336  24.996  25.027  1.00  0.00     0.016 A 
ATOM     43  C   UNL A   1      45.359  24.315  27.101  1.00  0.00     0.016 A 
ATOM     44  C   UNL A   1      43.929  26.207  25.616  1.00  0.00     0.010 A 
ATOM     45  C   UNL A   1      45.047  25.552  27.633  1.00  0.00     0.010 A 
ATOM     46  C   UNL A   1      44.368  26.538  26.893  1.00  0.00    -0.014 A 
BRANCH  46  47
ATOM     47  C   UNL A   1      44.329  27.879  27.521  1.00  0.00     0.031 A 
ATOM     48  C   UNL A   1      42.990  28.585  27.616  1.00  0.00     0.074 A 
ATOM     49  C   UNL A   1      45.287  28.183  28.435  1.00  0.00     0.049 A 
ATOM     50  N   UNL A   1      42.688  29.540  28.435  1.00  0.00    -0.248 NA
ATOM     51  C   UNL A   1      41.854  28.234  26.764  1.00  0.00     0.031 C 
ATOM     52  C   UNL A   1      44.981  28.808  29.710  1.00  0.00     0.029 A 
ATOM     53  N   UNL A   1      46.679  28.001  28.512  1.00  0.00    -0.354 N 
ATOM     54  C   UNL A   1      41.316  29.700  28.452  1.00  0.00     0.074 A 
ATOM     55  C   UNL A   1      40.859  28.931  27.324  1.00  0.00     0.031 C 
ATOM     56  C   UNL A   1      46.082  29.022  30.420  1.00  0.00     0.029 A 
ATOM     57  C   UNL A   1      47.166  28.887  29.498  1.00  0.00     0.049 A 
ATOM     58  H   UNL A   1      47.216  27.373  27.978  1.00  0.00     0.167 HD
ATOM     59  C   UNL A   1      40.717  30.374  29.481  1.00  0.00     0.034 A 
ATOM     60  C   UNL A   1      48.085  29.890  29.388  1.00  0.00     0.034 A 
ATOM     61  C   UNL A   1      41.700  31.089  30.334  1.00  0.00     0.049 A 
ATOM     62  C   UNL A   1      47.514  31.258  29.774  1.00  0.00     0.074 A 
ATOM     63  C   UNL A   1      41.887  31.200  31.699  1.00  0.00     0.029 A 
ATOM     64  N   UNL A   1      42.762  31.804  29.764  1.00  0.00    -0.354 N 
ATOM     65  N   UNL A   1      46.225  31.474  29.907  1.00  0.00    -0.248 NA
ATOM     66  C   UNL A   1      48.275  32.467  30.080  1.00  0.00     0.031 C 
ATOM     67  C   UNL A   1      43.126  31.856  31.941  1.00  0.00     0.029 A 
ATOM     68  C   UNL A   1      43.642  32.266  30.726  1.00  0.00     0.049 A 
ATOM     69  H   UNL A   1      42.868  31.958  28.798  1.00  0.00     0.167 HD
ATOM     70  C   UNL A   1      45.963  32.762  30.270  1.00  0.00     0.074 A 
ATOM     71  C   UNL A   1      47.292  33.346  30.374  1.00  0.00     0.031 C 
ATOM     72  C   UNL A   1      44.685  33.238  30.416  1.00  0.00     0.034 A 
BRANCH  59  73
ATOM     73  C   UNL A   1      39.216  30.303  29.866  1.00  0.00     0.023 A 
ATOM     74  C   UNL A   1      38.713  29.055  30.316  1.00  0.00     0.012 A 
ATOM     75  C   UNL A   1      38.233  31.321  29.736  1.00  0.00     0.148 A 
ATOM     76  C   UNL A   1      37.353  28.808  30.560  1.00  0.00     0.002 A 
ATOM     77  C   UNL A   1      36.883  31.103  30.075  1.00  0.00     0.091 A 
ATOM     78  F   UNL A   1      38.558  32.503  29.208  1.00  0.00    -0.205 F 
ATOM     79  C   UNL A   1      36.436  29.837  30.455  1.00  0.00     0.022 A 
BRANCH  77  80
ATOM     80  S   UNL A   1      35.638  32.413  30.081  1.00  0.00     0.127 S 
ATOM     81  O   UNL A   1      35.334  32.552  31.505  1.00  0.00    -0.237 OA
ATOM     82  O   UNL A   1      36.369  33.543  29.507  1.00  0.00    -0.237 OA
ATOM     83  O   UNL A   1      34.533  31.932  29.261  1.00  0.00    -0.744 OA
ENDBRANCH  77  80
ENDBRANCH  59  73
BRANCH  60  84
ATOM     84  C   UNL A   1      49.345  29.476  28.711  1.00  0.00     0.023 A 
ATOM     85  C   UNL A   1      50.166  28.667  29.536  1.00  0.00     0.012 A 
ATOM     86  C   UNL A   1      49.263  29.174  27.343  1.00  0.00     0.148 A 
ATOM     87  C   UNL A   1      50.612  27.424  29.083  1.00  0.00     0.002 A 
ATOM     88  C   UNL A   1      49.663  27.909  26.911  1.00  0.00     0.091 A 
ATOM     89  F   UNL A   1      48.610  30.028  26.544  1.00  0.00    -0.205 F 
ATOM     90  C   UNL A   1      50.296  27.016  27.792  1.00  0.00     0.022 A 
BRANCH  88  91
ATOM     91  S   UNL A   1      49.028  27.237  25.364  1.00  0.00     0.127 S 
ATOM     92  O   UNL A   1      49.579  28.157  24.377  1.00  0.00    -0.237 OA
ATOM     93  O   UNL A   1      49.600  25.891  25.354  1.00  0.00    -0.237 OA
ATOM     94  O   UNL A   1      47.582  27.254  25.535  1.00  0.00    -0.744 OA
ENDBRANCH  88  91
ENDBRANCH  60  84
BRANCH  72  95
ATOM     95  C   UNL A   1      44.252  34.699  30.315  1.00  0.00     0.023 A 
ATOM     96  C   UNL A   1      44.156  35.517  31.453  1.00  0.00     0.012 A 
ATOM     97  C   UNL A   1      44.145  35.360  29.051  1.00  0.00     0.148 A 
ATOM     98  C   UNL A   1      43.947  36.896  31.359  1.00  0.00     0.002 A 
ATOM     99  C   UNL A   1      44.034  36.743  28.962  1.00  0.00     0.091 A 
ATOM    100  F   UNL A   1      44.143  34.657  27.914  1.00  0.00    -0.205 F 
ATOM    101  C   UNL A   1      43.914  37.513  30.117  1.00  0.00     0.022 A 
BRANCH  99 102
ATOM    102  S   UNL A   1      44.190  37.621  27.395  1.00  0.00     0.127 S 
ATOM    103  O   UNL A   1      45.370  36.983  26.814  1.00  0.00    -0.237 OA
ATOM    104  O   UNL A   1      42.928  37.283  26.734  1.00  0.00    -0.237 OA
ATOM    105  O   UNL A   1      44.331  39.030  27.732  1.00  0.00    -0.744 OA
ENDBRANCH  99 102
ENDBRANCH  72  95
ENDBRANCH  46  47
ENDBRANCH  39  41
ENDBRANCH  38  39
ENDBRANCH  37  38
ENDBRANCH  36  37
ENDBRANCH  35  36
ENDBRANCH  34  35
ENDBRANCH  33  34
ENDBRANCH  32  33
ENDBRANCH   1  32
TORSDOF 27
ENDMDL
MODEL 3
REMARK VINA RESULT:      -9.8      4.815     10.976
REMARK SMILES Cc1ccccc1NC(=O)CSc1nc(C(=O)OCCOCCOCCOCCOC(=O)c2ccc(-c3c4nc(c(-c5cccc(S(=O)(=O)[O-])c5F)c5ccc([nH]5)c(-c5cccc(S(=O)(=O)[O-])c5F)c5nc(c(-c6cccc(S(=O)(=O)[O-])c6F)c6ccc3[nH]6)C=C5)C=C4)cc2)c2ccccc2n1
REMARK SMILES IDX 23 1 22 2 21 3 20 4 19 5 18 6 16 7 17 8 15 9 13 10 14 11
REMARK SMILES IDX 102 12 101 13 96 14 100 15 97 16 99 17 98 18 12 19 11 20
REMARK SMILES IDX 9 21 8 22 10 24 7 25 1 26 2 27 3 28 4 29 6 30 5 31 24 32
REMARK SMILES IDX 25 33 26 34 27 35 28 36 29 37 30 38 31 39 32 40 33 41 34 42
REMARK SMILES IDX 95 43 35 44 94 45 36 46 37 47 38 48 88 49 39 50 93 51 87 52
REMARK SMILES IDX 89 53 40 54 92 55 86 56 85 57 41 59 73 60 53 61 72 62 54 63
REMARK SMILES IDX 57 64 71 65 90 66 55 67 56 68 70 70 91 71 58 72 42 73 43 74
REMARK SMILES IDX 51 75 44 76 46 77 52 78 45 79 47 80 48 81 49 82 50 83 74 84
REMARK SMILES IDX 75 85 83 86 76 87 78 88 84 89 77 90 79 91 80 92 81 93 82 94
REMARK SMILES IDX 59 95 60 96 68 97 61 98 63 99 69 100 62 101 64 102 65 103
REMARK SMILES IDX 66 104 67 105
REMARK H PARENT 8 23 89 58 57 69
REMARK Flexibility Score: inf
ROOT
ATOM      1  C   UNL A   1      39.047  21.702  26.292  1.00  0.00     0.188 C 
ENDROOT
BRANCH   1   2
ATOM      2  C   UNL A   1      38.701  23.154  26.647  1.00  0.00     0.188 C 
BRANCH   2   3
ATOM      3  O   UNL A   1      37.492  23.704  26.148  1.00  0.00    -0.376 OA
BRANCH   3   4
ATOM      4  C   UNL A   1      37.228  23.499  24.758  1.00  0.00     0.202 C 
BRANCH   4   5
ATOM      5  C   UNL A   1      35.916  24.088  24.245  1.00  0.00     0.261 C 
BRANCH   5   6
ATOM      6  O   UNL A   1      35.386  24.997  25.233  1.00  0.00    -0.458 OA
BRANCH   6   7
ATOM      7  C   UNL A   1      34.118  24.717  25.603  1.00  0.00     0.357 C 
ATOM      8  O   UNL A   1      33.752  24.221  26.651  1.00  0.00    -0.244 OA
BRANCH   7   9
ATOM      9  C   UNL A   1      33.190  25.580  24.849  1.00  0.00     0.160 A 
ATOM     10  C   UNL A   1      31.617  25.151  23.322  1.00  0.00     0.189 A 
ATOM     11  N   UNL A   1      32.825  24.910  23.752  1.00  0.00    -0.215 NA
ATOM     12  N   UNL A   1      31.012  26.329  23.481  1.00  0.00    -0.222 NA
ATOM     13  C   UNL A   1      31.564  27.170  24.372  1.00  0.00     0.076 A 
ATOM     14  C   UNL A   1      32.584  26.768  25.237  1.00  0.00     0.034 A 
ATOM     15  C   UNL A   1      31.051  28.454  24.513  1.00  0.00     0.029 A 
ATOM     16  C   UNL A   1      32.889  27.560  26.363  1.00  0.00     0.013 A 
ATOM     17  C   UNL A   1      31.440  29.291  25.561  1.00  0.00     0.002 A 
ATOM     18  C   UNL A   1      32.317  28.816  26.526  1.00  0.00     0.001 A 
BRANCH  10  19
ATOM     19  S   UNL A   1      30.637  23.673  23.233  1.00  0.00    -0.076 SA
BRANCH  19  20
ATOM     20  C   UNL A   1      31.880  22.405  23.801  1.00  0.00     0.178 C 
BRANCH  20  21
ATOM     21  C   UNL A   1      31.626  21.740  25.161  1.00  0.00     0.234 C 
ATOM     22  N   UNL A   1      32.513  20.902  25.776  1.00  0.00    -0.325 N 
ATOM     23  H   UNL A   1      32.329  20.735  26.729  1.00  0.00     0.169 HD
ATOM     24  O   UNL A   1      30.554  21.916  25.752  1.00  0.00    -0.274 OA
BRANCH  22  25
ATOM     25  C   UNL A   1      33.641  20.245  25.271  1.00  0.00     0.044 A 
ATOM     26  C   UNL A   1      32.210  18.298  24.398  1.00  0.00     0.046 C 
ATOM     27  C   UNL A   1      33.521  18.968  24.700  1.00  0.00    -0.027 A 
ATOM     28  C   UNL A   1      34.700  18.266  24.388  1.00  0.00     0.005 A 
ATOM     29  C   UNL A   1      35.959  18.822  24.622  1.00  0.00     0.000 A 
ATOM     30  C   UNL A   1      34.904  20.844  25.363  1.00  0.00     0.026 A 
ATOM     31  C   UNL A   1      36.061  20.124  25.087  1.00  0.00     0.002 A 
ENDBRANCH  22  25
ENDBRANCH  20  21
ENDBRANCH  19  20
ENDBRANCH  10  19
ENDBRANCH   7   9
ENDBRANCH   6   7
ENDBRANCH   5   6
ENDBRANCH   4   5
ENDBRANCH   3   4
ENDBRANCH   2   3
ENDBRANCH   1   2
BRANCH   1  32
ATOM     32  O   UNL A   1      40.155  21.085  26.928  1.00  0.00    -0.377 OA
BRANCH  32  33
ATOM     33  C   UNL A   1      41.170  20.462  26.128  1.00  0.00     0.188 C 
BRANCH  33  34
ATOM     34  C   UNL A   1      42.554  21.111  26.061  1.00  0.00     0.188 C 
BRANCH  34  35
ATOM     35  O   UNL A   1      42.508  22.217  25.163  1.00  0.00    -0.376 OA
BRANCH  35  36
ATOM     36  C   UNL A   1      43.032  23.451  25.638  1.00  0.00     0.202 C 
BRANCH  36  37
ATOM     37  C   UNL A   1      41.993  24.388  26.262  1.00  0.00     0.261 C 
BRANCH  37  38
ATOM     38  O   UNL A   1      41.610  25.399  25.314  1.00  0.00    -0.460 OA
BRANCH  38  39
ATOM     39  C   UNL A   1      41.877  26.673  25.719  1.00  0.00     0.338 C 
ATOM     40  O   UNL A   1      42.395  27.518  25.012  1.00  0.00    -0.246 OA
BRANCH  39  41
ATOM     41  C   UNL A   1      41.641  26.793  27.187  1.00  0.00     0.060 A 
ATOM     42  C   UNL A   1      40.356  27.070  27.673  1.00  0.00     0.016 A 
ATOM     43  C   UNL A   1      42.735  26.926  28.034  1.00  0.00     0.016 A 
ATOM     44  C   UNL A   1      40.191  27.652  28.942  1.00  0.00     0.010 A 
ATOM     45  C   UNL A   1      42.570  27.596  29.231  1.00  0.00     0.010 A 
ATOM     46  C   UNL A   1      41.306  28.012  29.690  1.00  0.00    -0.014 A 
BRANCH  46  47
ATOM     47  C   UNL A   1      41.331  28.922  30.858  1.00  0.00     0.031 A 
ATOM     48  C   UNL A   1      40.440  30.150  30.827  1.00  0.00     0.074 A 
ATOM     49  C   UNL A   1      41.673  28.402  32.066  1.00  0.00     0.049 A 
ATOM     50  N   UNL A   1      40.041  30.829  31.853  1.00  0.00    -0.248 NA
ATOM     51  C   UNL A   1      39.912  30.705  29.581  1.00  0.00     0.031 C 
ATOM     52  C   UNL A   1      40.922  28.681  33.278  1.00  0.00     0.029 A 
ATOM     53  N   UNL A   1      42.667  27.517  32.520  1.00  0.00    -0.354 N 
ATOM     54  C   UNL A   1      39.004  31.657  31.468  1.00  0.00     0.074 A 
ATOM     55  C   UNL A   1      39.034  31.610  30.030  1.00  0.00     0.031 C 
ATOM     56  C   UNL A   1      41.461  28.074  34.329  1.00  0.00     0.029 A 
ATOM     57  C   UNL A   1      42.773  27.685  33.918  1.00  0.00     0.049 A 
ATOM     58  H   UNL A   1      43.192  26.896  31.966  1.00  0.00     0.167 HD
ATOM     59  C   UNL A   1      38.174  32.199  32.410  1.00  0.00     0.034 A 
ATOM     60  C   UNL A   1      43.851  28.053  34.670  1.00  0.00     0.034 A 
ATOM     61  C   UNL A   1      38.690  32.013  33.790  1.00  0.00     0.049 A 
ATOM     62  C   UNL A   1      43.600  29.331  35.476  1.00  0.00     0.074 A 
ATOM     63  C   UNL A   1      38.124  31.599  34.981  1.00  0.00     0.029 A 
ATOM     64  N   UNL A   1      40.046  32.214  34.084  1.00  0.00    -0.354 N 
ATOM     65  N   UNL A   1      42.582  30.127  35.239  1.00  0.00    -0.248 NA
ATOM     66  C   UNL A   1      44.388  29.821  36.605  1.00  0.00     0.031 C 
ATOM     67  C   UNL A   1      39.157  31.417  35.942  1.00  0.00     0.029 A 
ATOM     68  C   UNL A   1      40.347  31.846  35.383  1.00  0.00     0.049 A 
ATOM     69  H   UNL A   1      40.702  32.572  33.445  1.00  0.00     0.167 HD
ATOM     70  C   UNL A   1      42.561  31.188  36.095  1.00  0.00     0.074 A 
ATOM     71  C   UNL A   1      43.719  30.944  36.942  1.00  0.00     0.031 C 
ATOM     72  C   UNL A   1      41.622  32.184  36.006  1.00  0.00     0.034 A 
BRANCH  59  73
ATOM     73  C   UNL A   1      36.766  32.797  32.149  1.00  0.00     0.023 A 
ATOM     74  C   UNL A   1      35.934  33.030  33.273  1.00  0.00     0.012 A 
ATOM     75  C   UNL A   1      36.151  33.063  30.895  1.00  0.00     0.148 A 
ATOM     76  C   UNL A   1      34.592  33.431  33.176  1.00  0.00     0.002 A 
ATOM     77  C   UNL A   1      34.837  33.560  30.800  1.00  0.00     0.091 A 
ATOM     78  F   UNL A   1      36.789  32.770  29.761  1.00  0.00    -0.205 F 
ATOM     79  C   UNL A   1      34.044  33.711  31.938  1.00  0.00     0.022 A 
BRANCH  77  80
ATOM     80  S   UNL A   1      34.078  34.065  29.239  1.00  0.00     0.127 S 
ATOM     81  O   UNL A   1      33.926  32.791  28.536  1.00  0.00    -0.237 OA
ATOM     82  O   UNL A   1      32.819  34.665  29.682  1.00  0.00    -0.237 OA
ATOM     83  O   UNL A   1      35.005  35.003  28.618  1.00  0.00    -0.744 OA
ENDBRANCH  77  80
ENDBRANCH  59  73
BRANCH  60  84
ATOM     84  C   UNL A   1      45.084  27.275  34.369  1.00  0.00     0.023 A 
ATOM     85  C   UNL A   1      44.886  25.876  34.478  1.00  0.00     0.012 A 
ATOM     86  C   UNL A   1      45.906  27.759  33.339  1.00  0.00     0.148 A 
ATOM     87  C   UNL A   1      45.217  25.032  33.414  1.00  0.00     0.002 A 
ATOM     88  C   UNL A   1      46.186  26.923  32.256  1.00  0.00     0.091 A 
ATOM     89  F   UNL A   1      46.212  29.062  33.332  1.00  0.00    -0.205 F 
ATOM     90  C   UNL A   1      45.802  25.572  32.274  1.00  0.00     0.022 A 
BRANCH  88  91
ATOM     91  S   UNL A   1      46.668  27.629  30.670  1.00  0.00     0.127 S 
ATOM     92  O   UNL A   1      46.576  26.480  29.779  1.00  0.00    -0.237 OA
ATOM     93  O   UNL A   1      45.650  28.660  30.468  1.00  0.00    -0.237 OA
ATOM     94  O   UNL A   1      48.000  28.166  30.908  1.00  0.00    -0.744 OA
ENDBRANCH  88  91
ENDBRANCH  60  84
BRANCH  72  95
ATOM     95  C   UNL A   1      41.773  33.612  36.528  1.00  0.00     0.023 A 
ATOM     96  C   UNL A   1      42.479  34.587  35.804  1.00  0.00     0.012 A 
ATOM     97  C   UNL A   1      41.020  34.079  37.650  1.00  0.00     0.148 A 
ATOM     98  C   UNL A   1      42.466  35.937  36.171  1.00  0.00     0.002 A 
ATOM     99  C   UNL A   1      40.933  35.433  37.953  1.00  0.00     0.091 A 
ATOM    100  F   UNL A   1      40.382  33.216  38.448  1.00  0.00    -0.205 F 
ATOM    101  C   UNL A   1      41.672  36.364  37.226  1.00  0.00     0.022 A 
BRANCH  99 102
ATOM    102  S   UNL A   1      39.769  36.072  39.172  1.00  0.00     0.127 S 
ATOM    103  O   UNL A   1      38.672  35.112  39.067  1.00  0.00    -0.237 OA
ATOM    104  O   UNL A   1      40.545  35.974  40.410  1.00  0.00    -0.237 OA
ATOM    105  O   UNL A   1      39.461  37.435  38.764  1.00  0.00    -0.744 OA
ENDBRANCH  99 102
ENDBRANCH  72  95
ENDBRANCH  46  47
ENDBRANCH  39  41
ENDBRANCH  38  39
ENDBRANCH  37  38
ENDBRANCH  36  37
ENDBRANCH  35  36
ENDBRANCH  34  35
ENDBRANCH  33  34
ENDBRANCH  32  33
ENDBRANCH   1  32
TORSDOF 27
ENDMDL
