MODEL 1
REMARK VINA RESULT:      -7.3      0.000      0.000
REMARK SMILES CC(C)C(=O)Nc1ccc2c([C@@H](C(=O)OCCOCCOCCOCCOC(=O)c3ccc(-c4c5nc(c(-c6cccc(S(=O)(=O)[O-])c6F)c6ccc([nH]6)c(-c6cccc(S(=O)(=O)[O-])c6F)c6nc(c(-c7cccc(S(=O)(=O)[O-])c7F)c7ccc4[nH]7)C=C6)C=C5)cc3)[NH+]3CC[NH+](Cc4ccccc4)CC3)c[nH]c2c1
REMARK SMILES IDX 21 1 20 2 19 3 18 4 17 5 16 6 15 7 13 8 14 9 12 10 11 11
REMARK SMILES IDX 7 12 8 13 109 14 9 15 108 16 10 17 107 18 106 19 6 21 4 22
REMARK SMILES IDX 5 23 2 25 1 26 3 27 93 28 94 29 105 30 95 32 104 33 96 34
REMARK SMILES IDX 97 36 98 37 99 38 103 39 100 40 102 41 101 42 22 43 23 44
REMARK SMILES IDX 24 45 25 46 26 47 27 48 28 49 29 50 30 51 31 52 92 53 32 54
REMARK SMILES IDX 91 55 33 56 34 57 35 58 85 59 36 60 90 61 84 62 86 63 37 64
REMARK SMILES IDX 89 65 83 66 82 67 38 69 70 70 50 71 69 72 51 73 54 74 68 75
REMARK SMILES IDX 87 76 52 77 53 78 67 80 88 81 55 82 39 83 40 84 48 85 41 86
REMARK SMILES IDX 43 87 49 88 42 89 44 90 45 91 46 92 47 93 71 94 72 95 80 96
REMARK SMILES IDX 73 97 75 98 81 99 74 100 76 101 77 102 78 103 79 104 56 105
REMARK SMILES IDX 57 106 65 107 58 108 60 109 66 110 59 111 61 112 62 113
REMARK SMILES IDX 63 114 64 115
REMARK H PARENT 107 20 6 24 93 31 96 35 86 68 54 79
REMARK Flexibility Score: inf
ROOT
ATOM      1  O   UNL A   1      38.183  31.056  36.382  1.00  0.00    -0.377 OA
ENDROOT
BRANCH   1   2
ATOM      2  C   UNL A   1      39.462  30.638  35.979  1.00  0.00     0.188 C 
BRANCH   2   3
ATOM      3  C   UNL A   1      39.574  30.198  34.523  1.00  0.00     0.188 C 
BRANCH   3   4
ATOM      4  O   UNL A   1      40.079  28.904  34.242  1.00  0.00    -0.376 OA
BRANCH   4   5
ATOM      5  C   UNL A   1      39.989  28.394  32.910  1.00  0.00     0.202 C 
BRANCH   5   6
ATOM      6  C   UNL A   1      38.725  27.626  32.459  1.00  0.00     0.261 C 
BRANCH   6   7
ATOM      7  O   UNL A   1      38.571  27.372  31.034  1.00  0.00    -0.459 OA
BRANCH   7   8
ATOM      8  C   UNL A   1      38.013  28.369  30.291  1.00  0.00     0.370 C 
ATOM      9  O   UNL A   1      36.836  28.712  30.440  1.00  0.00    -0.245 OA
BRANCH   8  10
ATOM     10  C   UNL A   1      38.930  29.060  29.231  1.00  0.00     0.328 C 
BRANCH  10  11
ATOM     11  C   UNL A   1      40.367  28.612  28.949  1.00  0.00     0.046 A 
ATOM     12  C   UNL A   1      41.741  25.413  26.618  1.00  0.00     0.043 A 
ATOM     13  C   UNL A   1      40.546  25.185  27.286  1.00  0.00     0.027 A 
ATOM     14  C   UNL A   1      42.564  26.479  26.981  1.00  0.00     0.052 A 
ATOM     15  C   UNL A   1      40.000  26.152  28.132  1.00  0.00     0.013 A 
ATOM     16  C   UNL A   1      42.008  27.429  27.845  1.00  0.00     0.048 A 
ATOM     17  C   UNL A   1      40.710  27.342  28.355  1.00  0.00     0.009 A 
ATOM     18  N   UNL A   1      42.537  28.592  28.326  1.00  0.00    -0.361 N 
ATOM     19  C   UNL A   1      41.580  29.280  29.026  1.00  0.00     0.094 A 
ATOM     20  H   UNL A   1      43.465  28.892  28.191  1.00  0.00     0.166 HD
BRANCH  12  21
ATOM     21  N   UNL A   1      42.144  24.597  25.560  1.00  0.00    -0.326 N 
ATOM     22  C   UNL A   1      42.845  23.423  25.605  1.00  0.00     0.226 C 
ATOM     23  O   UNL A   1      43.147  22.895  24.527  1.00  0.00    -0.274 OA
ATOM     24  H   UNL A   1      41.891  24.909  24.661  1.00  0.00     0.169 HD
BRANCH  22  25
ATOM     25  C   UNL A   1      43.139  22.665  26.913  1.00  0.00     0.072 C 
ATOM     26  C   UNL A   1      44.084  23.349  27.892  1.00  0.00     0.018 C 
ATOM     27  C   UNL A   1      41.878  22.136  27.597  1.00  0.00     0.018 C 
ENDBRANCH  22  25
ENDBRANCH  12  21
ENDBRANCH  10  11
BRANCH  10  28
ATOM     28  N   UNL A   1      38.801  30.544  29.333  1.00  0.00    -0.310 N 
ATOM     29  C   UNL A   1      37.786  31.264  28.581  1.00  0.00     0.325 C 
ATOM     30  C   UNL A   1      39.051  31.180  30.620  1.00  0.00     0.325 C 
ATOM     31  H   UNL A   1      39.639  30.660  28.763  1.00  0.00     0.349 HD
ATOM     32  C   UNL A   1      36.485  31.589  29.354  1.00  0.00     0.324 C 
ATOM     33  C   UNL A   1      37.791  31.629  31.408  1.00  0.00     0.324 C 
ATOM     34  N   UNL A   1      36.670  32.224  30.660  1.00  0.00    -0.322 N 
ATOM     35  H   UNL A   1      35.851  31.991  31.222  1.00  0.00     0.348 HD
BRANCH  34  36
ATOM     36  C   UNL A   1      36.571  33.687  30.653  1.00  0.00     0.299 C 
BRANCH  36  37
ATOM     37  C   UNL A   1      35.302  34.268  30.074  1.00  0.00     0.006 A 
ATOM     38  C   UNL A   1      34.257  34.663  30.915  1.00  0.00     0.009 A 
ATOM     39  C   UNL A   1      35.195  34.523  28.695  1.00  0.00     0.009 A 
ATOM     40  C   UNL A   1      33.178  35.384  30.404  1.00  0.00     0.001 A 
ATOM     41  C   UNL A   1      34.138  35.277  28.191  1.00  0.00     0.001 A 
ATOM     42  C   UNL A   1      33.137  35.720  29.051  1.00  0.00     0.000 A 
ENDBRANCH  36  37
ENDBRANCH  34  36
ENDBRANCH  10  28
ENDBRANCH   8  10
ENDBRANCH   7   8
ENDBRANCH   6   7
ENDBRANCH   5   6
ENDBRANCH   4   5
ENDBRANCH   3   4
ENDBRANCH   2   3
ENDBRANCH   1   2
BRANCH   1  43
ATOM     43  C   UNL A   1      37.600  32.165  35.735  1.00  0.00     0.188 C 
BRANCH  43  44
ATOM     44  C   UNL A   1      37.631  33.492  36.497  1.00  0.00     0.188 C 
BRANCH  44  45
ATOM     45  O   UNL A   1      37.780  33.320  37.899  1.00  0.00    -0.376 OA
BRANCH  45  46
ATOM     46  C   UNL A   1      39.046  33.466  38.517  1.00  0.00     0.202 C 
BRANCH  46  47
ATOM     47  C   UNL A   1      39.836  34.791  38.497  1.00  0.00     0.261 C 
BRANCH  47  48
ATOM     48  O   UNL A   1      39.940  35.520  37.269  1.00  0.00    -0.460 OA
BRANCH  48  49
ATOM     49  C   UNL A   1      41.168  35.828  36.808  1.00  0.00     0.338 C 
ATOM     50  O   UNL A   1      41.860  36.771  37.162  1.00  0.00    -0.246 OA
BRANCH  49  51
ATOM     51  C   UNL A   1      41.627  34.707  35.955  1.00  0.00     0.060 A 
ATOM     52  C   UNL A   1      42.910  34.184  36.163  1.00  0.00     0.016 A 
ATOM     53  C   UNL A   1      40.800  34.168  34.966  1.00  0.00     0.016 A 
ATOM     54  C   UNL A   1      43.386  33.150  35.357  1.00  0.00     0.010 A 
ATOM     55  C   UNL A   1      41.290  33.151  34.137  1.00  0.00     0.010 A 
ATOM     56  C   UNL A   1      42.601  32.669  34.304  1.00  0.00    -0.014 A 
BRANCH  56  57
ATOM     57  C   UNL A   1      43.237  31.844  33.248  1.00  0.00     0.031 A 
ATOM     58  C   UNL A   1      43.541  30.404  33.566  1.00  0.00     0.074 A 
ATOM     59  C   UNL A   1      43.512  32.342  32.030  1.00  0.00     0.049 A 
ATOM     60  N   UNL A   1      44.108  29.491  32.825  1.00  0.00    -0.248 NA
ATOM     61  C   UNL A   1      43.152  29.933  34.908  1.00  0.00     0.031 C 
ATOM     62  C   UNL A   1      43.244  33.710  31.593  1.00  0.00     0.029 A 
ATOM     63  N   UNL A   1      44.105  31.749  30.942  1.00  0.00    -0.354 N 
ATOM     64  C   UNL A   1      44.172  28.349  33.615  1.00  0.00     0.074 A 
ATOM     65  C   UNL A   1      43.597  28.687  34.898  1.00  0.00     0.031 C 
ATOM     66  C   UNL A   1      43.698  33.862  30.336  1.00  0.00     0.029 A 
ATOM     67  C   UNL A   1      44.313  32.612  29.892  1.00  0.00     0.049 A 
ATOM     68  H   UNL A   1      44.356  30.797  30.916  1.00  0.00     0.167 HD
ATOM     69  C   UNL A   1      44.658  27.126  33.300  1.00  0.00     0.034 A 
ATOM     70  C   UNL A   1      44.951  32.419  28.720  1.00  0.00     0.034 A 
ATOM     71  C   UNL A   1      45.222  26.791  32.021  1.00  0.00     0.049 A 
ATOM     72  C   UNL A   1      45.520  31.056  28.408  1.00  0.00     0.074 A 
ATOM     73  C   UNL A   1      45.709  25.570  31.590  1.00  0.00     0.029 A 
ATOM     74  N   UNL A   1      45.391  27.683  30.975  1.00  0.00    -0.354 N 
ATOM     75  N   UNL A   1      45.486  29.960  29.127  1.00  0.00    -0.248 NA
ATOM     76  C   UNL A   1      46.185  30.896  27.106  1.00  0.00     0.031 C 
ATOM     77  C   UNL A   1      46.212  25.735  30.297  1.00  0.00     0.029 A 
ATOM     78  C   UNL A   1      45.989  27.045  29.903  1.00  0.00     0.049 A 
ATOM     79  H   UNL A   1      45.126  28.631  30.991  1.00  0.00     0.167 HD
ATOM     80  C   UNL A   1      46.081  28.972  28.348  1.00  0.00     0.074 A 
ATOM     81  C   UNL A   1      46.453  29.597  27.095  1.00  0.00     0.031 C 
ATOM     82  C   UNL A   1      46.306  27.667  28.643  1.00  0.00     0.034 A 
BRANCH  69  83
ATOM     83  C   UNL A   1      44.598  26.056  34.359  1.00  0.00     0.023 A 
ATOM     84  C   UNL A   1      43.454  25.240  34.473  1.00  0.00     0.012 A 
ATOM     85  C   UNL A   1      45.696  25.832  35.212  1.00  0.00     0.148 A 
ATOM     86  C   UNL A   1      43.391  24.239  35.442  1.00  0.00     0.002 A 
ATOM     87  C   UNL A   1      45.646  24.801  36.141  1.00  0.00     0.091 A 
ATOM     88  F   UNL A   1      46.763  26.635  35.104  1.00  0.00    -0.205 F 
ATOM     89  C   UNL A   1      44.489  24.012  36.267  1.00  0.00     0.022 A 
BRANCH  87  90
ATOM     90  S   UNL A   1      47.036  24.377  37.194  1.00  0.00     0.127 S 
ATOM     91  O   UNL A   1      47.006  25.463  38.174  1.00  0.00    -0.237 OA
ATOM     92  O   UNL A   1      46.636  23.072  37.719  1.00  0.00    -0.237 OA
ATOM     93  O   UNL A   1      48.207  24.353  36.328  1.00  0.00    -0.744 OA
ENDBRANCH  87  90
ENDBRANCH  69  83
BRANCH  70  94
ATOM     94  C   UNL A   1      45.079  33.536  27.741  1.00  0.00     0.023 A 
ATOM     95  C   UNL A   1      44.106  33.700  26.735  1.00  0.00     0.012 A 
ATOM     96  C   UNL A   1      46.165  34.431  27.796  1.00  0.00     0.148 A 
ATOM     97  C   UNL A   1      44.233  34.710  25.780  1.00  0.00     0.002 A 
ATOM     98  C   UNL A   1      46.254  35.469  26.879  1.00  0.00     0.091 A 
ATOM     99  F   UNL A   1      47.088  34.248  28.751  1.00  0.00    -0.205 F 
ATOM    100  C   UNL A   1      45.301  35.600  25.857  1.00  0.00     0.022 A 
BRANCH  98 101
ATOM    101  S   UNL A   1      47.526  36.734  26.972  1.00  0.00     0.127 S 
ATOM    102  O   UNL A   1      48.748  35.933  26.955  1.00  0.00    -0.237 OA
ATOM    103  O   UNL A   1      47.275  37.501  25.751  1.00  0.00    -0.237 OA
ATOM    104  O   UNL A   1      47.268  37.463  28.206  1.00  0.00    -0.744 OA
ENDBRANCH  98 101
ENDBRANCH  70  94
BRANCH  82 105
ATOM    105  C   UNL A   1      46.927  26.801  27.576  1.00  0.00     0.023 A 
ATOM    106  C   UNL A   1      46.112  26.080  26.681  1.00  0.00     0.012 A 
ATOM    107  C   UNL A   1      48.328  26.762  27.420  1.00  0.00     0.148 A 
ATOM    108  C   UNL A   1      46.684  25.301  25.673  1.00  0.00     0.002 A 
ATOM    109  C   UNL A   1      48.887  26.030  26.380  1.00  0.00     0.091 A 
ATOM    110  F   UNL A   1      49.087  27.444  28.290  1.00  0.00    -0.205 F 
ATOM    111  C   UNL A   1      48.068  25.286  25.517  1.00  0.00     0.022 A 
BRANCH 109 112
ATOM    112  S   UNL A   1      50.650  26.035  26.038  1.00  0.00     0.127 S 
ATOM    113  O   UNL A   1      50.673  26.259  24.593  1.00  0.00    -0.237 OA
ATOM    114  O   UNL A   1      51.117  27.168  26.839  1.00  0.00    -0.237 OA
ATOM    115  O   UNL A   1      51.150  24.739  26.476  1.00  0.00    -0.744 OA
ENDBRANCH 109 112
ENDBRANCH  82 105
ENDBRANCH  56  57
ENDBRANCH  49  51
ENDBRANCH  48  49
ENDBRANCH  47  48
ENDBRANCH  46  47
ENDBRANCH  45  46
ENDBRANCH  44  45
ENDBRANCH  43  44
ENDBRANCH   1  43
TORSDOF 29
ENDMDL
MODEL 2
REMARK VINA RESULT:      -6.4      3.712      9.315
REMARK SMILES CC(C)C(=O)Nc1ccc2c([C@@H](C(=O)OCCOCCOCCOCCOC(=O)c3ccc(-c4c5nc(c(-c6cccc(S(=O)(=O)[O-])c6F)c6ccc([nH]6)c(-c6cccc(S(=O)(=O)[O-])c6F)c6nc(c(-c7cccc(S(=O)(=O)[O-])c7F)c7ccc4[nH]7)C=C6)C=C5)cc3)[NH+]3CC[NH+](Cc4ccccc4)CC3)c[nH]c2c1
REMARK SMILES IDX 21 1 20 2 19 3 18 4 17 5 16 6 15 7 13 8 14 9 12 10 11 11
REMARK SMILES IDX 7 12 8 13 109 14 9 15 108 16 10 17 107 18 106 19 6 21 4 22
REMARK SMILES IDX 5 23 2 25 1 26 3 27 93 28 94 29 105 30 95 32 104 33 96 34
REMARK SMILES IDX 97 36 98 37 99 38 103 39 100 40 102 41 101 42 22 43 23 44
REMARK SMILES IDX 24 45 25 46 26 47 27 48 28 49 29 50 30 51 31 52 92 53 32 54
REMARK SMILES IDX 91 55 33 56 34 57 35 58 85 59 36 60 90 61 84 62 86 63 37 64
REMARK SMILES IDX 89 65 83 66 82 67 38 69 70 70 50 71 69 72 51 73 54 74 68 75
REMARK SMILES IDX 87 76 52 77 53 78 67 80 88 81 55 82 39 83 40 84 48 85 41 86
REMARK SMILES IDX 43 87 49 88 42 89 44 90 45 91 46 92 47 93 71 94 72 95 80 96
REMARK SMILES IDX 73 97 75 98 81 99 74 100 76 101 77 102 78 103 79 104 56 105
REMARK SMILES IDX 57 106 65 107 58 108 60 109 66 110 59 111 61 112 62 113
REMARK SMILES IDX 63 114 64 115
REMARK H PARENT 107 20 6 24 93 31 96 35 86 68 54 79
REMARK Flexibility Score: inf
ROOT
ATOM      1  O   UNL A   1      45.501  32.318  39.337  1.00  0.00    -0.377 OA
ENDROOT
BRANCH   1   2
ATOM      2  C   UNL A   1      44.240  32.240  39.952  1.00  0.00     0.188 C 
BRANCH   2   3
ATOM      3  C   UNL A   1      43.419  33.525  39.915  1.00  0.00     0.188 C 
BRANCH   3   4
ATOM      4  O   UNL A   1      43.841  34.576  39.062  1.00  0.00    -0.376 OA
BRANCH   4   5
ATOM      5  C   UNL A   1      43.136  34.810  37.842  1.00  0.00     0.202 C 
BRANCH   5   6
ATOM      6  C   UNL A   1      42.751  33.621  36.930  1.00  0.00     0.261 C 
BRANCH   6   7
ATOM      7  O   UNL A   1      41.338  33.435  36.636  1.00  0.00    -0.459 OA
BRANCH   7   8
ATOM      8  C   UNL A   1      40.859  34.049  35.518  1.00  0.00     0.370 C 
ATOM      9  O   UNL A   1      40.731  35.276  35.453  1.00  0.00    -0.245 OA
BRANCH   8  10
ATOM     10  C   UNL A   1      40.471  33.129  34.316  1.00  0.00     0.328 C 
BRANCH  10  11
ATOM     11  C   UNL A   1      39.366  32.071  34.395  1.00  0.00     0.046 A 
ATOM     12  C   UNL A   1      36.549  30.954  31.502  1.00  0.00     0.043 A 
ATOM     13  C   UNL A   1      36.894  32.298  31.501  1.00  0.00     0.027 A 
ATOM     14  C   UNL A   1      36.857  30.144  32.595  1.00  0.00     0.052 A 
ATOM     15  C   UNL A   1      37.789  32.811  32.442  1.00  0.00     0.013 A 
ATOM     16  C   UNL A   1      37.740  30.681  33.539  1.00  0.00     0.048 A 
ATOM     17  C   UNL A   1      38.290  31.961  33.440  1.00  0.00     0.009 A 
ATOM     18  N   UNL A   1      38.266  30.119  34.667  1.00  0.00    -0.361 N 
ATOM     19  C   UNL A   1      39.200  30.961  35.210  1.00  0.00     0.094 A 
ATOM     20  H   UNL A   1      38.012  29.242  35.035  1.00  0.00     0.166 HD
BRANCH  12  21
ATOM     21  N   UNL A   1      35.902  30.373  30.410  1.00  0.00    -0.326 N 
ATOM     22  C   UNL A   1      36.451  29.730  29.334  1.00  0.00     0.226 C 
ATOM     23  O   UNL A   1      35.681  29.342  28.446  1.00  0.00    -0.274 OA
ATOM     24  H   UNL A   1      34.920  30.435  30.415  1.00  0.00     0.169 HD
BRANCH  22  25
ATOM     25  C   UNL A   1      37.939  29.341  29.251  1.00  0.00     0.072 C 
ATOM     26  C   UNL A   1      38.939  30.488  29.299  1.00  0.00     0.018 C 
ATOM     27  C   UNL A   1      38.315  28.203  30.199  1.00  0.00     0.018 C 
ENDBRANCH  22  25
ENDBRANCH  12  21
ENDBRANCH  10  11
BRANCH  10  28
ATOM     28  N   UNL A   1      41.702  32.624  33.640  1.00  0.00    -0.310 N 
ATOM     29  C   UNL A   1      41.622  31.695  32.526  1.00  0.00     0.325 C 
ATOM     30  C   UNL A   1      42.836  33.527  33.489  1.00  0.00     0.325 C 
ATOM     31  H   UNL A   1      41.896  32.017  34.436  1.00  0.00     0.349 HD
ATOM     32  C   UNL A   1      41.700  32.329  31.116  1.00  0.00     0.324 C 
ATOM     33  C   UNL A   1      43.040  34.125  32.070  1.00  0.00     0.324 C 
ATOM     34  N   UNL A   1      42.815  33.254  30.903  1.00  0.00    -0.322 N 
ATOM     35  H   UNL A   1      42.529  33.901  30.168  1.00  0.00     0.348 HD
BRANCH  34  36
ATOM     36  C   UNL A   1      43.999  32.657  30.275  1.00  0.00     0.299 C 
BRANCH  36  37
ATOM     37  C   UNL A   1      44.014  32.634  28.765  1.00  0.00     0.006 A 
ATOM     38  C   UNL A   1      43.939  33.826  28.038  1.00  0.00     0.009 A 
ATOM     39  C   UNL A   1      44.214  31.428  28.069  1.00  0.00     0.009 A 
ATOM     40  C   UNL A   1      44.159  33.824  26.661  1.00  0.00     0.001 A 
ATOM     41  C   UNL A   1      44.473  31.431  26.700  1.00  0.00     0.001 A 
ATOM     42  C   UNL A   1      44.459  32.634  26.000  1.00  0.00     0.000 A 
ENDBRANCH  36  37
ENDBRANCH  34  36
ENDBRANCH  10  28
ENDBRANCH   8  10
ENDBRANCH   7   8
ENDBRANCH   6   7
ENDBRANCH   5   6
ENDBRANCH   4   5
ENDBRANCH   3   4
ENDBRANCH   2   3
ENDBRANCH   1   2
BRANCH   1  43
ATOM     43  C   UNL A   1      46.652  32.163  40.135  1.00  0.00     0.188 C 
BRANCH  43  44
ATOM     44  C   UNL A   1      48.000  32.279  39.419  1.00  0.00     0.188 C 
BRANCH  44  45
ATOM     45  O   UNL A   1      48.516  33.603  39.427  1.00  0.00    -0.376 OA
BRANCH  45  46
ATOM     46  C   UNL A   1      49.852  33.858  39.821  1.00  0.00     0.202 C 
BRANCH  46  47
ATOM     47  C   UNL A   1      50.890  34.505  38.881  1.00  0.00     0.261 C 
BRANCH  47  48
ATOM     48  O   UNL A   1      50.676  34.451  37.466  1.00  0.00    -0.460 OA
BRANCH  48  49
ATOM     49  C   UNL A   1      51.518  33.711  36.719  1.00  0.00     0.338 C 
ATOM     50  O   UNL A   1      52.738  33.723  36.773  1.00  0.00    -0.246 OA
BRANCH  49  51
ATOM     51  C   UNL A   1      50.709  32.723  35.968  1.00  0.00     0.060 A 
ATOM     52  C   UNL A   1      51.353  31.612  35.406  1.00  0.00     0.016 A 
ATOM     53  C   UNL A   1      49.327  32.879  35.826  1.00  0.00     0.016 A 
ATOM     54  C   UNL A   1      50.628  30.679  34.666  1.00  0.00     0.010 A 
ATOM     55  C   UNL A   1      48.605  31.958  35.056  1.00  0.00     0.010 A 
ATOM     56  C   UNL A   1      49.262  30.879  34.439  1.00  0.00    -0.014 A 
BRANCH  56  57
ATOM     57  C   UNL A   1      48.586  30.099  33.374  1.00  0.00     0.031 A 
ATOM     58  C   UNL A   1      48.794  30.528  31.946  1.00  0.00     0.074 A 
ATOM     59  C   UNL A   1      47.831  29.023  33.656  1.00  0.00     0.049 A 
ATOM     60  N   UNL A   1      48.300  30.025  30.846  1.00  0.00    -0.248 NA
ATOM     61  C   UNL A   1      49.682  31.684  31.731  1.00  0.00     0.031 C 
ATOM     62  C   UNL A   1      47.574  28.494  34.993  1.00  0.00     0.029 A 
ATOM     63  N   UNL A   1      47.122  28.193  32.821  1.00  0.00    -0.354 N 
ATOM     64  C   UNL A   1      48.789  30.818  29.815  1.00  0.00     0.074 A 
ATOM     65  C   UNL A   1      49.610  31.843  30.419  1.00  0.00     0.031 C 
ATOM     66  C   UNL A   1      46.738  27.445  34.892  1.00  0.00     0.029 A 
ATOM     67  C   UNL A   1      46.381  27.247  33.489  1.00  0.00     0.049 A 
ATOM     68  H   UNL A   1      47.143  28.269  31.840  1.00  0.00     0.167 HD
ATOM     69  C   UNL A   1      48.582  30.700  28.483  1.00  0.00     0.034 A 
ATOM     70  C   UNL A   1      45.496  26.344  33.019  1.00  0.00     0.034 A 
ATOM     71  C   UNL A   1      47.772  29.675  27.884  1.00  0.00     0.049 A 
ATOM     72  C   UNL A   1      45.252  26.258  31.532  1.00  0.00     0.074 A 
ATOM     73  C   UNL A   1      47.528  29.448  26.541  1.00  0.00     0.029 A 
ATOM     74  N   UNL A   1      47.060  28.720  28.590  1.00  0.00    -0.354 N 
ATOM     75  N   UNL A   1      45.798  26.951  30.562  1.00  0.00    -0.248 NA
ATOM     76  C   UNL A   1      44.295  25.240  31.074  1.00  0.00     0.031 C 
ATOM     77  C   UNL A   1      46.633  28.379  26.438  1.00  0.00     0.029 A 
ATOM     78  C   UNL A   1      46.362  27.908  27.712  1.00  0.00     0.049 A 
ATOM     79  H   UNL A   1      47.050  28.631  29.570  1.00  0.00     0.167 HD
ATOM     80  C   UNL A   1      45.286  26.423  29.380  1.00  0.00     0.074 A 
ATOM     81  C   UNL A   1      44.399  25.342  29.756  1.00  0.00     0.031 C 
ATOM     82  C   UNL A   1      45.524  26.802  28.098  1.00  0.00     0.034 A 
BRANCH  69  83
ATOM     83  C   UNL A   1      49.247  31.706  27.580  1.00  0.00     0.023 A 
ATOM     84  C   UNL A   1      50.547  31.466  27.093  1.00  0.00     0.012 A 
ATOM     85  C   UNL A   1      48.562  32.871  27.180  1.00  0.00     0.148 A 
ATOM     86  C   UNL A   1      51.170  32.385  26.247  1.00  0.00     0.002 A 
ATOM     87  C   UNL A   1      49.168  33.756  26.298  1.00  0.00     0.091 A 
ATOM     88  F   UNL A   1      47.336  33.093  27.675  1.00  0.00    -0.205 F 
ATOM     89  C   UNL A   1      50.476  33.523  25.841  1.00  0.00     0.022 A 
BRANCH  87  90
ATOM     90  S   UNL A   1      48.330  35.207  25.655  1.00  0.00     0.127 S 
ATOM     91  O   UNL A   1      47.163  34.610  25.004  1.00  0.00    -0.237 OA
ATOM     92  O   UNL A   1      48.031  35.954  26.876  1.00  0.00    -0.237 OA
ATOM     93  O   UNL A   1      49.276  35.857  24.759  1.00  0.00    -0.744 OA
ENDBRANCH  87  90
ENDBRANCH  69  83
BRANCH  70  94
ATOM     94  C   UNL A   1      44.781  25.434  33.958  1.00  0.00     0.023 A 
ATOM     95  C   UNL A   1      45.261  24.125  34.168  1.00  0.00     0.012 A 
ATOM     96  C   UNL A   1      43.623  25.855  34.639  1.00  0.00     0.148 A 
ATOM     97  C   UNL A   1      44.579  23.242  35.006  1.00  0.00     0.002 A 
ATOM     98  C   UNL A   1      42.981  24.991  35.517  1.00  0.00     0.091 A 
ATOM     99  F   UNL A   1      43.173  27.098  34.414  1.00  0.00    -0.205 F 
ATOM    100  C   UNL A   1      43.445  23.678  35.688  1.00  0.00     0.022 A 
BRANCH  98 101
ATOM    101  S   UNL A   1      41.587  25.500  36.528  1.00  0.00     0.127 S 
ATOM    102  O   UNL A   1      41.282  24.273  37.258  1.00  0.00    -0.237 OA
ATOM    103  O   UNL A   1      42.178  26.568  37.336  1.00  0.00    -0.237 OA
ATOM    104  O   UNL A   1      40.565  25.948  35.593  1.00  0.00    -0.744 OA
ENDBRANCH  98 101
ENDBRANCH  70  94
BRANCH  82 105
ATOM    105  C   UNL A   1      44.869  26.008  26.997  1.00  0.00     0.023 A 
ATOM    106  C   UNL A   1      43.575  26.342  26.551  1.00  0.00     0.012 A 
ATOM    107  C   UNL A   1      45.574  24.969  26.354  1.00  0.00     0.148 A 
ATOM    108  C   UNL A   1      42.977  25.628  25.511  1.00  0.00     0.002 A 
ATOM    109  C   UNL A   1      44.995  24.301  25.283  1.00  0.00     0.091 A 
ATOM    110  F   UNL A   1      46.798  24.656  26.803  1.00  0.00    -0.205 F 
ATOM    111  C   UNL A   1      43.691  24.617  24.871  1.00  0.00     0.022 A 
BRANCH 109 112
ATOM    112  S   UNL A   1      45.877  23.057  24.334  1.00  0.00     0.127 S 
ATOM    113  O   UNL A   1      46.080  22.009  25.332  1.00  0.00    -0.237 OA
ATOM    114  O   UNL A   1      44.910  22.725  23.287  1.00  0.00    -0.237 OA
ATOM    115  O   UNL A   1      47.090  23.704  23.853  1.00  0.00    -0.744 OA
ENDBRANCH 109 112
ENDBRANCH  82 105
ENDBRANCH  56  57
ENDBRANCH  49  51
ENDBRANCH  48  49
ENDBRANCH  47  48
ENDBRANCH  46  47
ENDBRANCH  45  46
ENDBRANCH  44  45
ENDBRANCH  43  44
ENDBRANCH   1  43
TORSDOF 29
ENDMDL
MODEL 3
REMARK VINA RESULT:      -6.0      6.387     14.562
REMARK SMILES CC(C)C(=O)Nc1ccc2c([C@@H](C(=O)OCCOCCOCCOCCOC(=O)c3ccc(-c4c5nc(c(-c6cccc(S(=O)(=O)[O-])c6F)c6ccc([nH]6)c(-c6cccc(S(=O)(=O)[O-])c6F)c6nc(c(-c7cccc(S(=O)(=O)[O-])c7F)c7ccc4[nH]7)C=C6)C=C5)cc3)[NH+]3CC[NH+](Cc4ccccc4)CC3)c[nH]c2c1
REMARK SMILES IDX 21 1 20 2 19 3 18 4 17 5 16 6 15 7 13 8 14 9 12 10 11 11
REMARK SMILES IDX 7 12 8 13 109 14 9 15 108 16 10 17 107 18 106 19 6 21 4 22
REMARK SMILES IDX 5 23 2 25 1 26 3 27 93 28 94 29 105 30 95 32 104 33 96 34
REMARK SMILES IDX 97 36 98 37 99 38 103 39 100 40 102 41 101 42 22 43 23 44
REMARK SMILES IDX 24 45 25 46 26 47 27 48 28 49 29 50 30 51 31 52 92 53 32 54
REMARK SMILES IDX 91 55 33 56 34 57 35 58 85 59 36 60 90 61 84 62 86 63 37 64
REMARK SMILES IDX 89 65 83 66 82 67 38 69 70 70 50 71 69 72 51 73 54 74 68 75
REMARK SMILES IDX 87 76 52 77 53 78 67 80 88 81 55 82 39 83 40 84 48 85 41 86
REMARK SMILES IDX 43 87 49 88 42 89 44 90 45 91 46 92 47 93 71 94 72 95 80 96
REMARK SMILES IDX 73 97 75 98 81 99 74 100 76 101 77 102 78 103 79 104 56 105
REMARK SMILES IDX 57 106 65 107 58 108 60 109 66 110 59 111 61 112 62 113
REMARK SMILES IDX 63 114 64 115
REMARK H PARENT 107 20 6 24 93 31 96 35 86 68 54 79
REMARK Flexibility Score: inf
ROOT
ATOM      1  O   UNL A   1      45.290  28.397  27.416  1.00  0.00    -0.377 OA
ENDROOT
BRANCH   1   2
ATOM      2  C   UNL A   1      45.306  27.051  27.820  1.00  0.00     0.188 C 
BRANCH   2   3
ATOM      3  C   UNL A   1      46.286  26.721  28.941  1.00  0.00     0.188 C 
BRANCH   3   4
ATOM      4  O   UNL A   1      45.806  26.686  30.274  1.00  0.00    -0.376 OA
BRANCH   4   5
ATOM      5  C   UNL A   1      45.747  25.435  30.962  1.00  0.00     0.202 C 
BRANCH   5   6
ATOM      6  C   UNL A   1      44.616  24.429  30.645  1.00  0.00     0.261 C 
BRANCH   6   7
ATOM      7  O   UNL A   1      43.497  24.911  29.847  1.00  0.00    -0.459 OA
BRANCH   7   8
ATOM      8  C   UNL A   1      42.836  23.985  29.098  1.00  0.00     0.370 C 
ATOM      9  O   UNL A   1      42.513  22.885  29.558  1.00  0.00    -0.245 OA
BRANCH   8  10
ATOM     10  C   UNL A   1      42.508  24.374  27.621  1.00  0.00     0.328 C 
BRANCH  10  11
ATOM     11  C   UNL A   1      41.124  24.847  27.168  1.00  0.00     0.046 A 
ATOM     12  C   UNL A   1      37.724  22.589  26.220  1.00  0.00     0.043 A 
ATOM     13  C   UNL A   1      38.936  22.000  25.884  1.00  0.00     0.027 A 
ATOM     14  C   UNL A   1      37.656  23.949  26.520  1.00  0.00     0.052 A 
ATOM     15  C   UNL A   1      40.143  22.665  26.105  1.00  0.00     0.013 A 
ATOM     16  C   UNL A   1      38.876  24.605  26.718  1.00  0.00     0.048 A 
ATOM     17  C   UNL A   1      40.118  23.973  26.613  1.00  0.00     0.009 A 
ATOM     18  N   UNL A   1      39.129  25.899  27.074  1.00  0.00    -0.361 N 
ATOM     19  C   UNL A   1      40.470  26.064  27.296  1.00  0.00     0.094 A 
ATOM     20  H   UNL A   1      38.449  26.607  27.158  1.00  0.00     0.166 HD
BRANCH  12  21
ATOM     21  N   UNL A   1      36.549  21.838  26.282  1.00  0.00    -0.326 N 
ATOM     22  C   UNL A   1      35.425  21.945  25.508  1.00  0.00     0.226 C 
ATOM     23  O   UNL A   1      34.470  21.207  25.783  1.00  0.00    -0.274 OA
ATOM     24  H   UNL A   1      36.525  21.141  26.976  1.00  0.00     0.169 HD
BRANCH  22  25
ATOM     25  C   UNL A   1      35.352  22.817  24.241  1.00  0.00     0.072 C 
ATOM     26  C   UNL A   1      34.962  24.275  24.447  1.00  0.00     0.018 C 
ATOM     27  C   UNL A   1      36.575  22.665  23.336  1.00  0.00     0.018 C 
ENDBRANCH  22  25
ENDBRANCH  12  21
ENDBRANCH  10  11
BRANCH  10  28
ATOM     28  N   UNL A   1      43.109  23.378  26.684  1.00  0.00    -0.310 N 
ATOM     29  C   UNL A   1      43.235  23.662  25.264  1.00  0.00     0.325 C 
ATOM     30  C   UNL A   1      44.215  22.556  27.156  1.00  0.00     0.325 C 
ATOM     31  H   UNL A   1      42.261  22.813  26.734  1.00  0.00     0.349 HD
ATOM     32  C   UNL A   1      44.616  24.192  24.807  1.00  0.00     0.324 C 
ATOM     33  C   UNL A   1      45.626  22.967  26.653  1.00  0.00     0.324 C 
ATOM     34  N   UNL A   1      45.770  23.413  25.256  1.00  0.00    -0.322 N 
ATOM     35  H   UNL A   1      46.567  24.050  25.285  1.00  0.00     0.348 HD
BRANCH  34  36
ATOM     36  C   UNL A   1      46.262  22.428  24.287  1.00  0.00     0.299 C 
BRANCH  36  37
ATOM     37  C   UNL A   1      45.865  20.991  24.534  1.00  0.00     0.006 A 
ATOM     38  C   UNL A   1      46.789  20.080  25.055  1.00  0.00     0.009 A 
ATOM     39  C   UNL A   1      44.533  20.575  24.350  1.00  0.00     0.009 A 
ATOM     40  C   UNL A   1      46.371  18.818  25.475  1.00  0.00     0.001 A 
ATOM     41  C   UNL A   1      44.109  19.329  24.806  1.00  0.00     0.001 A 
ATOM     42  C   UNL A   1      45.027  18.457  25.382  1.00  0.00     0.000 A 
ENDBRANCH  36  37
ENDBRANCH  34  36
ENDBRANCH  10  28
ENDBRANCH   8  10
ENDBRANCH   7   8
ENDBRANCH   6   7
ENDBRANCH   5   6
ENDBRANCH   4   5
ENDBRANCH   3   4
ENDBRANCH   2   3
ENDBRANCH   1   2
BRANCH   1  43
ATOM     43  C   UNL A   1      44.298  29.248  27.943  1.00  0.00     0.188 C 
BRANCH  43  44
ATOM     44  C   UNL A   1      43.151  28.573  28.699  1.00  0.00     0.188 C 
BRANCH  44  45
ATOM     45  O   UNL A   1      41.871  28.961  28.219  1.00  0.00    -0.376 OA
BRANCH  45  46
ATOM     46  C   UNL A   1      41.060  29.857  28.960  1.00  0.00     0.202 C 
BRANCH  46  47
ATOM     47  C   UNL A   1      41.588  30.651  30.171  1.00  0.00     0.261 C 
BRANCH  47  48
ATOM     48  O   UNL A   1      41.248  32.037  30.297  1.00  0.00    -0.460 OA
BRANCH  48  49
ATOM     49  C   UNL A   1      42.238  32.948  30.229  1.00  0.00     0.338 C 
ATOM     50  O   UNL A   1      42.832  33.301  29.221  1.00  0.00    -0.246 OA
BRANCH  49  51
ATOM     51  C   UNL A   1      42.339  33.608  31.552  1.00  0.00     0.060 A 
ATOM     52  C   UNL A   1      41.221  34.288  32.053  1.00  0.00     0.016 A 
ATOM     53  C   UNL A   1      43.518  33.550  32.299  1.00  0.00     0.016 A 
ATOM     54  C   UNL A   1      41.290  34.947  33.280  1.00  0.00     0.010 A 
ATOM     55  C   UNL A   1      43.597  34.238  33.516  1.00  0.00     0.010 A 
ATOM     56  C   UNL A   1      42.496  34.974  33.989  1.00  0.00    -0.014 A 
BRANCH  56  57
ATOM     57  C   UNL A   1      42.666  35.957  35.087  1.00  0.00     0.031 A 
ATOM     58  C   UNL A   1      43.237  37.307  34.743  1.00  0.00     0.074 A 
ATOM     59  C   UNL A   1      42.299  35.678  36.349  1.00  0.00     0.049 A 
ATOM     60  N   UNL A   1      43.498  38.322  35.522  1.00  0.00    -0.248 NA
ATOM     61  C   UNL A   1      43.558  37.540  33.323  1.00  0.00     0.031 C 
ATOM     62  C   UNL A   1      41.712  34.419  36.803  1.00  0.00     0.029 A 
ATOM     63  N   UNL A   1      42.389  36.439  37.489  1.00  0.00    -0.354 N 
ATOM     64  C   UNL A   1      44.040  39.301  34.697  1.00  0.00     0.074 A 
ATOM     65  C   UNL A   1      44.082  38.755  33.359  1.00  0.00     0.031 C 
ATOM     66  C   UNL A   1      41.522  34.482  38.133  1.00  0.00     0.029 A 
ATOM     67  C   UNL A   1      41.999  35.774  38.627  1.00  0.00     0.049 A 
ATOM     68  H   UNL A   1      42.702  37.373  37.490  1.00  0.00     0.167 HD
ATOM     69  C   UNL A   1      44.458  40.547  35.021  1.00  0.00     0.034 A 
ATOM     70  C   UNL A   1      42.048  36.156  39.919  1.00  0.00     0.034 A 
ATOM     71  C   UNL A   1      44.408  41.090  36.350  1.00  0.00     0.049 A 
ATOM     72  C   UNL A   1      42.556  37.536  40.259  1.00  0.00     0.074 A 
ATOM     73  C   UNL A   1      44.775  42.354  36.777  1.00  0.00     0.029 A 
ATOM     74  N   UNL A   1      43.983  40.395  37.471  1.00  0.00    -0.354 N 
ATOM     75  N   UNL A   1      42.974  38.486  39.457  1.00  0.00    -0.248 NA
ATOM     76  C   UNL A   1      42.566  37.908  41.682  1.00  0.00     0.031 C 
ATOM     77  C   UNL A   1      44.610  42.409  38.164  1.00  0.00     0.029 A 
ATOM     78  C   UNL A   1      44.090  41.198  38.593  1.00  0.00     0.049 A 
ATOM     79  H   UNL A   1      43.653  39.468  37.471  1.00  0.00     0.167 HD
ATOM     80  C   UNL A   1      43.251  39.579  40.272  1.00  0.00     0.074 A 
ATOM     81  C   UNL A   1      42.939  39.179  41.628  1.00  0.00     0.031 C 
ATOM     82  C   UNL A   1      43.727  40.804  39.930  1.00  0.00     0.034 A 
BRANCH  69  83
ATOM     83  C   UNL A   1      45.006  41.410  33.915  1.00  0.00     0.023 A 
ATOM     84  C   UNL A   1      46.319  41.205  33.444  1.00  0.00     0.012 A 
ATOM     85  C   UNL A   1      44.202  42.397  33.313  1.00  0.00     0.148 A 
ATOM     86  C   UNL A   1      46.834  41.990  32.413  1.00  0.00     0.002 A 
ATOM     87  C   UNL A   1      44.704  43.141  32.253  1.00  0.00     0.091 A 
ATOM     88  F   UNL A   1      42.965  42.593  33.792  1.00  0.00    -0.205 F 
ATOM     89  C   UNL A   1      46.024  42.949  31.811  1.00  0.00     0.022 A 
BRANCH  87  90
ATOM     90  S   UNL A   1      43.715  44.344  31.360  1.00  0.00     0.127 S 
ATOM     91  O   UNL A   1      42.513  43.567  31.052  1.00  0.00    -0.237 OA
ATOM     92  O   UNL A   1      43.523  45.389  32.364  1.00  0.00    -0.237 OA
ATOM     93  O   UNL A   1      44.508  44.744  30.207  1.00  0.00    -0.744 OA
ENDBRANCH  87  90
ENDBRANCH  69  83
BRANCH  70  94
ATOM     94  C   UNL A   1      41.592  35.230  40.994  1.00  0.00     0.023 A 
ATOM     95  C   UNL A   1      42.536  34.463  41.707  1.00  0.00     0.012 A 
ATOM     96  C   UNL A   1      40.225  35.097  41.308  1.00  0.00     0.148 A 
ATOM     97  C   UNL A   1      42.124  33.556  42.684  1.00  0.00     0.002 A 
ATOM     98  C   UNL A   1      39.827  34.236  42.322  1.00  0.00     0.091 A 
ATOM     99  F   UNL A   1      39.342  35.822  40.608  1.00  0.00    -0.205 F 
ATOM    100  C   UNL A   1      40.772  33.449  42.998  1.00  0.00     0.022 A 
BRANCH  98 101
ATOM    101  S   UNL A   1      38.123  34.119  42.877  1.00  0.00     0.127 S 
ATOM    102  O   UNL A   1      37.478  33.477  41.735  1.00  0.00    -0.237 OA
ATOM    103  O   UNL A   1      38.254  33.277  44.066  1.00  0.00    -0.237 OA
ATOM    104  O   UNL A   1      37.703  35.486  43.151  1.00  0.00    -0.744 OA
ENDBRANCH  98 101
ENDBRANCH  70  94
BRANCH  82 105
ATOM    105  C   UNL A   1      43.882  41.829  41.024  1.00  0.00     0.023 A 
ATOM    106  C   UNL A   1      45.101  41.946  41.722  1.00  0.00     0.012 A 
ATOM    107  C   UNL A   1      42.834  42.728  41.310  1.00  0.00     0.148 A 
ATOM    108  C   UNL A   1      45.259  42.914  42.715  1.00  0.00     0.002 A 
ATOM    109  C   UNL A   1      43.019  43.724  42.260  1.00  0.00     0.091 A 
ATOM    110  F   UNL A   1      41.678  42.591  40.646  1.00  0.00    -0.205 F 
ATOM    111  C   UNL A   1      44.223  43.808  42.975  1.00  0.00     0.022 A 
BRANCH 109 112
ATOM    112  S   UNL A   1      41.780  44.983  42.587  1.00  0.00     0.127 S 
ATOM    113  O   UNL A   1      41.547  45.526  41.249  1.00  0.00    -0.237 OA
ATOM    114  O   UNL A   1      40.672  44.194  43.127  1.00  0.00    -0.237 OA
ATOM    115  O   UNL A   1      42.384  45.906  43.538  1.00  0.00    -0.744 OA
ENDBRANCH 109 112
ENDBRANCH  82 105
ENDBRANCH  56  57
ENDBRANCH  49  51
ENDBRANCH  48  49
ENDBRANCH  47  48
ENDBRANCH  46  47
ENDBRANCH  45  46
ENDBRANCH  44  45
ENDBRANCH  43  44
ENDBRANCH   1  43
TORSDOF 29
ENDMDL
