MODEL 1
REMARK VINA RESULT:      -6.9      0.000      0.000
REMARK SMILES Cc1cc(C(=O)N[C@@H]2C(=O)N3C(C(=O)OCCOCCOCCOCCOC(=O)c4ccc(-c5c6nc(c(-c7cccc(S(=O)(=O)[O-])c7F)c7ccc([nH]7)c(-c7cccc(S(=O)(=O)[O-])c7F)c7nc(c(-c8cccc(S(=O)(=O)[O-])c8F)c8ccc5[nH]8)C=C7)C=C6)cc4)=C(CSc4nnc(C)s4)CS[C@H]23)n(C)n1
REMARK SMILES IDX 21 1 20 2 19 3 18 4 17 5 16 6 15 7 13 8 14 9 12 10 8 11 9 12
REMARK SMILES IDX 104 13 10 14 11 15 103 16 102 17 93 18 7 19 5 20 6 21 4 23
REMARK SMILES IDX 1 24 2 25 3 26 107 27 105 28 106 29 94 30 95 31 96 32 97 33
REMARK SMILES IDX 101 34 98 35 99 36 100 37 22 38 23 39 24 40 25 41 26 42
REMARK SMILES IDX 27 43 28 44 29 45 30 46 31 47 92 48 32 49 91 50 33 51 34 52
REMARK SMILES IDX 35 53 85 54 36 55 90 56 84 57 86 58 37 59 89 60 83 61 82 62
REMARK SMILES IDX 38 64 70 65 50 66 69 67 51 68 54 69 68 70 87 71 52 72 53 73
REMARK SMILES IDX 67 75 88 76 55 77 39 78 40 79 48 80 41 81 43 82 49 83 42 84
REMARK SMILES IDX 44 85 45 86 46 87 47 88 71 89 72 90 80 91 73 92 75 93 81 94
REMARK SMILES IDX 74 95 76 96 77 97 78 98 79 99 56 100 57 101 65 102 58 103
REMARK SMILES IDX 60 104 66 105 59 106 61 107 62 108 63 109 64 110
REMARK H PARENT 7 22 86 63 54 74
REMARK Flexibility Score: inf
ROOT
ATOM      1  O   UNL A   1      46.819  43.155  30.955  1.00  0.00    -0.377 OA
ENDROOT
BRANCH   1   2
ATOM      2  C   UNL A   1      47.796  42.126  30.894  1.00  0.00     0.188 C 
BRANCH   2   3
ATOM      3  C   UNL A   1      47.426  40.629  30.715  1.00  0.00     0.188 C 
BRANCH   3   4
ATOM      4  O   UNL A   1      47.223  40.220  29.375  1.00  0.00    -0.376 OA
BRANCH   4   5
ATOM      5  C   UNL A   1      48.170  39.432  28.690  1.00  0.00     0.202 C 
BRANCH   5   6
ATOM      6  C   UNL A   1      48.490  39.676  27.208  1.00  0.00     0.261 C 
BRANCH   6   7
ATOM      7  O   UNL A   1      47.645  40.598  26.517  1.00  0.00    -0.459 OA
BRANCH   7   8
ATOM      8  C   UNL A   1      46.952  40.121  25.466  1.00  0.00     0.355 C 
ATOM      9  O   UNL A   1      47.290  39.186  24.751  1.00  0.00    -0.244 OA
BRANCH   8  10
ATOM     10  C   UNL A   1      45.638  40.831  25.284  1.00  0.00     0.132 C 
ATOM     11  C   UNL A   1      45.452  43.383  23.024  1.00  0.00     0.206 C 
ATOM     12  C   UNL A   1      45.994  41.930  23.015  1.00  0.00     0.253 C 
ATOM     13  C   UNL A   1      44.815  42.966  24.385  1.00  0.00     0.181 C 
ATOM     14  O   UNL A   1      46.500  41.214  22.196  1.00  0.00    -0.272 OA
ATOM     15  N   UNL A   1      45.640  41.797  24.321  1.00  0.00    -0.289 N 
ATOM     16  S   UNL A   1      43.099  42.407  24.389  1.00  0.00    -0.129 SA
ATOM     17  C   UNL A   1      43.308  41.564  25.980  1.00  0.00     0.106 C 
ATOM     18  C   UNL A   1      44.530  40.647  26.055  1.00  0.00    -0.019 C 
BRANCH  11  19
ATOM     19  N   UNL A   1      44.558  43.885  21.952  1.00  0.00    -0.336 N 
ATOM     20  C   UNL A   1      44.941  44.374  20.712  1.00  0.00     0.270 C 
ATOM     21  O   UNL A   1      44.059  44.737  19.937  1.00  0.00    -0.268 OA
ATOM     22  H   UNL A   1      43.592  43.871  22.141  1.00  0.00     0.164 HD
BRANCH  20  23
ATOM     23  C   UNL A   1      46.358  44.496  20.429  1.00  0.00     0.126 A 
ATOM     24  C   UNL A   1      49.709  43.098  20.276  1.00  0.00     0.069 C 
ATOM     25  C   UNL A   1      48.502  43.962  20.273  1.00  0.00     0.060 A 
ATOM     26  C   UNL A   1      47.233  43.671  19.734  1.00  0.00     0.059 A 
ATOM     27  N   UNL A   1      48.488  45.131  20.913  1.00  0.00    -0.178 NA
ATOM     28  N   UNL A   1      47.185  45.498  20.886  1.00  0.00    -0.263 N 
ATOM     29  C   UNL A   1      46.854  46.829  21.333  1.00  0.00     0.174 C 
ENDBRANCH  20  23
ENDBRANCH  11  19
BRANCH  18  30
ATOM     30  C   UNL A   1      44.373  39.614  27.152  1.00  0.00     0.111 C 
BRANCH  30  31
ATOM     31  S   UNL A   1      43.116  38.334  26.936  1.00  0.00    -0.089 SA
BRANCH  31  32
ATOM     32  C   UNL A   1      43.807  36.769  27.273  1.00  0.00     0.174 A 
ATOM     33  N   UNL A   1      44.790  36.541  28.113  1.00  0.00    -0.132 NA
ATOM     34  S   UNL A   1      43.162  35.331  26.581  1.00  0.00    -0.091 S 
ATOM     35  N   UNL A   1      45.014  35.195  28.330  1.00  0.00    -0.143 NA
ATOM     36  C   UNL A   1      44.173  34.445  27.650  1.00  0.00     0.115 A 
ATOM     37  C   UNL A   1      44.061  32.969  27.771  1.00  0.00     0.081 C 
ENDBRANCH  31  32
ENDBRANCH  30  31
ENDBRANCH  18  30
ENDBRANCH   8  10
ENDBRANCH   7   8
ENDBRANCH   6   7
ENDBRANCH   5   6
ENDBRANCH   4   5
ENDBRANCH   3   4
ENDBRANCH   2   3
ENDBRANCH   1   2
BRANCH   1  38
ATOM     38  C   UNL A   1      45.587  42.854  31.580  1.00  0.00     0.188 C 
BRANCH  38  39
ATOM     39  C   UNL A   1      44.446  43.728  31.034  1.00  0.00     0.188 C 
BRANCH  39  40
ATOM     40  O   UNL A   1      43.217  43.068  30.788  1.00  0.00    -0.376 OA
BRANCH  40  41
ATOM     41  C   UNL A   1      42.278  42.837  31.829  1.00  0.00     0.202 C 
BRANCH  41  42
ATOM     42  C   UNL A   1      42.525  42.108  33.171  1.00  0.00     0.261 C 
BRANCH  42  43
ATOM     43  O   UNL A   1      42.727  40.693  33.189  1.00  0.00    -0.460 OA
BRANCH  43  44
ATOM     44  C   UNL A   1      43.728  40.205  33.946  1.00  0.00     0.338 C 
ATOM     45  O   UNL A   1      44.221  40.715  34.933  1.00  0.00    -0.246 OA
BRANCH  44  46
ATOM     46  C   UNL A   1      44.000  38.832  33.461  1.00  0.00     0.060 A 
ATOM     47  C   UNL A   1      44.303  38.630  32.107  1.00  0.00     0.016 A 
ATOM     48  C   UNL A   1      43.985  37.753  34.347  1.00  0.00     0.016 A 
ATOM     49  C   UNL A   1      44.569  37.349  31.630  1.00  0.00     0.010 A 
ATOM     50  C   UNL A   1      44.230  36.464  33.864  1.00  0.00     0.010 A 
ATOM     51  C   UNL A   1      44.483  36.254  32.497  1.00  0.00    -0.014 A 
BRANCH  51  52
ATOM     52  C   UNL A   1      44.431  34.885  31.931  1.00  0.00     0.031 A 
ATOM     53  C   UNL A   1      43.093  34.352  31.497  1.00  0.00     0.074 A 
ATOM     54  C   UNL A   1      45.538  34.137  31.786  1.00  0.00     0.049 A 
ATOM     55  N   UNL A   1      42.785  33.178  31.014  1.00  0.00    -0.248 NA
ATOM     56  C   UNL A   1      41.946  35.267  31.633  1.00  0.00     0.031 C 
ATOM     57  C   UNL A   1      46.893  34.551  32.146  1.00  0.00     0.029 A 
ATOM     58  N   UNL A   1      45.688  32.857  31.315  1.00  0.00    -0.354 N 
ATOM     59  C   UNL A   1      41.408  33.200  30.823  1.00  0.00     0.074 A 
ATOM     60  C   UNL A   1      40.939  34.496  31.256  1.00  0.00     0.031 C 
ATOM     61  C   UNL A   1      47.736  33.531  31.908  1.00  0.00     0.029 A 
ATOM     62  C   UNL A   1      46.976  32.384  31.412  1.00  0.00     0.049 A 
ATOM     63  H   UNL A   1      44.946  32.327  30.945  1.00  0.00     0.167 HD
ATOM     64  C   UNL A   1      40.606  32.232  30.322  1.00  0.00     0.034 A 
ATOM     65  C   UNL A   1      47.474  31.157  31.157  1.00  0.00     0.034 A 
ATOM     66  C   UNL A   1      41.077  30.947  29.883  1.00  0.00     0.049 A 
ATOM     67  C   UNL A   1      46.553  30.079  30.643  1.00  0.00     0.074 A 
ATOM     68  C   UNL A   1      40.351  29.913  29.321  1.00  0.00     0.029 A 
ATOM     69  N   UNL A   1      42.390  30.511  29.977  1.00  0.00    -0.354 N 
ATOM     70  N   UNL A   1      45.271  30.143  30.374  1.00  0.00    -0.248 NA
ATOM     71  C   UNL A   1      47.154  28.764  30.370  1.00  0.00     0.031 C 
ATOM     72  C   UNL A   1      41.216  28.833  29.120  1.00  0.00     0.029 A 
ATOM     73  C   UNL A   1      42.491  29.214  29.503  1.00  0.00     0.049 A 
ATOM     74  H   UNL A   1      43.138  31.045  30.329  1.00  0.00     0.167 HD
ATOM     75  C   UNL A   1      44.922  28.897  29.862  1.00  0.00     0.074 A 
ATOM     76  C   UNL A   1      46.133  28.102  29.843  1.00  0.00     0.031 C 
ATOM     77  C   UNL A   1      43.711  28.448  29.449  1.00  0.00     0.034 A 
BRANCH  64  78
ATOM     78  C   UNL A   1      39.132  32.527  30.230  1.00  0.00     0.023 A 
ATOM     79  C   UNL A   1      38.611  33.177  29.092  1.00  0.00     0.012 A 
ATOM     80  C   UNL A   1      38.258  32.126  31.258  1.00  0.00     0.148 A 
ATOM     81  C   UNL A   1      37.248  33.460  28.999  1.00  0.00     0.002 A 
ATOM     82  C   UNL A   1      36.894  32.365  31.134  1.00  0.00     0.091 A 
ATOM     83  F   UNL A   1      38.775  31.531  32.342  1.00  0.00    -0.205 F 
ATOM     84  C   UNL A   1      36.390  33.044  30.014  1.00  0.00     0.022 A 
BRANCH  82  85
ATOM     85  S   UNL A   1      35.699  31.794  32.347  1.00  0.00     0.127 S 
ATOM     86  O   UNL A   1      34.442  32.257  31.761  1.00  0.00    -0.237 OA
ATOM     87  O   UNL A   1      35.893  30.345  32.307  1.00  0.00    -0.237 OA
ATOM     88  O   UNL A   1      36.069  32.425  33.606  1.00  0.00    -0.744 OA
ENDBRANCH  82  85
ENDBRANCH  64  78
BRANCH  65  89
ATOM     89  C   UNL A   1      48.924  30.880  31.370  1.00  0.00     0.023 A 
ATOM     90  C   UNL A   1      49.374  30.441  32.629  1.00  0.00     0.012 A 
ATOM     91  C   UNL A   1      49.856  31.048  30.327  1.00  0.00     0.148 A 
ATOM     92  C   UNL A   1      50.731  30.207  32.857  1.00  0.00     0.002 A 
ATOM     93  C   UNL A   1      51.198  30.756  30.544  1.00  0.00     0.091 A 
ATOM     94  F   UNL A   1      49.410  31.481  29.139  1.00  0.00    -0.205 F 
ATOM     95  C   UNL A   1      51.640  30.355  31.814  1.00  0.00     0.022 A 
BRANCH  93  96
ATOM     96  S   UNL A   1      52.419  30.793  29.228  1.00  0.00     0.127 S 
ATOM     97  O   UNL A   1      51.856  29.844  28.269  1.00  0.00    -0.237 OA
ATOM     98  O   UNL A   1      52.366  32.194  28.812  1.00  0.00    -0.237 OA
ATOM     99  O   UNL A   1      53.678  30.394  29.841  1.00  0.00    -0.744 OA
ENDBRANCH  93  96
ENDBRANCH  65  89
BRANCH  77 100
ATOM    100  C   UNL A   1      43.628  27.051  28.888  1.00  0.00     0.023 A 
ATOM    101  C   UNL A   1      43.392  25.955  29.741  1.00  0.00     0.012 A 
ATOM    102  C   UNL A   1      43.708  26.838  27.496  1.00  0.00     0.148 A 
ATOM    103  C   UNL A   1      43.275  24.665  29.220  1.00  0.00     0.002 A 
ATOM    104  C   UNL A   1      43.535  25.560  26.981  1.00  0.00     0.091 A 
ATOM    105  F   UNL A   1      43.947  27.892  26.702  1.00  0.00    -0.205 F 
ATOM    106  C   UNL A   1      43.333  24.470  27.842  1.00  0.00     0.022 A 
BRANCH 104 107
ATOM    107  S   UNL A   1      43.494  25.226  25.216  1.00  0.00     0.127 S 
ATOM    108  O   UNL A   1      42.485  26.178  24.757  1.00  0.00    -0.237 OA
ATOM    109  O   UNL A   1      44.864  25.545  24.811  1.00  0.00    -0.237 OA
ATOM    110  O   UNL A   1      43.133  23.822  25.079  1.00  0.00    -0.744 OA
ENDBRANCH 104 107
ENDBRANCH  77 100
ENDBRANCH  51  52
ENDBRANCH  44  46
ENDBRANCH  43  44
ENDBRANCH  42  43
ENDBRANCH  41  42
ENDBRANCH  40  41
ENDBRANCH  39  40
ENDBRANCH  38  39
ENDBRANCH   1  38
TORSDOF 28
ENDMDL
MODEL 2
REMARK VINA RESULT:      -6.7      4.777     10.253
REMARK SMILES Cc1cc(C(=O)N[C@@H]2C(=O)N3C(C(=O)OCCOCCOCCOCCOC(=O)c4ccc(-c5c6nc(c(-c7cccc(S(=O)(=O)[O-])c7F)c7ccc([nH]7)c(-c7cccc(S(=O)(=O)[O-])c7F)c7nc(c(-c8cccc(S(=O)(=O)[O-])c8F)c8ccc5[nH]8)C=C7)C=C6)cc4)=C(CSc4nnc(C)s4)CS[C@H]23)n(C)n1
REMARK SMILES IDX 21 1 20 2 19 3 18 4 17 5 16 6 15 7 13 8 14 9 12 10 8 11 9 12
REMARK SMILES IDX 104 13 10 14 11 15 103 16 102 17 93 18 7 19 5 20 6 21 4 23
REMARK SMILES IDX 1 24 2 25 3 26 107 27 105 28 106 29 94 30 95 31 96 32 97 33
REMARK SMILES IDX 101 34 98 35 99 36 100 37 22 38 23 39 24 40 25 41 26 42
REMARK SMILES IDX 27 43 28 44 29 45 30 46 31 47 92 48 32 49 91 50 33 51 34 52
REMARK SMILES IDX 35 53 85 54 36 55 90 56 84 57 86 58 37 59 89 60 83 61 82 62
REMARK SMILES IDX 38 64 70 65 50 66 69 67 51 68 54 69 68 70 87 71 52 72 53 73
REMARK SMILES IDX 67 75 88 76 55 77 39 78 40 79 48 80 41 81 43 82 49 83 42 84
REMARK SMILES IDX 44 85 45 86 46 87 47 88 71 89 72 90 80 91 73 92 75 93 81 94
REMARK SMILES IDX 74 95 76 96 77 97 78 98 79 99 56 100 57 101 65 102 58 103
REMARK SMILES IDX 60 104 66 105 59 106 61 107 62 108 63 109 64 110
REMARK H PARENT 7 22 86 63 54 74
REMARK Flexibility Score: inf
ROOT
ATOM      1  O   UNL A   1      46.217  26.603  24.554  1.00  0.00    -0.377 OA
ENDROOT
BRANCH   1   2
ATOM      2  C   UNL A   1      46.734  27.918  24.697  1.00  0.00     0.188 C 
BRANCH   2   3
ATOM      3  C   UNL A   1      46.093  28.972  25.640  1.00  0.00     0.188 C 
BRANCH   3   4
ATOM      4  O   UNL A   1      46.665  30.265  25.568  1.00  0.00    -0.376 OA
BRANCH   4   5
ATOM      5  C   UNL A   1      46.283  31.294  26.453  1.00  0.00     0.202 C 
BRANCH   5   6
ATOM      6  C   UNL A   1      44.887  31.932  26.381  1.00  0.00     0.261 C 
BRANCH   6   7
ATOM      7  O   UNL A   1      44.646  33.036  27.254  1.00  0.00    -0.459 OA
BRANCH   7   8
ATOM      8  C   UNL A   1      45.181  34.221  26.903  1.00  0.00     0.355 C 
ATOM      9  O   UNL A   1      45.779  34.454  25.861  1.00  0.00    -0.244 OA
BRANCH   8  10
ATOM     10  C   UNL A   1      44.906  35.291  27.924  1.00  0.00     0.132 C 
ATOM     11  C   UNL A   1      43.110  38.036  26.979  1.00  0.00     0.206 C 
ATOM     12  C   UNL A   1      42.946  36.501  26.839  1.00  0.00     0.253 C 
ATOM     13  C   UNL A   1      44.258  37.662  27.967  1.00  0.00     0.181 C 
ATOM     14  O   UNL A   1      42.113  35.771  26.376  1.00  0.00    -0.272 OA
ATOM     15  N   UNL A   1      44.135  36.322  27.475  1.00  0.00    -0.289 N 
ATOM     16  S   UNL A   1      43.883  37.617  29.732  1.00  0.00    -0.129 SA
ATOM     17  C   UNL A   1      45.320  36.570  30.079  1.00  0.00     0.106 C 
ATOM     18  C   UNL A   1      45.441  35.341  29.177  1.00  0.00    -0.019 C 
BRANCH  11  19
ATOM     19  N   UNL A   1      42.006  38.894  27.473  1.00  0.00    -0.336 N 
ATOM     20  C   UNL A   1      41.892  40.268  27.327  1.00  0.00     0.270 C 
ATOM     21  O   UNL A   1      40.895  40.818  27.790  1.00  0.00    -0.268 OA
ATOM     22  H   UNL A   1      41.277  38.440  27.956  1.00  0.00     0.164 HD
BRANCH  20  23
ATOM     23  C   UNL A   1      42.986  40.986  26.702  1.00  0.00     0.126 A 
ATOM     24  C   UNL A   1      45.736  43.358  26.845  1.00  0.00     0.069 C 
ATOM     25  C   UNL A   1      44.676  42.397  26.451  1.00  0.00     0.060 A 
ATOM     26  C   UNL A   1      44.293  41.213  27.114  1.00  0.00     0.059 A 
ATOM     27  N   UNL A   1      43.870  42.642  25.417  1.00  0.00    -0.178 NA
ATOM     28  N   UNL A   1      42.915  41.689  25.520  1.00  0.00    -0.263 N 
ATOM     29  C   UNL A   1      41.983  41.554  24.426  1.00  0.00     0.174 C 
ENDBRANCH  20  23
ENDBRANCH  11  19
BRANCH  18  30
ATOM     30  C   UNL A   1      46.306  34.275  29.816  1.00  0.00     0.111 C 
BRANCH  30  31
ATOM     31  S   UNL A   1      47.568  34.803  30.996  1.00  0.00    -0.089 SA
BRANCH  31  32
ATOM     32  C   UNL A   1      47.724  33.614  32.262  1.00  0.00     0.174 A 
ATOM     33  N   UNL A   1      48.851  33.055  32.639  1.00  0.00    -0.132 NA
ATOM     34  S   UNL A   1      46.378  33.136  33.221  1.00  0.00    -0.091 S 
ATOM     35  N   UNL A   1      48.718  32.293  33.784  1.00  0.00    -0.143 NA
ATOM     36  C   UNL A   1      47.485  32.315  34.245  1.00  0.00     0.115 A 
ATOM     37  C   UNL A   1      47.048  31.713  35.530  1.00  0.00     0.081 C 
ENDBRANCH  31  32
ENDBRANCH  30  31
ENDBRANCH  18  30
ENDBRANCH   8  10
ENDBRANCH   7   8
ENDBRANCH   6   7
ENDBRANCH   5   6
ENDBRANCH   4   5
ENDBRANCH   3   4
ENDBRANCH   2   3
ENDBRANCH   1   2
BRANCH   1  38
ATOM     38  C   UNL A   1      46.710  25.605  25.426  1.00  0.00     0.188 C 
BRANCH  38  39
ATOM     39  C   UNL A   1      46.611  24.205  24.798  1.00  0.00     0.188 C 
BRANCH  39  40
ATOM     40  O   UNL A   1      45.355  23.855  24.245  1.00  0.00    -0.376 OA
BRANCH  40  41
ATOM     41  C   UNL A   1      44.456  22.996  24.931  1.00  0.00     0.202 C 
BRANCH  41  42
ATOM     42  C   UNL A   1      42.921  23.148  25.053  1.00  0.00     0.261 C 
BRANCH  42  43
ATOM     43  O   UNL A   1      42.368  24.090  25.974  1.00  0.00    -0.460 OA
BRANCH  43  44
ATOM     44  C   UNL A   1      42.637  25.396  25.785  1.00  0.00     0.338 C 
ATOM     45  O   UNL A   1      42.664  25.997  24.728  1.00  0.00    -0.246 OA
BRANCH  44  46
ATOM     46  C   UNL A   1      42.715  26.016  27.128  1.00  0.00     0.060 A 
ATOM     47  C   UNL A   1      41.793  25.634  28.114  1.00  0.00     0.016 A 
ATOM     48  C   UNL A   1      43.712  26.948  27.421  1.00  0.00     0.016 A 
ATOM     49  C   UNL A   1      41.852  26.200  29.386  1.00  0.00     0.010 A 
ATOM     50  C   UNL A   1      43.757  27.531  28.690  1.00  0.00     0.010 A 
ATOM     51  C   UNL A   1      42.802  27.187  29.664  1.00  0.00    -0.014 A 
BRANCH  51  52
ATOM     52  C   UNL A   1      42.650  28.016  30.883  1.00  0.00     0.031 A 
ATOM     53  C   UNL A   1      41.680  29.166  30.839  1.00  0.00     0.074 A 
ATOM     54  C   UNL A   1      43.336  27.751  32.008  1.00  0.00     0.049 A 
ATOM     55  N   UNL A   1      41.403  30.053  31.755  1.00  0.00    -0.248 NA
ATOM     56  C   UNL A   1      40.925  29.339  29.585  1.00  0.00     0.031 C 
ATOM     57  C   UNL A   1      44.285  26.653  32.183  1.00  0.00     0.029 A 
ATOM     58  N   UNL A   1      43.351  28.408  33.213  1.00  0.00    -0.354 N 
ATOM     59  C   UNL A   1      40.472  30.910  31.180  1.00  0.00     0.074 A 
ATOM     60  C   UNL A   1      40.243  30.446  29.831  1.00  0.00     0.031 C 
ATOM     61  C   UNL A   1      44.812  26.728  33.417  1.00  0.00     0.029 A 
ATOM     62  C   UNL A   1      44.264  27.897  34.105  1.00  0.00     0.049 A 
ATOM     63  H   UNL A   1      42.766  29.172  33.419  1.00  0.00     0.167 HD
ATOM     64  C   UNL A   1      39.854  31.982  31.728  1.00  0.00     0.034 A 
ATOM     65  C   UNL A   1      44.634  28.342  35.323  1.00  0.00     0.034 A 
ATOM     66  C   UNL A   1      40.077  32.435  33.074  1.00  0.00     0.049 A 
ATOM     67  C   UNL A   1      43.965  29.566  35.896  1.00  0.00     0.074 A 
ATOM     68  C   UNL A   1      39.469  33.485  33.737  1.00  0.00     0.029 A 
ATOM     69  N   UNL A   1      40.993  31.881  33.954  1.00  0.00    -0.354 N 
ATOM     70  N   UNL A   1      43.016  30.309  35.380  1.00  0.00    -0.248 NA
ATOM     71  C   UNL A   1      44.399  29.998  37.234  1.00  0.00     0.031 C 
ATOM     72  C   UNL A   1      40.053  33.598  35.002  1.00  0.00     0.029 A 
ATOM     73  C   UNL A   1      40.983  32.582  35.148  1.00  0.00     0.049 A 
ATOM     74  H   UNL A   1      41.566  31.105  33.759  1.00  0.00     0.167 HD
ATOM     75  C   UNL A   1      42.710  31.266  36.343  1.00  0.00     0.074 A 
ATOM     76  C   UNL A   1      43.565  30.998  37.481  1.00  0.00     0.031 C 
ATOM     77  C   UNL A   1      41.808  32.278  36.290  1.00  0.00     0.034 A 
BRANCH  64  78
ATOM     78  C   UNL A   1      38.882  32.742  30.865  1.00  0.00     0.023 A 
ATOM     79  C   UNL A   1      39.340  33.781  30.029  1.00  0.00     0.012 A 
ATOM     80  C   UNL A   1      37.516  32.401  30.857  1.00  0.00     0.148 A 
ATOM     81  C   UNL A   1      38.448  34.495  29.230  1.00  0.00     0.002 A 
ATOM     82  C   UNL A   1      36.641  33.081  30.020  1.00  0.00     0.091 A 
ATOM     83  F   UNL A   1      37.096  31.427  31.677  1.00  0.00    -0.205 F 
ATOM     84  C   UNL A   1      37.102  34.138  29.218  1.00  0.00     0.022 A 
BRANCH  82  85
ATOM     85  S   UNL A   1      34.907  32.642  29.870  1.00  0.00     0.127 S 
ATOM     86  O   UNL A   1      34.365  33.812  29.181  1.00  0.00    -0.237 OA
ATOM     87  O   UNL A   1      34.969  31.429  29.054  1.00  0.00    -0.237 OA
ATOM     88  O   UNL A   1      34.423  32.439  31.228  1.00  0.00    -0.744 OA
ENDBRANCH  82  85
ENDBRANCH  64  78
BRANCH  65  89
ATOM     89  C   UNL A   1      45.684  27.618  36.096  1.00  0.00     0.023 A 
ATOM     90  C   UNL A   1      47.038  27.970  35.936  1.00  0.00     0.012 A 
ATOM     91  C   UNL A   1      45.344  26.584  36.991  1.00  0.00     0.148 A 
ATOM     92  C   UNL A   1      48.037  27.283  36.627  1.00  0.00     0.002 A 
ATOM     93  C   UNL A   1      46.340  25.945  37.720  1.00  0.00     0.091 A 
ATOM     94  F   UNL A   1      44.051  26.254  37.118  1.00  0.00    -0.205 F 
ATOM     95  C   UNL A   1      47.688  26.279  37.524  1.00  0.00     0.022 A 
BRANCH  93  96
ATOM     96  S   UNL A   1      45.976  24.730  38.992  1.00  0.00     0.127 S 
ATOM     97  O   UNL A   1      44.789  25.303  39.624  1.00  0.00    -0.237 OA
ATOM     98  O   UNL A   1      45.729  23.528  38.195  1.00  0.00    -0.237 OA
ATOM     99  O   UNL A   1      47.164  24.662  39.831  1.00  0.00    -0.744 OA
ENDBRANCH  93  96
ENDBRANCH  65  89
BRANCH  77 100
ATOM    100  C   UNL A   1      41.649  33.148  37.512  1.00  0.00     0.023 A 
ATOM    101  C   UNL A   1      40.747  32.784  38.531  1.00  0.00     0.012 A 
ATOM    102  C   UNL A   1      42.457  34.291  37.681  1.00  0.00     0.148 A 
ATOM    103  C   UNL A   1      40.626  33.564  39.681  1.00  0.00     0.002 A 
ATOM    104  C   UNL A   1      42.371  35.031  38.854  1.00  0.00     0.091 A 
ATOM    105  F   UNL A   1      43.300  34.629  36.695  1.00  0.00    -0.205 F 
ATOM    106  C   UNL A   1      41.445  34.679  39.848  1.00  0.00     0.022 A 
BRANCH 104 107
ATOM    107  S   UNL A   1      43.454  36.421  39.201  1.00  0.00     0.127 S 
ATOM    108  O   UNL A   1      42.581  37.558  38.914  1.00  0.00    -0.237 OA
ATOM    109  O   UNL A   1      43.758  36.228  40.619  1.00  0.00    -0.237 OA
ATOM    110  O   UNL A   1      44.597  36.275  38.310  1.00  0.00    -0.744 OA
ENDBRANCH 104 107
ENDBRANCH  77 100
ENDBRANCH  51  52
ENDBRANCH  44  46
ENDBRANCH  43  44
ENDBRANCH  42  43
ENDBRANCH  41  42
ENDBRANCH  40  41
ENDBRANCH  39  40
ENDBRANCH  38  39
ENDBRANCH   1  38
TORSDOF 28
ENDMDL
MODEL 3
REMARK VINA RESULT:      -6.2      4.185     11.053
REMARK SMILES Cc1cc(C(=O)N[C@@H]2C(=O)N3C(C(=O)OCCOCCOCCOCCOC(=O)c4ccc(-c5c6nc(c(-c7cccc(S(=O)(=O)[O-])c7F)c7ccc([nH]7)c(-c7cccc(S(=O)(=O)[O-])c7F)c7nc(c(-c8cccc(S(=O)(=O)[O-])c8F)c8ccc5[nH]8)C=C7)C=C6)cc4)=C(CSc4nnc(C)s4)CS[C@H]23)n(C)n1
REMARK SMILES IDX 21 1 20 2 19 3 18 4 17 5 16 6 15 7 13 8 14 9 12 10 8 11 9 12
REMARK SMILES IDX 104 13 10 14 11 15 103 16 102 17 93 18 7 19 5 20 6 21 4 23
REMARK SMILES IDX 1 24 2 25 3 26 107 27 105 28 106 29 94 30 95 31 96 32 97 33
REMARK SMILES IDX 101 34 98 35 99 36 100 37 22 38 23 39 24 40 25 41 26 42
REMARK SMILES IDX 27 43 28 44 29 45 30 46 31 47 92 48 32 49 91 50 33 51 34 52
REMARK SMILES IDX 35 53 85 54 36 55 90 56 84 57 86 58 37 59 89 60 83 61 82 62
REMARK SMILES IDX 38 64 70 65 50 66 69 67 51 68 54 69 68 70 87 71 52 72 53 73
REMARK SMILES IDX 67 75 88 76 55 77 39 78 40 79 48 80 41 81 43 82 49 83 42 84
REMARK SMILES IDX 44 85 45 86 46 87 47 88 71 89 72 90 80 91 73 92 75 93 81 94
REMARK SMILES IDX 74 95 76 96 77 97 78 98 79 99 56 100 57 101 65 102 58 103
REMARK SMILES IDX 60 104 66 105 59 106 61 107 62 108 63 109 64 110
REMARK H PARENT 7 22 86 63 54 74
REMARK Flexibility Score: inf
ROOT
ATOM      1  O   UNL A   1      40.758  32.117  37.112  1.00  0.00    -0.377 OA
ENDROOT
BRANCH   1   2
ATOM      2  C   UNL A   1      40.399  33.182  37.979  1.00  0.00     0.188 C 
BRANCH   2   3
ATOM      3  C   UNL A   1      40.528  34.675  37.571  1.00  0.00     0.188 C 
BRANCH   3   4
ATOM      4  O   UNL A   1      40.907  34.895  36.224  1.00  0.00    -0.376 OA
BRANCH   4   5
ATOM      5  C   UNL A   1      42.248  35.142  35.864  1.00  0.00     0.202 C 
BRANCH   5   6
ATOM      6  C   UNL A   1      42.634  35.494  34.420  1.00  0.00     0.261 C 
BRANCH   6   7
ATOM      7  O   UNL A   1      44.030  35.512  34.120  1.00  0.00    -0.459 OA
BRANCH   7   8
ATOM      8  C   UNL A   1      44.376  35.593  32.821  1.00  0.00     0.355 C 
ATOM      9  O   UNL A   1      43.954  36.417  32.020  1.00  0.00    -0.244 OA
BRANCH   8  10
ATOM     10  C   UNL A   1      45.419  34.576  32.447  1.00  0.00     0.132 C 
ATOM     11  C   UNL A   1      48.391  35.668  31.171  1.00  0.00     0.206 C 
ATOM     12  C   UNL A   1      47.511  36.027  32.396  1.00  0.00     0.253 C 
ATOM     13  C   UNL A   1      47.433  34.444  31.044  1.00  0.00     0.181 C 
ATOM     14  O   UNL A   1      47.602  36.791  33.317  1.00  0.00    -0.272 OA
ATOM     15  N   UNL A   1      46.595  35.103  32.000  1.00  0.00    -0.289 N 
ATOM     16  S   UNL A   1      47.948  32.878  31.778  1.00  0.00    -0.129 SA
ATOM     17  C   UNL A   1      46.246  32.259  31.816  1.00  0.00     0.106 C 
ATOM     18  C   UNL A   1      45.234  33.226  32.433  1.00  0.00    -0.019 C 
BRANCH  11  19
ATOM     19  N   UNL A   1      49.846  35.414  31.308  1.00  0.00    -0.336 N 
ATOM     20  C   UNL A   1      50.862  36.357  31.265  1.00  0.00     0.270 C 
ATOM     21  O   UNL A   1      52.018  35.967  31.411  1.00  0.00    -0.268 OA
ATOM     22  H   UNL A   1      50.119  34.478  31.444  1.00  0.00     0.164 HD
BRANCH  20  23
ATOM     23  C   UNL A   1      50.509  37.734  30.977  1.00  0.00     0.126 A 
ATOM     24  C   UNL A   1      50.715  40.708  28.899  1.00  0.00     0.069 C 
ATOM     25  C   UNL A   1      50.468  39.703  29.962  1.00  0.00     0.060 A 
ATOM     26  C   UNL A   1      50.095  38.353  29.804  1.00  0.00     0.059 A 
ATOM     27  N   UNL A   1      50.690  39.985  31.246  1.00  0.00    -0.178 NA
ATOM     28  N   UNL A   1      50.587  38.785  31.863  1.00  0.00    -0.263 N 
ATOM     29  C   UNL A   1      50.584  38.772  33.305  1.00  0.00     0.174 C 
ENDBRANCH  20  23
ENDBRANCH  11  19
BRANCH  18  30
ATOM     30  C   UNL A   1      43.994  32.495  32.903  1.00  0.00     0.111 C 
BRANCH  30  31
ATOM     31  S   UNL A   1      43.976  30.692  32.781  1.00  0.00    -0.089 SA
BRANCH  31  32
ATOM     32  C   UNL A   1      42.344  30.137  32.519  1.00  0.00     0.174 A 
ATOM     33  N   UNL A   1      41.258  30.779  32.885  1.00  0.00    -0.132 NA
ATOM     34  S   UNL A   1      42.013  28.697  31.635  1.00  0.00    -0.091 S 
ATOM     35  N   UNL A   1      40.101  30.209  32.388  1.00  0.00    -0.143 NA
ATOM     36  C   UNL A   1      40.357  29.154  31.645  1.00  0.00     0.115 A 
ATOM     37  C   UNL A   1      39.346  28.404  30.857  1.00  0.00     0.081 C 
ENDBRANCH  31  32
ENDBRANCH  30  31
ENDBRANCH  18  30
ENDBRANCH   8  10
ENDBRANCH   7   8
ENDBRANCH   6   7
ENDBRANCH   5   6
ENDBRANCH   4   5
ENDBRANCH   3   4
ENDBRANCH   2   3
ENDBRANCH   1   2
BRANCH   1  38
ATOM     38  C   UNL A   1      39.791  31.674  36.180  1.00  0.00     0.188 C 
BRANCH  38  39
ATOM     39  C   UNL A   1      38.360  31.920  36.687  1.00  0.00     0.188 C 
BRANCH  39  40
ATOM     40  O   UNL A   1      37.394  32.235  35.701  1.00  0.00    -0.376 OA
BRANCH  40  41
ATOM     41  C   UNL A   1      37.465  31.689  34.391  1.00  0.00     0.202 C 
BRANCH  41  42
ATOM     42  C   UNL A   1      37.345  32.451  33.050  1.00  0.00     0.261 C 
BRANCH  42  43
ATOM     43  O   UNL A   1      37.879  33.771  32.927  1.00  0.00    -0.460 OA
BRANCH  43  44
ATOM     44  C   UNL A   1      37.692  34.426  31.765  1.00  0.00     0.338 C 
ATOM     45  O   UNL A   1      36.703  35.043  31.419  1.00  0.00    -0.246 OA
BRANCH  44  46
ATOM     46  C   UNL A   1      38.990  34.413  31.053  1.00  0.00     0.060 A 
ATOM     47  C   UNL A   1      40.169  34.193  31.779  1.00  0.00     0.016 A 
ATOM     48  C   UNL A   1      39.040  34.590  29.669  1.00  0.00     0.016 A 
ATOM     49  C   UNL A   1      41.401  34.170  31.129  1.00  0.00     0.010 A 
ATOM     50  C   UNL A   1      40.277  34.590  29.019  1.00  0.00     0.010 A 
ATOM     51  C   UNL A   1      41.465  34.420  29.754  1.00  0.00    -0.014 A 
BRANCH  51  52
ATOM     52  C   UNL A   1      42.775  34.728  29.134  1.00  0.00     0.031 A 
ATOM     53  C   UNL A   1      43.708  33.583  28.849  1.00  0.00     0.074 A 
ATOM     54  C   UNL A   1      43.126  35.985  28.812  1.00  0.00     0.049 A 
ATOM     55  N   UNL A   1      44.915  33.600  28.352  1.00  0.00    -0.248 NA
ATOM     56  C   UNL A   1      43.210  32.235  29.175  1.00  0.00     0.031 C 
ATOM     57  C   UNL A   1      42.301  37.174  29.015  1.00  0.00     0.029 A 
ATOM     58  N   UNL A   1      44.288  36.468  28.264  1.00  0.00    -0.354 N 
ATOM     59  C   UNL A   1      45.337  32.276  28.340  1.00  0.00     0.074 A 
ATOM     60  C   UNL A   1      44.262  31.483  28.892  1.00  0.00     0.031 C 
ATOM     61  C   UNL A   1      42.994  38.256  28.622  1.00  0.00     0.029 A 
ATOM     62  C   UNL A   1      44.323  37.839  28.172  1.00  0.00     0.049 A 
ATOM     63  H   UNL A   1      45.027  35.889  27.966  1.00  0.00     0.167 HD
ATOM     64  C   UNL A   1      46.509  31.762  27.899  1.00  0.00     0.034 A 
ATOM     65  C   UNL A   1      45.323  38.662  27.796  1.00  0.00     0.034 A 
ATOM     66  C   UNL A   1      47.571  32.553  27.342  1.00  0.00     0.049 A 
ATOM     67  C   UNL A   1      46.637  38.071  27.352  1.00  0.00     0.074 A 
ATOM     68  C   UNL A   1      48.781  32.123  26.827  1.00  0.00     0.029 A 
ATOM     69  N   UNL A   1      47.563  33.936  27.246  1.00  0.00    -0.354 N 
ATOM     70  N   UNL A   1      46.987  36.811  27.252  1.00  0.00    -0.248 NA
ATOM     71  C   UNL A   1      47.688  39.015  26.940  1.00  0.00     0.031 C 
ATOM     72  C   UNL A   1      49.525  33.250  26.465  1.00  0.00     0.029 A 
ATOM     73  C   UNL A   1      48.756  34.378  26.700  1.00  0.00     0.049 A 
ATOM     74  H   UNL A   1      46.819  34.516  27.524  1.00  0.00     0.167 HD
ATOM     75  C   UNL A   1      48.276  36.809  26.729  1.00  0.00     0.074 A 
ATOM     76  C   UNL A   1      48.640  38.195  26.517  1.00  0.00     0.031 C 
ATOM     77  C   UNL A   1      49.089  35.759  26.453  1.00  0.00     0.034 A 
BRANCH  64  78
ATOM     78  C   UNL A   1      46.703  30.273  28.011  1.00  0.00     0.023 A 
ATOM     79  C   UNL A   1      46.973  29.687  29.264  1.00  0.00     0.012 A 
ATOM     80  C   UNL A   1      46.580  29.450  26.875  1.00  0.00     0.148 A 
ATOM     81  C   UNL A   1      47.160  28.309  29.378  1.00  0.00     0.002 A 
ATOM     82  C   UNL A   1      46.715  28.074  27.005  1.00  0.00     0.091 A 
ATOM     83  F   UNL A   1      46.346  30.028  25.688  1.00  0.00    -0.205 F 
ATOM     84  C   UNL A   1      47.021  27.503  28.250  1.00  0.00     0.022 A 
BRANCH  82  85
ATOM     85  S   UNL A   1      46.471  26.944  25.630  1.00  0.00     0.127 S 
ATOM     86  O   UNL A   1      47.560  27.331  24.734  1.00  0.00    -0.237 OA
ATOM     87  O   UNL A   1      46.644  25.641  26.272  1.00  0.00    -0.237 OA
ATOM     88  O   UNL A   1      45.129  27.203  25.128  1.00  0.00    -0.744 OA
ENDBRANCH  82  85
ENDBRANCH  64  78
BRANCH  65  89
ATOM     89  C   UNL A   1      45.120  40.139  27.808  1.00  0.00     0.023 A 
ATOM     90  C   UNL A   1      45.145  40.839  29.029  1.00  0.00     0.012 A 
ATOM     91  C   UNL A   1      44.906  40.853  26.612  1.00  0.00     0.148 A 
ATOM     92  C   UNL A   1      44.925  42.217  29.065  1.00  0.00     0.002 A 
ATOM     93  C   UNL A   1      44.749  42.234  26.648  1.00  0.00     0.091 A 
ATOM     94  F   UNL A   1      44.872  40.167  25.461  1.00  0.00    -0.205 F 
ATOM     95  C   UNL A   1      44.737  42.914  27.875  1.00  0.00     0.022 A 
BRANCH  93  96
ATOM     96  S   UNL A   1      44.630  43.231  25.160  1.00  0.00     0.127 S 
ATOM     97  O   UNL A   1      44.930  44.568  25.670  1.00  0.00    -0.237 OA
ATOM     98  O   UNL A   1      45.674  42.642  24.322  1.00  0.00    -0.237 OA
ATOM     99  O   UNL A   1      43.276  43.040  24.658  1.00  0.00    -0.744 OA
ENDBRANCH  93  96
ENDBRANCH  65  89
BRANCH  77 100
ATOM    100  C   UNL A   1      50.436  36.048  25.839  1.00  0.00     0.023 A 
ATOM    101  C   UNL A   1      50.571  36.158  24.441  1.00  0.00     0.012 A 
ATOM    102  C   UNL A   1      51.555  36.288  26.662  1.00  0.00     0.148 A 
ATOM    103  C   UNL A   1      51.807  36.466  23.872  1.00  0.00     0.002 A 
ATOM    104  C   UNL A   1      52.769  36.649  26.091  1.00  0.00     0.091 A 
ATOM    105  F   UNL A   1      51.410  36.165  27.989  1.00  0.00    -0.205 F 
ATOM    106  C   UNL A   1      52.901  36.723  24.695  1.00  0.00     0.022 A 
BRANCH 104 107
ATOM    107  S   UNL A   1      54.205  37.096  27.073  1.00  0.00     0.127 S 
ATOM    108  O   UNL A   1      54.396  35.895  27.884  1.00  0.00    -0.237 OA
ATOM    109  O   UNL A   1      55.226  37.308  26.046  1.00  0.00    -0.237 OA
ATOM    110  O   UNL A   1      53.831  38.293  27.813  1.00  0.00    -0.744 OA
ENDBRANCH 104 107
ENDBRANCH  77 100
ENDBRANCH  51  52
ENDBRANCH  44  46
ENDBRANCH  43  44
ENDBRANCH  42  43
ENDBRANCH  41  42
ENDBRANCH  40  41
ENDBRANCH  39  40
ENDBRANCH  38  39
ENDBRANCH   1  38
TORSDOF 28
ENDMDL
