MODEL 1
REMARK VINA RESULT:      -9.5      0.000      0.000
REMARK SMILES Cc1c(C(=O)Nc2ccc(C(=O)Nc3ccccc3C(=O)OCCOCCOCCOCCOC(=O)c3ccc(-c4c5nc(c(-c6cccc(S(=O)(=O)[O-])c6F)c6ccc([nH]6)c(-c6cccc(S(=O)(=O)[O-])c6F)c6nc(c(-c7cccc(S(=O)(=O)[O-])c7F)c7ccc4[nH]7)C=C6)C=C5)cc3)cc2)cccc1[N+](=O)[O-]
REMARK SMILES IDX 27 1 26 2 25 3 24 4 23 5 22 6 20 7 21 8 19 9 14 10 15 11
REMARK SMILES IDX 16 12 18 13 17 14 13 15 11 16 12 17 10 19 7 20 8 21 101 22
REMARK SMILES IDX 9 23 100 24 6 25 4 26 5 27 3 29 1 30 2 31 105 32 102 33
REMARK SMILES IDX 104 34 103 35 106 36 107 37 108 38 28 39 29 40 30 41 31 42
REMARK SMILES IDX 32 43 33 44 34 45 35 46 36 47 37 48 38 49 99 50 39 51 98 52
REMARK SMILES IDX 40 53 41 54 42 55 92 56 43 57 97 58 91 59 93 60 44 61 96 62
REMARK SMILES IDX 90 63 89 64 45 66 77 67 57 68 76 69 58 70 61 71 75 72 94 73
REMARK SMILES IDX 59 74 60 75 74 77 95 78 62 79 46 80 47 81 55 82 48 83 50 84
REMARK SMILES IDX 56 85 49 86 51 87 52 88 53 89 54 90 78 91 79 92 87 93 80 94
REMARK SMILES IDX 82 95 88 96 81 97 83 98 84 99 85 100 86 101 63 102 64 103
REMARK SMILES IDX 72 104 65 105 67 106 73 107 66 108 68 109 69 110 70 111
REMARK SMILES IDX 71 112
REMARK H PARENT 13 18 6 28 93 65 61 76
REMARK Flexibility Score: inf
ROOT
ATOM      1  C   UNL A   1      34.572  31.393  27.713  1.00  0.00     0.188 C 
ENDROOT
BRANCH   1   2
ATOM      2  C   UNL A   1      35.070  29.964  27.944  1.00  0.00     0.188 C 
BRANCH   2   3
ATOM      3  O   UNL A   1      35.454  29.233  26.795  1.00  0.00    -0.376 OA
BRANCH   3   4
ATOM      4  C   UNL A   1      34.409  28.433  26.289  1.00  0.00     0.202 C 
BRANCH   4   5
ATOM      5  C   UNL A   1      33.787  28.928  24.974  1.00  0.00     0.261 C 
BRANCH   5   6
ATOM      6  O   UNL A   1      32.555  29.666  25.026  1.00  0.00    -0.460 OA
BRANCH   6   7
ATOM      7  C   UNL A   1      31.577  29.109  24.264  1.00  0.00     0.340 C 
ATOM      8  O   UNL A   1      31.165  29.452  23.193  1.00  0.00    -0.246 OA
BRANCH   7   9
ATOM      9  C   UNL A   1      31.149  27.826  24.840  1.00  0.00     0.083 A 
ATOM     10  C   UNL A   1      30.723  26.834  23.954  1.00  0.00     0.056 A 
ATOM     11  C   UNL A   1      30.107  25.672  24.430  1.00  0.00     0.027 A 
ATOM     12  C   UNL A   1      30.048  25.443  25.802  1.00  0.00     0.002 A 
ATOM     13  C   UNL A   1      31.153  27.576  26.214  1.00  0.00     0.018 A 
ATOM     14  C   UNL A   1      30.621  26.365  26.687  1.00  0.00     0.001 A 
BRANCH  10  15
ATOM     15  N   UNL A   1      31.112  26.868  22.614  1.00  0.00    -0.321 N 
ATOM     16  C   UNL A   1      31.881  25.905  21.980  1.00  0.00     0.255 C 
ATOM     17  O   UNL A   1      31.903  25.893  20.747  1.00  0.00    -0.269 OA
ATOM     18  H   UNL A   1      30.817  27.638  22.075  1.00  0.00     0.170 HD
BRANCH  16  19
ATOM     19  C   UNL A   1      32.871  25.022  22.732  1.00  0.00     0.040 A 
ATOM     20  C   UNL A   1      34.925  23.305  23.703  1.00  0.00     0.041 A 
ATOM     21  C   UNL A   1      34.775  24.559  24.246  1.00  0.00     0.027 A 
ATOM     22  C   UNL A   1      34.100  22.928  22.643  1.00  0.00     0.027 A 
ATOM     23  C   UNL A   1      33.747  25.384  23.770  1.00  0.00     0.016 A 
ATOM     24  C   UNL A   1      33.069  23.754  22.185  1.00  0.00     0.016 A 
BRANCH  20  25
ATOM     25  N   UNL A   1      35.925  22.440  24.170  1.00  0.00    -0.322 N 
ATOM     26  C   UNL A   1      35.744  21.325  24.969  1.00  0.00     0.256 C 
ATOM     27  O   UNL A   1      36.586  20.438  25.061  1.00  0.00    -0.269 OA
ATOM     28  H   UNL A   1      36.850  22.648  23.903  1.00  0.00     0.170 HD
BRANCH  26  29
ATOM     29  C   UNL A   1      34.650  21.411  25.982  1.00  0.00     0.049 A 
ATOM     30  C   UNL A   1      33.040  19.752  25.007  1.00  0.00     0.053 C 
ATOM     31  C   UNL A   1      33.325  21.065  25.684  1.00  0.00     0.039 A 
ATOM     32  C   UNL A   1      32.338  21.916  26.202  1.00  0.00     0.273 A 
ATOM     33  C   UNL A   1      34.953  22.256  27.061  1.00  0.00     0.014 A 
ATOM     34  C   UNL A   1      32.632  22.803  27.253  1.00  0.00     0.086 A 
ATOM     35  C   UNL A   1      33.930  22.897  27.747  1.00  0.00     0.008 A 
BRANCH  32  36
ATOM     36  N   UNL A   1      31.046  22.094  25.523  1.00  0.00     0.063 N 
ATOM     37  O   UNL A   1      31.086  22.383  24.315  1.00  0.00    -0.258 OA
ATOM     38  O   UNL A   1      30.008  21.967  26.179  1.00  0.00    -0.258 OA
ENDBRANCH  32  36
ENDBRANCH  26  29
ENDBRANCH  20  25
ENDBRANCH  16  19
ENDBRANCH  10  15
ENDBRANCH   7   9
ENDBRANCH   6   7
ENDBRANCH   5   6
ENDBRANCH   4   5
ENDBRANCH   3   4
ENDBRANCH   2   3
ENDBRANCH   1   2
BRANCH   1  39
ATOM     39  O   UNL A   1      35.687  32.285  27.555  1.00  0.00    -0.377 OA
BRANCH  39  40
ATOM     40  C   UNL A   1      35.543  33.595  28.115  1.00  0.00     0.188 C 
BRANCH  40  41
ATOM     41  C   UNL A   1      34.138  34.208  28.122  1.00  0.00     0.188 C 
BRANCH  41  42
ATOM     42  O   UNL A   1      34.124  35.357  28.957  1.00  0.00    -0.376 OA
BRANCH  42  43
ATOM     43  C   UNL A   1      32.931  35.600  29.682  1.00  0.00     0.202 C 
BRANCH  43  44
ATOM     44  C   UNL A   1      33.154  35.448  31.184  1.00  0.00     0.261 C 
BRANCH  44  45
ATOM     45  O   UNL A   1      34.025  34.316  31.385  1.00  0.00    -0.460 OA
BRANCH  45  46
ATOM     46  C   UNL A   1      34.069  33.855  32.667  1.00  0.00     0.338 C 
ATOM     47  O   UNL A   1      33.109  33.387  33.257  1.00  0.00    -0.246 OA
BRANCH  46  48
ATOM     48  C   UNL A   1      35.371  34.216  33.319  1.00  0.00     0.060 A 
ATOM     49  C   UNL A   1      36.442  34.657  32.526  1.00  0.00     0.016 A 
ATOM     50  C   UNL A   1      35.621  33.883  34.649  1.00  0.00     0.016 A 
ATOM     51  C   UNL A   1      37.767  34.630  33.010  1.00  0.00     0.010 A 
ATOM     52  C   UNL A   1      36.937  33.833  35.111  1.00  0.00     0.010 A 
ATOM     53  C   UNL A   1      38.041  34.132  34.279  1.00  0.00    -0.014 A 
BRANCH  53  54
ATOM     54  C   UNL A   1      39.380  33.640  34.735  1.00  0.00     0.031 A 
ATOM     55  C   UNL A   1      40.222  34.534  35.656  1.00  0.00     0.074 A 
ATOM     56  C   UNL A   1      39.542  32.286  34.781  1.00  0.00     0.049 A 
ATOM     57  N   UNL A   1      41.289  34.208  36.329  1.00  0.00    -0.248 NA
ATOM     58  C   UNL A   1      39.890  35.956  35.836  1.00  0.00     0.031 C 
ATOM     59  C   UNL A   1      39.872  31.552  35.985  1.00  0.00     0.029 A 
ATOM     60  N   UNL A   1      39.351  31.230  33.886  1.00  0.00    -0.354 N 
ATOM     61  C   UNL A   1      41.583  35.256  37.216  1.00  0.00     0.074 A 
ATOM     62  C   UNL A   1      40.734  36.340  36.797  1.00  0.00     0.031 C 
ATOM     63  C   UNL A   1      40.170  30.282  35.745  1.00  0.00     0.029 A 
ATOM     64  C   UNL A   1      40.128  30.139  34.329  1.00  0.00     0.049 A 
ATOM     65  H   UNL A   1      38.775  31.245  33.088  1.00  0.00     0.167 HD
ATOM     66  C   UNL A   1      42.385  35.082  38.320  1.00  0.00     0.034 A 
ATOM     67  C   UNL A   1      41.061  29.408  33.672  1.00  0.00     0.034 A 
ATOM     68  C   UNL A   1      43.184  33.830  38.273  1.00  0.00     0.049 A 
ATOM     69  C   UNL A   1      42.479  29.615  34.203  1.00  0.00     0.074 A 
ATOM     70  C   UNL A   1      43.566  32.867  39.201  1.00  0.00     0.029 A 
ATOM     71  N   UNL A   1      43.648  33.345  37.053  1.00  0.00    -0.354 N 
ATOM     72  N   UNL A   1      42.807  30.283  35.289  1.00  0.00    -0.248 NA
ATOM     73  C   UNL A   1      43.662  29.128  33.491  1.00  0.00     0.031 C 
ATOM     74  C   UNL A   1      44.033  31.720  38.502  1.00  0.00     0.029 A 
ATOM     75  C   UNL A   1      44.114  32.050  37.164  1.00  0.00     0.049 A 
ATOM     76  H   UNL A   1      43.643  33.861  36.214  1.00  0.00     0.167 HD
ATOM     77  C   UNL A   1      44.169  30.520  35.278  1.00  0.00     0.074 A 
ATOM     78  C   UNL A   1      44.659  29.684  34.197  1.00  0.00     0.031 C 
ATOM     79  C   UNL A   1      44.818  31.450  36.048  1.00  0.00     0.034 A 
BRANCH  66  80
ATOM     80  C   UNL A   1      42.311  35.939  39.630  1.00  0.00     0.023 A 
ATOM     81  C   UNL A   1      43.270  36.972  39.779  1.00  0.00     0.012 A 
ATOM     82  C   UNL A   1      41.501  35.716  40.784  1.00  0.00     0.148 A 
ATOM     83  C   UNL A   1      43.500  37.651  40.987  1.00  0.00     0.002 A 
ATOM     84  C   UNL A   1      41.651  36.485  41.957  1.00  0.00     0.091 A 
ATOM     85  F   UNL A   1      40.617  34.714  40.798  1.00  0.00    -0.205 F 
ATOM     86  C   UNL A   1      42.686  37.415  42.078  1.00  0.00     0.022 A 
BRANCH  84  87
ATOM     87  S   UNL A   1      40.523  36.396  43.371  1.00  0.00     0.127 S 
ATOM     88  O   UNL A   1      40.763  35.050  43.891  1.00  0.00    -0.237 OA
ATOM     89  O   UNL A   1      41.026  37.472  44.229  1.00  0.00    -0.237 OA
ATOM     90  O   UNL A   1      39.184  36.621  42.841  1.00  0.00    -0.744 OA
ENDBRANCH  84  87
ENDBRANCH  66  80
BRANCH  67  91
ATOM     91  C   UNL A   1      40.531  28.819  32.411  1.00  0.00     0.023 A 
ATOM     92  C   UNL A   1      39.670  27.715  32.659  1.00  0.00     0.012 A 
ATOM     93  C   UNL A   1      40.196  29.711  31.386  1.00  0.00     0.148 A 
ATOM     94  C   UNL A   1      38.372  27.702  32.140  1.00  0.00     0.002 A 
ATOM     95  C   UNL A   1      38.880  29.731  30.923  1.00  0.00     0.091 A 
ATOM     96  F   UNL A   1      41.085  30.661  31.065  1.00  0.00    -0.205 F 
ATOM     97  C   UNL A   1      37.957  28.753  31.330  1.00  0.00     0.022 A 
BRANCH  95  98
ATOM     98  S   UNL A   1      38.218  31.213  30.142  1.00  0.00     0.127 S 
ATOM     99  O   UNL A   1      38.415  30.928  28.726  1.00  0.00    -0.237 OA
ATOM    100  O   UNL A   1      36.829  31.207  30.599  1.00  0.00    -0.237 OA
ATOM    101  O   UNL A   1      39.009  32.300  30.705  1.00  0.00    -0.744 OA
ENDBRANCH  95  98
ENDBRANCH  67  91
BRANCH  79 102
ATOM    102  C   UNL A   1      46.210  32.024  35.776  1.00  0.00     0.023 A 
ATOM    103  C   UNL A   1      47.346  31.517  36.429  1.00  0.00     0.012 A 
ATOM    104  C   UNL A   1      46.445  32.871  34.653  1.00  0.00     0.148 A 
ATOM    105  C   UNL A   1      48.643  31.847  36.013  1.00  0.00     0.002 A 
ATOM    106  C   UNL A   1      47.731  33.090  34.168  1.00  0.00     0.091 A 
ATOM    107  F   UNL A   1      45.420  33.490  34.049  1.00  0.00    -0.205 F 
ATOM    108  C   UNL A   1      48.836  32.601  34.864  1.00  0.00     0.022 A 
BRANCH 106 109
ATOM    109  S   UNL A   1      47.995  33.821  32.541  1.00  0.00     0.127 S 
ATOM    110  O   UNL A   1      49.449  33.759  32.410  1.00  0.00    -0.237 OA
ATOM    111  O   UNL A   1      47.266  32.904  31.660  1.00  0.00    -0.237 OA
ATOM    112  O   UNL A   1      47.412  35.153  32.623  1.00  0.00    -0.744 OA
ENDBRANCH 106 109
ENDBRANCH  79 102
ENDBRANCH  53  54
ENDBRANCH  46  48
ENDBRANCH  45  46
ENDBRANCH  44  45
ENDBRANCH  43  44
ENDBRANCH  42  43
ENDBRANCH  41  42
ENDBRANCH  40  41
ENDBRANCH  39  40
ENDBRANCH   1  39
TORSDOF 28
ENDMDL
MODEL 2
REMARK VINA RESULT:      -9.5      5.484      8.856
REMARK SMILES Cc1c(C(=O)Nc2ccc(C(=O)Nc3ccccc3C(=O)OCCOCCOCCOCCOC(=O)c3ccc(-c4c5nc(c(-c6cccc(S(=O)(=O)[O-])c6F)c6ccc([nH]6)c(-c6cccc(S(=O)(=O)[O-])c6F)c6nc(c(-c7cccc(S(=O)(=O)[O-])c7F)c7ccc4[nH]7)C=C6)C=C5)cc3)cc2)cccc1[N+](=O)[O-]
REMARK SMILES IDX 27 1 26 2 25 3 24 4 23 5 22 6 20 7 21 8 19 9 14 10 15 11
REMARK SMILES IDX 16 12 18 13 17 14 13 15 11 16 12 17 10 19 7 20 8 21 101 22
REMARK SMILES IDX 9 23 100 24 6 25 4 26 5 27 3 29 1 30 2 31 105 32 102 33
REMARK SMILES IDX 104 34 103 35 106 36 107 37 108 38 28 39 29 40 30 41 31 42
REMARK SMILES IDX 32 43 33 44 34 45 35 46 36 47 37 48 38 49 99 50 39 51 98 52
REMARK SMILES IDX 40 53 41 54 42 55 92 56 43 57 97 58 91 59 93 60 44 61 96 62
REMARK SMILES IDX 90 63 89 64 45 66 77 67 57 68 76 69 58 70 61 71 75 72 94 73
REMARK SMILES IDX 59 74 60 75 74 77 95 78 62 79 46 80 47 81 55 82 48 83 50 84
REMARK SMILES IDX 56 85 49 86 51 87 52 88 53 89 54 90 78 91 79 92 87 93 80 94
REMARK SMILES IDX 82 95 88 96 81 97 83 98 84 99 85 100 86 101 63 102 64 103
REMARK SMILES IDX 72 104 65 105 67 106 73 107 66 108 68 109 69 110 70 111
REMARK SMILES IDX 71 112
REMARK H PARENT 13 18 6 28 93 65 61 76
REMARK Flexibility Score: inf
ROOT
ATOM      1  C   UNL A   1      33.436  31.328  27.556  1.00  0.00     0.188 C 
ENDROOT
BRANCH   1   2
ATOM      2  C   UNL A   1      33.561  29.812  27.387  1.00  0.00     0.188 C 
BRANCH   2   3
ATOM      3  O   UNL A   1      34.430  29.357  26.368  1.00  0.00    -0.376 OA
BRANCH   3   4
ATOM      4  C   UNL A   1      33.793  28.487  25.461  1.00  0.00     0.202 C 
BRANCH   4   5
ATOM      5  C   UNL A   1      32.675  29.126  24.620  1.00  0.00     0.261 C 
BRANCH   5   6
ATOM      6  O   UNL A   1      31.308  28.871  24.979  1.00  0.00    -0.460 OA
BRANCH   6   7
ATOM      7  C   UNL A   1      30.664  28.093  24.069  1.00  0.00     0.340 C 
ATOM      8  O   UNL A   1      30.254  28.383  22.982  1.00  0.00    -0.246 OA
BRANCH   7   9
ATOM      9  C   UNL A   1      30.671  26.688  24.501  1.00  0.00     0.083 A 
ATOM     10  C   UNL A   1      30.913  25.716  23.527  1.00  0.00     0.056 A 
ATOM     11  C   UNL A   1      30.729  24.360  23.814  1.00  0.00     0.027 A 
ATOM     12  C   UNL A   1      30.441  23.971  25.119  1.00  0.00     0.002 A 
ATOM     13  C   UNL A   1      30.446  26.304  25.825  1.00  0.00     0.018 A 
ATOM     14  C   UNL A   1      30.356  24.936  26.132  1.00  0.00     0.001 A 
BRANCH  10  15
ATOM     15  N   UNL A   1      31.564  26.053  22.339  1.00  0.00    -0.321 N 
ATOM     16  C   UNL A   1      32.696  25.425  21.843  1.00  0.00     0.255 C 
ATOM     17  O   UNL A   1      32.994  25.609  20.660  1.00  0.00    -0.269 OA
ATOM     18  H   UNL A   1      31.191  26.796  21.812  1.00  0.00     0.170 HD
BRANCH  16  19
ATOM     19  C   UNL A   1      33.702  24.718  22.743  1.00  0.00     0.040 A 
ATOM     20  C   UNL A   1      35.861  23.380  24.031  1.00  0.00     0.041 A 
ATOM     21  C   UNL A   1      35.398  24.569  24.541  1.00  0.00     0.027 A 
ATOM     22  C   UNL A   1      35.296  22.888  22.854  1.00  0.00     0.027 A 
ATOM     23  C   UNL A   1      34.322  25.206  23.906  1.00  0.00     0.016 A 
ATOM     24  C   UNL A   1      34.215  23.523  22.237  1.00  0.00     0.016 A 
BRANCH  20  25
ATOM     25  N   UNL A   1      36.919  22.700  24.652  1.00  0.00    -0.322 N 
ATOM     26  C   UNL A   1      36.888  21.413  25.157  1.00  0.00     0.256 C 
ATOM     27  O   UNL A   1      37.907  20.767  25.374  1.00  0.00    -0.269 OA
ATOM     28  H   UNL A   1      37.770  23.189  24.738  1.00  0.00     0.170 HD
BRANCH  26  29
ATOM     29  C   UNL A   1      35.594  20.973  25.760  1.00  0.00     0.049 A 
ATOM     30  C   UNL A   1      35.333  18.752  24.621  1.00  0.00     0.053 C 
ATOM     31  C   UNL A   1      34.753  20.044  25.131  1.00  0.00     0.039 A 
ATOM     32  C   UNL A   1      33.381  20.329  25.177  1.00  0.00     0.273 A 
ATOM     33  C   UNL A   1      35.097  21.859  26.728  1.00  0.00     0.014 A 
ATOM     34  C   UNL A   1      32.868  21.249  26.109  1.00  0.00     0.086 A 
ATOM     35  C   UNL A   1      33.730  21.942  26.954  1.00  0.00     0.008 A 
BRANCH  32  36
ATOM     36  N   UNL A   1      32.468  19.878  24.116  1.00  0.00     0.063 N 
ATOM     37  O   UNL A   1      32.257  20.675  23.187  1.00  0.00    -0.258 OA
ATOM     38  O   UNL A   1      31.955  18.759  24.210  1.00  0.00    -0.258 OA
ENDBRANCH  32  36
ENDBRANCH  26  29
ENDBRANCH  20  25
ENDBRANCH  16  19
ENDBRANCH  10  15
ENDBRANCH   7   9
ENDBRANCH   6   7
ENDBRANCH   5   6
ENDBRANCH   4   5
ENDBRANCH   3   4
ENDBRANCH   2   3
ENDBRANCH   1   2
BRANCH   1  39
ATOM     39  O   UNL A   1      34.739  31.922  27.668  1.00  0.00    -0.377 OA
BRANCH  39  40
ATOM     40  C   UNL A   1      34.785  33.349  27.776  1.00  0.00     0.188 C 
BRANCH  40  41
ATOM     41  C   UNL A   1      33.736  34.022  28.669  1.00  0.00     0.188 C 
BRANCH  41  42
ATOM     42  O   UNL A   1      34.382  34.883  29.596  1.00  0.00    -0.376 OA
BRANCH  42  43
ATOM     43  C   UNL A   1      33.767  35.026  30.864  1.00  0.00     0.202 C 
BRANCH  43  44
ATOM     44  C   UNL A   1      34.650  34.467  31.976  1.00  0.00     0.261 C 
BRANCH  44  45
ATOM     45  O   UNL A   1      35.428  33.389  31.416  1.00  0.00    -0.460 OA
BRANCH  45  46
ATOM     46  C   UNL A   1      36.610  33.154  32.051  1.00  0.00     0.338 C 
ATOM     47  O   UNL A   1      36.707  32.566  33.116  1.00  0.00    -0.246 OA
BRANCH  46  48
ATOM     48  C   UNL A   1      37.728  33.910  31.395  1.00  0.00     0.060 A 
ATOM     49  C   UNL A   1      37.848  33.889  29.996  1.00  0.00     0.016 A 
ATOM     50  C   UNL A   1      38.788  34.414  32.147  1.00  0.00     0.016 A 
ATOM     51  C   UNL A   1      39.061  34.233  29.364  1.00  0.00     0.010 A 
ATOM     52  C   UNL A   1      39.993  34.726  31.515  1.00  0.00     0.010 A 
ATOM     53  C   UNL A   1      40.178  34.570  30.122  1.00  0.00    -0.014 A 
BRANCH  53  54
ATOM     54  C   UNL A   1      41.592  34.518  29.632  1.00  0.00     0.031 A 
ATOM     55  C   UNL A   1      42.352  33.187  29.707  1.00  0.00     0.074 A 
ATOM     56  C   UNL A   1      41.937  35.437  28.684  1.00  0.00     0.049 A 
ATOM     57  N   UNL A   1      43.486  32.882  29.142  1.00  0.00    -0.248 NA
ATOM     58  C   UNL A   1      41.842  32.072  30.521  1.00  0.00     0.031 C 
ATOM     59  C   UNL A   1      42.422  35.092  27.364  1.00  0.00     0.029 A 
ATOM     60  N   UNL A   1      41.844  36.826  28.563  1.00  0.00    -0.354 N 
ATOM     61  C   UNL A   1      43.682  31.497  29.276  1.00  0.00     0.074 A 
ATOM     62  C   UNL A   1      42.675  31.074  30.213  1.00  0.00     0.031 C 
ATOM     63  C   UNL A   1      42.876  36.143  26.694  1.00  0.00     0.029 A 
ATOM     64  C   UNL A   1      42.782  37.242  27.595  1.00  0.00     0.049 A 
ATOM     65  H   UNL A   1      41.231  37.411  29.066  1.00  0.00     0.167 HD
ATOM     66  C   UNL A   1      44.555  30.797  28.477  1.00  0.00     0.034 A 
ATOM     67  C   UNL A   1      43.770  38.165  27.677  1.00  0.00     0.034 A 
ATOM     68  C   UNL A   1      45.511  31.670  27.747  1.00  0.00     0.049 A 
ATOM     69  C   UNL A   1      45.173  37.561  27.629  1.00  0.00     0.074 A 
ATOM     70  C   UNL A   1      46.065  31.678  26.471  1.00  0.00     0.029 A 
ATOM     71  N   UNL A   1      45.973  32.843  28.338  1.00  0.00    -0.354 N 
ATOM     72  N   UNL A   1      45.463  36.304  27.362  1.00  0.00    -0.248 NA
ATOM     73  C   UNL A   1      46.372  38.335  27.951  1.00  0.00     0.031 C 
ATOM     74  C   UNL A   1      46.646  32.955  26.235  1.00  0.00     0.029 A 
ATOM     75  C   UNL A   1      46.614  33.656  27.424  1.00  0.00     0.049 A 
ATOM     76  H   UNL A   1      45.857  33.066  29.290  1.00  0.00     0.167 HD
ATOM     77  C   UNL A   1      46.778  36.062  27.711  1.00  0.00     0.074 A 
ATOM     78  C   UNL A   1      47.320  37.384  27.964  1.00  0.00     0.031 C 
ATOM     79  C   UNL A   1      47.334  34.822  27.893  1.00  0.00     0.034 A 
BRANCH  66  80
ATOM     80  C   UNL A   1      44.433  29.274  28.130  1.00  0.00     0.023 A 
ATOM     81  C   UNL A   1      45.532  28.446  28.469  1.00  0.00     0.012 A 
ATOM     82  C   UNL A   1      43.420  28.622  27.363  1.00  0.00     0.148 A 
ATOM     83  C   UNL A   1      45.688  27.130  28.003  1.00  0.00     0.002 A 
ATOM     84  C   UNL A   1      43.521  27.263  27.000  1.00  0.00     0.091 A 
ATOM     85  F   UNL A   1      42.373  29.318  26.910  1.00  0.00    -0.205 F 
ATOM     86  C   UNL A   1      44.679  26.532  27.273  1.00  0.00     0.022 A 
BRANCH  84  87
ATOM     87  S   UNL A   1      42.184  26.328  26.216  1.00  0.00     0.127 S 
ATOM     88  O   UNL A   1      40.991  26.841  26.891  1.00  0.00    -0.237 OA
ATOM     89  O   UNL A   1      42.306  26.740  24.815  1.00  0.00    -0.237 OA
ATOM     90  O   UNL A   1      42.470  24.920  26.459  1.00  0.00    -0.744 OA
ENDBRANCH  84  87
ENDBRANCH  66  80
BRANCH  67  91
ATOM     91  C   UNL A   1      43.260  39.501  28.096  1.00  0.00     0.023 A 
ATOM     92  C   UNL A   1      43.361  39.694  29.501  1.00  0.00     0.012 A 
ATOM     93  C   UNL A   1      43.542  40.581  27.250  1.00  0.00     0.148 A 
ATOM     94  C   UNL A   1      44.041  40.803  30.013  1.00  0.00     0.002 A 
ATOM     95  C   UNL A   1      44.277  41.651  27.759  1.00  0.00     0.091 A 
ATOM     96  F   UNL A   1      43.303  40.430  25.940  1.00  0.00    -0.205 F 
ATOM     97  C   UNL A   1      44.562  41.744  29.131  1.00  0.00     0.022 A 
BRANCH  95  98
ATOM     98  S   UNL A   1      45.225  42.706  26.648  1.00  0.00     0.127 S 
ATOM     99  O   UNL A   1      44.180  43.304  25.827  1.00  0.00    -0.237 OA
ATOM    100  O   UNL A   1      45.890  43.615  27.582  1.00  0.00    -0.237 OA
ATOM    101  O   UNL A   1      46.140  41.792  25.977  1.00  0.00    -0.744 OA
ENDBRANCH  95  98
ENDBRANCH  67  91
BRANCH  79 102
ATOM    102  C   UNL A   1      48.622  34.523  28.664  1.00  0.00     0.023 A 
ATOM    103  C   UNL A   1      48.592  33.839  29.891  1.00  0.00     0.012 A 
ATOM    104  C   UNL A   1      49.897  34.658  28.040  1.00  0.00     0.148 A 
ATOM    105  C   UNL A   1      49.758  33.336  30.482  1.00  0.00     0.002 A 
ATOM    106  C   UNL A   1      51.029  34.045  28.567  1.00  0.00     0.091 A 
ATOM    107  F   UNL A   1      50.028  35.398  26.929  1.00  0.00    -0.205 F 
ATOM    108  C   UNL A   1      50.969  33.406  29.805  1.00  0.00     0.022 A 
BRANCH 106 109
ATOM    109  S   UNL A   1      52.534  33.880  27.588  1.00  0.00     0.127 S 
ATOM    110  O   UNL A   1      53.430  33.195  28.516  1.00  0.00    -0.237 OA
ATOM    111  O   UNL A   1      52.088  33.060  26.458  1.00  0.00    -0.237 OA
ATOM    112  O   UNL A   1      52.902  35.241  27.224  1.00  0.00    -0.744 OA
ENDBRANCH 106 109
ENDBRANCH  79 102
ENDBRANCH  53  54
ENDBRANCH  46  48
ENDBRANCH  45  46
ENDBRANCH  44  45
ENDBRANCH  43  44
ENDBRANCH  42  43
ENDBRANCH  41  42
ENDBRANCH  40  41
ENDBRANCH  39  40
ENDBRANCH   1  39
TORSDOF 28
ENDMDL
MODEL 3
REMARK VINA RESULT:      -9.2      4.533      7.455
REMARK SMILES Cc1c(C(=O)Nc2ccc(C(=O)Nc3ccccc3C(=O)OCCOCCOCCOCCOC(=O)c3ccc(-c4c5nc(c(-c6cccc(S(=O)(=O)[O-])c6F)c6ccc([nH]6)c(-c6cccc(S(=O)(=O)[O-])c6F)c6nc(c(-c7cccc(S(=O)(=O)[O-])c7F)c7ccc4[nH]7)C=C6)C=C5)cc3)cc2)cccc1[N+](=O)[O-]
REMARK SMILES IDX 27 1 26 2 25 3 24 4 23 5 22 6 20 7 21 8 19 9 14 10 15 11
REMARK SMILES IDX 16 12 18 13 17 14 13 15 11 16 12 17 10 19 7 20 8 21 101 22
REMARK SMILES IDX 9 23 100 24 6 25 4 26 5 27 3 29 1 30 2 31 105 32 102 33
REMARK SMILES IDX 104 34 103 35 106 36 107 37 108 38 28 39 29 40 30 41 31 42
REMARK SMILES IDX 32 43 33 44 34 45 35 46 36 47 37 48 38 49 99 50 39 51 98 52
REMARK SMILES IDX 40 53 41 54 42 55 92 56 43 57 97 58 91 59 93 60 44 61 96 62
REMARK SMILES IDX 90 63 89 64 45 66 77 67 57 68 76 69 58 70 61 71 75 72 94 73
REMARK SMILES IDX 59 74 60 75 74 77 95 78 62 79 46 80 47 81 55 82 48 83 50 84
REMARK SMILES IDX 56 85 49 86 51 87 52 88 53 89 54 90 78 91 79 92 87 93 80 94
REMARK SMILES IDX 82 95 88 96 81 97 83 98 84 99 85 100 86 101 63 102 64 103
REMARK SMILES IDX 72 104 65 105 67 106 73 107 66 108 68 109 69 110 70 111
REMARK SMILES IDX 71 112
REMARK H PARENT 13 18 6 28 93 65 61 76
REMARK Flexibility Score: inf
ROOT
ATOM      1  C   UNL A   1      42.506  23.454  26.880  1.00  0.00     0.188 C 
ENDROOT
BRANCH   1   2
ATOM      2  C   UNL A   1      41.291  22.694  26.341  1.00  0.00     0.188 C 
BRANCH   2   3
ATOM      3  O   UNL A   1      40.104  22.771  27.107  1.00  0.00    -0.376 OA
BRANCH   3   4
ATOM      4  C   UNL A   1      39.268  23.832  26.705  1.00  0.00     0.202 C 
BRANCH   4   5
ATOM      5  C   UNL A   1      38.073  23.424  25.827  1.00  0.00     0.261 C 
BRANCH   5   6
ATOM      6  O   UNL A   1      36.798  23.211  26.452  1.00  0.00    -0.460 OA
BRANCH   6   7
ATOM      7  C   UNL A   1      36.069  22.241  25.838  1.00  0.00     0.340 C 
ATOM      8  O   UNL A   1      36.437  21.368  25.107  1.00  0.00    -0.246 OA
BRANCH   7   9
ATOM      9  C   UNL A   1      34.686  22.250  26.334  1.00  0.00     0.083 A 
ATOM     10  C   UNL A   1      33.675  22.555  25.419  1.00  0.00     0.056 A 
ATOM     11  C   UNL A   1      32.368  22.789  25.855  1.00  0.00     0.027 A 
ATOM     12  C   UNL A   1      32.044  22.575  27.193  1.00  0.00     0.002 A 
ATOM     13  C   UNL A   1      34.358  21.972  27.663  1.00  0.00     0.018 A 
ATOM     14  C   UNL A   1      33.025  22.113  28.081  1.00  0.00     0.001 A 
BRANCH  10  15
ATOM     15  N   UNL A   1      33.892  22.400  24.049  1.00  0.00    -0.321 N 
ATOM     16  C   UNL A   1      34.271  23.412  23.181  1.00  0.00     0.255 C 
ATOM     17  O   UNL A   1      34.716  23.095  22.074  1.00  0.00    -0.269 OA
ATOM     18  H   UNL A   1      33.766  21.501  23.668  1.00  0.00     0.170 HD
BRANCH  16  19
ATOM     19  C   UNL A   1      33.945  24.878  23.439  1.00  0.00     0.040 A 
ATOM     20  C   UNL A   1      33.792  27.649  24.080  1.00  0.00     0.041 A 
ATOM     21  C   UNL A   1      33.491  27.229  22.807  1.00  0.00     0.027 A 
ATOM     22  C   UNL A   1      34.224  26.707  25.015  1.00  0.00     0.027 A 
ATOM     23  C   UNL A   1      33.553  25.859  22.513  1.00  0.00     0.016 A 
ATOM     24  C   UNL A   1      34.269  25.343  24.715  1.00  0.00     0.016 A 
BRANCH  20  25
ATOM     25  N   UNL A   1      33.717  29.007  24.421  1.00  0.00    -0.322 N 
ATOM     26  C   UNL A   1      32.738  29.612  25.190  1.00  0.00     0.256 C 
ATOM     27  O   UNL A   1      32.903  30.703  25.724  1.00  0.00    -0.269 OA
ATOM     28  H   UNL A   1      34.432  29.590  24.077  1.00  0.00     0.170 HD
BRANCH  26  29
ATOM     29  C   UNL A   1      31.358  29.058  25.054  1.00  0.00     0.049 A 
ATOM     30  C   UNL A   1      31.263  27.652  27.131  1.00  0.00     0.053 C 
ATOM     31  C   UNL A   1      30.969  27.860  25.670  1.00  0.00     0.039 A 
ATOM     32  C   UNL A   1      30.173  27.003  24.896  1.00  0.00     0.273 A 
ATOM     33  C   UNL A   1      30.657  29.564  23.949  1.00  0.00     0.014 A 
ATOM     34  C   UNL A   1      29.499  27.480  23.757  1.00  0.00     0.086 A 
ATOM     35  C   UNL A   1      29.671  28.798  23.344  1.00  0.00     0.008 A 
BRANCH  32  36
ATOM     36  N   UNL A   1      30.203  25.546  25.089  1.00  0.00     0.063 N 
ATOM     37  O   UNL A   1      29.855  25.125  26.205  1.00  0.00    -0.258 OA
ATOM     38  O   UNL A   1      30.581  24.831  24.157  1.00  0.00    -0.258 OA
ENDBRANCH  32  36
ENDBRANCH  26  29
ENDBRANCH  20  25
ENDBRANCH  16  19
ENDBRANCH  10  15
ENDBRANCH   7   9
ENDBRANCH   6   7
ENDBRANCH   5   6
ENDBRANCH   4   5
ENDBRANCH   3   4
ENDBRANCH   2   3
ENDBRANCH   1   2
BRANCH   1  39
ATOM     39  O   UNL A   1      43.302  23.947  25.791  1.00  0.00    -0.377 OA
BRANCH  39  40
ATOM     40  C   UNL A   1      43.527  25.361  25.751  1.00  0.00     0.188 C 
BRANCH  40  41
ATOM     41  C   UNL A   1      42.314  26.260  25.485  1.00  0.00     0.188 C 
BRANCH  41  42
ATOM     42  O   UNL A   1      41.867  26.829  26.707  1.00  0.00    -0.376 OA
BRANCH  42  43
ATOM     43  C   UNL A   1      41.149  28.047  26.614  1.00  0.00     0.202 C 
BRANCH  43  44
ATOM     44  C   UNL A   1      39.868  28.001  27.441  1.00  0.00     0.261 C 
BRANCH  44  45
ATOM     45  O   UNL A   1      39.458  29.362  27.690  1.00  0.00    -0.460 OA
BRANCH  45  46
ATOM     46  C   UNL A   1      38.299  29.484  28.396  1.00  0.00     0.338 C 
ATOM     47  O   UNL A   1      37.244  28.963  28.071  1.00  0.00    -0.246 OA
BRANCH  46  48
ATOM     48  C   UNL A   1      38.435  30.521  29.472  1.00  0.00     0.060 A 
ATOM     49  C   UNL A   1      38.045  31.844  29.209  1.00  0.00     0.016 A 
ATOM     50  C   UNL A   1      39.171  30.261  30.626  1.00  0.00     0.016 A 
ATOM     51  C   UNL A   1      38.502  32.912  30.010  1.00  0.00     0.010 A 
ATOM     52  C   UNL A   1      39.641  31.325  31.397  1.00  0.00     0.010 A 
ATOM     53  C   UNL A   1      39.381  32.673  31.062  1.00  0.00    -0.014 A 
BRANCH  53  54
ATOM     54  C   UNL A   1      40.268  33.706  31.686  1.00  0.00     0.031 A 
ATOM     55  C   UNL A   1      39.798  34.408  32.968  1.00  0.00     0.074 A 
ATOM     56  C   UNL A   1      41.605  33.584  31.438  1.00  0.00     0.049 A 
ATOM     57  N   UNL A   1      40.499  35.155  33.773  1.00  0.00    -0.248 NA
ATOM     58  C   UNL A   1      38.395  34.320  33.405  1.00  0.00     0.031 C 
ATOM     59  C   UNL A   1      42.604  33.408  32.471  1.00  0.00     0.029 A 
ATOM     60  N   UNL A   1      42.397  33.454  30.295  1.00  0.00    -0.354 N 
ATOM     61  C   UNL A   1      39.739  35.382  34.932  1.00  0.00     0.074 A 
ATOM     62  C   UNL A   1      38.419  34.913  34.601  1.00  0.00     0.031 C 
ATOM     63  C   UNL A   1      43.843  33.511  32.007  1.00  0.00     0.029 A 
ATOM     64  C   UNL A   1      43.710  33.847  30.630  1.00  0.00     0.049 A 
ATOM     65  H   UNL A   1      42.092  33.143  29.412  1.00  0.00     0.167 HD
ATOM     66  C   UNL A   1      40.307  35.787  36.117  1.00  0.00     0.034 A 
ATOM     67  C   UNL A   1      44.519  34.768  30.053  1.00  0.00     0.034 A 
ATOM     68  C   UNL A   1      41.689  36.308  35.957  1.00  0.00     0.049 A 
ATOM     69  C   UNL A   1      44.775  35.989  30.936  1.00  0.00     0.074 A 
ATOM     70  C   UNL A   1      42.870  36.216  36.686  1.00  0.00     0.029 A 
ATOM     71  N   UNL A   1      42.044  36.997  34.799  1.00  0.00    -0.354 N 
ATOM     72  N   UNL A   1      44.421  36.117  32.198  1.00  0.00    -0.248 NA
ATOM     73  C   UNL A   1      45.405  37.208  30.426  1.00  0.00     0.031 C 
ATOM     74  C   UNL A   1      43.950  36.632  35.859  1.00  0.00     0.029 A 
ATOM     75  C   UNL A   1      43.412  37.153  34.699  1.00  0.00     0.049 A 
ATOM     76  H   UNL A   1      41.399  37.331  34.134  1.00  0.00     0.167 HD
ATOM     77  C   UNL A   1      44.536  37.444  32.565  1.00  0.00     0.074 A 
ATOM     78  C   UNL A   1      45.256  38.050  31.460  1.00  0.00     0.031 C 
ATOM     79  C   UNL A   1      43.955  38.015  33.669  1.00  0.00     0.034 A 
BRANCH  66  80
ATOM     80  C   UNL A   1      39.714  35.511  37.540  1.00  0.00     0.023 A 
ATOM     81  C   UNL A   1      39.588  36.621  38.413  1.00  0.00     0.012 A 
ATOM     82  C   UNL A   1      39.427  34.250  38.147  1.00  0.00     0.148 A 
ATOM     83  C   UNL A   1      39.320  36.504  39.787  1.00  0.00     0.002 A 
ATOM     84  C   UNL A   1      39.037  34.147  39.499  1.00  0.00     0.091 A 
ATOM     85  F   UNL A   1      39.591  33.121  37.452  1.00  0.00    -0.205 F 
ATOM     86  C   UNL A   1      39.037  35.267  40.332  1.00  0.00     0.022 A 
BRANCH  84  87
ATOM     87  S   UNL A   1      38.460  32.612  40.266  1.00  0.00     0.127 S 
ATOM     88  O   UNL A   1      37.379  33.073  41.137  1.00  0.00    -0.237 OA
ATOM     89  O   UNL A   1      38.009  31.843  39.103  1.00  0.00    -0.237 OA
ATOM     90  O   UNL A   1      39.608  32.042  40.959  1.00  0.00    -0.744 OA
ENDBRANCH  84  87
ENDBRANCH  66  80
BRANCH  67  91
ATOM     91  C   UNL A   1      44.716  34.515  28.598  1.00  0.00     0.023 A 
ATOM     92  C   UNL A   1      43.842  35.300  27.797  1.00  0.00     0.012 A 
ATOM     93  C   UNL A   1      46.031  34.321  28.161  1.00  0.00     0.148 A 
ATOM     94  C   UNL A   1      44.357  36.128  26.795  1.00  0.00     0.002 A 
ATOM     95  C   UNL A   1      46.552  35.196  27.207  1.00  0.00     0.091 A 
ATOM     96  F   UNL A   1      46.800  33.463  28.845  1.00  0.00    -0.205 F 
ATOM     97  C   UNL A   1      45.726  36.126  26.554  1.00  0.00     0.022 A 
BRANCH  95  98
ATOM     98  S   UNL A   1      48.331  35.447  27.086  1.00  0.00     0.127 S 
ATOM     99  O   UNL A   1      48.430  36.437  26.021  1.00  0.00    -0.237 OA
ATOM    100  O   UNL A   1      48.665  35.929  28.427  1.00  0.00    -0.237 OA
ATOM    101  O   UNL A   1      48.863  34.122  26.797  1.00  0.00    -0.744 OA
ENDBRANCH  95  98
ENDBRANCH  67  91
BRANCH  79 102
ATOM    102  C   UNL A   1      43.710  39.511  33.879  1.00  0.00     0.023 A 
ATOM    103  C   UNL A   1      44.258  40.190  34.980  1.00  0.00     0.012 A 
ATOM    104  C   UNL A   1      43.179  40.319  32.831  1.00  0.00     0.148 A 
ATOM    105  C   UNL A   1      44.261  41.589  35.055  1.00  0.00     0.002 A 
ATOM    106  C   UNL A   1      43.301  41.705  32.853  1.00  0.00     0.091 A 
ATOM    107  F   UNL A   1      42.533  39.750  31.802  1.00  0.00    -0.205 F 
ATOM    108  C   UNL A   1      43.817  42.346  33.979  1.00  0.00     0.022 A 
BRANCH 106 109
ATOM    109  S   UNL A   1      42.996  42.685  31.371  1.00  0.00     0.127 S 
ATOM    110  O   UNL A   1      41.790  42.060  30.834  1.00  0.00    -0.237 OA
ATOM    111  O   UNL A   1      42.791  44.029  31.917  1.00  0.00    -0.237 OA
ATOM    112  O   UNL A   1      44.204  42.549  30.569  1.00  0.00    -0.744 OA
ENDBRANCH 106 109
ENDBRANCH  79 102
ENDBRANCH  53  54
ENDBRANCH  46  48
ENDBRANCH  45  46
ENDBRANCH  44  45
ENDBRANCH  43  44
ENDBRANCH  42  43
ENDBRANCH  41  42
ENDBRANCH  40  41
ENDBRANCH  39  40
ENDBRANCH   1  39
TORSDOF 28
ENDMDL
