MODEL 1
REMARK VINA RESULT:      -9.8      0.000      0.000
REMARK SMILES CN(CC(N)=O)c1ccccc1/C=C/C(=O)OCCOCCOCCOCCOC(=O)c1ccc(-c2c3nc(c(-c4cccc(S(=O)(=O)[O-])c4F)c4ccc([nH]4)c(-c4cccc(S(=O)(=O)[O-])c4F)c4nc(c(-c5cccc(S(=O)(=O)[O-])c5F)c5ccc2[nH]5)C=C4)C=C3)cc1
REMARK SMILES IDX 22 1 21 2 20 3 19 4 18 5 17 6 15 7 16 8 14 9 13 10 12 11
REMARK SMILES IDX 7 12 8 13 9 14 11 15 10 16 2 17 1 18 3 19 4 20 5 21 6 22
REMARK SMILES IDX 23 25 24 26 25 27 26 28 27 29 28 30 29 31 30 32 31 33 32 34
REMARK SMILES IDX 33 35 94 36 34 37 93 38 35 39 36 40 37 41 87 42 38 43 92 44
REMARK SMILES IDX 86 45 88 46 39 47 91 48 85 49 84 50 40 52 72 53 52 54 71 55
REMARK SMILES IDX 53 56 56 57 70 58 89 59 54 60 55 61 69 63 90 64 57 65 41 66
REMARK SMILES IDX 42 67 50 68 43 69 45 70 51 71 44 72 46 73 47 74 48 75 49 76
REMARK SMILES IDX 73 77 74 78 82 79 75 80 77 81 83 82 76 83 78 84 79 85 80 86
REMARK SMILES IDX 81 87 58 88 59 89 67 90 60 91 62 92 68 93 61 94 63 95 64 96
REMARK SMILES IDX 65 97 66 98
REMARK H PARENT 5 23 5 24 88 51 56 62
REMARK Flexibility Score: inf
ROOT
ATOM      1  C   UNL A   1      35.163  23.136  23.510  1.00  0.00     0.188 C 
ENDROOT
BRANCH   1   2
ATOM      2  C   UNL A   1      33.934  23.303  22.599  1.00  0.00     0.188 C 
BRANCH   2   3
ATOM      3  O   UNL A   1      32.694  23.326  23.281  1.00  0.00    -0.376 OA
BRANCH   3   4
ATOM      4  C   UNL A   1      32.113  22.153  23.826  1.00  0.00     0.202 C 
BRANCH   4   5
ATOM      5  C   UNL A   1      31.687  21.959  25.292  1.00  0.00     0.261 C 
BRANCH   5   6
ATOM      6  O   UNL A   1      32.088  22.950  26.231  1.00  0.00    -0.460 OA
BRANCH   6   7
ATOM      7  C   UNL A   1      31.181  23.875  26.592  1.00  0.00     0.330 C 
ATOM      8  O   UNL A   1      30.062  23.663  27.035  1.00  0.00    -0.247 OA
BRANCH   7   9
ATOM      9  C   UNL A   1      31.752  25.234  26.479  1.00  0.00     0.094 C 
ATOM     10  C   UNL A   1      31.033  26.345  26.241  1.00  0.00     0.018 C 
BRANCH  10  11
ATOM     11  C   UNL A   1      31.646  27.679  26.156  1.00  0.00    -0.002 A 
ATOM     12  C   UNL A   1      31.843  28.343  24.921  1.00  0.00     0.044 A 
ATOM     13  C   UNL A   1      32.341  29.658  24.989  1.00  0.00     0.026 A 
ATOM     14  C   UNL A   1      32.717  30.264  26.190  1.00  0.00     0.002 A 
ATOM     15  C   UNL A   1      32.091  28.272  27.358  1.00  0.00     0.010 A 
ATOM     16  C   UNL A   1      32.624  29.557  27.377  1.00  0.00     0.001 A 
BRANCH  12  17
ATOM     17  N   UNL A   1      31.570  27.776  23.682  1.00  0.00    -0.365 N 
ATOM     18  C   UNL A   1      32.517  26.882  23.027  1.00  0.00     0.144 C 
BRANCH  17  19
ATOM     19  C   UNL A   1      30.257  27.958  23.038  1.00  0.00     0.215 C 
BRANCH  19  20
ATOM     20  C   UNL A   1      29.977  29.415  22.650  1.00  0.00     0.236 C 
ATOM     21  N   UNL A   1      30.755  29.915  21.636  1.00  0.00    -0.368 N 
ATOM     22  O   UNL A   1      29.160  30.146  23.202  1.00  0.00    -0.273 OA
ATOM     23  H   UNL A   1      31.413  29.334  21.190  1.00  0.00     0.159 HD
ATOM     24  H   UNL A   1      30.657  30.853  21.356  1.00  0.00     0.159 HD
ENDBRANCH  19  20
ENDBRANCH  17  19
ENDBRANCH  12  17
ENDBRANCH  10  11
ENDBRANCH   7   9
ENDBRANCH   6   7
ENDBRANCH   5   6
ENDBRANCH   4   5
ENDBRANCH   3   4
ENDBRANCH   2   3
ENDBRANCH   1   2
BRANCH   1  25
ATOM     25  O   UNL A   1      35.001  23.692  24.801  1.00  0.00    -0.377 OA
BRANCH  25  26
ATOM     26  C   UNL A   1      35.932  23.338  25.822  1.00  0.00     0.188 C 
BRANCH  26  27
ATOM     27  C   UNL A   1      37.451  23.618  25.696  1.00  0.00     0.188 C 
BRANCH  27  28
ATOM     28  O   UNL A   1      38.289  22.477  25.820  1.00  0.00    -0.376 OA
BRANCH  28  29
ATOM     29  C   UNL A   1      37.908  21.280  25.166  1.00  0.00     0.202 C 
BRANCH  29  30
ATOM     30  C   UNL A   1      38.791  20.048  25.411  1.00  0.00     0.261 C 
BRANCH  30  31
ATOM     31  O   UNL A   1      39.673  20.127  26.538  1.00  0.00    -0.460 OA
BRANCH  31  32
ATOM     32  C   UNL A   1      40.986  19.930  26.301  1.00  0.00     0.338 C 
ATOM     33  O   UNL A   1      41.505  18.929  25.827  1.00  0.00    -0.246 OA
BRANCH  32  34
ATOM     34  C   UNL A   1      41.688  21.204  26.540  1.00  0.00     0.060 A 
ATOM     35  C   UNL A   1      42.056  21.541  27.850  1.00  0.00     0.016 A 
ATOM     36  C   UNL A   1      41.970  22.066  25.478  1.00  0.00     0.016 A 
ATOM     37  C   UNL A   1      42.654  22.773  28.109  1.00  0.00     0.010 A 
ATOM     38  C   UNL A   1      42.554  23.307  25.742  1.00  0.00     0.010 A 
ATOM     39  C   UNL A   1      42.854  23.684  27.064  1.00  0.00    -0.014 A 
BRANCH  39  40
ATOM     40  C   UNL A   1      43.142  25.106  27.375  1.00  0.00     0.031 A 
ATOM     41  C   UNL A   1      44.483  25.658  26.964  1.00  0.00     0.074 A 
ATOM     42  C   UNL A   1      42.242  25.893  27.990  1.00  0.00     0.049 A 
ATOM     43  N   UNL A   1      44.993  26.841  27.177  1.00  0.00    -0.248 NA
ATOM     44  C   UNL A   1      45.368  24.749  26.214  1.00  0.00     0.031 C 
ATOM     45  C   UNL A   1      40.903  25.483  28.414  1.00  0.00     0.029 A 
ATOM     46  N   UNL A   1      42.332  27.204  28.386  1.00  0.00    -0.354 N 
ATOM     47  C   UNL A   1      46.263  26.812  26.611  1.00  0.00     0.074 A 
ATOM     48  C   UNL A   1      46.456  25.488  26.063  1.00  0.00     0.031 C 
ATOM     49  C   UNL A   1      40.310  26.515  29.039  1.00  0.00     0.029 A 
ATOM     50  C   UNL A   1      41.235  27.646  29.086  1.00  0.00     0.049 A 
ATOM     51  H   UNL A   1      43.111  27.774  28.187  1.00  0.00     0.167 HD
ATOM     52  C   UNL A   1      47.181  27.803  26.535  1.00  0.00     0.034 A 
ATOM     53  C   UNL A   1      41.019  28.820  29.714  1.00  0.00     0.034 A 
ATOM     54  C   UNL A   1      46.984  29.122  27.067  1.00  0.00     0.049 A 
ATOM     55  C   UNL A   1      42.084  29.890  29.658  1.00  0.00     0.074 A 
ATOM     56  C   UNL A   1      47.848  30.202  27.031  1.00  0.00     0.029 A 
ATOM     57  N   UNL A   1      45.846  29.540  27.737  1.00  0.00    -0.354 N 
ATOM     58  N   UNL A   1      43.245  29.873  29.048  1.00  0.00    -0.248 NA
ATOM     59  C   UNL A   1      41.791  31.156  30.349  1.00  0.00     0.031 C 
ATOM     60  C   UNL A   1      47.243  31.266  27.704  1.00  0.00     0.029 A 
ATOM     61  C   UNL A   1      45.984  30.863  28.118  1.00  0.00     0.049 A 
ATOM     62  H   UNL A   1      45.057  28.981  27.914  1.00  0.00     0.167 HD
ATOM     63  C   UNL A   1      43.791  31.140  29.233  1.00  0.00     0.074 A 
ATOM     64  C   UNL A   1      42.829  31.902  30.000  1.00  0.00     0.031 C 
ATOM     65  C   UNL A   1      44.986  31.629  28.815  1.00  0.00     0.034 A 
BRANCH  52  66
ATOM     66  C   UNL A   1      48.476  27.509  25.825  1.00  0.00     0.023 A 
ATOM     67  C   UNL A   1      49.582  27.036  26.559  1.00  0.00     0.012 A 
ATOM     68  C   UNL A   1      48.575  27.631  24.426  1.00  0.00     0.148 A 
ATOM     69  C   UNL A   1      50.775  26.712  25.915  1.00  0.00     0.002 A 
ATOM     70  C   UNL A   1      49.750  27.260  23.785  1.00  0.00     0.091 A 
ATOM     71  F   UNL A   1      47.517  28.102  23.750  1.00  0.00    -0.205 F 
ATOM     72  C   UNL A   1      50.855  26.812  24.528  1.00  0.00     0.022 A 
BRANCH  70  73
ATOM     73  S   UNL A   1      49.930  27.276  21.998  1.00  0.00     0.127 S 
ATOM     74  O   UNL A   1      48.868  26.358  21.587  1.00  0.00    -0.237 OA
ATOM     75  O   UNL A   1      49.681  28.681  21.679  1.00  0.00    -0.237 OA
ATOM     76  O   UNL A   1      51.284  26.815  21.724  1.00  0.00    -0.744 OA
ENDBRANCH  70  73
ENDBRANCH  52  66
BRANCH  53  77
ATOM     77  C   UNL A   1      39.745  29.070  30.450  1.00  0.00     0.023 A 
ATOM     78  C   UNL A   1      39.499  28.404  31.667  1.00  0.00     0.012 A 
ATOM     79  C   UNL A   1      38.756  29.922  29.925  1.00  0.00     0.148 A 
ATOM     80  C   UNL A   1      38.271  28.538  32.318  1.00  0.00     0.002 A 
ATOM     81  C   UNL A   1      37.559  30.099  30.609  1.00  0.00     0.091 A 
ATOM     82  F   UNL A   1      38.998  30.534  28.757  1.00  0.00    -0.205 F 
ATOM     83  C   UNL A   1      37.304  29.390  31.793  1.00  0.00     0.022 A 
BRANCH  81  84
ATOM     84  S   UNL A   1      36.309  31.270  30.069  1.00  0.00     0.127 S 
ATOM     85  O   UNL A   1      37.123  32.422  29.691  1.00  0.00    -0.237 OA
ATOM     86  O   UNL A   1      35.693  30.555  28.950  1.00  0.00    -0.237 OA
ATOM     87  O   UNL A   1      35.431  31.459  31.216  1.00  0.00    -0.744 OA
ENDBRANCH  81  84
ENDBRANCH  53  77
BRANCH  65  88
ATOM     88  C   UNL A   1      45.290  33.079  29.094  1.00  0.00     0.023 A 
ATOM     89  C   UNL A   1      45.973  33.452  30.268  1.00  0.00     0.012 A 
ATOM     90  C   UNL A   1      44.957  34.065  28.144  1.00  0.00     0.148 A 
ATOM     91  C   UNL A   1      46.282  34.790  30.511  1.00  0.00     0.002 A 
ATOM     92  C   UNL A   1      45.319  35.388  28.366  1.00  0.00     0.091 A 
ATOM     93  F   UNL A   1      44.295  33.692  27.038  1.00  0.00    -0.205 F 
ATOM     94  C   UNL A   1      45.967  35.755  29.556  1.00  0.00     0.022 A 
BRANCH  92  95
ATOM     95  S   UNL A   1      45.047  36.679  27.147  1.00  0.00     0.127 S 
ATOM     96  O   UNL A   1      46.109  36.403  26.181  1.00  0.00    -0.237 OA
ATOM     97  O   UNL A   1      43.697  36.374  26.672  1.00  0.00    -0.237 OA
ATOM     98  O   UNL A   1      45.166  37.941  27.862  1.00  0.00    -0.744 OA
ENDBRANCH  92  95
ENDBRANCH  65  88
ENDBRANCH  39  40
ENDBRANCH  32  34
ENDBRANCH  31  32
ENDBRANCH  30  31
ENDBRANCH  29  30
ENDBRANCH  28  29
ENDBRANCH  27  28
ENDBRANCH  26  27
ENDBRANCH  25  26
ENDBRANCH   1  25
TORSDOF 27
ENDMDL
MODEL 2
REMARK VINA RESULT:      -9.5      1.062      7.442
REMARK SMILES CN(CC(N)=O)c1ccccc1/C=C/C(=O)OCCOCCOCCOCCOC(=O)c1ccc(-c2c3nc(c(-c4cccc(S(=O)(=O)[O-])c4F)c4ccc([nH]4)c(-c4cccc(S(=O)(=O)[O-])c4F)c4nc(c(-c5cccc(S(=O)(=O)[O-])c5F)c5ccc2[nH]5)C=C4)C=C3)cc1
REMARK SMILES IDX 22 1 21 2 20 3 19 4 18 5 17 6 15 7 16 8 14 9 13 10 12 11
REMARK SMILES IDX 7 12 8 13 9 14 11 15 10 16 2 17 1 18 3 19 4 20 5 21 6 22
REMARK SMILES IDX 23 25 24 26 25 27 26 28 27 29 28 30 29 31 30 32 31 33 32 34
REMARK SMILES IDX 33 35 94 36 34 37 93 38 35 39 36 40 37 41 87 42 38 43 92 44
REMARK SMILES IDX 86 45 88 46 39 47 91 48 85 49 84 50 40 52 72 53 52 54 71 55
REMARK SMILES IDX 53 56 56 57 70 58 89 59 54 60 55 61 69 63 90 64 57 65 41 66
REMARK SMILES IDX 42 67 50 68 43 69 45 70 51 71 44 72 46 73 47 74 48 75 49 76
REMARK SMILES IDX 73 77 74 78 82 79 75 80 77 81 83 82 76 83 78 84 79 85 80 86
REMARK SMILES IDX 81 87 58 88 59 89 67 90 60 91 62 92 68 93 61 94 63 95 64 96
REMARK SMILES IDX 65 97 66 98
REMARK H PARENT 5 23 5 24 88 51 56 62
REMARK Flexibility Score: inf
ROOT
ATOM      1  C   UNL A   1      35.097  24.027  24.323  1.00  0.00     0.188 C 
ENDROOT
BRANCH   1   2
ATOM      2  C   UNL A   1      34.758  22.917  23.311  1.00  0.00     0.188 C 
BRANCH   2   3
ATOM      3  O   UNL A   1      33.376  22.648  23.174  1.00  0.00    -0.376 OA
BRANCH   3   4
ATOM      4  C   UNL A   1      32.738  21.604  23.893  1.00  0.00     0.202 C 
BRANCH   4   5
ATOM      5  C   UNL A   1      31.794  21.788  25.094  1.00  0.00     0.261 C 
BRANCH   5   6
ATOM      6  O   UNL A   1      32.042  22.886  25.965  1.00  0.00    -0.460 OA
BRANCH   6   7
ATOM      7  C   UNL A   1      30.980  23.551  26.453  1.00  0.00     0.330 C 
ATOM      8  O   UNL A   1      30.421  23.346  27.520  1.00  0.00    -0.247 OA
BRANCH   7   9
ATOM      9  C   UNL A   1      30.613  24.669  25.559  1.00  0.00     0.094 C 
ATOM     10  C   UNL A   1      30.891  25.962  25.801  1.00  0.00     0.018 C 
BRANCH  10  11
ATOM     11  C   UNL A   1      30.521  27.038  24.869  1.00  0.00    -0.002 A 
ATOM     12  C   UNL A   1      31.230  28.262  24.808  1.00  0.00     0.044 A 
ATOM     13  C   UNL A   1      30.839  29.164  23.800  1.00  0.00     0.026 A 
ATOM     14  C   UNL A   1      29.752  28.928  22.953  1.00  0.00     0.002 A 
ATOM     15  C   UNL A   1      29.383  26.837  24.056  1.00  0.00     0.010 A 
ATOM     16  C   UNL A   1      29.000  27.775  23.104  1.00  0.00     0.001 A 
BRANCH  12  17
ATOM     17  N   UNL A   1      32.267  28.603  25.668  1.00  0.00    -0.365 N 
ATOM     18  C   UNL A   1      33.663  28.426  25.288  1.00  0.00     0.144 C 
BRANCH  17  19
ATOM     19  C   UNL A   1      31.996  29.275  26.952  1.00  0.00     0.215 C 
BRANCH  19  20
ATOM     20  C   UNL A   1      32.191  30.795  26.886  1.00  0.00     0.236 C 
ATOM     21  N   UNL A   1      33.391  31.256  27.367  1.00  0.00    -0.368 N 
ATOM     22  O   UNL A   1      31.352  31.596  26.485  1.00  0.00    -0.273 OA
ATOM     23  H   UNL A   1      34.068  30.619  27.691  1.00  0.00     0.159 HD
ATOM     24  H   UNL A   1      33.574  32.223  27.390  1.00  0.00     0.159 HD
ENDBRANCH  19  20
ENDBRANCH  17  19
ENDBRANCH  12  17
ENDBRANCH  10  11
ENDBRANCH   7   9
ENDBRANCH   6   7
ENDBRANCH   5   6
ENDBRANCH   4   5
ENDBRANCH   3   4
ENDBRANCH   2   3
ENDBRANCH   1   2
BRANCH   1  25
ATOM     25  O   UNL A   1      35.023  23.613  25.674  1.00  0.00    -0.377 OA
BRANCH  25  26
ATOM     26  C   UNL A   1      36.213  23.628  26.462  1.00  0.00     0.188 C 
BRANCH  26  27
ATOM     27  C   UNL A   1      37.622  23.779  25.836  1.00  0.00     0.188 C 
BRANCH  27  28
ATOM     28  O   UNL A   1      38.426  22.608  25.867  1.00  0.00    -0.376 OA
BRANCH  28  29
ATOM     29  C   UNL A   1      37.900  21.409  25.326  1.00  0.00     0.202 C 
BRANCH  29  30
ATOM     30  C   UNL A   1      38.709  20.128  25.570  1.00  0.00     0.261 C 
BRANCH  30  31
ATOM     31  O   UNL A   1      39.674  20.191  26.627  1.00  0.00    -0.460 OA
BRANCH  31  32
ATOM     32  C   UNL A   1      40.949  19.883  26.309  1.00  0.00     0.338 C 
ATOM     33  O   UNL A   1      41.351  18.839  25.816  1.00  0.00    -0.246 OA
BRANCH  32  34
ATOM     34  C   UNL A   1      41.769  21.095  26.489  1.00  0.00     0.060 A 
ATOM     35  C   UNL A   1      42.339  21.350  27.743  1.00  0.00     0.016 A 
ATOM     36  C   UNL A   1      41.962  21.981  25.427  1.00  0.00     0.016 A 
ATOM     37  C   UNL A   1      43.055  22.526  27.956  1.00  0.00     0.010 A 
ATOM     38  C   UNL A   1      42.667  23.167  25.646  1.00  0.00     0.010 A 
ATOM     39  C   UNL A   1      43.174  23.466  26.923  1.00  0.00    -0.014 A 
BRANCH  39  40
ATOM     40  C   UNL A   1      43.605  24.850  27.238  1.00  0.00     0.031 A 
ATOM     41  C   UNL A   1      42.598  25.774  27.873  1.00  0.00     0.074 A 
ATOM     42  C   UNL A   1      44.855  25.278  26.984  1.00  0.00     0.049 A 
ATOM     43  N   UNL A   1      42.711  27.038  28.183  1.00  0.00    -0.248 NA
ATOM     44  C   UNL A   1      41.284  25.191  28.199  1.00  0.00     0.031 C 
ATOM     45  C   UNL A   1      45.925  24.473  26.395  1.00  0.00     0.029 A 
ATOM     46  N   UNL A   1      45.426  26.512  27.170  1.00  0.00    -0.354 N 
ATOM     47  C   UNL A   1      41.481  27.407  28.716  1.00  0.00     0.074 A 
ATOM     48  C   UNL A   1      40.628  26.241  28.669  1.00  0.00     0.031 C 
ATOM     49  C   UNL A   1      47.015  25.245  26.241  1.00  0.00     0.029 A 
ATOM     50  C   UNL A   1      46.712  26.603  26.691  1.00  0.00     0.049 A 
ATOM     51  H   UNL A   1      44.959  27.261  27.607  1.00  0.00     0.167 HD
ATOM     52  C   UNL A   1      41.099  28.603  29.219  1.00  0.00     0.034 A 
ATOM     53  C   UNL A   1      47.532  27.669  26.602  1.00  0.00     0.034 A 
ATOM     54  C   UNL A   1      41.952  29.758  29.278  1.00  0.00     0.049 A 
ATOM     55  C   UNL A   1      47.060  29.006  27.123  1.00  0.00     0.074 A 
ATOM     56  C   UNL A   1      41.664  31.014  29.781  1.00  0.00     0.029 A 
ATOM     57  N   UNL A   1      43.256  29.800  28.816  1.00  0.00    -0.354 N 
ATOM     58  N   UNL A   1      45.924  29.317  27.699  1.00  0.00    -0.248 NA
ATOM     59  C   UNL A   1      48.001  30.132  27.013  1.00  0.00     0.031 C 
ATOM     60  C   UNL A   1      42.786  31.825  29.596  1.00  0.00     0.029 A 
ATOM     61  C   UNL A   1      43.789  31.060  29.022  1.00  0.00     0.049 A 
ATOM     62  H   UNL A   1      43.734  29.045  28.403  1.00  0.00     0.167 HD
ATOM     63  C   UNL A   1      46.038  30.653  28.070  1.00  0.00     0.074 A 
ATOM     64  C   UNL A   1      47.357  31.089  27.666  1.00  0.00     0.031 C 
ATOM     65  C   UNL A   1      45.129  31.454  28.682  1.00  0.00     0.034 A 
BRANCH  52  66
ATOM     66  C   UNL A   1      39.704  28.721  29.774  1.00  0.00     0.023 A 
ATOM     67  C   UNL A   1      39.434  28.271  31.082  1.00  0.00     0.012 A 
ATOM     68  C   UNL A   1      38.683  29.342  29.031  1.00  0.00     0.148 A 
ATOM     69  C   UNL A   1      38.162  28.416  31.633  1.00  0.00     0.002 A 
ATOM     70  C   UNL A   1      37.431  29.526  29.602  1.00  0.00     0.091 A 
ATOM     71  F   UNL A   1      38.957  29.744  27.781  1.00  0.00    -0.205 F 
ATOM     72  C   UNL A   1      37.165  29.053  30.899  1.00  0.00     0.022 A 
BRANCH  70  73
ATOM     73  S   UNL A   1      36.102  30.405  28.774  1.00  0.00     0.127 S 
ATOM     74  O   UNL A   1      35.319  29.301  28.220  1.00  0.00    -0.237 OA
ATOM     75  O   UNL A   1      35.463  31.110  29.885  1.00  0.00    -0.237 OA
ATOM     76  O   UNL A   1      36.740  31.265  27.786  1.00  0.00    -0.744 OA
ENDBRANCH  70  73
ENDBRANCH  52  66
BRANCH  53  77
ATOM     77  C   UNL A   1      48.894  27.537  26.006  1.00  0.00     0.023 A 
ATOM     78  C   UNL A   1      50.006  27.315  26.842  1.00  0.00     0.012 A 
ATOM     79  C   UNL A   1      49.099  27.681  24.621  1.00  0.00     0.148 A 
ATOM     80  C   UNL A   1      51.300  27.296  26.320  1.00  0.00     0.002 A 
ATOM     81  C   UNL A   1      50.385  27.600  24.099  1.00  0.00     0.091 A 
ATOM     82  F   UNL A   1      48.034  27.910  23.840  1.00  0.00    -0.205 F 
ATOM     83  C   UNL A   1      51.489  27.432  24.947  1.00  0.00     0.022 A 
BRANCH  81  84
ATOM     84  S   UNL A   1      50.708  27.642  22.332  1.00  0.00     0.127 S 
ATOM     85  O   UNL A   1      52.129  27.312  22.280  1.00  0.00    -0.237 OA
ATOM     86  O   UNL A   1      49.812  26.595  21.839  1.00  0.00    -0.237 OA
ATOM     87  O   UNL A   1      50.351  28.987  21.903  1.00  0.00    -0.744 OA
ENDBRANCH  81  84
ENDBRANCH  53  77
BRANCH  65  88
ATOM     88  C   UNL A   1      45.553  32.857  29.038  1.00  0.00     0.023 A 
ATOM     89  C   UNL A   1      46.270  33.107  30.224  1.00  0.00     0.012 A 
ATOM     90  C   UNL A   1      45.297  33.919  28.147  1.00  0.00     0.148 A 
ATOM     91  C   UNL A   1      46.688  34.400  30.538  1.00  0.00     0.002 A 
ATOM     92  C   UNL A   1      45.766  35.193  28.439  1.00  0.00     0.091 A 
ATOM     93  F   UNL A   1      44.601  33.663  27.029  1.00  0.00    -0.205 F 
ATOM     94  C   UNL A   1      46.448  35.439  29.642  1.00  0.00     0.022 A 
BRANCH  92  95
ATOM     95  S   UNL A   1      45.594  36.568  27.296  1.00  0.00     0.127 S 
ATOM     96  O   UNL A   1      46.576  36.224  26.268  1.00  0.00    -0.237 OA
ATOM     97  O   UNL A   1      44.199  36.444  26.873  1.00  0.00    -0.237 OA
ATOM     98  O   UNL A   1      45.889  37.770  28.063  1.00  0.00    -0.744 OA
ENDBRANCH  92  95
ENDBRANCH  65  88
ENDBRANCH  39  40
ENDBRANCH  32  34
ENDBRANCH  31  32
ENDBRANCH  30  31
ENDBRANCH  29  30
ENDBRANCH  28  29
ENDBRANCH  27  28
ENDBRANCH  26  27
ENDBRANCH  25  26
ENDBRANCH   1  25
TORSDOF 27
ENDMDL
MODEL 3
REMARK VINA RESULT:      -9.0      1.158      2.219
REMARK SMILES CN(CC(N)=O)c1ccccc1/C=C/C(=O)OCCOCCOCCOCCOC(=O)c1ccc(-c2c3nc(c(-c4cccc(S(=O)(=O)[O-])c4F)c4ccc([nH]4)c(-c4cccc(S(=O)(=O)[O-])c4F)c4nc(c(-c5cccc(S(=O)(=O)[O-])c5F)c5ccc2[nH]5)C=C4)C=C3)cc1
REMARK SMILES IDX 22 1 21 2 20 3 19 4 18 5 17 6 15 7 16 8 14 9 13 10 12 11
REMARK SMILES IDX 7 12 8 13 9 14 11 15 10 16 2 17 1 18 3 19 4 20 5 21 6 22
REMARK SMILES IDX 23 25 24 26 25 27 26 28 27 29 28 30 29 31 30 32 31 33 32 34
REMARK SMILES IDX 33 35 94 36 34 37 93 38 35 39 36 40 37 41 87 42 38 43 92 44
REMARK SMILES IDX 86 45 88 46 39 47 91 48 85 49 84 50 40 52 72 53 52 54 71 55
REMARK SMILES IDX 53 56 56 57 70 58 89 59 54 60 55 61 69 63 90 64 57 65 41 66
REMARK SMILES IDX 42 67 50 68 43 69 45 70 51 71 44 72 46 73 47 74 48 75 49 76
REMARK SMILES IDX 73 77 74 78 82 79 75 80 77 81 83 82 76 83 78 84 79 85 80 86
REMARK SMILES IDX 81 87 58 88 59 89 67 90 60 91 62 92 68 93 61 94 63 95 64 96
REMARK SMILES IDX 65 97 66 98
REMARK H PARENT 5 23 5 24 88 51 56 62
REMARK Flexibility Score: inf
ROOT
ATOM      1  C   UNL A   1      34.460  23.139  24.579  1.00  0.00     0.188 C 
ENDROOT
BRANCH   1   2
ATOM      2  C   UNL A   1      32.995  23.514  24.293  1.00  0.00     0.188 C 
BRANCH   2   3
ATOM      3  O   UNL A   1      32.553  24.694  24.937  1.00  0.00    -0.376 OA
BRANCH   3   4
ATOM      4  C   UNL A   1      33.312  25.324  25.957  1.00  0.00     0.202 C 
BRANCH   4   5
ATOM      5  C   UNL A   1      33.081  26.745  26.500  1.00  0.00     0.261 C 
BRANCH   5   6
ATOM      6  O   UNL A   1      33.629  27.830  25.761  1.00  0.00    -0.460 OA
BRANCH   6   7
ATOM      7  C   UNL A   1      33.105  29.052  25.960  1.00  0.00     0.330 C 
ATOM      8  O   UNL A   1      33.677  30.021  26.438  1.00  0.00    -0.247 OA
BRANCH   7   9
ATOM      9  C   UNL A   1      31.730  29.121  25.422  1.00  0.00     0.094 C 
ATOM     10  C   UNL A   1      31.372  29.822  24.332  1.00  0.00     0.018 C 
BRANCH  10  11
ATOM     11  C   UNL A   1      29.992  29.844  23.824  1.00  0.00    -0.002 A 
ATOM     12  C   UNL A   1      29.393  28.713  23.219  1.00  0.00     0.044 A 
ATOM     13  C   UNL A   1      28.033  28.833  22.873  1.00  0.00     0.026 A 
ATOM     14  C   UNL A   1      27.316  30.024  23.023  1.00  0.00     0.002 A 
ATOM     15  C   UNL A   1      29.281  31.061  23.910  1.00  0.00     0.010 A 
ATOM     16  C   UNL A   1      27.952  31.153  23.512  1.00  0.00     0.001 A 
BRANCH  12  17
ATOM     17  N   UNL A   1      30.063  27.522  22.961  1.00  0.00    -0.365 N 
ATOM     18  C   UNL A   1      29.821  26.324  23.754  1.00  0.00     0.144 C 
BRANCH  17  19
ATOM     19  C   UNL A   1      30.952  27.392  21.793  1.00  0.00     0.215 C 
BRANCH  19  20
ATOM     20  C   UNL A   1      32.129  26.440  22.039  1.00  0.00     0.236 C 
ATOM     21  N   UNL A   1      33.113  26.921  22.865  1.00  0.00    -0.368 N 
ATOM     22  O   UNL A   1      32.258  25.333  21.523  1.00  0.00    -0.273 OA
ATOM     23  H   UNL A   1      33.017  27.808  23.280  1.00  0.00     0.159 HD
ATOM     24  H   UNL A   1      33.917  26.380  23.041  1.00  0.00     0.159 HD
ENDBRANCH  19  20
ENDBRANCH  17  19
ENDBRANCH  12  17
ENDBRANCH  10  11
ENDBRANCH   7   9
ENDBRANCH   6   7
ENDBRANCH   5   6
ENDBRANCH   4   5
ENDBRANCH   3   4
ENDBRANCH   2   3
ENDBRANCH   1   2
BRANCH   1  25
ATOM     25  O   UNL A   1      34.614  22.151  25.580  1.00  0.00    -0.377 OA
BRANCH  25  26
ATOM     26  C   UNL A   1      35.924  21.878  26.078  1.00  0.00     0.188 C 
BRANCH  26  27
ATOM     27  C   UNL A   1      37.179  22.633  25.574  1.00  0.00     0.188 C 
BRANCH  27  28
ATOM     28  O   UNL A   1      38.327  21.824  25.359  1.00  0.00    -0.376 OA
BRANCH  28  29
ATOM     29  C   UNL A   1      38.144  20.487  24.927  1.00  0.00     0.202 C 
BRANCH  29  30
ATOM     30  C   UNL A   1      39.141  19.448  25.458  1.00  0.00     0.261 C 
BRANCH  30  31
ATOM     31  O   UNL A   1      40.028  19.903  26.487  1.00  0.00    -0.460 OA
BRANCH  31  32
ATOM     32  C   UNL A   1      41.349  19.718  26.280  1.00  0.00     0.338 C 
ATOM     33  O   UNL A   1      41.891  18.708  25.853  1.00  0.00    -0.246 OA
BRANCH  32  34
ATOM     34  C   UNL A   1      42.027  21.011  26.483  1.00  0.00     0.060 A 
ATOM     35  C   UNL A   1      42.474  21.349  27.767  1.00  0.00     0.016 A 
ATOM     36  C   UNL A   1      42.208  21.890  25.413  1.00  0.00     0.016 A 
ATOM     37  C   UNL A   1      43.051  22.597  27.997  1.00  0.00     0.010 A 
ATOM     38  C   UNL A   1      42.771  23.146  25.648  1.00  0.00     0.010 A 
ATOM     39  C   UNL A   1      43.150  23.522  26.950  1.00  0.00    -0.014 A 
BRANCH  39  40
ATOM     40  C   UNL A   1      43.415  24.950  27.255  1.00  0.00     0.031 A 
ATOM     41  C   UNL A   1      44.732  25.532  26.806  1.00  0.00     0.074 A 
ATOM     42  C   UNL A   1      42.516  25.716  27.897  1.00  0.00     0.049 A 
ATOM     43  N   UNL A   1      45.221  26.726  27.006  1.00  0.00    -0.248 NA
ATOM     44  C   UNL A   1      45.613  24.643  26.028  1.00  0.00     0.031 C 
ATOM     45  C   UNL A   1      41.200  25.276  28.359  1.00  0.00     0.029 A 
ATOM     46  N   UNL A   1      42.590  27.029  28.293  1.00  0.00    -0.354 N 
ATOM     47  C   UNL A   1      46.474  26.725  26.403  1.00  0.00     0.074 A 
ATOM     48  C   UNL A   1      46.680  25.407  25.847  1.00  0.00     0.031 C 
ATOM     49  C   UNL A   1      40.603  26.294  29.003  1.00  0.00     0.029 A 
ATOM     50  C   UNL A   1      41.503  27.445  29.025  1.00  0.00     0.049 A 
ATOM     51  H   UNL A   1      43.349  27.616  28.072  1.00  0.00     0.167 HD
ATOM     52  C   UNL A   1      47.367  27.736  26.301  1.00  0.00     0.034 A 
ATOM     53  C   UNL A   1      41.280  28.614  29.661  1.00  0.00     0.034 A 
ATOM     54  C   UNL A   1      47.157  29.050  26.842  1.00  0.00     0.049 A 
ATOM     55  C   UNL A   1      42.319  29.707  29.576  1.00  0.00     0.074 A 
ATOM     56  C   UNL A   1      47.995  30.149  26.782  1.00  0.00     0.029 A 
ATOM     57  N   UNL A   1      46.030  29.443  27.544  1.00  0.00    -0.354 N 
ATOM     58  N   UNL A   1      43.462  29.717  28.932  1.00  0.00    -0.248 NA
ATOM     59  C   UNL A   1      42.019  30.965  30.277  1.00  0.00     0.031 C 
ATOM     60  C   UNL A   1      47.387  31.200  27.474  1.00  0.00     0.029 A 
ATOM     61  C   UNL A   1      46.149  30.768  27.924  1.00  0.00     0.049 A 
ATOM     62  H   UNL A   1      45.259  28.866  27.744  1.00  0.00     0.167 HD
ATOM     63  C   UNL A   1      43.984  30.995  29.103  1.00  0.00     0.074 A 
ATOM     64  C   UNL A   1      43.029  31.735  29.898  1.00  0.00     0.031 C 
ATOM     65  C   UNL A   1      45.155  31.511  28.651  1.00  0.00     0.034 A 
BRANCH  52  66
ATOM     66  C   UNL A   1      48.647  27.472  25.553  1.00  0.00     0.023 A 
ATOM     67  C   UNL A   1      49.791  27.044  26.258  1.00  0.00     0.012 A 
ATOM     68  C   UNL A   1      48.697  27.576  24.150  1.00  0.00     0.148 A 
ATOM     69  C   UNL A   1      50.971  26.747  25.579  1.00  0.00     0.002 A 
ATOM     70  C   UNL A   1      49.861  27.233  23.476  1.00  0.00     0.091 A 
ATOM     71  F   UNL A   1      47.604  28.004  23.503  1.00  0.00    -0.205 F 
ATOM     72  C   UNL A   1      51.003  26.829  24.189  1.00  0.00     0.022 A 
BRANCH  70  73
ATOM     73  S   UNL A   1      49.983  27.227  21.685  1.00  0.00     0.127 S 
ATOM     74  O   UNL A   1      48.973  26.233  21.323  1.00  0.00    -0.237 OA
ATOM     75  O   UNL A   1      49.629  28.607  21.351  1.00  0.00    -0.237 OA
ATOM     76  O   UNL A   1      51.356  26.854  21.373  1.00  0.00    -0.744 OA
ENDBRANCH  70  73
ENDBRANCH  52  66
BRANCH  53  77
ATOM     77  C   UNL A   1      40.023  28.834  30.434  1.00  0.00     0.023 A 
ATOM     78  C   UNL A   1      39.874  28.252  31.709  1.00  0.00     0.012 A 
ATOM     79  C   UNL A   1      38.955  29.574  29.892  1.00  0.00     0.148 A 
ATOM     80  C   UNL A   1      38.668  28.353  32.403  1.00  0.00     0.002 A 
ATOM     81  C   UNL A   1      37.778  29.723  30.616  1.00  0.00     0.091 A 
ATOM     82  F   UNL A   1      39.106  30.107  28.672  1.00  0.00    -0.205 F 
ATOM     83  C   UNL A   1      37.622  29.095  31.860  1.00  0.00     0.022 A 
BRANCH  81  84
ATOM     84  S   UNL A   1      36.427  30.762  30.047  1.00  0.00     0.127 S 
ATOM     85  O   UNL A   1      35.934  30.006  28.898  1.00  0.00    -0.237 OA
ATOM     86  O   UNL A   1      35.541  30.764  31.212  1.00  0.00    -0.237 OA
ATOM     87  O   UNL A   1      37.028  32.054  29.748  1.00  0.00    -0.744 OA
ENDBRANCH  81  84
ENDBRANCH  53  77
BRANCH  65  88
ATOM     88  C   UNL A   1      45.436  32.967  28.923  1.00  0.00     0.023 A 
ATOM     89  C   UNL A   1      46.330  33.343  29.944  1.00  0.00     0.012 A 
ATOM     90  C   UNL A   1      44.860  33.961  28.107  1.00  0.00     0.148 A 
ATOM     91  C   UNL A   1      46.613  34.689  30.176  1.00  0.00     0.002 A 
ATOM     92  C   UNL A   1      45.191  35.295  28.306  1.00  0.00     0.091 A 
ATOM     93  F   UNL A   1      44.000  33.584  27.148  1.00  0.00    -0.205 F 
ATOM     94  C   UNL A   1      46.054  35.663  29.350  1.00  0.00     0.022 A 
BRANCH  92  95
ATOM     95  S   UNL A   1      44.601  36.605  27.228  1.00  0.00     0.127 S 
ATOM     96  O   UNL A   1      45.846  37.071  26.619  1.00  0.00    -0.237 OA
ATOM     97  O   UNL A   1      43.711  35.881  26.321  1.00  0.00    -0.237 OA
ATOM     98  O   UNL A   1      43.931  37.568  28.091  1.00  0.00    -0.744 OA
ENDBRANCH  92  95
ENDBRANCH  65  88
ENDBRANCH  39  40
ENDBRANCH  32  34
ENDBRANCH  31  32
ENDBRANCH  30  31
ENDBRANCH  29  30
ENDBRANCH  28  29
ENDBRANCH  27  28
ENDBRANCH  26  27
ENDBRANCH  25  26
ENDBRANCH   1  25
TORSDOF 27
ENDMDL
