MODEL 1
REMARK VINA RESULT:      -9.6      0.000      0.000
REMARK SMILES Nc1nc(N2CCOC[C@H]2C(=O)OCCOCCOCCOCCOC(=O)c2ccc(-c3c4nc(c(-c5cccc(S(=O)(=O)[O-])c5F)c5ccc([nH]5)c(-c5cccc(S(=O)(=O)[O-])c5F)c5nc(c(-c6cccc(S(=O)(=O)[O-])c6F)c6ccc3[nH]6)C=C5)C=C4)cc2)ccc1[N+](=O)[O-]
REMARK SMILES IDX 20 1 19 2 18 3 17 4 16 5 15 6 14 7 13 8 11 9 12 10 10 11
REMARK SMILES IDX 5 12 6 13 7 14 9 15 8 16 4 17 2 18 3 19 93 20 92 21 91 22
REMARK SMILES IDX 1 23 94 26 95 27 96 28 21 29 22 30 23 31 24 32 25 33 26 34
REMARK SMILES IDX 27 35 28 36 29 37 90 38 30 39 89 40 31 41 32 42 33 43 83 44
REMARK SMILES IDX 34 45 88 46 82 47 84 48 35 49 87 50 81 51 80 52 36 54 68 55
REMARK SMILES IDX 48 56 67 57 49 58 52 59 66 60 85 61 50 62 51 63 65 65 86 66
REMARK SMILES IDX 53 67 37 68 38 69 46 70 39 71 41 72 47 73 40 74 42 75 43 76
REMARK SMILES IDX 44 77 45 78 69 79 70 80 78 81 71 82 73 83 79 84 72 85 74 86
REMARK SMILES IDX 75 87 76 88 77 89 54 90 55 91 63 92 56 93 58 94 64 95 57 96
REMARK SMILES IDX 59 97 60 98 61 99 62 100
REMARK H PARENT 1 24 1 25 84 53 52 64
REMARK Flexibility Score: inf
ROOT
ATOM      1  C   UNL A   1      35.698  22.257  25.550  1.00  0.00     0.188 C 
ENDROOT
BRANCH   1   2
ATOM      2  O   UNL A   1      34.449  21.621  25.733  1.00  0.00    -0.377 OA
BRANCH   2   3
ATOM      3  C   UNL A   1      33.710  21.237  24.595  1.00  0.00     0.188 C 
BRANCH   3   4
ATOM      4  C   UNL A   1      32.323  20.639  24.850  1.00  0.00     0.188 C 
BRANCH   4   5
ATOM      5  O   UNL A   1      31.547  21.102  25.939  1.00  0.00    -0.376 OA
BRANCH   5   6
ATOM      6  C   UNL A   1      30.656  22.196  25.788  1.00  0.00     0.202 C 
BRANCH   6   7
ATOM      7  C   UNL A   1      30.974  23.650  26.197  1.00  0.00     0.261 C 
BRANCH   7   8
ATOM      8  O   UNL A   1      32.346  24.037  26.366  1.00  0.00    -0.462 OA
BRANCH   8   9
ATOM      9  C   UNL A   1      32.895  24.836  25.418  1.00  0.00     0.331 C 
ATOM     10  O   UNL A   1      34.016  25.333  25.526  1.00  0.00    -0.250 OA
BRANCH   9  11
ATOM     11  C   UNL A   1      31.996  25.139  24.202  1.00  0.00     0.220 C 
ATOM     12  N   UNL A   1      32.129  26.438  23.486  1.00  0.00    -0.339 N 
ATOM     13  C   UNL A   1      33.393  26.649  22.766  1.00  0.00     0.147 C 
ATOM     14  C   UNL A   1      33.678  25.442  21.864  1.00  0.00     0.181 C 
ATOM     15  C   UNL A   1      32.312  24.015  23.196  1.00  0.00     0.197 C 
ATOM     16  O   UNL A   1      33.598  24.195  22.572  1.00  0.00    -0.377 OA
BRANCH  12  17
ATOM     17  C   UNL A   1      31.095  27.346  23.372  1.00  0.00     0.132 A 
ATOM     18  C   UNL A   1      30.252  29.291  22.349  1.00  0.00     0.204 A 
ATOM     19  N   UNL A   1      31.309  28.529  22.744  1.00  0.00    -0.207 NA
ATOM     20  C   UNL A   1      28.946  28.955  22.696  1.00  0.00     0.311 A 
ATOM     21  C   UNL A   1      28.722  27.822  23.471  1.00  0.00     0.093 A 
ATOM     22  C   UNL A   1      29.808  27.014  23.798  1.00  0.00     0.054 A 
BRANCH  18  23
ATOM     23  N   UNL A   1      30.593  30.427  21.636  1.00  0.00    -0.378 N 
ATOM     24  H   UNL A   1      30.028  31.232  21.692  1.00  0.00     0.158 HD
ATOM     25  H   UNL A   1      31.401  30.432  21.074  1.00  0.00     0.158 HD
ENDBRANCH  18  23
BRANCH  20  26
ATOM     26  N   UNL A   1      27.803  29.720  22.215  1.00  0.00     0.066 N 
ATOM     27  O   UNL A   1      26.895  29.961  23.025  1.00  0.00    -0.258 OA
ATOM     28  O   UNL A   1      27.777  30.053  21.020  1.00  0.00    -0.258 OA
ENDBRANCH  20  26
ENDBRANCH  12  17
ENDBRANCH   9  11
ENDBRANCH   8   9
ENDBRANCH   7   8
ENDBRANCH   6   7
ENDBRANCH   5   6
ENDBRANCH   4   5
ENDBRANCH   3   4
ENDBRANCH   2   3
ENDBRANCH   1   2
BRANCH   1  29
ATOM     29  C   UNL A   1      36.871  21.497  24.907  1.00  0.00     0.188 C 
BRANCH  29  30
ATOM     30  O   UNL A   1      38.162  22.038  25.152  1.00  0.00    -0.376 OA
BRANCH  30  31
ATOM     31  C   UNL A   1      38.999  21.424  26.120  1.00  0.00     0.202 C 
BRANCH  31  32
ATOM     32  C   UNL A   1      39.546  20.019  25.820  1.00  0.00     0.261 C 
BRANCH  32  33
ATOM     33  O   UNL A   1      40.622  19.567  26.650  1.00  0.00    -0.460 OA
BRANCH  33  34
ATOM     34  C   UNL A   1      41.870  19.640  26.144  1.00  0.00     0.338 C 
ATOM     35  O   UNL A   1      42.425  18.820  25.430  1.00  0.00    -0.246 OA
BRANCH  34  36
ATOM     36  C   UNL A   1      42.390  20.986  26.444  1.00  0.00     0.060 A 
ATOM     37  C   UNL A   1      42.593  21.350  27.781  1.00  0.00     0.016 A 
ATOM     38  C   UNL A   1      42.705  21.869  25.407  1.00  0.00     0.016 A 
ATOM     39  C   UNL A   1      43.078  22.618  28.088  1.00  0.00     0.010 A 
ATOM     40  C   UNL A   1      43.169  23.148  25.719  1.00  0.00     0.010 A 
ATOM     41  C   UNL A   1      43.320  23.538  27.060  1.00  0.00    -0.014 A 
BRANCH  41  42
ATOM     42  C   UNL A   1      43.509  24.968  27.397  1.00  0.00     0.031 A 
ATOM     43  C   UNL A   1      44.886  25.550  27.250  1.00  0.00     0.074 A 
ATOM     44  C   UNL A   1      42.483  25.733  27.808  1.00  0.00     0.049 A 
ATOM     45  N   UNL A   1      45.308  26.762  27.494  1.00  0.00    -0.248 NA
ATOM     46  C   UNL A   1      45.933  24.636  26.760  1.00  0.00     0.031 C 
ATOM     47  C   UNL A   1      41.101  25.286  27.965  1.00  0.00     0.029 A 
ATOM     48  N   UNL A   1      42.458  27.053  28.184  1.00  0.00    -0.354 N 
ATOM     49  C   UNL A   1      46.668  26.752  27.211  1.00  0.00     0.074 A 
ATOM     50  C   UNL A   1      47.007  25.408  26.800  1.00  0.00     0.031 C 
ATOM     51  C   UNL A   1      40.364  26.311  28.425  1.00  0.00     0.029 A 
ATOM     52  C   UNL A   1      41.226  27.475  28.619  1.00  0.00     0.049 A 
ATOM     53  H   UNL A   1      43.248  27.639  28.146  1.00  0.00     0.167 HD
ATOM     54  C   UNL A   1      47.554  27.773  27.272  1.00  0.00     0.034 A 
ATOM     55  C   UNL A   1      40.847  28.664  29.132  1.00  0.00     0.034 A 
ATOM     56  C   UNL A   1      47.212  29.105  27.687  1.00  0.00     0.049 A 
ATOM     57  C   UNL A   1      41.867  29.769  29.250  1.00  0.00     0.074 A 
ATOM     58  C   UNL A   1      48.027  30.219  27.763  1.00  0.00     0.029 A 
ATOM     59  N   UNL A   1      45.953  29.500  28.115  1.00  0.00    -0.354 N 
ATOM     60  N   UNL A   1      43.128  29.775  28.889  1.00  0.00    -0.248 NA
ATOM     61  C   UNL A   1      41.399  31.043  29.817  1.00  0.00     0.031 C 
ATOM     62  C   UNL A   1      47.270  31.278  28.277  1.00  0.00     0.029 A 
ATOM     63  C   UNL A   1      45.970  30.836  28.474  1.00  0.00     0.049 A 
ATOM     64  H   UNL A   1      45.162  28.915  28.157  1.00  0.00     0.167 HD
ATOM     65  C   UNL A   1      43.592  31.063  29.145  1.00  0.00     0.074 A 
ATOM     66  C   UNL A   1      42.472  31.811  29.676  1.00  0.00     0.031 C 
ATOM     67  C   UNL A   1      44.835  31.578  28.961  1.00  0.00     0.034 A 
BRANCH  54  68
ATOM     68  C   UNL A   1      48.979  27.475  26.880  1.00  0.00     0.023 A 
ATOM     69  C   UNL A   1      49.889  27.000  27.848  1.00  0.00     0.012 A 
ATOM     70  C   UNL A   1      49.415  27.657  25.554  1.00  0.00     0.148 A 
ATOM     71  C   UNL A   1      51.220  26.755  27.512  1.00  0.00     0.002 A 
ATOM     72  C   UNL A   1      50.730  27.361  25.216  1.00  0.00     0.091 A 
ATOM     73  F   UNL A   1      48.544  28.133  24.653  1.00  0.00    -0.205 F 
ATOM     74  C   UNL A   1      51.638  26.927  26.195  1.00  0.00     0.022 A 
BRANCH  72  75
ATOM     75  S   UNL A   1      51.343  27.474  23.532  1.00  0.00     0.127 S 
ATOM     76  O   UNL A   1      51.418  28.923  23.342  1.00  0.00    -0.237 OA
ATOM     77  O   UNL A   1      52.640  26.805  23.633  1.00  0.00    -0.237 OA
ATOM     78  O   UNL A   1      50.366  26.785  22.701  1.00  0.00    -0.744 OA
ENDBRANCH  72  75
ENDBRANCH  54  68
BRANCH  55  79
ATOM     79  C   UNL A   1      39.431  28.886  29.538  1.00  0.00     0.023 A 
ATOM     80  C   UNL A   1      39.031  28.586  30.854  1.00  0.00     0.012 A 
ATOM     81  C   UNL A   1      38.483  29.402  28.633  1.00  0.00     0.148 A 
ATOM     82  C   UNL A   1      37.706  28.766  31.254  1.00  0.00     0.002 A 
ATOM     83  C   UNL A   1      37.178  29.629  29.052  1.00  0.00     0.091 A 
ATOM     84  F   UNL A   1      38.881  29.669  27.381  1.00  0.00    -0.205 F 
ATOM     85  C   UNL A   1      36.782  29.296  30.357  1.00  0.00     0.022 A 
BRANCH  83  86
ATOM     86  S   UNL A   1      35.949  30.419  28.006  1.00  0.00     0.127 S 
ATOM     87  O   UNL A   1      36.040  29.621  26.785  1.00  0.00    -0.237 OA
ATOM     88  O   UNL A   1      34.726  30.221  28.783  1.00  0.00    -0.237 OA
ATOM     89  O   UNL A   1      36.368  31.808  27.881  1.00  0.00    -0.744 OA
ENDBRANCH  83  86
ENDBRANCH  55  79
BRANCH  67  90
ATOM     90  C   UNL A   1      45.044  33.035  29.288  1.00  0.00     0.023 A 
ATOM     91  C   UNL A   1      45.377  33.428  30.600  1.00  0.00     0.012 A 
ATOM     92  C   UNL A   1      44.978  34.010  28.272  1.00  0.00     0.148 A 
ATOM     93  C   UNL A   1      45.601  34.771  30.903  1.00  0.00     0.002 A 
ATOM     94  C   UNL A   1      45.256  35.338  28.570  1.00  0.00     0.091 A 
ATOM     95  F   UNL A   1      44.644  33.620  27.033  1.00  0.00    -0.205 F 
ATOM     96  C   UNL A   1      45.553  35.723  29.887  1.00  0.00     0.022 A 
BRANCH  94  97
ATOM     97  S   UNL A   1      45.318  36.617  27.310  1.00  0.00     0.127 S 
ATOM     98  O   UNL A   1      44.209  37.482  27.710  1.00  0.00    -0.237 OA
ATOM     99  O   UNL A   1      46.647  37.192  27.518  1.00  0.00    -0.237 OA
ATOM    100  O   UNL A   1      45.148  35.935  26.034  1.00  0.00    -0.744 OA
ENDBRANCH  94  97
ENDBRANCH  67  90
ENDBRANCH  41  42
ENDBRANCH  34  36
ENDBRANCH  33  34
ENDBRANCH  32  33
ENDBRANCH  31  32
ENDBRANCH  30  31
ENDBRANCH  29  30
ENDBRANCH   1  29
TORSDOF 26
ENDMDL
MODEL 2
REMARK VINA RESULT:      -9.4      2.143      2.964
REMARK SMILES Nc1nc(N2CCOC[C@H]2C(=O)OCCOCCOCCOCCOC(=O)c2ccc(-c3c4nc(c(-c5cccc(S(=O)(=O)[O-])c5F)c5ccc([nH]5)c(-c5cccc(S(=O)(=O)[O-])c5F)c5nc(c(-c6cccc(S(=O)(=O)[O-])c6F)c6ccc3[nH]6)C=C5)C=C4)cc2)ccc1[N+](=O)[O-]
REMARK SMILES IDX 20 1 19 2 18 3 17 4 16 5 15 6 14 7 13 8 11 9 12 10 10 11
REMARK SMILES IDX 5 12 6 13 7 14 9 15 8 16 4 17 2 18 3 19 93 20 92 21 91 22
REMARK SMILES IDX 1 23 94 26 95 27 96 28 21 29 22 30 23 31 24 32 25 33 26 34
REMARK SMILES IDX 27 35 28 36 29 37 90 38 30 39 89 40 31 41 32 42 33 43 83 44
REMARK SMILES IDX 34 45 88 46 82 47 84 48 35 49 87 50 81 51 80 52 36 54 68 55
REMARK SMILES IDX 48 56 67 57 49 58 52 59 66 60 85 61 50 62 51 63 65 65 86 66
REMARK SMILES IDX 53 67 37 68 38 69 46 70 39 71 41 72 47 73 40 74 42 75 43 76
REMARK SMILES IDX 44 77 45 78 69 79 70 80 78 81 71 82 73 83 79 84 72 85 74 86
REMARK SMILES IDX 75 87 76 88 77 89 54 90 55 91 63 92 56 93 58 94 64 95 57 96
REMARK SMILES IDX 59 97 60 98 61 99 62 100
REMARK H PARENT 1 24 1 25 84 53 52 64
REMARK Flexibility Score: inf
ROOT
ATOM      1  C   UNL A   1      36.287  22.477  25.711  1.00  0.00     0.188 C 
ENDROOT
BRANCH   1   2
ATOM      2  O   UNL A   1      34.939  22.103  25.911  1.00  0.00    -0.377 OA
BRANCH   2   3
ATOM      3  C   UNL A   1      34.263  21.422  24.877  1.00  0.00     0.188 C 
BRANCH   3   4
ATOM      4  C   UNL A   1      32.990  20.669  25.273  1.00  0.00     0.188 C 
BRANCH   4   5
ATOM      5  O   UNL A   1      31.725  21.266  25.061  1.00  0.00    -0.376 OA
BRANCH   5   6
ATOM      6  C   UNL A   1      31.588  22.413  24.238  1.00  0.00     0.202 C 
BRANCH   6   7
ATOM      7  C   UNL A   1      31.026  23.771  24.711  1.00  0.00     0.261 C 
BRANCH   7   8
ATOM      8  O   UNL A   1      30.963  24.858  23.775  1.00  0.00    -0.462 OA
BRANCH   8   9
ATOM      9  C   UNL A   1      31.827  25.887  23.948  1.00  0.00     0.331 C 
ATOM     10  O   UNL A   1      33.042  25.782  23.770  1.00  0.00    -0.250 OA
BRANCH   9  11
ATOM     11  C   UNL A   1      31.200  27.206  24.445  1.00  0.00     0.220 C 
ATOM     12  N   UNL A   1      31.951  28.484  24.305  1.00  0.00    -0.339 N 
ATOM     13  C   UNL A   1      32.167  28.957  22.930  1.00  0.00     0.147 C 
ATOM     14  C   UNL A   1      30.832  28.967  22.174  1.00  0.00     0.181 C 
ATOM     15  C   UNL A   1      29.892  27.341  23.641  1.00  0.00     0.197 C 
ATOM     16  O   UNL A   1      30.136  27.713  22.270  1.00  0.00    -0.377 OA
BRANCH  12  17
ATOM     17  C   UNL A   1      32.312  29.269  25.382  1.00  0.00     0.132 A 
ATOM     18  C   UNL A   1      34.021  30.043  26.802  1.00  0.00     0.204 A 
ATOM     19  N   UNL A   1      33.526  29.095  25.961  1.00  0.00    -0.207 NA
ATOM     20  C   UNL A   1      33.252  31.134  27.200  1.00  0.00     0.311 A 
ATOM     21  C   UNL A   1      31.946  31.247  26.733  1.00  0.00     0.093 A 
ATOM     22  C   UNL A   1      31.486  30.309  25.811  1.00  0.00     0.054 A 
BRANCH  18  23
ATOM     23  N   UNL A   1      35.306  29.800  27.255  1.00  0.00    -0.378 N 
ATOM     24  H   UNL A   1      35.825  29.049  26.886  1.00  0.00     0.158 HD
ATOM     25  H   UNL A   1      35.703  30.380  27.945  1.00  0.00     0.158 HD
ENDBRANCH  18  23
BRANCH  20  26
ATOM     26  N   UNL A   1      33.797  32.193  28.038  1.00  0.00     0.066 N 
ATOM     27  O   UNL A   1      34.556  31.859  28.961  1.00  0.00    -0.258 OA
ATOM     28  O   UNL A   1      33.445  33.362  27.815  1.00  0.00    -0.258 OA
ENDBRANCH  20  26
ENDBRANCH  12  17
ENDBRANCH   9  11
ENDBRANCH   8   9
ENDBRANCH   7   8
ENDBRANCH   6   7
ENDBRANCH   5   6
ENDBRANCH   4   5
ENDBRANCH   3   4
ENDBRANCH   2   3
ENDBRANCH   1   2
BRANCH   1  29
ATOM     29  C   UNL A   1      37.221  21.598  24.860  1.00  0.00     0.188 C 
BRANCH  29  30
ATOM     30  O   UNL A   1      38.612  21.828  25.037  1.00  0.00    -0.376 OA
BRANCH  30  31
ATOM     31  C   UNL A   1      39.253  21.341  26.206  1.00  0.00     0.202 C 
BRANCH  31  32
ATOM     32  C   UNL A   1      39.940  19.967  26.137  1.00  0.00     0.261 C 
BRANCH  32  33
ATOM     33  O   UNL A   1      41.228  19.872  26.755  1.00  0.00    -0.460 OA
BRANCH  33  34
ATOM     34  C   UNL A   1      42.310  20.002  25.961  1.00  0.00     0.338 C 
ATOM     35  O   UNL A   1      42.671  19.242  25.076  1.00  0.00    -0.246 OA
BRANCH  34  36
ATOM     36  C   UNL A   1      42.887  21.334  26.215  1.00  0.00     0.060 A 
ATOM     37  C   UNL A   1      43.314  21.650  27.511  1.00  0.00     0.016 A 
ATOM     38  C   UNL A   1      43.034  22.252  25.171  1.00  0.00     0.016 A 
ATOM     39  C   UNL A   1      43.856  22.905  27.776  1.00  0.00     0.010 A 
ATOM     40  C   UNL A   1      43.556  23.517  25.444  1.00  0.00     0.010 A 
ATOM     41  C   UNL A   1      43.933  23.859  26.754  1.00  0.00    -0.014 A 
BRANCH  41  42
ATOM     42  C   UNL A   1      44.190  25.275  27.103  1.00  0.00     0.031 A 
ATOM     43  C   UNL A   1      45.584  25.804  26.918  1.00  0.00     0.074 A 
ATOM     44  C   UNL A   1      43.210  26.075  27.556  1.00  0.00     0.049 A 
ATOM     45  N   UNL A   1      46.062  26.995  27.164  1.00  0.00    -0.248 NA
ATOM     46  C   UNL A   1      46.578  24.856  26.384  1.00  0.00     0.031 C 
ATOM     47  C   UNL A   1      41.816  25.681  27.752  1.00  0.00     0.029 A 
ATOM     48  N   UNL A   1      43.250  27.389  27.949  1.00  0.00    -0.354 N 
ATOM     49  C   UNL A   1      47.411  26.934  26.838  1.00  0.00     0.074 A 
ATOM     50  C   UNL A   1      47.683  25.584  26.399  1.00  0.00     0.031 C 
ATOM     51  C   UNL A   1      41.135  26.729  28.248  1.00  0.00     0.029 A 
ATOM     52  C   UNL A   1      42.050  27.855  28.429  1.00  0.00     0.049 A 
ATOM     53  H   UNL A   1      44.061  27.944  27.893  1.00  0.00     0.167 HD
ATOM     54  C   UNL A   1      48.339  27.918  26.883  1.00  0.00     0.034 A 
ATOM     55  C   UNL A   1      41.736  29.051  28.969  1.00  0.00     0.034 A 
ATOM     56  C   UNL A   1      48.065  29.257  27.326  1.00  0.00     0.049 A 
ATOM     57  C   UNL A   1      42.802  30.112  29.067  1.00  0.00     0.074 A 
ATOM     58  C   UNL A   1      48.926  30.336  27.390  1.00  0.00     0.029 A 
ATOM     59  N   UNL A   1      46.837  29.695  27.799  1.00  0.00    -0.354 N 
ATOM     60  N   UNL A   1      44.051  30.073  28.667  1.00  0.00    -0.248 NA
ATOM     61  C   UNL A   1      42.405  31.396  29.666  1.00  0.00     0.031 C 
ATOM     62  C   UNL A   1      48.229  31.417  27.941  1.00  0.00     0.029 A 
ATOM     63  C   UNL A   1      46.919  31.024  28.174  1.00  0.00     0.049 A 
ATOM     64  H   UNL A   1      46.025  29.142  27.859  1.00  0.00     0.167 HD
ATOM     65  C   UNL A   1      44.575  31.337  28.923  1.00  0.00     0.074 A 
ATOM     66  C   UNL A   1      43.503  32.122  29.500  1.00  0.00     0.031 C 
ATOM     67  C   UNL A   1      45.831  31.804  28.707  1.00  0.00     0.034 A 
BRANCH  54  68
ATOM     68  C   UNL A   1      49.738  27.569  26.442  1.00  0.00     0.023 A 
ATOM     69  C   UNL A   1      50.665  27.063  27.378  1.00  0.00     0.012 A 
ATOM     70  C   UNL A   1      50.133  27.732  25.101  1.00  0.00     0.148 A 
ATOM     71  C   UNL A   1      51.973  26.771  26.996  1.00  0.00     0.002 A 
ATOM     72  C   UNL A   1      51.423  27.389  24.717  1.00  0.00     0.091 A 
ATOM     73  F   UNL A   1      49.248  28.237  24.229  1.00  0.00    -0.205 F 
ATOM     74  C   UNL A   1      52.350  26.925  25.665  1.00  0.00     0.022 A 
BRANCH  72  75
ATOM     75  S   UNL A   1      51.980  27.477  23.012  1.00  0.00     0.127 S 
ATOM     76  O   UNL A   1      50.984  26.648  22.333  1.00  0.00    -0.237 OA
ATOM     77  O   UNL A   1      51.874  28.909  22.729  1.00  0.00    -0.237 OA
ATOM     78  O   UNL A   1      53.339  26.955  23.006  1.00  0.00    -0.744 OA
ENDBRANCH  72  75
ENDBRANCH  54  68
BRANCH  55  79
ATOM     79  C   UNL A   1      40.343  29.324  29.423  1.00  0.00     0.023 A 
ATOM     80  C   UNL A   1      39.395  29.806  28.501  1.00  0.00     0.012 A 
ATOM     81  C   UNL A   1      39.951  29.099  30.757  1.00  0.00     0.148 A 
ATOM     82  C   UNL A   1      38.090  30.089  28.905  1.00  0.00     0.002 A 
ATOM     83  C   UNL A   1      38.636  29.331  31.141  1.00  0.00     0.091 A 
ATOM     84  F   UNL A   1      40.873  28.651  31.622  1.00  0.00    -0.205 F 
ATOM     85  C   UNL A   1      37.708  29.842  30.222  1.00  0.00     0.022 A 
BRANCH  83  86
ATOM     86  S   UNL A   1      38.022  28.931  32.781  1.00  0.00     0.127 S 
ATOM     87  O   UNL A   1      36.654  29.439  32.720  1.00  0.00    -0.237 OA
ATOM     88  O   UNL A   1      38.139  27.473  32.795  1.00  0.00    -0.237 OA
ATOM     89  O   UNL A   1      38.906  29.616  33.714  1.00  0.00    -0.744 OA
ENDBRANCH  83  86
ENDBRANCH  55  79
BRANCH  67  90
ATOM     90  C   UNL A   1      46.109  33.248  29.045  1.00  0.00     0.023 A 
ATOM     91  C   UNL A   1      46.619  33.594  30.312  1.00  0.00     0.012 A 
ATOM     92  C   UNL A   1      45.929  34.254  28.076  1.00  0.00     0.148 A 
ATOM     93  C   UNL A   1      46.906  34.923  30.622  1.00  0.00     0.002 A 
ATOM     94  C   UNL A   1      46.270  35.568  28.372  1.00  0.00     0.091 A 
ATOM     95  F   UNL A   1      45.428  33.909  26.880  1.00  0.00    -0.205 F 
ATOM     96  C   UNL A   1      46.743  35.907  29.649  1.00  0.00     0.022 A 
BRANCH  94  97
ATOM     97  S   UNL A   1      46.190  36.885  27.152  1.00  0.00     0.127 S 
ATOM     98  O   UNL A   1      44.753  36.966  26.896  1.00  0.00    -0.237 OA
ATOM     99  O   UNL A   1      46.744  38.021  27.888  1.00  0.00    -0.237 OA
ATOM    100  O   UNL A   1      47.000  36.441  26.026  1.00  0.00    -0.744 OA
ENDBRANCH  94  97
ENDBRANCH  67  90
ENDBRANCH  41  42
ENDBRANCH  34  36
ENDBRANCH  33  34
ENDBRANCH  32  33
ENDBRANCH  31  32
ENDBRANCH  30  31
ENDBRANCH  29  30
ENDBRANCH   1  29
TORSDOF 26
ENDMDL
MODEL 3
REMARK VINA RESULT:      -8.6      3.083      8.429
REMARK SMILES Nc1nc(N2CCOC[C@H]2C(=O)OCCOCCOCCOCCOC(=O)c2ccc(-c3c4nc(c(-c5cccc(S(=O)(=O)[O-])c5F)c5ccc([nH]5)c(-c5cccc(S(=O)(=O)[O-])c5F)c5nc(c(-c6cccc(S(=O)(=O)[O-])c6F)c6ccc3[nH]6)C=C5)C=C4)cc2)ccc1[N+](=O)[O-]
REMARK SMILES IDX 20 1 19 2 18 3 17 4 16 5 15 6 14 7 13 8 11 9 12 10 10 11
REMARK SMILES IDX 5 12 6 13 7 14 9 15 8 16 4 17 2 18 3 19 93 20 92 21 91 22
REMARK SMILES IDX 1 23 94 26 95 27 96 28 21 29 22 30 23 31 24 32 25 33 26 34
REMARK SMILES IDX 27 35 28 36 29 37 90 38 30 39 89 40 31 41 32 42 33 43 83 44
REMARK SMILES IDX 34 45 88 46 82 47 84 48 35 49 87 50 81 51 80 52 36 54 68 55
REMARK SMILES IDX 48 56 67 57 49 58 52 59 66 60 85 61 50 62 51 63 65 65 86 66
REMARK SMILES IDX 53 67 37 68 38 69 46 70 39 71 41 72 47 73 40 74 42 75 43 76
REMARK SMILES IDX 44 77 45 78 69 79 70 80 78 81 71 82 73 83 79 84 72 85 74 86
REMARK SMILES IDX 75 87 76 88 77 89 54 90 55 91 63 92 56 93 58 94 64 95 57 96
REMARK SMILES IDX 59 97 60 98 61 99 62 100
REMARK H PARENT 1 24 1 25 84 53 52 64
REMARK Flexibility Score: inf
ROOT
ATOM      1  C   UNL A   1      41.811  24.526  27.809  1.00  0.00     0.188 C 
ENDROOT
BRANCH   1   2
ATOM      2  O   UNL A   1      40.498  24.584  27.290  1.00  0.00    -0.377 OA
BRANCH   2   3
ATOM      3  C   UNL A   1      39.650  23.471  27.465  1.00  0.00     0.188 C 
BRANCH   3   4
ATOM      4  C   UNL A   1      38.857  23.015  26.235  1.00  0.00     0.188 C 
BRANCH   4   5
ATOM      5  O   UNL A   1      38.884  21.656  25.846  1.00  0.00    -0.376 OA
BRANCH   5   6
ATOM      6  C   UNL A   1      37.815  21.087  25.105  1.00  0.00     0.202 C 
BRANCH   6   7
ATOM      7  C   UNL A   1      36.907  21.869  24.132  1.00  0.00     0.261 C 
BRANCH   7   8
ATOM      8  O   UNL A   1      35.542  22.110  24.504  1.00  0.00    -0.462 OA
BRANCH   8   9
ATOM      9  C   UNL A   1      35.033  23.342  24.262  1.00  0.00     0.331 C 
ATOM     10  O   UNL A   1      35.133  23.909  23.172  1.00  0.00    -0.250 OA
BRANCH   9  11
ATOM     11  C   UNL A   1      34.360  24.032  25.467  1.00  0.00     0.220 C 
ATOM     12  N   UNL A   1      33.041  24.702  25.297  1.00  0.00    -0.339 N 
ATOM     13  C   UNL A   1      31.903  23.819  25.005  1.00  0.00     0.147 C 
ATOM     14  C   UNL A   1      31.862  22.678  26.029  1.00  0.00     0.181 C 
ATOM     15  C   UNL A   1      34.185  22.910  26.508  1.00  0.00     0.197 C 
ATOM     16  O   UNL A   1      33.124  22.002  26.151  1.00  0.00    -0.377 OA
BRANCH  12  17
ATOM     17  C   UNL A   1      32.843  26.048  25.531  1.00  0.00     0.132 A 
ATOM     18  C   UNL A   1      32.030  27.725  26.969  1.00  0.00     0.204 A 
ATOM     19  N   UNL A   1      32.002  26.440  26.520  1.00  0.00    -0.207 NA
ATOM     20  C   UNL A   1      32.807  28.695  26.342  1.00  0.00     0.311 A 
ATOM     21  C   UNL A   1      33.561  28.342  25.227  1.00  0.00     0.093 A 
ATOM     22  C   UNL A   1      33.580  27.006  24.833  1.00  0.00     0.054 A 
BRANCH  18  23
ATOM     23  N   UNL A   1      31.196  27.980  28.043  1.00  0.00    -0.378 N 
ATOM     24  H   UNL A   1      30.474  28.645  27.960  1.00  0.00     0.158 HD
ATOM     25  H   UNL A   1      31.323  27.497  28.891  1.00  0.00     0.158 HD
ENDBRANCH  18  23
BRANCH  20  26
ATOM     26  N   UNL A   1      32.903  30.054  26.859  1.00  0.00     0.066 N 
ATOM     27  O   UNL A   1      34.037  30.494  27.103  1.00  0.00    -0.258 OA
ATOM     28  O   UNL A   1      31.853  30.682  27.067  1.00  0.00    -0.258 OA
ENDBRANCH  20  26
ENDBRANCH  12  17
ENDBRANCH   9  11
ENDBRANCH   8   9
ENDBRANCH   7   8
ENDBRANCH   6   7
ENDBRANCH   5   6
ENDBRANCH   4   5
ENDBRANCH   3   4
ENDBRANCH   2   3
ENDBRANCH   1   2
BRANCH   1  29
ATOM     29  C   UNL A   1      42.338  23.231  28.450  1.00  0.00     0.188 C 
BRANCH  29  30
ATOM     30  O   UNL A   1      43.406  22.595  27.761  1.00  0.00    -0.376 OA
BRANCH  30  31
ATOM     31  C   UNL A   1      43.145  21.944  26.527  1.00  0.00     0.202 C 
BRANCH  31  32
ATOM     32  C   UNL A   1      43.198  22.782  25.239  1.00  0.00     0.261 C 
BRANCH  32  33
ATOM     33  O   UNL A   1      44.501  23.047  24.709  1.00  0.00    -0.460 OA
BRANCH  33  34
ATOM     34  C   UNL A   1      45.532  23.077  25.578  1.00  0.00     0.338 C 
ATOM     35  O   UNL A   1      46.308  22.171  25.833  1.00  0.00    -0.246 OA
BRANCH  34  36
ATOM     36  C   UNL A   1      45.684  24.471  26.033  1.00  0.00     0.060 A 
ATOM     37  C   UNL A   1      46.013  24.712  27.373  1.00  0.00     0.016 A 
ATOM     38  C   UNL A   1      45.536  25.529  25.132  1.00  0.00     0.016 A 
ATOM     39  C   UNL A   1      46.156  26.021  27.827  1.00  0.00     0.010 A 
ATOM     40  C   UNL A   1      45.657  26.840  25.595  1.00  0.00     0.010 A 
ATOM     41  C   UNL A   1      45.929  27.090  26.951  1.00  0.00    -0.014 A 
BRANCH  41  42
ATOM     42  C   UNL A   1      45.754  28.453  27.501  1.00  0.00     0.031 A 
ATOM     43  C   UNL A   1      44.406  28.822  28.054  1.00  0.00     0.074 A 
ATOM     44  C   UNL A   1      46.768  29.336  27.525  1.00  0.00     0.049 A 
ATOM     45  N   UNL A   1      44.000  29.949  28.574  1.00  0.00    -0.248 NA
ATOM     46  C   UNL A   1      43.373  27.772  28.012  1.00  0.00     0.031 C 
ATOM     47  C   UNL A   1      48.123  29.083  27.041  1.00  0.00     0.029 A 
ATOM     48  N   UNL A   1      46.800  30.634  27.966  1.00  0.00    -0.354 N 
ATOM     49  C   UNL A   1      42.663  29.754  28.899  1.00  0.00     0.074 A 
ATOM     50  C   UNL A   1      42.319  28.408  28.496  1.00  0.00     0.031 C 
ATOM     51  C   UNL A   1      48.853  30.202  27.195  1.00  0.00     0.029 A 
ATOM     52  C   UNL A   1      48.009  31.253  27.760  1.00  0.00     0.049 A 
ATOM     53  H   UNL A   1      46.031  31.080  28.389  1.00  0.00     0.167 HD
ATOM     54  C   UNL A   1      41.801  30.611  29.494  1.00  0.00     0.034 A 
ATOM     55  C   UNL A   1      48.381  32.530  27.989  1.00  0.00     0.034 A 
ATOM     56  C   UNL A   1      42.148  31.949  29.887  1.00  0.00     0.049 A 
ATOM     57  C   UNL A   1      47.385  33.485  28.595  1.00  0.00     0.074 A 
ATOM     58  C   UNL A   1      41.359  32.893  30.517  1.00  0.00     0.029 A 
ATOM     59  N   UNL A   1      43.383  32.541  29.669  1.00  0.00    -0.354 N 
ATOM     60  N   UNL A   1      46.153  33.262  28.985  1.00  0.00    -0.248 NA
ATOM     61  C   UNL A   1      47.844  34.864  28.821  1.00  0.00     0.031 C 
ATOM     62  C   UNL A   1      42.105  34.070  30.643  1.00  0.00     0.029 A 
ATOM     63  C   UNL A   1      43.375  33.843  30.135  1.00  0.00     0.049 A 
ATOM     64  H   UNL A   1      44.154  32.099  29.244  1.00  0.00     0.167 HD
ATOM     65  C   UNL A   1      45.705  34.456  29.542  1.00  0.00     0.074 A 
ATOM     66  C   UNL A   1      46.804  35.395  29.451  1.00  0.00     0.031 C 
ATOM     67  C   UNL A   1      44.492  34.752  30.076  1.00  0.00     0.034 A 
BRANCH  54  68
ATOM     68  C   UNL A   1      40.401  30.116  29.749  1.00  0.00     0.023 A 
ATOM     69  C   UNL A   1      39.478  30.039  28.685  1.00  0.00     0.012 A 
ATOM     70  C   UNL A   1      40.000  29.720  31.039  1.00  0.00     0.148 A 
ATOM     71  C   UNL A   1      38.167  29.619  28.909  1.00  0.00     0.002 A 
ATOM     72  C   UNL A   1      38.708  29.253  31.245  1.00  0.00     0.091 A 
ATOM     73  F   UNL A   1      40.882  29.823  32.044  1.00  0.00    -0.205 F 
ATOM     74  C   UNL A   1      37.785  29.218  30.187  1.00  0.00     0.022 A 
BRANCH  72  75
ATOM     75  S   UNL A   1      38.144  28.640  32.836  1.00  0.00     0.127 S 
ATOM     76  O   UNL A   1      38.406  27.207  32.709  1.00  0.00    -0.237 OA
ATOM     77  O   UNL A   1      39.029  29.342  33.766  1.00  0.00    -0.237 OA
ATOM     78  O   UNL A   1      36.740  29.013  32.935  1.00  0.00    -0.744 OA
ENDBRANCH  72  75
ENDBRANCH  54  68
BRANCH  55  79
ATOM     79  C   UNL A   1      49.770  32.970  27.679  1.00  0.00     0.023 A 
ATOM     80  C   UNL A   1      50.778  32.820  28.651  1.00  0.00     0.012 A 
ATOM     81  C   UNL A   1      50.100  33.525  26.428  1.00  0.00     0.148 A 
ATOM     82  C   UNL A   1      52.083  33.244  28.394  1.00  0.00     0.002 A 
ATOM     83  C   UNL A   1      51.412  33.895  26.158  1.00  0.00     0.091 A 
ATOM     84  F   UNL A   1      49.123  33.671  25.521  1.00  0.00    -0.205 F 
ATOM     85  C   UNL A   1      52.402  33.771  27.145  1.00  0.00     0.022 A 
BRANCH  83  86
ATOM     86  S   UNL A   1      51.942  34.472  24.541  1.00  0.00     0.127 S 
ATOM     87  O   UNL A   1      53.343  34.806  24.788  1.00  0.00    -0.237 OA
ATOM     88  O   UNL A   1      51.726  33.284  23.716  1.00  0.00    -0.237 OA
ATOM     89  O   UNL A   1      51.076  35.597  24.218  1.00  0.00    -0.744 OA
ENDBRANCH  83  86
ENDBRANCH  55  79
BRANCH  67  90
ATOM     90  C   UNL A   1      44.298  36.132  30.653  1.00  0.00     0.023 A 
ATOM     91  C   UNL A   1      44.552  36.372  32.018  1.00  0.00     0.012 A 
ATOM     92  C   UNL A   1      43.928  37.207  29.820  1.00  0.00     0.148 A 
ATOM     93  C   UNL A   1      44.402  37.652  32.552  1.00  0.00     0.002 A 
ATOM     94  C   UNL A   1      43.835  38.489  30.347  1.00  0.00     0.091 A 
ATOM     95  F   UNL A   1      43.675  36.956  28.526  1.00  0.00    -0.205 F 
ATOM     96  C   UNL A   1      44.056  38.711  31.715  1.00  0.00     0.022 A 
BRANCH  94  97
ATOM     97  S   UNL A   1      43.494  39.929  29.328  1.00  0.00     0.127 S 
ATOM     98  O   UNL A   1      42.159  39.623  28.818  1.00  0.00    -0.237 OA
ATOM     99  O   UNL A   1      43.541  41.016  30.305  1.00  0.00    -0.237 OA
ATOM    100  O   UNL A   1      44.550  39.971  28.325  1.00  0.00    -0.744 OA
ENDBRANCH  94  97
ENDBRANCH  67  90
ENDBRANCH  41  42
ENDBRANCH  34  36
ENDBRANCH  33  34
ENDBRANCH  32  33
ENDBRANCH  31  32
ENDBRANCH  30  31
ENDBRANCH  29  30
ENDBRANCH   1  29
TORSDOF 26
ENDMDL
