MODEL 1
REMARK VINA RESULT:      -6.6      0.000      0.000
REMARK SMILES CC[C@H](C)c1ccccc1Oc1cccc(F)c1C(=O)OCCOCCOCCOCCOC(=O)c1ccc(-c2c3nc(c(-c4cccc(S(=O)(=O)[O-])c4F)c4ccc([nH]4)c(-c4cccc(S(=O)(=O)[O-])c4F)c4nc(c(-c5cccc(S(=O)(=O)[O-])c5F)c5ccc2[nH]5)C=C4)C=C3)cc1
REMARK SMILES IDX 26 1 25 2 24 3 23 4 22 5 21 6 19 7 20 8 18 9 12 10 13 11
REMARK SMILES IDX 14 12 16 13 15 14 17 15 11 16 10 17 5 18 6 19 7 20 9 21 8 22
REMARK SMILES IDX 3 23 4 24 2 25 1 26 27 27 28 28 29 29 30 30 31 31 32 32
REMARK SMILES IDX 33 33 34 34 35 35 36 36 37 37 98 38 38 39 97 40 39 41 40 42
REMARK SMILES IDX 41 43 91 44 42 45 96 46 90 47 92 48 43 49 95 50 89 51 88 52
REMARK SMILES IDX 44 54 76 55 56 56 75 57 57 58 60 59 74 60 93 61 58 62 59 63
REMARK SMILES IDX 73 65 94 66 61 67 45 68 46 69 54 70 47 71 49 72 55 73 48 74
REMARK SMILES IDX 50 75 51 76 52 77 53 78 77 79 78 80 86 81 79 82 81 83 87 84
REMARK SMILES IDX 80 85 82 86 83 87 84 88 85 89 62 90 63 91 71 92 64 93 66 94
REMARK SMILES IDX 72 95 65 96 67 97 68 98 69 99 70 100
REMARK H PARENT 92 53 60 64
REMARK Flexibility Score: inf
ROOT
ATOM      1  C   UNL A   1      41.209  33.237  40.207  1.00  0.00     0.188 C 
ENDROOT
BRANCH   1   2
ATOM      2  C   UNL A   1      39.925  33.337  39.352  1.00  0.00     0.188 C 
BRANCH   2   3
ATOM      3  O   UNL A   1      39.494  32.272  38.518  1.00  0.00    -0.376 OA
BRANCH   3   4
ATOM      4  C   UNL A   1      38.364  32.334  37.663  1.00  0.00     0.202 C 
BRANCH   4   5
ATOM      5  C   UNL A   1      38.244  31.634  36.304  1.00  0.00     0.261 C 
BRANCH   5   6
ATOM      6  O   UNL A   1      37.289  32.179  35.404  1.00  0.00    -0.459 OA
BRANCH   6   7
ATOM      7  C   UNL A   1      37.797  32.614  34.238  1.00  0.00     0.345 C 
ATOM      8  O   UNL A   1      38.945  32.989  34.054  1.00  0.00    -0.246 OA
BRANCH   7   9
ATOM      9  C   UNL A   1      36.786  32.521  33.160  1.00  0.00     0.138 A 
ATOM     10  C   UNL A   1      36.980  31.910  31.917  1.00  0.00     0.144 A 
ATOM     11  C   UNL A   1      35.936  31.944  30.970  1.00  0.00     0.048 A 
ATOM     12  C   UNL A   1      34.689  32.484  31.276  1.00  0.00     0.007 A 
ATOM     13  C   UNL A   1      35.525  33.063  33.453  1.00  0.00     0.141 A 
ATOM     14  C   UNL A   1      34.482  33.035  32.532  1.00  0.00     0.040 A 
ATOM     15  F   UNL A   1      35.287  33.664  34.628  1.00  0.00    -0.206 F 
BRANCH  10  16
ATOM     16  O   UNL A   1      38.091  31.297  31.413  1.00  0.00    -0.456 OA
BRANCH  16  17
ATOM     17  C   UNL A   1      38.301  29.945  31.264  1.00  0.00     0.130 A 
ATOM     18  C   UNL A   1      38.818  29.204  30.171  1.00  0.00    -0.002 A 
ATOM     19  C   UNL A   1      38.881  27.803  30.346  1.00  0.00     0.008 A 
ATOM     20  C   UNL A   1      38.501  27.171  31.539  1.00  0.00     0.001 A 
ATOM     21  C   UNL A   1      37.974  29.295  32.477  1.00  0.00     0.047 A 
ATOM     22  C   UNL A   1      38.070  27.918  32.617  1.00  0.00     0.004 A 
BRANCH  18  23
ATOM     23  C   UNL A   1      39.229  29.818  28.832  1.00  0.00     0.019 C 
ATOM     24  C   UNL A   1      40.603  30.498  28.836  1.00  0.00     0.013 C 
BRANCH  23  25
ATOM     25  C   UNL A   1      39.027  29.037  27.503  1.00  0.00     0.005 C 
ATOM     26  C   UNL A   1      40.357  28.818  26.769  1.00  0.00     0.004 C 
ENDBRANCH  23  25
ENDBRANCH  18  23
ENDBRANCH  16  17
ENDBRANCH  10  16
ENDBRANCH   7   9
ENDBRANCH   6   7
ENDBRANCH   5   6
ENDBRANCH   4   5
ENDBRANCH   3   4
ENDBRANCH   2   3
ENDBRANCH   1   2
BRANCH   1  27
ATOM     27  O   UNL A   1      41.021  32.804  41.536  1.00  0.00    -0.377 OA
BRANCH  27  28
ATOM     28  C   UNL A   1      41.253  33.733  42.583  1.00  0.00     0.188 C 
BRANCH  28  29
ATOM     29  C   UNL A   1      40.221  34.845  42.877  1.00  0.00     0.188 C 
BRANCH  29  30
ATOM     30  O   UNL A   1      40.650  36.166  42.590  1.00  0.00    -0.376 OA
BRANCH  30  31
ATOM     31  C   UNL A   1      41.927  36.409  42.033  1.00  0.00     0.202 C 
BRANCH  31  32
ATOM     32  C   UNL A   1      42.142  37.682  41.199  1.00  0.00     0.261 C 
BRANCH  32  33
ATOM     33  O   UNL A   1      42.252  37.490  39.784  1.00  0.00    -0.460 OA
BRANCH  33  34
ATOM     34  C   UNL A   1      41.123  37.142  39.137  1.00  0.00     0.338 C 
ATOM     35  O   UNL A   1      39.984  37.501  39.405  1.00  0.00    -0.246 OA
BRANCH  34  36
ATOM     36  C   UNL A   1      41.503  36.421  37.910  1.00  0.00     0.060 A 
ATOM     37  C   UNL A   1      40.483  35.990  37.053  1.00  0.00     0.016 A 
ATOM     38  C   UNL A   1      42.844  36.174  37.606  1.00  0.00     0.016 A 
ATOM     39  C   UNL A   1      40.796  35.247  35.922  1.00  0.00     0.010 A 
ATOM     40  C   UNL A   1      43.157  35.404  36.483  1.00  0.00     0.010 A 
ATOM     41  C   UNL A   1      42.127  34.893  35.675  1.00  0.00    -0.014 A 
BRANCH  41  42
ATOM     42  C   UNL A   1      42.383  33.784  34.730  1.00  0.00     0.031 A 
ATOM     43  C   UNL A   1      42.615  34.128  33.284  1.00  0.00     0.074 A 
ATOM     44  C   UNL A   1      42.494  32.515  35.158  1.00  0.00     0.049 A 
ATOM     45  N   UNL A   1      42.952  33.351  32.290  1.00  0.00    -0.248 NA
ATOM     46  C   UNL A   1      42.451  35.544  32.913  1.00  0.00     0.031 C 
ATOM     47  C   UNL A   1      42.321  32.071  36.538  1.00  0.00     0.029 A 
ATOM     48  N   UNL A   1      42.785  31.371  34.463  1.00  0.00    -0.354 N 
ATOM     49  C   UNL A   1      43.017  34.176  31.173  1.00  0.00     0.074 A 
ATOM     50  C   UNL A   1      42.660  35.508  31.607  1.00  0.00     0.031 C 
ATOM     51  C   UNL A   1      42.507  30.742  36.591  1.00  0.00     0.029 A 
ATOM     52  C   UNL A   1      42.791  30.242  35.247  1.00  0.00     0.049 A 
ATOM     53  H   UNL A   1      42.971  31.358  33.497  1.00  0.00     0.167 HD
ATOM     54  C   UNL A   1      43.358  33.860  29.902  1.00  0.00     0.034 A 
ATOM     55  C   UNL A   1      42.996  28.954  34.908  1.00  0.00     0.034 A 
ATOM     56  C   UNL A   1      43.709  32.533  29.479  1.00  0.00     0.049 A 
ATOM     57  C   UNL A   1      43.325  28.614  33.479  1.00  0.00     0.074 A 
ATOM     58  C   UNL A   1      44.102  32.105  28.224  1.00  0.00     0.029 A 
ATOM     59  N   UNL A   1      43.689  31.412  30.296  1.00  0.00    -0.354 N 
ATOM     60  N   UNL A   1      43.479  29.416  32.452  1.00  0.00    -0.248 NA
ATOM     61  C   UNL A   1      43.544  27.194  33.168  1.00  0.00     0.031 C 
ATOM     62  C   UNL A   1      44.272  30.716  28.272  1.00  0.00     0.029 A 
ATOM     63  C   UNL A   1      44.041  30.288  29.569  1.00  0.00     0.049 A 
ATOM     64  H   UNL A   1      43.459  31.416  31.254  1.00  0.00     0.167 HD
ATOM     65  C   UNL A   1      43.859  28.606  31.386  1.00  0.00     0.074 A 
ATOM     66  C   UNL A   1      43.918  27.251  31.897  1.00  0.00     0.031 C 
ATOM     67  C   UNL A   1      44.133  28.951  30.103  1.00  0.00     0.034 A 
BRANCH  54  68
ATOM     68  C   UNL A   1      43.349  34.974  28.888  1.00  0.00     0.023 A 
ATOM     69  C   UNL A   1      42.155  35.310  28.215  1.00  0.00     0.012 A 
ATOM     70  C   UNL A   1      44.526  35.689  28.598  1.00  0.00     0.148 A 
ATOM     71  C   UNL A   1      42.146  36.300  27.232  1.00  0.00     0.002 A 
ATOM     72  C   UNL A   1      44.497  36.711  27.655  1.00  0.00     0.091 A 
ATOM     73  F   UNL A   1      45.658  35.341  29.225  1.00  0.00    -0.205 F 
ATOM     74  C   UNL A   1      43.314  37.004  26.959  1.00  0.00     0.022 A 
BRANCH  72  75
ATOM     75  S   UNL A   1      45.932  37.729  27.296  1.00  0.00     0.127 S 
ATOM     76  O   UNL A   1      45.344  38.788  26.476  1.00  0.00    -0.237 OA
ATOM     77  O   UNL A   1      46.349  38.154  28.633  1.00  0.00    -0.237 OA
ATOM     78  O   UNL A   1      46.880  36.859  26.614  1.00  0.00    -0.744 OA
ENDBRANCH  72  75
ENDBRANCH  54  68
BRANCH  55  79
ATOM     79  C   UNL A   1      42.953  27.900  35.960  1.00  0.00     0.023 A 
ATOM     80  C   UNL A   1      41.748  27.217  36.211  1.00  0.00     0.012 A 
ATOM     81  C   UNL A   1      44.109  27.545  36.680  1.00  0.00     0.148 A 
ATOM     82  C   UNL A   1      41.690  26.212  37.178  1.00  0.00     0.002 A 
ATOM     83  C   UNL A   1      44.058  26.507  37.601  1.00  0.00     0.091 A 
ATOM     84  F   UNL A   1      45.243  28.215  36.429  1.00  0.00    -0.205 F 
ATOM     85  C   UNL A   1      42.845  25.850  37.865  1.00  0.00     0.022 A 
BRANCH  83  86
ATOM     86  S   UNL A   1      45.519  25.883  38.440  1.00  0.00     0.127 S 
ATOM     87  O   UNL A   1      46.344  25.443  37.318  1.00  0.00    -0.237 OA
ATOM     88  O   UNL A   1      45.998  27.083  39.128  1.00  0.00    -0.237 OA
ATOM     89  O   UNL A   1      45.049  24.825  39.323  1.00  0.00    -0.744 OA
ENDBRANCH  83  86
ENDBRANCH  55  79
BRANCH  67  90
ATOM     90  C   UNL A   1      44.580  27.859  29.163  1.00  0.00     0.023 A 
ATOM     91  C   UNL A   1      45.951  27.645  28.919  1.00  0.00     0.012 A 
ATOM     92  C   UNL A   1      43.632  26.995  28.578  1.00  0.00     0.148 A 
ATOM     93  C   UNL A   1      46.368  26.616  28.077  1.00  0.00     0.002 A 
ATOM     94  C   UNL A   1      44.058  25.936  27.785  1.00  0.00     0.091 A 
ATOM     95  F   UNL A   1      42.331  27.222  28.809  1.00  0.00    -0.205 F 
ATOM     96  C   UNL A   1      45.425  25.755  27.520  1.00  0.00     0.022 A 
BRANCH  94  97
ATOM     97  S   UNL A   1      42.923  24.718  27.113  1.00  0.00     0.127 S 
ATOM     98  O   UNL A   1      41.846  24.738  28.103  1.00  0.00    -0.237 OA
ATOM     99  O   UNL A   1      42.573  25.303  25.819  1.00  0.00    -0.237 OA
ATOM    100  O   UNL A   1      43.671  23.471  27.032  1.00  0.00    -0.744 OA
ENDBRANCH  94  97
ENDBRANCH  67  90
ENDBRANCH  41  42
ENDBRANCH  34  36
ENDBRANCH  33  34
ENDBRANCH  32  33
ENDBRANCH  31  32
ENDBRANCH  30  31
ENDBRANCH  29  30
ENDBRANCH  28  29
ENDBRANCH  27  28
ENDBRANCH   1  27
TORSDOF 27
ENDMDL
MODEL 2
REMARK VINA RESULT:      -6.5      5.525     12.771
REMARK SMILES CC[C@H](C)c1ccccc1Oc1cccc(F)c1C(=O)OCCOCCOCCOCCOC(=O)c1ccc(-c2c3nc(c(-c4cccc(S(=O)(=O)[O-])c4F)c4ccc([nH]4)c(-c4cccc(S(=O)(=O)[O-])c4F)c4nc(c(-c5cccc(S(=O)(=O)[O-])c5F)c5ccc2[nH]5)C=C4)C=C3)cc1
REMARK SMILES IDX 26 1 25 2 24 3 23 4 22 5 21 6 19 7 20 8 18 9 12 10 13 11
REMARK SMILES IDX 14 12 16 13 15 14 17 15 11 16 10 17 5 18 6 19 7 20 9 21 8 22
REMARK SMILES IDX 3 23 4 24 2 25 1 26 27 27 28 28 29 29 30 30 31 31 32 32
REMARK SMILES IDX 33 33 34 34 35 35 36 36 37 37 98 38 38 39 97 40 39 41 40 42
REMARK SMILES IDX 41 43 91 44 42 45 96 46 90 47 92 48 43 49 95 50 89 51 88 52
REMARK SMILES IDX 44 54 76 55 56 56 75 57 57 58 60 59 74 60 93 61 58 62 59 63
REMARK SMILES IDX 73 65 94 66 61 67 45 68 46 69 54 70 47 71 49 72 55 73 48 74
REMARK SMILES IDX 50 75 51 76 52 77 53 78 77 79 78 80 86 81 79 82 81 83 87 84
REMARK SMILES IDX 80 85 82 86 83 87 84 88 85 89 62 90 63 91 71 92 64 93 66 94
REMARK SMILES IDX 72 95 65 96 67 97 68 98 69 99 70 100
REMARK H PARENT 92 53 60 64
REMARK Flexibility Score: inf
ROOT
ATOM      1  C   UNL A   1      38.828  22.655  26.740  1.00  0.00     0.188 C 
ENDROOT
BRANCH   1   2
ATOM      2  C   UNL A   1      37.845  21.969  25.765  1.00  0.00     0.188 C 
BRANCH   2   3
ATOM      3  O   UNL A   1      36.706  22.643  25.250  1.00  0.00    -0.376 OA
BRANCH   3   4
ATOM      4  C   UNL A   1      35.931  23.578  25.983  1.00  0.00     0.202 C 
BRANCH   4   5
ATOM      5  C   UNL A   1      34.505  23.339  26.492  1.00  0.00     0.261 C 
BRANCH   5   6
ATOM      6  O   UNL A   1      33.650  22.603  25.627  1.00  0.00    -0.459 OA
BRANCH   6   7
ATOM      7  C   UNL A   1      32.467  23.187  25.373  1.00  0.00     0.345 C 
ATOM      8  O   UNL A   1      31.512  23.229  26.134  1.00  0.00    -0.246 OA
BRANCH   7   9
ATOM      9  C   UNL A   1      32.483  23.847  24.047  1.00  0.00     0.138 A 
ATOM     10  C   UNL A   1      31.875  25.068  23.741  1.00  0.00     0.144 A 
ATOM     11  C   UNL A   1      31.934  25.546  22.416  1.00  0.00     0.048 A 
ATOM     12  C   UNL A   1      32.661  24.883  21.431  1.00  0.00     0.007 A 
ATOM     13  C   UNL A   1      33.210  23.189  23.043  1.00  0.00     0.141 A 
ATOM     14  C   UNL A   1      33.314  23.703  21.754  1.00  0.00     0.040 A 
ATOM     15  F   UNL A   1      33.809  22.012  23.282  1.00  0.00    -0.206 F 
BRANCH  10  16
ATOM     16  O   UNL A   1      31.144  25.900  24.541  1.00  0.00    -0.456 OA
BRANCH  16  17
ATOM     17  C   UNL A   1      30.708  27.171  24.241  1.00  0.00     0.130 A 
ATOM     18  C   UNL A   1      31.213  28.438  24.629  1.00  0.00    -0.002 A 
ATOM     19  C   UNL A   1      30.500  29.562  24.153  1.00  0.00     0.008 A 
ATOM     20  C   UNL A   1      29.385  29.451  23.311  1.00  0.00     0.001 A 
ATOM     21  C   UNL A   1      29.614  27.080  23.348  1.00  0.00     0.047 A 
ATOM     22  C   UNL A   1      28.953  28.209  22.886  1.00  0.00     0.004 A 
BRANCH  18  23
ATOM     23  C   UNL A   1      32.407  28.639  25.563  1.00  0.00     0.019 C 
ATOM     24  C   UNL A   1      33.610  29.340  24.920  1.00  0.00     0.013 C 
BRANCH  23  25
ATOM     25  C   UNL A   1      32.204  29.158  27.014  1.00  0.00     0.005 C 
ATOM     26  C   UNL A   1      31.515  28.109  27.897  1.00  0.00     0.004 C 
ENDBRANCH  23  25
ENDBRANCH  18  23
ENDBRANCH  16  17
ENDBRANCH  10  16
ENDBRANCH   7   9
ENDBRANCH   6   7
ENDBRANCH   5   6
ENDBRANCH   4   5
ENDBRANCH   3   4
ENDBRANCH   2   3
ENDBRANCH   1   2
BRANCH   1  27
ATOM     27  O   UNL A   1      40.194  22.522  26.419  1.00  0.00    -0.377 OA
BRANCH  27  28
ATOM     28  C   UNL A   1      40.890  21.384  26.904  1.00  0.00     0.188 C 
BRANCH  28  29
ATOM     29  C   UNL A   1      41.591  20.424  25.918  1.00  0.00     0.188 C 
BRANCH  29  30
ATOM     30  O   UNL A   1      42.972  20.205  26.157  1.00  0.00    -0.376 OA
BRANCH  30  31
ATOM     31  C   UNL A   1      43.955  20.852  25.373  1.00  0.00     0.202 C 
BRANCH  31  32
ATOM     32  C   UNL A   1      44.819  21.945  26.022  1.00  0.00     0.261 C 
BRANCH  32  33
ATOM     33  O   UNL A   1      44.955  23.159  25.276  1.00  0.00    -0.460 OA
BRANCH  33  34
ATOM     34  C   UNL A   1      43.845  23.911  25.148  1.00  0.00     0.338 C 
ATOM     35  O   UNL A   1      42.964  23.780  24.307  1.00  0.00    -0.246 OA
BRANCH  34  36
ATOM     36  C   UNL A   1      43.748  24.791  26.325  1.00  0.00     0.060 A 
ATOM     37  C   UNL A   1      43.286  24.242  27.527  1.00  0.00     0.016 A 
ATOM     38  C   UNL A   1      44.108  26.139  26.247  1.00  0.00     0.016 A 
ATOM     39  C   UNL A   1      43.116  25.055  28.640  1.00  0.00     0.010 A 
ATOM     40  C   UNL A   1      43.911  26.962  27.358  1.00  0.00     0.010 A 
ATOM     41  C   UNL A   1      43.360  26.429  28.536  1.00  0.00    -0.014 A 
BRANCH  41  42
ATOM     42  C   UNL A   1      42.788  27.314  29.574  1.00  0.00     0.031 A 
ATOM     43  C   UNL A   1      43.619  27.598  30.795  1.00  0.00     0.074 A 
ATOM     44  C   UNL A   1      41.601  27.917  29.399  1.00  0.00     0.049 A 
ATOM     45  N   UNL A   1      43.381  28.410  31.790  1.00  0.00    -0.248 NA
ATOM     46  C   UNL A   1      44.896  26.871  30.903  1.00  0.00     0.031 C 
ATOM     47  C   UNL A   1      40.726  27.741  28.242  1.00  0.00     0.029 A 
ATOM     48  N   UNL A   1      40.934  28.807  30.199  1.00  0.00    -0.354 N 
ATOM     49  C   UNL A   1      44.463  28.275  32.652  1.00  0.00     0.074 A 
ATOM     50  C   UNL A   1      45.346  27.285  32.076  1.00  0.00     0.031 C 
ATOM     51  C   UNL A   1      39.630  28.499  28.409  1.00  0.00     0.029 A 
ATOM     52  C   UNL A   1      39.719  29.196  29.692  1.00  0.00     0.049 A 
ATOM     53  H   UNL A   1      41.291  29.135  31.056  1.00  0.00     0.167 HD
ATOM     54  C   UNL A   1      44.711  28.927  33.812  1.00  0.00     0.034 A 
ATOM     55  C   UNL A   1      38.786  30.018  30.212  1.00  0.00     0.034 A 
ATOM     56  C   UNL A   1      43.828  29.908  34.379  1.00  0.00     0.049 A 
ATOM     57  C   UNL A   1      39.057  30.695  31.529  1.00  0.00     0.074 A 
ATOM     58  C   UNL A   1      43.995  30.653  35.531  1.00  0.00     0.029 A 
ATOM     59  N   UNL A   1      42.598  30.266  33.845  1.00  0.00    -0.354 N 
ATOM     60  N   UNL A   1      40.127  30.635  32.286  1.00  0.00    -0.248 NA
ATOM     61  C   UNL A   1      38.007  31.585  32.045  1.00  0.00     0.031 C 
ATOM     62  C   UNL A   1      42.843  31.426  35.720  1.00  0.00     0.029 A 
ATOM     63  C   UNL A   1      41.984  31.205  34.655  1.00  0.00     0.049 A 
ATOM     64  H   UNL A   1      42.219  29.904  33.011  1.00  0.00     0.167 HD
ATOM     65  C   UNL A   1      39.899  31.511  33.343  1.00  0.00     0.074 A 
ATOM     66  C   UNL A   1      38.592  32.095  33.121  1.00  0.00     0.031 C 
ATOM     67  C   UNL A   1      40.698  31.806  34.399  1.00  0.00     0.034 A 
BRANCH  54  68
ATOM     68  C   UNL A   1      45.984  28.579  34.540  1.00  0.00     0.023 A 
ATOM     69  C   UNL A   1      45.990  27.545  35.500  1.00  0.00     0.012 A 
ATOM     70  C   UNL A   1      47.176  29.279  34.276  1.00  0.00     0.148 A 
ATOM     71  C   UNL A   1      47.147  27.252  36.223  1.00  0.00     0.002 A 
ATOM     72  C   UNL A   1      48.338  28.945  34.962  1.00  0.00     0.091 A 
ATOM     73  F   UNL A   1      47.148  30.276  33.380  1.00  0.00    -0.205 F 
ATOM     74  C   UNL A   1      48.321  27.946  35.948  1.00  0.00     0.022 A 
BRANCH  72  75
ATOM     75  S   UNL A   1      49.917  29.727  34.617  1.00  0.00     0.127 S 
ATOM     76  O   UNL A   1      49.714  31.062  35.178  1.00  0.00    -0.237 OA
ATOM     77  O   UNL A   1      50.848  28.885  35.368  1.00  0.00    -0.237 OA
ATOM     78  O   UNL A   1      50.083  29.672  33.171  1.00  0.00    -0.744 OA
ENDBRANCH  72  75
ENDBRANCH  54  68
BRANCH  55  79
ATOM     79  C   UNL A   1      37.534  30.286  29.451  1.00  0.00     0.023 A 
ATOM     80  C   UNL A   1      36.728  29.209  29.035  1.00  0.00     0.012 A 
ATOM     81  C   UNL A   1      37.120  31.603  29.176  1.00  0.00     0.148 A 
ATOM     82  C   UNL A   1      35.541  29.439  28.339  1.00  0.00     0.002 A 
ATOM     83  C   UNL A   1      35.910  31.827  28.532  1.00  0.00     0.091 A 
ATOM     84  F   UNL A   1      37.907  32.612  29.575  1.00  0.00    -0.205 F 
ATOM     85  C   UNL A   1      35.127  30.746  28.096  1.00  0.00     0.022 A 
BRANCH  83  86
ATOM     86  S   UNL A   1      35.231  33.472  28.290  1.00  0.00     0.127 S 
ATOM     87  O   UNL A   1      36.108  34.010  27.254  1.00  0.00    -0.237 OA
ATOM     88  O   UNL A   1      33.868  33.167  27.852  1.00  0.00    -0.237 OA
ATOM     89  O   UNL A   1      35.316  34.131  29.586  1.00  0.00    -0.744 OA
ENDBRANCH  83  86
ENDBRANCH  55  79
BRANCH  67  90
ATOM     90  C   UNL A   1      40.214  32.849  35.375  1.00  0.00     0.023 A 
ATOM     91  C   UNL A   1      40.471  34.214  35.145  1.00  0.00     0.012 A 
ATOM     92  C   UNL A   1      39.436  32.471  36.489  1.00  0.00     0.148 A 
ATOM     93  C   UNL A   1      39.997  35.183  36.029  1.00  0.00     0.002 A 
ATOM     94  C   UNL A   1      38.918  33.446  37.333  1.00  0.00     0.091 A 
ATOM     95  F   UNL A   1      39.213  31.166  36.700  1.00  0.00    -0.205 F 
ATOM     96  C   UNL A   1      39.212  34.801  37.114  1.00  0.00     0.022 A 
BRANCH  94  97
ATOM     97  S   UNL A   1      37.813  33.054  38.693  1.00  0.00     0.127 S 
ATOM     98  O   UNL A   1      37.878  34.278  39.491  1.00  0.00    -0.237 OA
ATOM     99  O   UNL A   1      36.539  32.842  38.004  1.00  0.00    -0.237 OA
ATOM    100  O   UNL A   1      38.362  31.864  39.329  1.00  0.00    -0.744 OA
ENDBRANCH  94  97
ENDBRANCH  67  90
ENDBRANCH  41  42
ENDBRANCH  34  36
ENDBRANCH  33  34
ENDBRANCH  32  33
ENDBRANCH  31  32
ENDBRANCH  30  31
ENDBRANCH  29  30
ENDBRANCH  28  29
ENDBRANCH  27  28
ENDBRANCH   1  27
TORSDOF 27
ENDMDL
MODEL 3
REMARK VINA RESULT:      -6.4      5.706     11.908
REMARK SMILES CC[C@H](C)c1ccccc1Oc1cccc(F)c1C(=O)OCCOCCOCCOCCOC(=O)c1ccc(-c2c3nc(c(-c4cccc(S(=O)(=O)[O-])c4F)c4ccc([nH]4)c(-c4cccc(S(=O)(=O)[O-])c4F)c4nc(c(-c5cccc(S(=O)(=O)[O-])c5F)c5ccc2[nH]5)C=C4)C=C3)cc1
REMARK SMILES IDX 26 1 25 2 24 3 23 4 22 5 21 6 19 7 20 8 18 9 12 10 13 11
REMARK SMILES IDX 14 12 16 13 15 14 17 15 11 16 10 17 5 18 6 19 7 20 9 21 8 22
REMARK SMILES IDX 3 23 4 24 2 25 1 26 27 27 28 28 29 29 30 30 31 31 32 32
REMARK SMILES IDX 33 33 34 34 35 35 36 36 37 37 98 38 38 39 97 40 39 41 40 42
REMARK SMILES IDX 41 43 91 44 42 45 96 46 90 47 92 48 43 49 95 50 89 51 88 52
REMARK SMILES IDX 44 54 76 55 56 56 75 57 57 58 60 59 74 60 93 61 58 62 59 63
REMARK SMILES IDX 73 65 94 66 61 67 45 68 46 69 54 70 47 71 49 72 55 73 48 74
REMARK SMILES IDX 50 75 51 76 52 77 53 78 77 79 78 80 86 81 79 82 81 83 87 84
REMARK SMILES IDX 80 85 82 86 83 87 84 88 85 89 62 90 63 91 71 92 64 93 66 94
REMARK SMILES IDX 72 95 65 96 67 97 68 98 69 99 70 100
REMARK H PARENT 92 53 60 64
REMARK Flexibility Score: inf
ROOT
ATOM      1  C   UNL A   1      38.093  23.637  26.226  1.00  0.00     0.188 C 
ENDROOT
BRANCH   1   2
ATOM      2  C   UNL A   1      37.237  22.696  25.348  1.00  0.00     0.188 C 
BRANCH   2   3
ATOM      3  O   UNL A   1      35.948  23.067  24.885  1.00  0.00    -0.376 OA
BRANCH   3   4
ATOM      4  C   UNL A   1      35.311  24.297  25.194  1.00  0.00     0.202 C 
BRANCH   4   5
ATOM      5  C   UNL A   1      34.216  24.484  26.251  1.00  0.00     0.261 C 
BRANCH   5   6
ATOM      6  O   UNL A   1      33.754  23.300  26.885  1.00  0.00    -0.459 OA
BRANCH   6   7
ATOM      7  C   UNL A   1      32.432  23.082  26.777  1.00  0.00     0.345 C 
ATOM      8  O   UNL A   1      31.630  23.076  27.699  1.00  0.00    -0.246 OA
BRANCH   7   9
ATOM      9  C   UNL A   1      32.045  22.907  25.359  1.00  0.00     0.138 A 
ATOM     10  C   UNL A   1      31.247  23.788  24.621  1.00  0.00     0.144 A 
ATOM     11  C   UNL A   1      30.922  23.461  23.289  1.00  0.00     0.048 A 
ATOM     12  C   UNL A   1      31.452  22.336  22.662  1.00  0.00     0.007 A 
ATOM     13  C   UNL A   1      32.570  21.777  24.713  1.00  0.00     0.141 A 
ATOM     14  C   UNL A   1      32.293  21.497  23.379  1.00  0.00     0.040 A 
ATOM     15  F   UNL A   1      33.338  20.898  25.375  1.00  0.00    -0.206 F 
BRANCH  10  16
ATOM     16  O   UNL A   1      30.648  24.952  25.010  1.00  0.00    -0.456 OA
BRANCH  16  17
ATOM     17  C   UNL A   1      30.470  26.089  24.256  1.00  0.00     0.130 A 
ATOM     18  C   UNL A   1      31.411  26.910  23.583  1.00  0.00    -0.002 A 
ATOM     19  C   UNL A   1      30.883  28.033  22.906  1.00  0.00     0.008 A 
ATOM     20  C   UNL A   1      29.509  28.310  22.856  1.00  0.00     0.001 A 
ATOM     21  C   UNL A   1      29.085  26.355  24.148  1.00  0.00     0.047 A 
ATOM     22  C   UNL A   1      28.604  27.457  23.456  1.00  0.00     0.004 A 
BRANCH  18  23
ATOM     23  C   UNL A   1      32.924  26.687  23.613  1.00  0.00     0.019 C 
ATOM     24  C   UNL A   1      33.499  26.036  22.349  1.00  0.00     0.013 C 
BRANCH  23  25
ATOM     25  C   UNL A   1      33.883  27.801  24.118  1.00  0.00     0.005 C 
ATOM     26  C   UNL A   1      33.657  28.109  25.605  1.00  0.00     0.004 C 
ENDBRANCH  23  25
ENDBRANCH  18  23
ENDBRANCH  16  17
ENDBRANCH  10  16
ENDBRANCH   7   9
ENDBRANCH   6   7
ENDBRANCH   5   6
ENDBRANCH   4   5
ENDBRANCH   3   4
ENDBRANCH   2   3
ENDBRANCH   1   2
BRANCH   1  27
ATOM     27  O   UNL A   1      39.488  23.496  26.087  1.00  0.00    -0.377 OA
BRANCH  27  28
ATOM     28  C   UNL A   1      40.069  22.237  26.389  1.00  0.00     0.188 C 
BRANCH  28  29
ATOM     29  C   UNL A   1      41.584  22.013  26.188  1.00  0.00     0.188 C 
BRANCH  29  30
ATOM     30  O   UNL A   1      42.365  22.022  27.372  1.00  0.00    -0.376 OA
BRANCH  30  31
ATOM     31  C   UNL A   1      43.447  22.921  27.520  1.00  0.00     0.202 C 
BRANCH  31  32
ATOM     32  C   UNL A   1      43.156  24.431  27.546  1.00  0.00     0.261 C 
BRANCH  32  33
ATOM     33  O   UNL A   1      43.250  25.107  26.288  1.00  0.00    -0.460 OA
BRANCH  33  34
ATOM     34  C   UNL A   1      42.203  25.881  25.945  1.00  0.00     0.338 C 
ATOM     35  O   UNL A   1      41.376  25.651  25.071  1.00  0.00    -0.246 OA
BRANCH  34  36
ATOM     36  C   UNL A   1      42.083  26.958  26.942  1.00  0.00     0.060 A 
ATOM     37  C   UNL A   1      41.748  28.241  26.494  1.00  0.00     0.016 A 
ATOM     38  C   UNL A   1      42.298  26.708  28.301  1.00  0.00     0.016 A 
ATOM     39  C   UNL A   1      41.694  29.298  27.396  1.00  0.00     0.010 A 
ATOM     40  C   UNL A   1      42.270  27.775  29.202  1.00  0.00     0.010 A 
ATOM     41  C   UNL A   1      42.025  29.079  28.738  1.00  0.00    -0.014 A 
BRANCH  41  42
ATOM     42  C   UNL A   1      42.361  30.256  29.568  1.00  0.00     0.031 A 
ATOM     43  C   UNL A   1      43.715  30.884  29.384  1.00  0.00     0.074 A 
ATOM     44  C   UNL A   1      41.458  30.806  30.397  1.00  0.00     0.049 A 
ATOM     45  N   UNL A   1      44.205  31.971  29.918  1.00  0.00    -0.248 NA
ATOM     46  C   UNL A   1      44.639  30.195  28.468  1.00  0.00     0.031 C 
ATOM     47  C   UNL A   1      40.107  30.301  30.628  1.00  0.00     0.029 A 
ATOM     48  N   UNL A   1      41.550  31.916  31.193  1.00  0.00    -0.354 N 
ATOM     49  C   UNL A   1      45.499  32.083  29.423  1.00  0.00     0.074 A 
ATOM     50  C   UNL A   1      45.727  30.941  28.567  1.00  0.00     0.031 C 
ATOM     51  C   UNL A   1      39.493  31.102  31.515  1.00  0.00     0.029 A 
ATOM     52  C   UNL A   1      40.414  32.160  31.926  1.00  0.00     0.049 A 
ATOM     53  H   UNL A   1      42.352  32.485  31.236  1.00  0.00     0.167 HD
ATOM     54  C   UNL A   1      46.412  33.056  29.647  1.00  0.00     0.034 A 
ATOM     55  C   UNL A   1      40.157  33.126  32.829  1.00  0.00     0.034 A 
ATOM     56  C   UNL A   1      46.178  34.187  30.502  1.00  0.00     0.049 A 
ATOM     57  C   UNL A   1      41.205  34.172  33.104  1.00  0.00     0.074 A 
ATOM     58  C   UNL A   1      47.020  35.249  30.775  1.00  0.00     0.029 A 
ATOM     59  N   UNL A   1      45.021  34.392  31.240  1.00  0.00    -0.354 N 
ATOM     60  N   UNL A   1      42.388  34.322  32.556  1.00  0.00    -0.248 NA
ATOM     61  C   UNL A   1      40.867  35.204  34.094  1.00  0.00     0.031 C 
ATOM     62  C   UNL A   1      46.391  36.071  31.718  1.00  0.00     0.029 A 
ATOM     63  C   UNL A   1      45.135  35.552  31.987  1.00  0.00     0.049 A 
ATOM     64  H   UNL A   1      44.235  33.800  31.234  1.00  0.00     0.167 HD
ATOM     65  C   UNL A   1      42.916  35.489  33.099  1.00  0.00     0.074 A 
ATOM     66  C   UNL A   1      41.919  36.008  34.014  1.00  0.00     0.031 C 
ATOM     67  C   UNL A   1      44.116  36.077  32.864  1.00  0.00     0.034 A 
BRANCH  54  68
ATOM     68  C   UNL A   1      47.748  32.919  28.963  1.00  0.00     0.023 A 
ATOM     69  C   UNL A   1      48.716  32.027  29.470  1.00  0.00     0.012 A 
ATOM     70  C   UNL A   1      48.047  33.679  27.815  1.00  0.00     0.148 A 
ATOM     71  C   UNL A   1      49.976  31.934  28.881  1.00  0.00     0.002 A 
ATOM     72  C   UNL A   1      49.287  33.541  27.202  1.00  0.00     0.091 A 
ATOM     73  F   UNL A   1      47.127  34.541  27.361  1.00  0.00    -0.205 F 
ATOM     74  C   UNL A   1      50.258  32.684  27.743  1.00  0.00     0.022 A 
BRANCH  72  75
ATOM     75  S   UNL A   1      49.710  34.403  25.685  1.00  0.00     0.127 S 
ATOM     76  O   UNL A   1      48.406  34.505  25.031  1.00  0.00    -0.237 OA
ATOM     77  O   UNL A   1      50.240  35.669  26.189  1.00  0.00    -0.237 OA
ATOM     78  O   UNL A   1      50.688  33.564  25.007  1.00  0.00    -0.744 OA
ENDBRANCH  72  75
ENDBRANCH  54  68
BRANCH  55  79
ATOM     79  C   UNL A   1      38.825  33.177  33.495  1.00  0.00     0.023 A 
ATOM     80  C   UNL A   1      38.690  32.709  34.816  1.00  0.00     0.012 A 
ATOM     81  C   UNL A   1      37.706  33.724  32.840  1.00  0.00     0.148 A 
ATOM     82  C   UNL A   1      37.456  32.766  35.466  1.00  0.00     0.002 A 
ATOM     83  C   UNL A   1      36.495  33.828  33.511  1.00  0.00     0.091 A 
ATOM     84  F   UNL A   1      37.858  34.155  31.580  1.00  0.00    -0.205 F 
ATOM     85  C   UNL A   1      36.362  33.334  34.818  1.00  0.00     0.022 A 
BRANCH  83  86
ATOM     86  S   UNL A   1      35.067  34.661  32.808  1.00  0.00     0.127 S 
ATOM     87  O   UNL A   1      35.207  34.350  31.388  1.00  0.00    -0.237 OA
ATOM     88  O   UNL A   1      33.964  33.976  33.485  1.00  0.00    -0.237 OA
ATOM     89  O   UNL A   1      35.214  36.067  33.159  1.00  0.00    -0.744 OA
ENDBRANCH  83  86
ENDBRANCH  55  79
BRANCH  67  90
ATOM     90  C   UNL A   1      44.406  37.383  33.560  1.00  0.00     0.023 A 
ATOM     91  C   UNL A   1      44.102  38.607  32.933  1.00  0.00     0.012 A 
ATOM     92  C   UNL A   1      44.916  37.389  34.874  1.00  0.00     0.148 A 
ATOM     93  C   UNL A   1      44.339  39.816  33.587  1.00  0.00     0.002 A 
ATOM     94  C   UNL A   1      45.096  38.595  35.541  1.00  0.00     0.091 A 
ATOM     95  F   UNL A   1      45.214  36.215  35.449  1.00  0.00    -0.205 F 
ATOM     96  C   UNL A   1      44.824  39.810  34.893  1.00  0.00     0.022 A 
BRANCH  94  97
ATOM     97  S   UNL A   1      45.616  38.678  37.257  1.00  0.00     0.127 S 
ATOM     98  O   UNL A   1      46.889  37.959  37.218  1.00  0.00    -0.237 OA
ATOM     99  O   UNL A   1      45.736  40.120  37.474  1.00  0.00    -0.237 OA
ATOM    100  O   UNL A   1      44.561  38.036  38.030  1.00  0.00    -0.744 OA
ENDBRANCH  94  97
ENDBRANCH  67  90
ENDBRANCH  41  42
ENDBRANCH  34  36
ENDBRANCH  33  34
ENDBRANCH  32  33
ENDBRANCH  31  32
ENDBRANCH  30  31
ENDBRANCH  29  30
ENDBRANCH  28  29
ENDBRANCH  27  28
ENDBRANCH   1  27
TORSDOF 27
ENDMDL
