MODEL 1
REMARK VINA RESULT:      -9.2      0.000      0.000
REMARK SMILES COCC[C@H](NC(=O)c1ccc(Br)nc1)C(=O)OCCOCCOCCOCCOC(=O)c1ccc(-c2c3nc(c(-c4cccc(S(=O)(=O)[O-])c4F)c4ccc([nH]4)c(-c4cccc(S(=O)(=O)[O-])c4F)c4nc(c(-c5cccc(S(=O)(=O)[O-])c5F)c5ccc2[nH]5)C=C4)C=C3)cc1
REMARK SMILES IDX 24 1 23 2 22 3 21 4 20 5 19 6 18 7 16 8 17 9 5 10 4 11 3 12
REMARK SMILES IDX 2 13 1 14 6 15 7 16 8 18 9 19 10 20 15 21 11 22 14 23 12 24
REMARK SMILES IDX 13 25 25 26 26 27 27 28 28 29 29 30 30 31 31 32 32 33 33 34
REMARK SMILES IDX 34 35 95 36 35 37 94 38 36 39 37 40 38 41 88 42 39 43 93 44
REMARK SMILES IDX 87 45 89 46 40 47 92 48 86 49 85 50 41 52 73 53 53 54 72 55
REMARK SMILES IDX 54 56 57 57 71 58 90 59 55 60 56 61 70 63 91 64 58 65 42 66
REMARK SMILES IDX 43 67 51 68 44 69 46 70 52 71 45 72 47 73 48 74 49 75 50 76
REMARK SMILES IDX 74 77 75 78 83 79 76 80 78 81 84 82 77 83 79 84 80 85 81 86
REMARK SMILES IDX 82 87 59 88 60 89 68 90 61 91 63 92 69 93 62 94 64 95 65 96
REMARK SMILES IDX 66 97 67 98
REMARK H PARENT 6 17 89 51 57 62
REMARK Flexibility Score: inf
ROOT
ATOM      1  O   UNL A   1      33.724  27.648  23.207  1.00  0.00    -0.377 OA
ENDROOT
BRANCH   1   2
ATOM      2  C   UNL A   1      32.613  26.870  22.830  1.00  0.00     0.188 C 
BRANCH   2   3
ATOM      3  C   UNL A   1      32.645  26.212  21.448  1.00  0.00     0.188 C 
BRANCH   3   4
ATOM      4  O   UNL A   1      33.281  24.934  21.360  1.00  0.00    -0.376 OA
BRANCH   4   5
ATOM      5  C   UNL A   1      33.360  24.131  22.546  1.00  0.00     0.202 C 
BRANCH   5   6
ATOM      6  C   UNL A   1      32.763  22.730  22.422  1.00  0.00     0.261 C 
BRANCH   6   7
ATOM      7  O   UNL A   1      33.404  21.874  23.391  1.00  0.00    -0.462 OA
BRANCH   7   8
ATOM      8  C   UNL A   1      32.864  20.662  23.602  1.00  0.00     0.328 C 
ATOM      9  O   UNL A   1      32.062  20.124  22.843  1.00  0.00    -0.250 OA
BRANCH   8  10
ATOM     10  C   UNL A   1      33.381  19.968  24.881  1.00  0.00     0.194 C 
BRANCH  10  11
ATOM     11  C   UNL A   1      32.318  18.974  25.376  1.00  0.00     0.065 C 
BRANCH  11  12
ATOM     12  C   UNL A   1      32.828  17.529  25.306  1.00  0.00     0.162 C 
BRANCH  12  13
ATOM     13  O   UNL A   1      34.136  17.461  24.734  1.00  0.00    -0.385 OA
ATOM     14  C   UNL A   1      34.185  17.010  23.389  1.00  0.00     0.194 C 
ENDBRANCH  12  13
ENDBRANCH  11  12
ENDBRANCH  10  11
BRANCH  10  15
ATOM     15  N   UNL A   1      34.139  20.517  26.023  1.00  0.00    -0.338 N 
ATOM     16  C   UNL A   1      34.027  21.517  26.944  1.00  0.00     0.253 C 
ATOM     17  H   UNL A   1      34.974  20.014  26.158  1.00  0.00     0.164 HD
ATOM     18  O   UNL A   1      34.694  21.422  27.974  1.00  0.00    -0.269 OA
BRANCH  16  19
ATOM     19  C   UNL A   1      33.329  22.774  26.680  1.00  0.00     0.058 A 
ATOM     20  C   UNL A   1      33.915  23.903  26.127  1.00  0.00     0.018 A 
ATOM     21  C   UNL A   1      31.982  22.830  27.039  1.00  0.00     0.126 A 
ATOM     22  C   UNL A   1      33.149  25.068  26.027  1.00  0.00     0.037 A 
ATOM     23  N   UNL A   1      31.233  23.956  26.988  1.00  0.00    -0.249 NA
ATOM     24  C   UNL A   1      31.832  25.052  26.480  1.00  0.00     0.106 A 
ATOM     25  Br  UNL A   1      30.844  26.669  26.494  1.00  0.00    -0.029 Br
ENDBRANCH  16  19
ENDBRANCH  10  15
ENDBRANCH   8  10
ENDBRANCH   7   8
ENDBRANCH   6   7
ENDBRANCH   5   6
ENDBRANCH   4   5
ENDBRANCH   3   4
ENDBRANCH   2   3
ENDBRANCH   1   2
BRANCH   1  26
ATOM     26  C   UNL A   1      33.662  28.303  24.454  1.00  0.00     0.188 C 
BRANCH  26  27
ATOM     27  C   UNL A   1      32.681  29.481  24.426  1.00  0.00     0.188 C 
BRANCH  27  28
ATOM     28  O   UNL A   1      31.925  29.786  25.596  1.00  0.00    -0.376 OA
BRANCH  28  29
ATOM     29  C   UNL A   1      32.597  30.060  26.824  1.00  0.00     0.202 C 
BRANCH  29  30
ATOM     30  C   UNL A   1      32.887  31.515  27.222  1.00  0.00     0.261 C 
BRANCH  30  31
ATOM     31  O   UNL A   1      34.281  31.870  27.297  1.00  0.00    -0.460 OA
BRANCH  31  32
ATOM     32  C   UNL A   1      34.834  31.745  28.525  1.00  0.00     0.338 C 
ATOM     33  O   UNL A   1      34.478  32.318  29.549  1.00  0.00    -0.246 OA
BRANCH  32  34
ATOM     34  C   UNL A   1      35.900  30.727  28.551  1.00  0.00     0.060 A 
ATOM     35  C   UNL A   1      35.942  29.858  29.649  1.00  0.00     0.016 A 
ATOM     36  C   UNL A   1      36.953  30.759  27.634  1.00  0.00     0.016 A 
ATOM     37  C   UNL A   1      37.073  29.079  29.880  1.00  0.00     0.010 A 
ATOM     38  C   UNL A   1      38.095  29.984  27.875  1.00  0.00     0.010 A 
ATOM     39  C   UNL A   1      38.184  29.190  29.033  1.00  0.00    -0.014 A 
BRANCH  39  40
ATOM     40  C   UNL A   1      39.490  28.656  29.501  1.00  0.00     0.031 A 
ATOM     41  C   UNL A   1      40.127  29.268  30.723  1.00  0.00     0.074 A 
ATOM     42  C   UNL A   1      40.082  27.615  28.891  1.00  0.00     0.049 A 
ATOM     43  N   UNL A   1      41.213  28.911  31.360  1.00  0.00    -0.248 NA
ATOM     44  C   UNL A   1      39.447  30.437  31.306  1.00  0.00     0.031 C 
ATOM     45  C   UNL A   1      39.579  26.937  27.699  1.00  0.00     0.029 A 
ATOM     46  N   UNL A   1      41.247  26.952  29.193  1.00  0.00    -0.354 N 
ATOM     47  C   UNL A   1      41.354  29.816  32.407  1.00  0.00     0.074 A 
ATOM     48  C   UNL A   1      40.258  30.754  32.306  1.00  0.00     0.031 C 
ATOM     49  C   UNL A   1      40.439  25.961  27.359  1.00  0.00     0.029 A 
ATOM     50  C   UNL A   1      41.556  25.950  28.305  1.00  0.00     0.049 A 
ATOM     51  H   UNL A   1      41.806  27.174  29.971  1.00  0.00     0.167 HD
ATOM     52  C   UNL A   1      42.294  29.853  33.382  1.00  0.00     0.034 A 
ATOM     53  C   UNL A   1      42.619  25.120  28.261  1.00  0.00     0.034 A 
ATOM     54  C   UNL A   1      43.375  28.912  33.501  1.00  0.00     0.049 A 
ATOM     55  C   UNL A   1      43.657  25.187  29.354  1.00  0.00     0.074 A 
ATOM     56  C   UNL A   1      44.349  28.841  34.482  1.00  0.00     0.029 A 
ATOM     57  N   UNL A   1      43.634  27.887  32.607  1.00  0.00    -0.354 N 
ATOM     58  N   UNL A   1      43.694  25.952  30.419  1.00  0.00    -0.248 NA
ATOM     59  C   UNL A   1      44.783  24.244  29.259  1.00  0.00     0.031 C 
ATOM     60  C   UNL A   1      45.209  27.783  34.169  1.00  0.00     0.029 A 
ATOM     61  C   UNL A   1      44.758  27.183  33.004  1.00  0.00     0.049 A 
ATOM     62  H   UNL A   1      43.096  27.689  31.805  1.00  0.00     0.167 HD
ATOM     63  C   UNL A   1      44.820  25.559  31.137  1.00  0.00     0.074 A 
ATOM     64  C   UNL A   1      45.425  24.470  30.398  1.00  0.00     0.031 C 
ATOM     65  C   UNL A   1      45.319  26.063  32.292  1.00  0.00     0.034 A 
BRANCH  52  66
ATOM     66  C   UNL A   1      42.166  30.928  34.427  1.00  0.00     0.023 A 
ATOM     67  C   UNL A   1      41.508  30.639  35.641  1.00  0.00     0.012 A 
ATOM     68  C   UNL A   1      42.729  32.204  34.233  1.00  0.00     0.148 A 
ATOM     69  C   UNL A   1      41.386  31.613  36.632  1.00  0.00     0.002 A 
ATOM     70  C   UNL A   1      42.637  33.157  35.242  1.00  0.00     0.091 A 
ATOM     71  F   UNL A   1      43.328  32.468  33.062  1.00  0.00    -0.205 F 
ATOM     72  C   UNL A   1      41.959  32.867  36.436  1.00  0.00     0.022 A 
BRANCH  70  73
ATOM     73  S   UNL A   1      43.404  34.777  35.113  1.00  0.00     0.127 S 
ATOM     74  O   UNL A   1      42.448  35.490  34.266  1.00  0.00    -0.237 OA
ATOM     75  O   UNL A   1      43.429  35.218  36.508  1.00  0.00    -0.237 OA
ATOM     76  O   UNL A   1      44.717  34.553  34.526  1.00  0.00    -0.744 OA
ENDBRANCH  70  73
ENDBRANCH  52  66
BRANCH  53  77
ATOM     77  C   UNL A   1      42.730  24.107  27.174  1.00  0.00     0.023 A 
ATOM     78  C   UNL A   1      43.445  24.421  26.002  1.00  0.00     0.012 A 
ATOM     79  C   UNL A   1      42.132  22.837  27.293  1.00  0.00     0.148 A 
ATOM     80  C   UNL A   1      43.535  23.504  24.955  1.00  0.00     0.002 A 
ATOM     81  C   UNL A   1      42.272  21.907  26.269  1.00  0.00     0.091 A 
ATOM     82  F   UNL A   1      41.436  22.562  28.406  1.00  0.00    -0.205 F 
ATOM     83  C   UNL A   1      42.957  22.245  25.091  1.00  0.00     0.022 A 
BRANCH  81  84
ATOM     84  S   UNL A   1      41.672  20.220  26.410  1.00  0.00     0.127 S 
ATOM     85  O   UNL A   1      42.401  19.550  25.337  1.00  0.00    -0.237 OA
ATOM     86  O   UNL A   1      42.099  19.860  27.763  1.00  0.00    -0.237 OA
ATOM     87  O   UNL A   1      40.227  20.301  26.242  1.00  0.00    -0.744 OA
ENDBRANCH  81  84
ENDBRANCH  53  77
BRANCH  65  88
ATOM     88  C   UNL A   1      46.569  25.432  32.854  1.00  0.00     0.023 A 
ATOM     89  C   UNL A   1      47.831  25.964  32.517  1.00  0.00     0.012 A 
ATOM     90  C   UNL A   1      46.496  24.358  33.763  1.00  0.00     0.148 A 
ATOM     91  C   UNL A   1      48.999  25.414  33.045  1.00  0.00     0.002 A 
ATOM     92  C   UNL A   1      47.662  23.845  34.323  1.00  0.00     0.091 A 
ATOM     93  F   UNL A   1      45.291  23.850  34.060  1.00  0.00    -0.205 F 
ATOM     94  C   UNL A   1      48.914  24.362  33.955  1.00  0.00     0.022 A 
BRANCH  92  95
ATOM     95  S   UNL A   1      47.633  22.555  35.573  1.00  0.00     0.127 S 
ATOM     96  O   UNL A   1      46.904  21.489  34.888  1.00  0.00    -0.237 OA
ATOM     97  O   UNL A   1      49.056  22.283  35.780  1.00  0.00    -0.237 OA
ATOM     98  O   UNL A   1      46.961  23.139  36.728  1.00  0.00    -0.744 OA
ENDBRANCH  92  95
ENDBRANCH  65  88
ENDBRANCH  39  40
ENDBRANCH  32  34
ENDBRANCH  31  32
ENDBRANCH  30  31
ENDBRANCH  29  30
ENDBRANCH  28  29
ENDBRANCH  27  28
ENDBRANCH  26  27
ENDBRANCH   1  26
TORSDOF 28
ENDMDL
MODEL 2
REMARK VINA RESULT:      -9.1      3.418      8.193
REMARK SMILES COCC[C@H](NC(=O)c1ccc(Br)nc1)C(=O)OCCOCCOCCOCCOC(=O)c1ccc(-c2c3nc(c(-c4cccc(S(=O)(=O)[O-])c4F)c4ccc([nH]4)c(-c4cccc(S(=O)(=O)[O-])c4F)c4nc(c(-c5cccc(S(=O)(=O)[O-])c5F)c5ccc2[nH]5)C=C4)C=C3)cc1
REMARK SMILES IDX 24 1 23 2 22 3 21 4 20 5 19 6 18 7 16 8 17 9 5 10 4 11 3 12
REMARK SMILES IDX 2 13 1 14 6 15 7 16 8 18 9 19 10 20 15 21 11 22 14 23 12 24
REMARK SMILES IDX 13 25 25 26 26 27 27 28 28 29 29 30 30 31 31 32 32 33 33 34
REMARK SMILES IDX 34 35 95 36 35 37 94 38 36 39 37 40 38 41 88 42 39 43 93 44
REMARK SMILES IDX 87 45 89 46 40 47 92 48 86 49 85 50 41 52 73 53 53 54 72 55
REMARK SMILES IDX 54 56 57 57 71 58 90 59 55 60 56 61 70 63 91 64 58 65 42 66
REMARK SMILES IDX 43 67 51 68 44 69 46 70 52 71 45 72 47 73 48 74 49 75 50 76
REMARK SMILES IDX 74 77 75 78 83 79 76 80 78 81 84 82 77 83 79 84 80 85 81 86
REMARK SMILES IDX 82 87 59 88 60 89 68 90 61 91 63 92 69 93 62 94 64 95 65 96
REMARK SMILES IDX 66 97 67 98
REMARK H PARENT 6 17 89 51 57 62
REMARK Flexibility Score: inf
ROOT
ATOM      1  O   UNL A   1      33.887  27.536  23.343  1.00  0.00    -0.377 OA
ENDROOT
BRANCH   1   2
ATOM      2  C   UNL A   1      32.811  26.749  22.892  1.00  0.00     0.188 C 
BRANCH   2   3
ATOM      3  C   UNL A   1      32.863  26.235  21.451  1.00  0.00     0.188 C 
BRANCH   3   4
ATOM      4  O   UNL A   1      33.171  24.849  21.274  1.00  0.00    -0.376 OA
BRANCH   4   5
ATOM      5  C   UNL A   1      33.406  24.051  22.442  1.00  0.00     0.202 C 
BRANCH   5   6
ATOM      6  C   UNL A   1      32.844  22.631  22.381  1.00  0.00     0.261 C 
BRANCH   6   7
ATOM      7  O   UNL A   1      33.259  21.926  23.571  1.00  0.00    -0.462 OA
BRANCH   7   8
ATOM      8  C   UNL A   1      32.861  20.650  23.706  1.00  0.00     0.328 C 
ATOM      9  O   UNL A   1      32.133  20.068  22.907  1.00  0.00    -0.250 OA
BRANCH   8  10
ATOM     10  C   UNL A   1      33.443  19.948  24.952  1.00  0.00     0.194 C 
BRANCH  10  11
ATOM     11  C   UNL A   1      32.492  18.821  25.384  1.00  0.00     0.065 C 
BRANCH  11  12
ATOM     12  C   UNL A   1      33.181  17.452  25.322  1.00  0.00     0.162 C 
BRANCH  12  13
ATOM     13  O   UNL A   1      32.967  16.814  24.061  1.00  0.00    -0.385 OA
ATOM     14  C   UNL A   1      34.046  16.911  23.143  1.00  0.00     0.194 C 
ENDBRANCH  12  13
ENDBRANCH  11  12
ENDBRANCH  10  11
BRANCH  10  15
ATOM     15  N   UNL A   1      34.134  20.514  26.128  1.00  0.00    -0.338 N 
ATOM     16  C   UNL A   1      33.959  21.516  27.038  1.00  0.00     0.253 C 
ATOM     17  H   UNL A   1      34.968  20.025  26.309  1.00  0.00     0.164 HD
ATOM     18  O   UNL A   1      34.573  21.435  28.102  1.00  0.00    -0.269 OA
BRANCH  16  19
ATOM     19  C   UNL A   1      33.255  22.760  26.733  1.00  0.00     0.058 A 
ATOM     20  C   UNL A   1      33.844  23.884  26.172  1.00  0.00     0.018 A 
ATOM     21  C   UNL A   1      31.900  22.810  27.058  1.00  0.00     0.126 A 
ATOM     22  C   UNL A   1      33.070  25.039  26.031  1.00  0.00     0.037 A 
ATOM     23  N   UNL A   1      31.141  23.927  26.966  1.00  0.00    -0.249 NA
ATOM     24  C   UNL A   1      31.742  25.019  26.452  1.00  0.00     0.106 A 
ATOM     25  Br  UNL A   1      30.738  26.626  26.411  1.00  0.00    -0.029 Br
ENDBRANCH  16  19
ENDBRANCH  10  15
ENDBRANCH   8  10
ENDBRANCH   7   8
ENDBRANCH   6   7
ENDBRANCH   5   6
ENDBRANCH   4   5
ENDBRANCH   3   4
ENDBRANCH   2   3
ENDBRANCH   1   2
BRANCH   1  26
ATOM     26  C   UNL A   1      33.760  28.140  24.610  1.00  0.00     0.188 C 
BRANCH  26  27
ATOM     27  C   UNL A   1      32.989  29.464  24.530  1.00  0.00     0.188 C 
BRANCH  27  28
ATOM     28  O   UNL A   1      31.986  29.745  25.504  1.00  0.00    -0.376 OA
BRANCH  28  29
ATOM     29  C   UNL A   1      32.355  30.323  26.756  1.00  0.00     0.202 C 
BRANCH  29  30
ATOM     30  C   UNL A   1      32.198  31.836  26.968  1.00  0.00     0.261 C 
BRANCH  30  31
ATOM     31  O   UNL A   1      33.424  32.561  27.183  1.00  0.00    -0.460 OA
BRANCH  31  32
ATOM     32  C   UNL A   1      33.308  33.648  27.980  1.00  0.00     0.338 C 
ATOM     33  O   UNL A   1      32.440  34.511  27.916  1.00  0.00    -0.246 OA
BRANCH  32  34
ATOM     34  C   UNL A   1      34.316  33.657  29.055  1.00  0.00     0.060 A 
ATOM     35  C   UNL A   1      35.639  33.956  28.703  1.00  0.00     0.016 A 
ATOM     36  C   UNL A   1      34.016  33.179  30.333  1.00  0.00     0.016 A 
ATOM     37  C   UNL A   1      36.675  33.700  29.597  1.00  0.00     0.010 A 
ATOM     38  C   UNL A   1      35.061  32.911  31.227  1.00  0.00     0.010 A 
ATOM     39  C   UNL A   1      36.398  33.110  30.838  1.00  0.00    -0.014 A 
BRANCH  39  40
ATOM     40  C   UNL A   1      37.519  32.504  31.603  1.00  0.00     0.031 A 
ATOM     41  C   UNL A   1      38.292  31.369  30.979  1.00  0.00     0.074 A 
ATOM     42  C   UNL A   1      37.887  32.979  32.806  1.00  0.00     0.049 A 
ATOM     43  N   UNL A   1      39.356  30.748  31.420  1.00  0.00    -0.248 NA
ATOM     44  C   UNL A   1      37.800  30.870  29.685  1.00  0.00     0.031 C 
ATOM     45  C   UNL A   1      37.222  34.064  33.524  1.00  0.00     0.029 A 
ATOM     46  N   UNL A   1      38.910  32.597  33.639  1.00  0.00    -0.354 N 
ATOM     47  C   UNL A   1      39.652  29.780  30.467  1.00  0.00     0.074 A 
ATOM     48  C   UNL A   1      38.642  29.877  29.437  1.00  0.00     0.031 C 
ATOM     49  C   UNL A   1      37.846  34.251  34.700  1.00  0.00     0.029 A 
ATOM     50  C   UNL A   1      38.949  33.296  34.821  1.00  0.00     0.049 A 
ATOM     51  H   UNL A   1      39.554  31.889  33.410  1.00  0.00     0.167 HD
ATOM     52  C   UNL A   1      40.685  28.903  30.434  1.00  0.00     0.034 A 
ATOM     53  C   UNL A   1      39.779  33.177  35.878  1.00  0.00     0.034 A 
ATOM     54  C   UNL A   1      41.704  28.813  31.445  1.00  0.00     0.049 A 
ATOM     55  C   UNL A   1      40.915  32.187  35.821  1.00  0.00     0.074 A 
ATOM     56  C   UNL A   1      42.815  27.988  31.475  1.00  0.00     0.029 A 
ATOM     57  N   UNL A   1      41.733  29.564  32.608  1.00  0.00    -0.354 N 
ATOM     58  N   UNL A   1      41.268  31.382  34.847  1.00  0.00    -0.248 NA
ATOM     59  C   UNL A   1      41.795  32.118  36.998  1.00  0.00     0.031 C 
ATOM     60  C   UNL A   1      43.506  28.228  32.668  1.00  0.00     0.029 A 
ATOM     61  C   UNL A   1      42.835  29.216  33.370  1.00  0.00     0.049 A 
ATOM     62  H   UNL A   1      41.066  30.246  32.856  1.00  0.00     0.167 HD
ATOM     63  C   UNL A   1      42.426  30.742  35.277  1.00  0.00     0.074 A 
ATOM     64  C   UNL A   1      42.731  31.271  36.590  1.00  0.00     0.031 C 
ATOM     65  C   UNL A   1      43.162  29.790  34.651  1.00  0.00     0.034 A 
BRANCH  52  66
ATOM     66  C   UNL A   1      40.784  27.994  29.238  1.00  0.00     0.023 A 
ATOM     67  C   UNL A   1      40.004  26.820  29.194  1.00  0.00     0.012 A 
ATOM     68  C   UNL A   1      41.610  28.318  28.144  1.00  0.00     0.148 A 
ATOM     69  C   UNL A   1      40.067  25.967  28.092  1.00  0.00     0.002 A 
ATOM     70  C   UNL A   1      41.637  27.482  27.033  1.00  0.00     0.091 A 
ATOM     71  F   UNL A   1      42.363  29.426  28.216  1.00  0.00    -0.205 F 
ATOM     72  C   UNL A   1      40.875  26.303  27.010  1.00  0.00     0.022 A 
BRANCH  70  73
ATOM     73  S   UNL A   1      42.591  27.865  25.560  1.00  0.00     0.127 S 
ATOM     74  O   UNL A   1      42.460  26.627  24.793  1.00  0.00    -0.237 OA
ATOM     75  O   UNL A   1      41.859  29.005  25.005  1.00  0.00    -0.237 OA
ATOM     76  O   UNL A   1      43.935  28.177  26.022  1.00  0.00    -0.744 OA
ENDBRANCH  70  73
ENDBRANCH  52  66
BRANCH  53  77
ATOM     77  C   UNL A   1      39.606  34.063  37.064  1.00  0.00     0.023 A 
ATOM     78  C   UNL A   1      39.997  35.414  36.984  1.00  0.00     0.012 A 
ATOM     79  C   UNL A   1      39.058  33.577  38.268  1.00  0.00     0.148 A 
ATOM     80  C   UNL A   1      39.879  36.255  38.091  1.00  0.00     0.002 A 
ATOM     81  C   UNL A   1      38.891  34.435  39.348  1.00  0.00     0.091 A 
ATOM     82  F   UNL A   1      38.712  32.283  38.332  1.00  0.00    -0.205 F 
ATOM     83  C   UNL A   1      39.319  35.770  39.269  1.00  0.00     0.022 A 
BRANCH  81  84
ATOM     84  S   UNL A   1      38.062  33.931  40.860  1.00  0.00     0.127 S 
ATOM     85  O   UNL A   1      37.845  35.212  41.526  1.00  0.00    -0.237 OA
ATOM     86  O   UNL A   1      36.851  33.292  40.342  1.00  0.00    -0.237 OA
ATOM     87  O   UNL A   1      38.981  33.017  41.527  1.00  0.00    -0.744 OA
ENDBRANCH  81  84
ENDBRANCH  53  77
BRANCH  65  88
ATOM     88  C   UNL A   1      44.389  29.269  35.359  1.00  0.00     0.023 A 
ATOM     89  C   UNL A   1      45.627  29.916  35.174  1.00  0.00     0.012 A 
ATOM     90  C   UNL A   1      44.305  28.185  36.255  1.00  0.00     0.148 A 
ATOM     91  C   UNL A   1      46.769  29.469  35.839  1.00  0.00     0.002 A 
ATOM     92  C   UNL A   1      45.438  27.775  36.950  1.00  0.00     0.091 A 
ATOM     93  F   UNL A   1      43.125  27.568  36.407  1.00  0.00    -0.205 F 
ATOM     94  C   UNL A   1      46.672  28.406  36.734  1.00  0.00     0.022 A 
BRANCH  92  95
ATOM     95  S   UNL A   1      45.377  26.476  38.192  1.00  0.00     0.127 S 
ATOM     96  O   UNL A   1      44.925  25.330  37.405  1.00  0.00    -0.237 OA
ATOM     97  O   UNL A   1      46.770  26.398  38.635  1.00  0.00    -0.237 OA
ATOM     98  O   UNL A   1      44.450  26.948  39.212  1.00  0.00    -0.744 OA
ENDBRANCH  92  95
ENDBRANCH  65  88
ENDBRANCH  39  40
ENDBRANCH  32  34
ENDBRANCH  31  32
ENDBRANCH  30  31
ENDBRANCH  29  30
ENDBRANCH  28  29
ENDBRANCH  27  28
ENDBRANCH  26  27
ENDBRANCH   1  26
TORSDOF 28
ENDMDL
MODEL 3
REMARK VINA RESULT:      -8.4      2.626      3.550
REMARK SMILES COCC[C@H](NC(=O)c1ccc(Br)nc1)C(=O)OCCOCCOCCOCCOC(=O)c1ccc(-c2c3nc(c(-c4cccc(S(=O)(=O)[O-])c4F)c4ccc([nH]4)c(-c4cccc(S(=O)(=O)[O-])c4F)c4nc(c(-c5cccc(S(=O)(=O)[O-])c5F)c5ccc2[nH]5)C=C4)C=C3)cc1
REMARK SMILES IDX 24 1 23 2 22 3 21 4 20 5 19 6 18 7 16 8 17 9 5 10 4 11 3 12
REMARK SMILES IDX 2 13 1 14 6 15 7 16 8 18 9 19 10 20 15 21 11 22 14 23 12 24
REMARK SMILES IDX 13 25 25 26 26 27 27 28 28 29 29 30 30 31 31 32 32 33 33 34
REMARK SMILES IDX 34 35 95 36 35 37 94 38 36 39 37 40 38 41 88 42 39 43 93 44
REMARK SMILES IDX 87 45 89 46 40 47 92 48 86 49 85 50 41 52 73 53 53 54 72 55
REMARK SMILES IDX 54 56 57 57 71 58 90 59 55 60 56 61 70 63 91 64 58 65 42 66
REMARK SMILES IDX 43 67 51 68 44 69 46 70 52 71 45 72 47 73 48 74 49 75 50 76
REMARK SMILES IDX 74 77 75 78 83 79 76 80 78 81 84 82 77 83 79 84 80 85 81 86
REMARK SMILES IDX 82 87 59 88 60 89 68 90 61 91 63 92 69 93 62 94 64 95 65 96
REMARK SMILES IDX 66 97 67 98
REMARK H PARENT 6 17 89 51 57 62
REMARK Flexibility Score: inf
ROOT
ATOM      1  O   UNL A   1      33.833  27.651  23.835  1.00  0.00    -0.377 OA
ENDROOT
BRANCH   1   2
ATOM      2  C   UNL A   1      32.672  27.452  23.064  1.00  0.00     0.188 C 
BRANCH   2   3
ATOM      3  C   UNL A   1      32.813  26.656  21.764  1.00  0.00     0.188 C 
BRANCH   3   4
ATOM      4  O   UNL A   1      32.147  25.391  21.711  1.00  0.00    -0.376 OA
BRANCH   4   5
ATOM      5  C   UNL A   1      32.492  24.399  22.688  1.00  0.00     0.202 C 
BRANCH   5   6
ATOM      6  C   UNL A   1      32.991  23.072  22.117  1.00  0.00     0.261 C 
BRANCH   6   7
ATOM      7  O   UNL A   1      33.436  22.245  23.212  1.00  0.00    -0.462 OA
BRANCH   7   8
ATOM      8  C   UNL A   1      32.872  21.032  23.342  1.00  0.00     0.328 C 
ATOM      9  O   UNL A   1      31.997  20.597  22.599  1.00  0.00    -0.250 OA
BRANCH   8  10
ATOM     10  C   UNL A   1      33.460  20.196  24.500  1.00  0.00     0.194 C 
BRANCH  10  11
ATOM     11  C   UNL A   1      32.682  18.875  24.610  1.00  0.00     0.065 C 
BRANCH  11  12
ATOM     12  C   UNL A   1      33.467  17.711  23.993  1.00  0.00     0.162 C 
BRANCH  12  13
ATOM     13  O   UNL A   1      33.124  16.465  24.603  1.00  0.00    -0.385 OA
ATOM     14  C   UNL A   1      34.169  15.843  25.336  1.00  0.00     0.194 C 
ENDBRANCH  12  13
ENDBRANCH  11  12
ENDBRANCH  10  11
BRANCH  10  15
ATOM     15  N   UNL A   1      33.942  20.619  25.830  1.00  0.00    -0.338 N 
ATOM     16  C   UNL A   1      33.621  21.525  26.799  1.00  0.00     0.253 C 
ATOM     17  H   UNL A   1      34.729  20.092  26.097  1.00  0.00     0.164 HD
ATOM     18  O   UNL A   1      34.043  21.318  27.937  1.00  0.00    -0.269 OA
BRANCH  16  19
ATOM     19  C   UNL A   1      32.990  22.812  26.513  1.00  0.00     0.058 A 
ATOM     20  C   UNL A   1      33.677  23.995  26.281  1.00  0.00     0.018 A 
ATOM     21  C   UNL A   1      31.596  22.838  26.501  1.00  0.00     0.126 A 
ATOM     22  C   UNL A   1      32.939  25.171  26.123  1.00  0.00     0.037 A 
ATOM     23  N   UNL A   1      30.861  23.969  26.388  1.00  0.00    -0.249 NA
ATOM     24  C   UNL A   1      31.549  25.113  26.199  1.00  0.00     0.106 A 
ATOM     25  Br  UNL A   1      30.556  26.726  26.145  1.00  0.00    -0.029 Br
ENDBRANCH  16  19
ENDBRANCH  10  15
ENDBRANCH   8  10
ENDBRANCH   7   8
ENDBRANCH   6   7
ENDBRANCH   5   6
ENDBRANCH   4   5
ENDBRANCH   3   4
ENDBRANCH   2   3
ENDBRANCH   1   2
BRANCH   1  26
ATOM     26  C   UNL A   1      33.673  28.242  25.105  1.00  0.00     0.188 C 
BRANCH  26  27
ATOM     27  C   UNL A   1      33.213  29.701  24.995  1.00  0.00     0.188 C 
BRANCH  27  28
ATOM     28  O   UNL A   1      31.918  30.061  25.471  1.00  0.00    -0.376 OA
BRANCH  28  29
ATOM     29  C   UNL A   1      31.765  30.575  26.793  1.00  0.00     0.202 C 
BRANCH  29  30
ATOM     30  C   UNL A   1      31.886  32.086  27.037  1.00  0.00     0.261 C 
BRANCH  30  31
ATOM     31  O   UNL A   1      33.229  32.581  27.202  1.00  0.00    -0.460 OA
BRANCH  31  32
ATOM     32  C   UNL A   1      33.354  33.608  28.073  1.00  0.00     0.338 C 
ATOM     33  O   UNL A   1      32.591  34.561  28.193  1.00  0.00    -0.246 OA
BRANCH  32  34
ATOM     34  C   UNL A   1      34.497  33.425  28.985  1.00  0.00     0.060 A 
ATOM     35  C   UNL A   1      35.747  33.892  28.561  1.00  0.00     0.016 A 
ATOM     36  C   UNL A   1      34.389  32.633  30.131  1.00  0.00     0.016 A 
ATOM     37  C   UNL A   1      36.904  33.498  29.230  1.00  0.00     0.010 A 
ATOM     38  C   UNL A   1      35.555  32.229  30.795  1.00  0.00     0.010 A 
ATOM     39  C   UNL A   1      36.819  32.608  30.309  1.00  0.00    -0.014 A 
BRANCH  39  40
ATOM     40  C   UNL A   1      38.055  31.913  30.756  1.00  0.00     0.031 A 
ATOM     41  C   UNL A   1      38.686  32.328  32.061  1.00  0.00     0.074 A 
ATOM     42  C   UNL A   1      38.584  30.898  30.052  1.00  0.00     0.049 A 
ATOM     43  N   UNL A   1      39.710  31.809  32.690  1.00  0.00    -0.248 NA
ATOM     44  C   UNL A   1      38.082  33.480  32.750  1.00  0.00     0.031 C 
ATOM     45  C   UNL A   1      38.078  30.403  28.774  1.00  0.00     0.029 A 
ATOM     46  N   UNL A   1      39.675  30.106  30.316  1.00  0.00    -0.354 N 
ATOM     47  C   UNL A   1      39.880  32.576  33.838  1.00  0.00     0.074 A 
ATOM     48  C   UNL A   1      38.871  33.611  33.807  1.00  0.00     0.031 C 
ATOM     49  C   UNL A   1      38.868  29.399  28.354  1.00  0.00     0.029 A 
ATOM     50  C   UNL A   1      39.937  29.185  29.330  1.00  0.00     0.049 A 
ATOM     51  H   UNL A   1      40.216  30.190  31.132  1.00  0.00     0.167 HD
ATOM     52  C   UNL A   1      40.776  32.422  34.842  1.00  0.00     0.034 A 
ATOM     53  C   UNL A   1      40.929  28.275  29.229  1.00  0.00     0.034 A 
ATOM     54  C   UNL A   1      41.769  31.383  34.889  1.00  0.00     0.049 A 
ATOM     55  C   UNL A   1      41.920  28.129  30.356  1.00  0.00     0.074 A 
ATOM     56  C   UNL A   1      42.690  31.118  35.888  1.00  0.00     0.029 A 
ATOM     57  N   UNL A   1      41.980  30.444  33.893  1.00  0.00    -0.354 N 
ATOM     58  N   UNL A   1      41.975  28.766  31.502  1.00  0.00    -0.248 NA
ATOM     59  C   UNL A   1      42.966  27.107  30.193  1.00  0.00     0.031 C 
ATOM     60  C   UNL A   1      43.472  30.029  35.485  1.00  0.00     0.029 A 
ATOM     61  C   UNL A   1      43.023  29.605  34.245  1.00  0.00     0.049 A 
ATOM     62  H   UNL A   1      41.464  30.384  33.056  1.00  0.00     0.167 HD
ATOM     63  C   UNL A   1      43.031  28.198  32.208  1.00  0.00     0.074 A 
ATOM     64  C   UNL A   1      43.574  27.149  31.371  1.00  0.00     0.031 C 
ATOM     65  C   UNL A   1      43.520  28.525  33.430  1.00  0.00     0.034 A 
BRANCH  52  66
ATOM     66  C   UNL A   1      40.693  33.382  35.998  1.00  0.00     0.023 A 
ATOM     67  C   UNL A   1      41.376  34.614  35.926  1.00  0.00     0.012 A 
ATOM     68  C   UNL A   1      39.910  33.091  37.132  1.00  0.00     0.148 A 
ATOM     69  C   UNL A   1      41.305  35.527  36.977  1.00  0.00     0.002 A 
ATOM     70  C   UNL A   1      39.813  34.024  38.158  1.00  0.00     0.091 A 
ATOM     71  F   UNL A   1      39.288  31.904  37.193  1.00  0.00    -0.205 F 
ATOM     72  C   UNL A   1      40.518  35.236  38.087  1.00  0.00     0.022 A 
BRANCH  70  73
ATOM     73  S   UNL A   1      38.767  33.773  39.597  1.00  0.00     0.127 S 
ATOM     74  O   UNL A   1      39.439  32.657  40.261  1.00  0.00    -0.237 OA
ATOM     75  O   UNL A   1      38.885  35.055  40.292  1.00  0.00    -0.237 OA
ATOM     76  O   UNL A   1      37.436  33.485  39.080  1.00  0.00    -0.744 OA
ENDBRANCH  70  73
ENDBRANCH  52  66
BRANCH  53  77
ATOM     77  C   UNL A   1      41.002  27.383  28.037  1.00  0.00     0.023 A 
ATOM     78  C   UNL A   1      41.634  27.841  26.865  1.00  0.00     0.012 A 
ATOM     79  C   UNL A   1      40.450  26.087  28.058  1.00  0.00     0.148 A 
ATOM     80  C   UNL A   1      41.685  27.039  25.724  1.00  0.00     0.002 A 
ATOM     81  C   UNL A   1      40.554  25.272  26.936  1.00  0.00     0.091 A 
ATOM     82  F   UNL A   1      39.833  25.676  29.175  1.00  0.00    -0.205 F 
ATOM     83  C   UNL A   1      41.154  25.753  25.762  1.00  0.00     0.022 A 
BRANCH  81  84
ATOM     84  S   UNL A   1      40.014  23.559  26.936  1.00  0.00     0.127 S 
ATOM     85  O   UNL A   1      40.451  23.105  28.253  1.00  0.00    -0.237 OA
ATOM     86  O   UNL A   1      38.565  23.699  26.781  1.00  0.00    -0.237 OA
ATOM     87  O   UNL A   1      40.678  22.937  25.797  1.00  0.00    -0.744 OA
ENDBRANCH  81  84
ENDBRANCH  53  77
BRANCH  65  88
ATOM     88  C   UNL A   1      44.687  27.729  33.958  1.00  0.00     0.023 A 
ATOM     89  C   UNL A   1      44.450  26.585  34.748  1.00  0.00     0.012 A 
ATOM     90  C   UNL A   1      46.012  28.070  33.620  1.00  0.00     0.148 A 
ATOM     91  C   UNL A   1      45.513  25.818  35.225  1.00  0.00     0.002 A 
ATOM     92  C   UNL A   1      47.064  27.273  34.061  1.00  0.00     0.091 A 
ATOM     93  F   UNL A   1      46.224  29.170  32.884  1.00  0.00    -0.205 F 
ATOM     94  C   UNL A   1      46.818  26.155  34.873  1.00  0.00     0.022 A 
BRANCH  92  95
ATOM     95  S   UNL A   1      48.766  27.584  33.573  1.00  0.00     0.127 S 
ATOM     96  O   UNL A   1      48.699  27.414  32.123  1.00  0.00    -0.237 OA
ATOM     97  O   UNL A   1      48.974  28.964  34.015  1.00  0.00    -0.237 OA
ATOM     98  O   UNL A   1      49.568  26.600  34.288  1.00  0.00    -0.744 OA
ENDBRANCH  92  95
ENDBRANCH  65  88
ENDBRANCH  39  40
ENDBRANCH  32  34
ENDBRANCH  31  32
ENDBRANCH  30  31
ENDBRANCH  29  30
ENDBRANCH  28  29
ENDBRANCH  27  28
ENDBRANCH  26  27
ENDBRANCH   1  26
TORSDOF 28
ENDMDL
