MODEL 1
REMARK VINA RESULT:      -9.6      0.000      0.000
REMARK SMILES O=C(OCCOCCOCCOCCOC(=O)c1ccc(-c2c3nc(c(-c4cccc(S(=O)(=O)[O-])c4F)c4ccc([nH]4)c(-c4cccc(S(=O)(=O)[O-])c4F)c4nc(c(-c5cccc(S(=O)(=O)[O-])c5F)c5ccc2[nH]5)C=C4)C=C3)cc1)C1=Cc2cc(Cl)cc(-c3ccc(Cl)cc3)c2O[C@@H]1C(F)(F)F
REMARK SMILES IDX 10 1 9 2 8 3 7 4 6 5 5 6 4 7 3 8 2 9 1 10 81 11 82 12 98 13
REMARK SMILES IDX 83 14 97 15 84 16 96 17 85 18 88 19 86 20 87 21 99 22 100 23
REMARK SMILES IDX 101 24 102 25 89 26 90 27 95 28 91 29 94 30 92 31 93 32
REMARK SMILES IDX 11 33 12 34 13 35 14 36 15 37 16 38 17 39 18 40 19 41 80 42
REMARK SMILES IDX 20 43 79 44 21 45 22 46 23 47 73 48 24 49 78 50 72 51 74 52
REMARK SMILES IDX 25 53 77 54 71 55 70 56 26 58 58 59 38 60 57 61 39 62 42 63
REMARK SMILES IDX 56 64 75 65 40 66 41 67 55 69 76 70 43 71 27 72 28 73 36 74
REMARK SMILES IDX 29 75 31 76 37 77 30 78 32 79 33 80 34 81 35 82 59 83 60 84
REMARK SMILES IDX 68 85 61 86 63 87 69 88 62 89 64 90 65 91 66 92 67 93 44 94
REMARK SMILES IDX 45 95 53 96 46 97 48 98 54 99 47 100 49 101 50 102 51 103
REMARK SMILES IDX 52 104
REMARK H PARENT 74 57 42 68
REMARK Flexibility Score: inf
ROOT
ATOM      1  C   UNL A   1      36.138  22.266  24.653  1.00  0.00     0.188 C 
ENDROOT
BRANCH   1   2
ATOM      2  O   UNL A   1      35.352  23.433  24.658  1.00  0.00    -0.377 OA
BRANCH   2   3
ATOM      3  C   UNL A   1      34.015  23.093  24.883  1.00  0.00     0.188 C 
BRANCH   3   4
ATOM      4  C   UNL A   1      33.158  23.667  23.771  1.00  0.00     0.188 C 
BRANCH   4   5
ATOM      5  O   UNL A   1      31.743  23.364  23.532  1.00  0.00    -0.376 OA
BRANCH   5   6
ATOM      6  C   UNL A   1      30.344  24.231  23.402  1.00  0.00     0.202 C 
BRANCH   6   7
ATOM      7  C   UNL A   1      29.683  25.892  24.657  1.00  0.00     0.261 C 
BRANCH   7   8
ATOM      8  O   UNL A   1      30.268  27.301  24.671  1.00  0.00    -0.460 OA
BRANCH   8   9
ATOM      9  C   UNL A   1      31.105  27.499  25.696  1.00  0.00     0.338 C 
ATOM     10  O   UNL A   1      30.959  27.207  26.857  1.00  0.00    -0.246 OA
BRANCH   9  11
ATOM     11  C   UNL A   1      31.900  28.534  25.061  1.00  0.00     0.087 C 
ATOM     12  C   UNL A   1      31.832  29.834  25.716  1.00  0.00     0.027 C 
ATOM     13  C   UNL A   1      33.473  27.437  24.952  1.00  0.00     0.316 C 
ATOM     14  C   UNL A   1      33.143  30.520  26.733  1.00  0.00     0.019 A 
ATOM     15  O   UNL A   1      34.869  28.086  26.166  1.00  0.00    -0.475 OA
ATOM     16  C   UNL A   1      32.901  31.741  27.309  1.00  0.00     0.032 A 
ATOM     17  C   UNL A   1      34.602  29.650  27.116  1.00  0.00     0.135 A 
ATOM     18  C   UNL A   1      33.885  32.195  28.188  1.00  0.00     0.042 A 
ATOM     19  C   UNL A   1      35.467  30.152  28.098  1.00  0.00     0.026 A 
ATOM     20  Cl  UNL A   1      33.647  33.755  28.905  1.00  0.00    -0.084 Cl
ATOM     21  C   UNL A   1      35.065  31.452  28.563  1.00  0.00     0.033 A 
BRANCH  13  22
ATOM     22  C   UNL A   1      33.266  27.396  23.249  1.00  0.00     0.430 C 
ATOM     23  F   UNL A   1      33.219  28.536  22.535  1.00  0.00    -0.167 F 
ATOM     24  F   UNL A   1      34.380  26.767  22.750  1.00  0.00    -0.167 F 
ATOM     25  F   UNL A   1      32.232  26.624  22.823  1.00  0.00    -0.167 F 
ENDBRANCH  13  22
BRANCH  19  26
ATOM     26  C   UNL A   1      36.651  29.599  28.758  1.00  0.00    -0.015 A 
ATOM     27  C   UNL A   1      36.784  29.491  30.152  1.00  0.00     0.010 A 
ATOM     28  C   UNL A   1      37.809  29.380  28.035  1.00  0.00     0.010 A 
ATOM     29  C   UNL A   1      37.944  28.947  30.741  1.00  0.00     0.021 A 
ATOM     30  C   UNL A   1      38.868  28.654  28.574  1.00  0.00     0.021 A 
ATOM     31  C   UNL A   1      38.945  28.438  29.933  1.00  0.00     0.041 A 
ATOM     32  Cl  UNL A   1      40.299  27.603  30.576  1.00  0.00    -0.084 Cl
ENDBRANCH  19  26
ENDBRANCH   9  11
ENDBRANCH   8   9
ENDBRANCH   7   8
ENDBRANCH   6   7
ENDBRANCH   5   6
ENDBRANCH   4   5
ENDBRANCH   3   4
ENDBRANCH   2   3
ENDBRANCH   1   2
BRANCH   1  33
ATOM     33  C   UNL A   1      37.164  22.115  25.764  1.00  0.00     0.188 C 
BRANCH  33  34
ATOM     34  O   UNL A   1      38.456  21.787  25.327  1.00  0.00    -0.376 OA
BRANCH  34  35
ATOM     35  C   UNL A   1      39.024  20.542  25.714  1.00  0.00     0.202 C 
BRANCH  35  36
ATOM     36  C   UNL A   1      40.466  20.345  26.244  1.00  0.00     0.261 C 
BRANCH  36  37
ATOM     37  O   UNL A   1      41.436  21.387  26.045  1.00  0.00    -0.460 OA
BRANCH  37  38
ATOM     38  C   UNL A   1      42.690  21.053  25.676  1.00  0.00     0.338 C 
ATOM     39  O   UNL A   1      43.037  20.034  25.110  1.00  0.00    -0.246 OA
BRANCH  38  40
ATOM     40  C   UNL A   1      43.539  22.263  25.866  1.00  0.00     0.060 A 
ATOM     41  C   UNL A   1      44.433  22.312  26.949  1.00  0.00     0.016 A 
ATOM     42  C   UNL A   1      43.492  23.322  24.957  1.00  0.00     0.016 A 
ATOM     43  C   UNL A   1      45.244  23.436  27.153  1.00  0.00     0.010 A 
ATOM     44  C   UNL A   1      44.308  24.443  25.158  1.00  0.00     0.010 A 
ATOM     45  C   UNL A   1      45.153  24.532  26.286  1.00  0.00    -0.014 A 
BRANCH  45  46
ATOM     46  C   UNL A   1      45.640  25.872  26.722  1.00  0.00     0.031 A 
ATOM     47  C   UNL A   1      47.045  26.227  26.300  1.00  0.00     0.074 A 
ATOM     48  C   UNL A   1      44.917  26.757  27.438  1.00  0.00     0.049 A 
ATOM     49  N   UNL A   1      47.727  27.321  26.509  1.00  0.00    -0.248 NA
ATOM     50  C   UNL A   1      47.786  25.198  25.547  1.00  0.00     0.031 C 
ATOM     51  C   UNL A   1      43.546  26.572  27.905  1.00  0.00     0.029 A 
ATOM     52  N   UNL A   1      45.260  28.001  27.921  1.00  0.00    -0.354 N 
ATOM     53  C   UNL A   1      48.970  27.094  25.934  1.00  0.00     0.074 A 
ATOM     54  C   UNL A   1      48.985  25.739  25.446  1.00  0.00     0.031 C 
ATOM     55  C   UNL A   1      43.179  27.637  28.644  1.00  0.00     0.029 A 
ATOM     56  C   UNL A   1      44.283  28.595  28.690  1.00  0.00     0.049 A 
ATOM     57  H   UNL A   1      46.127  28.428  27.734  1.00  0.00     0.167 HD
ATOM     58  C   UNL A   1      50.003  27.947  25.768  1.00  0.00     0.034 A 
ATOM     59  C   UNL A   1      44.278  29.778  29.343  1.00  0.00     0.034 A 
ATOM     60  C   UNL A   1      50.001  29.297  26.239  1.00  0.00     0.049 A 
ATOM     61  C   UNL A   1      45.467  30.702  29.198  1.00  0.00     0.074 A 
ATOM     62  C   UNL A   1      50.976  30.263  26.081  1.00  0.00     0.029 A 
ATOM     63  N   UNL A   1      48.984  29.863  26.989  1.00  0.00    -0.354 N 
ATOM     64  N   UNL A   1      46.579  30.522  28.526  1.00  0.00    -0.248 NA
ATOM     65  C   UNL A   1      45.371  32.021  29.844  1.00  0.00     0.031 C 
ATOM     66  C   UNL A   1      50.578  31.395  26.796  1.00  0.00     0.029 A 
ATOM     67  C   UNL A   1      49.317  31.160  27.324  1.00  0.00     0.049 A 
ATOM     68  H   UNL A   1      48.150  29.408  27.246  1.00  0.00     0.167 HD
ATOM     69  C   UNL A   1      47.276  31.725  28.606  1.00  0.00     0.074 A 
ATOM     70  C   UNL A   1      46.461  32.626  29.393  1.00  0.00     0.031 C 
ATOM     71  C   UNL A   1      48.475  32.059  28.066  1.00  0.00     0.034 A 
BRANCH  58  72
ATOM     72  C   UNL A   1      51.214  27.421  25.049  1.00  0.00     0.023 A 
ATOM     73  C   UNL A   1      51.249  27.389  23.638  1.00  0.00     0.012 A 
ATOM     74  C   UNL A   1      52.313  26.939  25.781  1.00  0.00     0.148 A 
ATOM     75  C   UNL A   1      52.336  26.832  22.969  1.00  0.00     0.002 A 
ATOM     76  C   UNL A   1      53.418  26.444  25.107  1.00  0.00     0.091 A 
ATOM     77  F   UNL A   1      52.243  26.951  27.119  1.00  0.00    -0.205 F 
ATOM     78  C   UNL A   1      53.425  26.370  23.704  1.00  0.00     0.022 A 
BRANCH  76  79
ATOM     79  S   UNL A   1      54.902  25.907  25.959  1.00  0.00     0.127 S 
ATOM     80  O   UNL A   1      54.437  24.687  26.620  1.00  0.00    -0.237 OA
ATOM     81  O   UNL A   1      55.825  25.686  24.847  1.00  0.00    -0.237 OA
ATOM     82  O   UNL A   1      55.272  26.993  26.854  1.00  0.00    -0.744 OA
ENDBRANCH  76  79
ENDBRANCH  58  72
BRANCH  59  83
ATOM     83  C   UNL A   1      43.087  30.219  30.134  1.00  0.00     0.023 A 
ATOM     84  C   UNL A   1      42.087  31.000  29.516  1.00  0.00     0.012 A 
ATOM     85  C   UNL A   1      42.964  29.916  31.504  1.00  0.00     0.148 A 
ATOM     86  C   UNL A   1      41.018  31.513  30.257  1.00  0.00     0.002 A 
ATOM     87  C   UNL A   1      41.871  30.387  32.224  1.00  0.00     0.091 A 
ATOM     88  F   UNL A   1      43.923  29.176  32.077  1.00  0.00    -0.205 F 
ATOM     89  C   UNL A   1      40.909  31.204  31.609  1.00  0.00     0.022 A 
BRANCH  87  90
ATOM     90  S   UNL A   1      41.583  29.962  33.946  1.00  0.00     0.127 S 
ATOM     91  O   UNL A   1      42.619  30.738  34.624  1.00  0.00    -0.237 OA
ATOM     92  O   UNL A   1      40.219  30.448  34.147  1.00  0.00    -0.237 OA
ATOM     93  O   UNL A   1      41.729  28.516  34.027  1.00  0.00    -0.744 OA
ENDBRANCH  87  90
ENDBRANCH  59  83
BRANCH  71  94
ATOM     94  C   UNL A   1      48.949  33.482  28.214  1.00  0.00     0.023 A 
ATOM     95  C   UNL A   1      49.840  33.846  29.242  1.00  0.00     0.012 A 
ATOM     96  C   UNL A   1      48.554  34.448  27.266  1.00  0.00     0.148 A 
ATOM     97  C   UNL A   1      50.288  35.161  29.353  1.00  0.00     0.002 A 
ATOM     98  C   UNL A   1      49.056  35.740  27.346  1.00  0.00     0.091 A 
ATOM     99  F   UNL A   1      47.696  34.087  26.302  1.00  0.00    -0.205 F 
ATOM    100  C   UNL A   1      49.907  36.104  28.400  1.00  0.00     0.022 A 
BRANCH  98 101
ATOM    101  S   UNL A   1      48.706  36.983  26.098  1.00  0.00     0.127 S 
ATOM    102  O   UNL A   1      49.270  38.185  26.710  1.00  0.00    -0.237 OA
ATOM    103  O   UNL A   1      49.451  36.479  24.945  1.00  0.00    -0.237 OA
ATOM    104  O   UNL A   1      47.260  36.990  25.928  1.00  0.00    -0.744 OA
ENDBRANCH  98 101
ENDBRANCH  71  94
ENDBRANCH  45  46
ENDBRANCH  38  40
ENDBRANCH  37  38
ENDBRANCH  36  37
ENDBRANCH  35  36
ENDBRANCH  34  35
ENDBRANCH  33  34
ENDBRANCH   1  33
TORSDOF 25
ENDMDL
MODEL 2
REMARK VINA RESULT:      -9.1      4.082      9.626
REMARK SMILES O=C(OCCOCCOCCOCCOC(=O)c1ccc(-c2c3nc(c(-c4cccc(S(=O)(=O)[O-])c4F)c4ccc([nH]4)c(-c4cccc(S(=O)(=O)[O-])c4F)c4nc(c(-c5cccc(S(=O)(=O)[O-])c5F)c5ccc2[nH]5)C=C4)C=C3)cc1)C1=Cc2cc(Cl)cc(-c3ccc(Cl)cc3)c2O[C@@H]1C(F)(F)F
REMARK SMILES IDX 10 1 9 2 8 3 7 4 6 5 5 6 4 7 3 8 2 9 1 10 81 11 82 12 98 13
REMARK SMILES IDX 83 14 97 15 84 16 96 17 85 18 88 19 86 20 87 21 99 22 100 23
REMARK SMILES IDX 101 24 102 25 89 26 90 27 95 28 91 29 94 30 92 31 93 32
REMARK SMILES IDX 11 33 12 34 13 35 14 36 15 37 16 38 17 39 18 40 19 41 80 42
REMARK SMILES IDX 20 43 79 44 21 45 22 46 23 47 73 48 24 49 78 50 72 51 74 52
REMARK SMILES IDX 25 53 77 54 71 55 70 56 26 58 58 59 38 60 57 61 39 62 42 63
REMARK SMILES IDX 56 64 75 65 40 66 41 67 55 69 76 70 43 71 27 72 28 73 36 74
REMARK SMILES IDX 29 75 31 76 37 77 30 78 32 79 33 80 34 81 35 82 59 83 60 84
REMARK SMILES IDX 68 85 61 86 63 87 69 88 62 89 64 90 65 91 66 92 67 93 44 94
REMARK SMILES IDX 45 95 53 96 46 97 48 98 54 99 47 100 49 101 50 102 51 103
REMARK SMILES IDX 52 104
REMARK H PARENT 74 57 42 68
REMARK Flexibility Score: inf
ROOT
ATOM      1  C   UNL A   1      39.531  27.996  28.371  1.00  0.00     0.188 C 
ENDROOT
BRANCH   1   2
ATOM      2  O   UNL A   1      39.558  27.057  27.324  1.00  0.00    -0.377 OA
BRANCH   2   3
ATOM      3  C   UNL A   1      40.558  26.111  27.571  1.00  0.00     0.188 C 
BRANCH   3   4
ATOM      4  C   UNL A   1      40.001  24.720  27.339  1.00  0.00     0.188 C 
BRANCH   4   5
ATOM      5  O   UNL A   1      38.593  24.386  27.103  1.00  0.00    -0.376 OA
BRANCH   5   6
ATOM      6  C   UNL A   1      37.658  24.020  25.792  1.00  0.00     0.202 C 
BRANCH   6   7
ATOM      7  C   UNL A   1      35.729  22.996  25.776  1.00  0.00     0.261 C 
BRANCH   7   8
ATOM      8  O   UNL A   1      34.786  22.866  24.583  1.00  0.00    -0.460 OA
BRANCH   8   9
ATOM      9  C   UNL A   1      34.378  24.053  24.120  1.00  0.00     0.338 C 
ATOM     10  O   UNL A   1      34.847  24.716  23.228  1.00  0.00    -0.246 OA
BRANCH   9  11
ATOM     11  C   UNL A   1      33.605  24.429  25.289  1.00  0.00     0.087 C 
ATOM     12  C   UNL A   1      34.100  25.609  25.986  1.00  0.00     0.027 C 
ATOM     13  C   UNL A   1      31.922  24.318  24.370  1.00  0.00     0.316 C 
ATOM     14  C   UNL A   1      33.327  27.228  25.901  1.00  0.00     0.019 A 
ATOM     15  O   UNL A   1      31.129  26.095  24.138  1.00  0.00    -0.475 OA
ATOM     16  C   UNL A   1      33.945  28.242  26.587  1.00  0.00     0.032 A 
ATOM     17  C   UNL A   1      31.949  27.571  24.893  1.00  0.00     0.135 A 
ATOM     18  C   UNL A   1      33.393  29.511  26.407  1.00  0.00     0.042 A 
ATOM     19  C   UNL A   1      31.549  28.900  24.701  1.00  0.00     0.026 A 
ATOM     20  Cl  UNL A   1      34.110  30.818  27.291  1.00  0.00    -0.084 Cl
ATOM     21  C   UNL A   1      32.293  29.816  25.523  1.00  0.00     0.033 A 
BRANCH  13  22
ATOM     22  C   UNL A   1      31.552  22.936  25.317  1.00  0.00     0.430 C 
ATOM     23  F   UNL A   1      32.000  22.830  26.582  1.00  0.00    -0.167 F 
ATOM     24  F   UNL A   1      30.188  22.943  25.475  1.00  0.00    -0.167 F 
ATOM     25  F   UNL A   1      31.809  21.748  24.709  1.00  0.00    -0.167 F 
ENDBRANCH  13  22
BRANCH  19  26
ATOM     26  C   UNL A   1      30.570  29.526  23.809  1.00  0.00    -0.015 A 
ATOM     27  C   UNL A   1      29.900  30.723  24.109  1.00  0.00     0.010 A 
ATOM     28  C   UNL A   1      30.074  28.826  22.725  1.00  0.00     0.010 A 
ATOM     29  C   UNL A   1      28.968  31.289  23.216  1.00  0.00     0.021 A 
ATOM     30  C   UNL A   1      29.322  29.462  21.741  1.00  0.00     0.021 A 
ATOM     31  C   UNL A   1      28.759  30.696  21.983  1.00  0.00     0.041 A 
ATOM     32  Cl  UNL A   1      27.777  31.423  20.778  1.00  0.00    -0.084 Cl
ENDBRANCH  19  26
ENDBRANCH   9  11
ENDBRANCH   8   9
ENDBRANCH   7   8
ENDBRANCH   6   7
ENDBRANCH   5   6
ENDBRANCH   4   5
ENDBRANCH   3   4
ENDBRANCH   2   3
ENDBRANCH   1   2
BRANCH   1  33
ATOM     33  C   UNL A   1      38.562  27.736  29.513  1.00  0.00     0.188 C 
BRANCH  33  34
ATOM     34  O   UNL A   1      37.951  28.886  30.035  1.00  0.00    -0.376 OA
BRANCH  34  35
ATOM     35  C   UNL A   1      37.680  28.955  31.429  1.00  0.00     0.202 C 
BRANCH  35  36
ATOM     36  C   UNL A   1      36.984  30.138  32.145  1.00  0.00     0.261 C 
BRANCH  36  37
ATOM     37  O   UNL A   1      37.522  31.464  31.998  1.00  0.00    -0.460 OA
BRANCH  37  38
ATOM     38  C   UNL A   1      38.468  31.887  32.863  1.00  0.00     0.338 C 
ATOM     39  O   UNL A   1      38.344  32.034  34.064  1.00  0.00    -0.246 OA
BRANCH  38  40
ATOM     40  C   UNL A   1      39.760  31.911  32.121  1.00  0.00     0.060 A 
ATOM     41  C   UNL A   1      40.946  32.198  32.816  1.00  0.00     0.016 A 
ATOM     42  C   UNL A   1      39.810  31.604  30.760  1.00  0.00     0.016 A 
ATOM     43  C   UNL A   1      42.176  32.227  32.144  1.00  0.00     0.010 A 
ATOM     44  C   UNL A   1      41.041  31.627  30.090  1.00  0.00     0.010 A 
ATOM     45  C   UNL A   1      42.227  31.990  30.766  1.00  0.00    -0.014 A 
BRANCH  45  46
ATOM     46  C   UNL A   1      43.400  32.451  29.970  1.00  0.00     0.031 A 
ATOM     47  C   UNL A   1      43.337  33.877  29.478  1.00  0.00     0.074 A 
ATOM     48  C   UNL A   1      44.481  31.697  29.685  1.00  0.00     0.049 A 
ATOM     49  N   UNL A   1      44.210  34.561  28.789  1.00  0.00    -0.248 NA
ATOM     50  C   UNL A   1      42.111  34.631  29.801  1.00  0.00     0.031 C 
ATOM     51  C   UNL A   1      44.701  30.315  30.101  1.00  0.00     0.029 A 
ATOM     52  N   UNL A   1      45.604  31.996  28.945  1.00  0.00    -0.354 N 
ATOM     53  C   UNL A   1      43.625  35.803  28.584  1.00  0.00     0.074 A 
ATOM     54  C   UNL A   1      42.297  35.757  29.140  1.00  0.00     0.031 C 
ATOM     55  C   UNL A   1      45.858  29.869  29.574  1.00  0.00     0.029 A 
ATOM     56  C   UNL A   1      46.477  30.941  28.795  1.00  0.00     0.049 A 
ATOM     57  H   UNL A   1      45.768  32.886  28.555  1.00  0.00     0.167 HD
ATOM     58  C   UNL A   1      44.154  36.916  28.031  1.00  0.00     0.034 A 
ATOM     59  C   UNL A   1      47.645  30.856  28.121  1.00  0.00     0.034 A 
ATOM     60  C   UNL A   1      45.473  36.979  27.482  1.00  0.00     0.049 A 
ATOM     61  C   UNL A   1      48.199  32.096  27.454  1.00  0.00     0.074 A 
ATOM     62  C   UNL A   1      46.126  38.070  26.942  1.00  0.00     0.029 A 
ATOM     63  N   UNL A   1      46.329  35.897  27.375  1.00  0.00    -0.354 N 
ATOM     64  N   UNL A   1      47.691  33.303  27.397  1.00  0.00    -0.248 NA
ATOM     65  C   UNL A   1      49.522  31.978  26.819  1.00  0.00     0.031 C 
ATOM     66  C   UNL A   1      47.354  37.631  26.445  1.00  0.00     0.029 A 
ATOM     67  C   UNL A   1      47.499  36.287  26.754  1.00  0.00     0.049 A 
ATOM     68  H   UNL A   1      46.132  34.986  27.692  1.00  0.00     0.167 HD
ATOM     69  C   UNL A   1      48.659  34.100  26.791  1.00  0.00     0.074 A 
ATOM     70  C   UNL A   1      49.783  33.237  26.498  1.00  0.00     0.031 C 
ATOM     71  C   UNL A   1      48.627  35.427  26.514  1.00  0.00     0.034 A 
BRANCH  58  72
ATOM     72  C   UNL A   1      43.284  38.141  28.000  1.00  0.00     0.023 A 
ATOM     73  C   UNL A   1      42.554  38.470  26.837  1.00  0.00     0.012 A 
ATOM     74  C   UNL A   1      43.208  38.978  29.126  1.00  0.00     0.148 A 
ATOM     75  C   UNL A   1      41.808  39.644  26.778  1.00  0.00     0.002 A 
ATOM     76  C   UNL A   1      42.411  40.112  29.082  1.00  0.00     0.091 A 
ATOM     77  F   UNL A   1      43.934  38.662  30.208  1.00  0.00    -0.205 F 
ATOM     78  C   UNL A   1      41.728  40.459  27.904  1.00  0.00     0.022 A 
BRANCH  76  79
ATOM     79  S   UNL A   1      42.175  41.177  30.505  1.00  0.00     0.127 S 
ATOM     80  O   UNL A   1      40.726  41.371  30.491  1.00  0.00    -0.237 OA
ATOM     81  O   UNL A   1      42.669  40.337  31.595  1.00  0.00    -0.237 OA
ATOM     82  O   UNL A   1      42.963  42.375  30.251  1.00  0.00    -0.744 OA
ENDBRANCH  76  79
ENDBRANCH  58  72
BRANCH  59  83
ATOM     83  C   UNL A   1      48.431  29.583  28.093  1.00  0.00     0.023 A 
ATOM     84  C   UNL A   1      49.517  29.412  28.978  1.00  0.00     0.012 A 
ATOM     85  C   UNL A   1      48.143  28.565  27.164  1.00  0.00     0.148 A 
ATOM     86  C   UNL A   1      50.331  28.279  28.902  1.00  0.00     0.002 A 
ATOM     87  C   UNL A   1      48.928  27.416  27.128  1.00  0.00     0.091 A 
ATOM     88  F   UNL A   1      47.111  28.743  26.328  1.00  0.00    -0.205 F 
ATOM     89  C   UNL A   1      50.035  27.281  27.980  1.00  0.00     0.022 A 
BRANCH  87  90
ATOM     90  S   UNL A   1      48.570  26.026  26.047  1.00  0.00     0.127 S 
ATOM     91  O   UNL A   1      48.658  26.643  24.725  1.00  0.00    -0.237 OA
ATOM     92  O   UNL A   1      49.661  25.109  26.373  1.00  0.00    -0.237 OA
ATOM     93  O   UNL A   1      47.248  25.555  26.432  1.00  0.00    -0.744 OA
ENDBRANCH  87  90
ENDBRANCH  59  83
BRANCH  71  94
ATOM     94  C   UNL A   1      49.870  36.067  25.951  1.00  0.00     0.023 A 
ATOM     95  C   UNL A   1      50.196  35.940  24.587  1.00  0.00     0.012 A 
ATOM     96  C   UNL A   1      50.681  36.863  26.785  1.00  0.00     0.148 A 
ATOM     97  C   UNL A   1      51.338  36.555  24.075  1.00  0.00     0.002 A 
ATOM     98  C   UNL A   1      51.779  37.526  26.254  1.00  0.00     0.091 A 
ATOM     99  F   UNL A   1      50.362  36.963  28.084  1.00  0.00    -0.205 F 
ATOM    100  C   UNL A   1      52.122  37.357  24.904  1.00  0.00     0.022 A 
BRANCH  98 101
ATOM    101  S   UNL A   1      52.774  38.664  27.223  1.00  0.00     0.127 S 
ATOM    102  O   UNL A   1      51.747  39.477  27.872  1.00  0.00    -0.237 OA
ATOM    103  O   UNL A   1      53.492  37.759  28.119  1.00  0.00    -0.237 OA
ATOM    104  O   UNL A   1      53.621  39.372  26.273  1.00  0.00    -0.744 OA
ENDBRANCH  98 101
ENDBRANCH  71  94
ENDBRANCH  45  46
ENDBRANCH  38  40
ENDBRANCH  37  38
ENDBRANCH  36  37
ENDBRANCH  35  36
ENDBRANCH  34  35
ENDBRANCH  33  34
ENDBRANCH   1  33
TORSDOF 25
ENDMDL
MODEL 3
REMARK VINA RESULT:      -8.8      1.854      2.168
REMARK SMILES O=C(OCCOCCOCCOCCOC(=O)c1ccc(-c2c3nc(c(-c4cccc(S(=O)(=O)[O-])c4F)c4ccc([nH]4)c(-c4cccc(S(=O)(=O)[O-])c4F)c4nc(c(-c5cccc(S(=O)(=O)[O-])c5F)c5ccc2[nH]5)C=C4)C=C3)cc1)C1=Cc2cc(Cl)cc(-c3ccc(Cl)cc3)c2O[C@@H]1C(F)(F)F
REMARK SMILES IDX 10 1 9 2 8 3 7 4 6 5 5 6 4 7 3 8 2 9 1 10 81 11 82 12 98 13
REMARK SMILES IDX 83 14 97 15 84 16 96 17 85 18 88 19 86 20 87 21 99 22 100 23
REMARK SMILES IDX 101 24 102 25 89 26 90 27 95 28 91 29 94 30 92 31 93 32
REMARK SMILES IDX 11 33 12 34 13 35 14 36 15 37 16 38 17 39 18 40 19 41 80 42
REMARK SMILES IDX 20 43 79 44 21 45 22 46 23 47 73 48 24 49 78 50 72 51 74 52
REMARK SMILES IDX 25 53 77 54 71 55 70 56 26 58 58 59 38 60 57 61 39 62 42 63
REMARK SMILES IDX 56 64 75 65 40 66 41 67 55 69 76 70 43 71 27 72 28 73 36 74
REMARK SMILES IDX 29 75 31 76 37 77 30 78 32 79 33 80 34 81 35 82 59 83 60 84
REMARK SMILES IDX 68 85 61 86 63 87 69 88 62 89 64 90 65 91 66 92 67 93 44 94
REMARK SMILES IDX 45 95 53 96 46 97 48 98 54 99 47 100 49 101 50 102 51 103
REMARK SMILES IDX 52 104
REMARK H PARENT 74 57 42 68
REMARK Flexibility Score: inf
ROOT
ATOM      1  C   UNL A   1      36.182  22.485  24.656  1.00  0.00     0.188 C 
ENDROOT
BRANCH   1   2
ATOM      2  O   UNL A   1      35.420  23.661  24.533  1.00  0.00    -0.377 OA
BRANCH   2   3
ATOM      3  C   UNL A   1      34.081  23.382  24.827  1.00  0.00     0.188 C 
BRANCH   3   4
ATOM      4  C   UNL A   1      33.194  24.013  23.770  1.00  0.00     0.188 C 
BRANCH   4   5
ATOM      5  O   UNL A   1      31.750  23.809  23.626  1.00  0.00    -0.376 OA
BRANCH   5   6
ATOM      6  C   UNL A   1      30.401  24.759  23.664  1.00  0.00     0.202 C 
BRANCH   6   7
ATOM      7  C   UNL A   1      29.941  26.365  25.072  1.00  0.00     0.261 C 
BRANCH   7   8
ATOM      8  O   UNL A   1      30.539  27.769  25.067  1.00  0.00    -0.460 OA
BRANCH   8   9
ATOM      9  C   UNL A   1      31.370  27.977  26.094  1.00  0.00     0.338 C 
ATOM     10  O   UNL A   1      31.239  27.652  27.249  1.00  0.00    -0.246 OA
BRANCH   9  11
ATOM     11  C   UNL A   1      32.121  29.057  25.482  1.00  0.00     0.087 C 
ATOM     12  C   UNL A   1      32.092  30.310  26.226  1.00  0.00     0.027 C 
ATOM     13  C   UNL A   1      33.686  27.981  25.200  1.00  0.00     0.316 C 
ATOM     14  C   UNL A   1      33.463  30.935  27.203  1.00  0.00     0.019 A 
ATOM     15  O   UNL A   1      35.155  28.556  26.364  1.00  0.00    -0.475 OA
ATOM     16  C   UNL A   1      33.255  32.113  27.874  1.00  0.00     0.032 A 
ATOM     17  C   UNL A   1      34.945  30.050  27.433  1.00  0.00     0.135 A 
ATOM     18  C   UNL A   1      34.292  32.513  28.718  1.00  0.00     0.042 A 
ATOM     19  C   UNL A   1      35.870  30.491  28.390  1.00  0.00     0.026 A 
ATOM     20  Cl  UNL A   1      34.096  34.019  29.552  1.00  0.00    -0.084 Cl
ATOM     21  C   UNL A   1      35.494  31.754  28.966  1.00  0.00     0.033 A 
BRANCH  13  22
ATOM     22  C   UNL A   1      33.372  28.054  23.515  1.00  0.00     0.430 C 
ATOM     23  F   UNL A   1      32.797  29.141  22.969  1.00  0.00    -0.167 F 
ATOM     24  F   UNL A   1      34.600  28.016  22.901  1.00  0.00    -0.167 F 
ATOM     25  F   UNL A   1      32.719  26.972  23.014  1.00  0.00    -0.167 F 
ENDBRANCH  13  22
BRANCH  19  26
ATOM     26  C   UNL A   1      37.095  29.903  28.936  1.00  0.00    -0.015 A 
ATOM     27  C   UNL A   1      38.360  30.058  28.346  1.00  0.00     0.010 A 
ATOM     28  C   UNL A   1      37.020  28.950  29.935  1.00  0.00     0.010 A 
ATOM     29  C   UNL A   1      39.512  29.474  28.912  1.00  0.00     0.021 A 
ATOM     30  C   UNL A   1      38.158  28.541  30.624  1.00  0.00     0.021 A 
ATOM     31  C   UNL A   1      39.413  28.795  30.113  1.00  0.00     0.041 A 
ATOM     32  Cl  UNL A   1      40.794  28.214  30.948  1.00  0.00    -0.084 Cl
ENDBRANCH  19  26
ENDBRANCH   9  11
ENDBRANCH   8   9
ENDBRANCH   7   8
ENDBRANCH   6   7
ENDBRANCH   5   6
ENDBRANCH   4   5
ENDBRANCH   3   4
ENDBRANCH   2   3
ENDBRANCH   1   2
BRANCH   1  33
ATOM     33  C   UNL A   1      37.180  22.421  25.800  1.00  0.00     0.188 C 
BRANCH  33  34
ATOM     34  O   UNL A   1      38.490  22.095  25.416  1.00  0.00    -0.376 OA
BRANCH  34  35
ATOM     35  C   UNL A   1      39.105  20.937  25.964  1.00  0.00     0.202 C 
BRANCH  35  36
ATOM     36  C   UNL A   1      40.532  20.883  26.565  1.00  0.00     0.261 C 
BRANCH  36  37
ATOM     37  O   UNL A   1      41.489  21.890  26.192  1.00  0.00    -0.460 OA
BRANCH  37  38
ATOM     38  C   UNL A   1      42.718  21.506  25.785  1.00  0.00     0.338 C 
ATOM     39  O   UNL A   1      43.006  20.472  25.212  1.00  0.00    -0.246 OA
BRANCH  38  40
ATOM     40  C   UNL A   1      43.618  22.681  25.945  1.00  0.00     0.060 A 
ATOM     41  C   UNL A   1      44.589  22.671  26.960  1.00  0.00     0.016 A 
ATOM     42  C   UNL A   1      43.542  23.767  25.069  1.00  0.00     0.016 A 
ATOM     43  C   UNL A   1      45.450  23.763  27.134  1.00  0.00     0.010 A 
ATOM     44  C   UNL A   1      44.408  24.856  25.240  1.00  0.00     0.010 A 
ATOM     45  C   UNL A   1      45.335  24.885  26.305  1.00  0.00    -0.014 A 
BRANCH  45  46
ATOM     46  C   UNL A   1      45.896  26.196  26.740  1.00  0.00     0.031 A 
ATOM     47  C   UNL A   1      47.312  26.480  26.297  1.00  0.00     0.074 A 
ATOM     48  C   UNL A   1      45.231  27.113  27.471  1.00  0.00     0.049 A 
ATOM     49  N   UNL A   1      48.053  27.536  26.500  1.00  0.00    -0.248 NA
ATOM     50  C   UNL A   1      47.987  25.418  25.529  1.00  0.00     0.031 C 
ATOM     51  C   UNL A   1      43.860  26.997  27.958  1.00  0.00     0.029 A 
ATOM     52  N   UNL A   1      45.645  28.336  27.954  1.00  0.00    -0.354 N 
ATOM     53  C   UNL A   1      49.273  27.248  25.905  1.00  0.00     0.074 A 
ATOM     54  C   UNL A   1      49.210  25.897  25.412  1.00  0.00     0.031 C 
ATOM     55  C   UNL A   1      43.560  28.076  28.707  1.00  0.00     0.029 A 
ATOM     56  C   UNL A   1      44.713  28.975  28.741  1.00  0.00     0.049 A 
ATOM     57  H   UNL A   1      46.531  28.718  27.755  1.00  0.00     0.167 HD
ATOM     58  C   UNL A   1      50.347  28.048  25.728  1.00  0.00     0.034 A 
ATOM     59  C   UNL A   1      44.778  30.154  29.398  1.00  0.00     0.034 A 
ATOM     60  C   UNL A   1      50.421  29.394  26.205  1.00  0.00     0.049 A 
ATOM     61  C   UNL A   1      46.012  31.015  29.239  1.00  0.00     0.074 A 
ATOM     62  C   UNL A   1      51.443  30.308  26.036  1.00  0.00     0.029 A 
ATOM     63  N   UNL A   1      49.447  30.007  26.972  1.00  0.00    -0.354 N 
ATOM     64  N   UNL A   1      47.102  30.782  28.549  1.00  0.00    -0.248 NA
ATOM     65  C   UNL A   1      45.993  32.334  29.892  1.00  0.00     0.031 C 
ATOM     66  C   UNL A   1      51.114  31.456  26.762  1.00  0.00     0.029 A 
ATOM     67  C   UNL A   1      49.851  31.284  27.308  1.00  0.00     0.049 A 
ATOM     68  H   UNL A   1      48.594  29.594  27.240  1.00  0.00     0.167 HD
ATOM     69  C   UNL A   1      47.861  31.947  28.623  1.00  0.00     0.074 A 
ATOM     70  C   UNL A   1      47.106  32.884  29.427  1.00  0.00     0.031 C 
ATOM     71  C   UNL A   1      49.067  32.221  28.067  1.00  0.00     0.034 A 
BRANCH  58  72
ATOM     72  C   UNL A   1      51.517  27.463  24.988  1.00  0.00     0.023 A 
ATOM     73  C   UNL A   1      52.462  26.661  25.664  1.00  0.00     0.012 A 
ATOM     74  C   UNL A   1      51.687  27.730  23.618  1.00  0.00     0.148 A 
ATOM     75  C   UNL A   1      53.587  26.181  24.999  1.00  0.00     0.002 A 
ATOM     76  C   UNL A   1      52.777  27.195  22.948  1.00  0.00     0.091 A 
ATOM     77  F   UNL A   1      50.794  28.520  23.005  1.00  0.00    -0.205 F 
ATOM     78  C   UNL A   1      53.739  26.439  23.639  1.00  0.00     0.022 A 
BRANCH  76  79
ATOM     79  S   UNL A   1      53.014  27.399  21.183  1.00  0.00     0.127 S 
ATOM     80  O   UNL A   1      54.403  27.851  21.122  1.00  0.00    -0.237 OA
ATOM     81  O   UNL A   1      52.790  26.040  20.690  1.00  0.00    -0.237 OA
ATOM     82  O   UNL A   1      52.025  28.376  20.750  1.00  0.00    -0.744 OA
ENDBRANCH  76  79
ENDBRANCH  58  72
BRANCH  59  83
ATOM     83  C   UNL A   1      43.624  30.652  30.209  1.00  0.00     0.023 A 
ATOM     84  C   UNL A   1      42.632  31.449  29.599  1.00  0.00     0.012 A 
ATOM     85  C   UNL A   1      43.529  30.385  31.589  1.00  0.00     0.148 A 
ATOM     86  C   UNL A   1      41.601  32.013  30.355  1.00  0.00     0.002 A 
ATOM     87  C   UNL A   1      42.471  30.909  32.326  1.00  0.00     0.091 A 
ATOM     88  F   UNL A   1      44.480  29.629  32.155  1.00  0.00    -0.205 F 
ATOM     89  C   UNL A   1      41.519  31.741  31.716  1.00  0.00     0.022 A 
BRANCH  87  90
ATOM     90  S   UNL A   1      42.217  30.535  34.065  1.00  0.00     0.127 S 
ATOM     91  O   UNL A   1      42.192  29.074  34.058  1.00  0.00    -0.237 OA
ATOM     92  O   UNL A   1      43.408  31.128  34.672  1.00  0.00    -0.237 OA
ATOM     93  O   UNL A   1      40.966  31.182  34.431  1.00  0.00    -0.744 OA
ENDBRANCH  87  90
ENDBRANCH  59  83
BRANCH  71  94
ATOM     94  C   UNL A   1      49.617  33.617  28.213  1.00  0.00     0.023 A 
ATOM     95  C   UNL A   1      49.399  34.589  27.218  1.00  0.00     0.012 A 
ATOM     96  C   UNL A   1      50.297  33.977  29.395  1.00  0.00     0.148 A 
ATOM     97  C   UNL A   1      49.895  35.883  27.376  1.00  0.00     0.002 A 
ATOM     98  C   UNL A   1      50.729  35.284  29.573  1.00  0.00     0.091 A 
ATOM     99  F   UNL A   1      50.506  33.035  30.326  1.00  0.00    -0.205 F 
ATOM    100  C   UNL A   1      50.548  36.234  28.556  1.00  0.00     0.022 A 
BRANCH  98 101
ATOM    101  S   UNL A   1      51.477  35.846  31.106  1.00  0.00     0.127 S 
ATOM    102  O   UNL A   1      50.493  35.408  32.094  1.00  0.00    -0.237 OA
ATOM    103  O   UNL A   1      52.735  35.100  31.125  1.00  0.00    -0.237 OA
ATOM    104  O   UNL A   1      51.631  37.288  30.976  1.00  0.00    -0.744 OA
ENDBRANCH  98 101
ENDBRANCH  71  94
ENDBRANCH  45  46
ENDBRANCH  38  40
ENDBRANCH  37  38
ENDBRANCH  36  37
ENDBRANCH  35  36
ENDBRANCH  34  35
ENDBRANCH  33  34
ENDBRANCH   1  33
TORSDOF 25
ENDMDL
