MODEL 1
REMARK VINA RESULT:      -9.6      0.000      0.000
REMARK SMILES CCn1c(-c2ccccc2)c(C(=O)OCCOCCOCCOCCOC(=O)c2ccc(-c3c4nc(c(-c5cccc(S(=O)(=O)[O-])c5F)c5ccc([nH]5)c(-c5cccc(S(=O)(=O)[O-])c5F)c5nc(c(-c6cccc(S(=O)(=O)[O-])c6F)c6ccc3[nH]6)C=C5)C=C4)cc2)c2ccc(N)cc21
REMARK SMILES IDX 21 1 20 2 19 3 18 4 17 5 16 6 15 7 14 8 12 9 13 10 11 11
REMARK SMILES IDX 3 12 4 13 98 14 92 15 97 16 93 17 95 18 94 19 2 20 1 21 5 22
REMARK SMILES IDX 6 23 10 24 7 25 9 26 8 27 96 28 22 31 23 32 24 33 25 34
REMARK SMILES IDX 26 35 27 36 28 37 29 38 30 39 91 40 31 41 90 42 32 43 33 44
REMARK SMILES IDX 34 45 84 46 35 47 89 48 83 49 85 50 36 51 88 52 82 53 81 54
REMARK SMILES IDX 37 56 69 57 49 58 68 59 50 60 53 61 67 62 86 63 51 64 52 65
REMARK SMILES IDX 66 67 87 68 54 69 38 70 39 71 47 72 40 73 42 74 48 75 41 76
REMARK SMILES IDX 43 77 44 78 45 79 46 80 70 81 71 82 79 83 72 84 74 85 80 86
REMARK SMILES IDX 73 87 75 88 76 89 77 90 78 91 55 92 56 93 64 94 57 95 59 96
REMARK SMILES IDX 65 97 58 98 60 99 61 100 62 101 63 102
REMARK H PARENT 96 29 96 30 85 55 53 66
REMARK Flexibility Score: inf
ROOT
ATOM      1  C   UNL A   1      35.906  22.638  25.302  1.00  0.00     0.188 C 
ENDROOT
BRANCH   1   2
ATOM      2  O   UNL A   1      35.445  21.458  25.940  1.00  0.00    -0.377 OA
BRANCH   2   3
ATOM      3  C   UNL A   1      34.271  20.857  25.440  1.00  0.00     0.188 C 
BRANCH   3   4
ATOM      4  C   UNL A   1      32.992  20.876  26.296  1.00  0.00     0.188 C 
BRANCH   4   5
ATOM      5  O   UNL A   1      31.937  21.676  25.774  1.00  0.00    -0.376 OA
BRANCH   5   6
ATOM      6  C   UNL A   1      31.555  22.792  26.565  1.00  0.00     0.202 C 
BRANCH   6   7
ATOM      7  C   UNL A   1      32.630  23.873  26.694  1.00  0.00     0.261 C 
BRANCH   7   8
ATOM      8  O   UNL A   1      32.142  25.192  26.971  1.00  0.00    -0.460 OA
BRANCH   8   9
ATOM      9  C   UNL A   1      31.158  25.691  26.163  1.00  0.00     0.341 C 
ATOM     10  O   UNL A   1      29.997  25.782  26.469  1.00  0.00    -0.246 OA
BRANCH   9  11
ATOM     11  C   UNL A   1      31.730  26.197  24.908  1.00  0.00     0.093 A 
ATOM     12  N   UNL A   1      32.680  27.549  23.402  1.00  0.00    -0.340 N 
ATOM     13  C   UNL A   1      32.257  27.479  24.717  1.00  0.00     0.064 A 
ATOM     14  C   UNL A   1      32.550  26.320  22.783  1.00  0.00     0.051 A 
ATOM     15  C   UNL A   1      31.997  25.447  23.717  1.00  0.00     0.015 A 
ATOM     16  C   UNL A   1      32.881  25.895  21.479  1.00  0.00     0.052 A 
ATOM     17  C   UNL A   1      31.838  24.092  23.357  1.00  0.00     0.013 A 
ATOM     18  C   UNL A   1      32.633  24.567  21.111  1.00  0.00     0.033 A 
ATOM     19  C   UNL A   1      32.178  23.667  22.068  1.00  0.00     0.026 A 
BRANCH  12  20
ATOM     20  C   UNL A   1      33.209  28.737  22.747  1.00  0.00     0.119 C 
ATOM     21  C   UNL A   1      34.721  28.826  22.864  1.00  0.00     0.027 C 
ENDBRANCH  12  20
BRANCH  13  22
ATOM     22  C   UNL A   1      32.525  28.519  25.719  1.00  0.00    -0.001 A 
ATOM     23  C   UNL A   1      31.649  29.613  25.838  1.00  0.00     0.010 A 
ATOM     24  C   UNL A   1      33.675  28.487  26.505  1.00  0.00     0.010 A 
ATOM     25  C   UNL A   1      31.957  30.689  26.671  1.00  0.00     0.001 A 
ATOM     26  C   UNL A   1      33.966  29.549  27.368  1.00  0.00     0.001 A 
ATOM     27  C   UNL A   1      33.119  30.658  27.436  1.00  0.00     0.000 A 
ENDBRANCH  13  22
BRANCH  18  28
ATOM     28  N   UNL A   1      32.978  24.119  19.839  1.00  0.00    -0.399 N 
ATOM     29  H   UNL A   1      32.336  24.201  19.097  1.00  0.00     0.156 HD
ATOM     30  H   UNL A   1      33.866  23.724  19.681  1.00  0.00     0.156 HD
ENDBRANCH  18  28
ENDBRANCH   9  11
ENDBRANCH   8   9
ENDBRANCH   7   8
ENDBRANCH   6   7
ENDBRANCH   5   6
ENDBRANCH   4   5
ENDBRANCH   3   4
ENDBRANCH   2   3
ENDBRANCH   1   2
BRANCH   1  31
ATOM     31  C   UNL A   1      37.028  22.511  24.258  1.00  0.00     0.188 C 
BRANCH  31  32
ATOM     32  O   UNL A   1      38.075  21.637  24.675  1.00  0.00    -0.376 OA
BRANCH  32  33
ATOM     33  C   UNL A   1      38.482  21.758  26.032  1.00  0.00     0.202 C 
BRANCH  33  34
ATOM     34  C   UNL A   1      39.111  23.103  26.423  1.00  0.00     0.261 C 
BRANCH  34  35
ATOM     35  O   UNL A   1      40.379  22.984  27.086  1.00  0.00    -0.460 OA
BRANCH  35  36
ATOM     36  C   UNL A   1      41.505  23.374  26.437  1.00  0.00     0.338 C 
ATOM     37  O   UNL A   1      42.036  22.804  25.502  1.00  0.00    -0.246 OA
BRANCH  36  38
ATOM     38  C   UNL A   1      41.736  24.785  26.856  1.00  0.00     0.060 A 
ATOM     39  C   UNL A   1      42.357  25.070  28.075  1.00  0.00     0.016 A 
ATOM     40  C   UNL A   1      41.032  25.787  26.172  1.00  0.00     0.016 A 
ATOM     41  C   UNL A   1      42.138  26.310  28.672  1.00  0.00     0.010 A 
ATOM     42  C   UNL A   1      40.826  27.035  26.770  1.00  0.00     0.010 A 
ATOM     43  C   UNL A   1      41.337  27.286  28.044  1.00  0.00    -0.014 A 
BRANCH  43  44
ATOM     44  C   UNL A   1      41.285  28.609  28.689  1.00  0.00     0.031 A 
ATOM     45  C   UNL A   1      42.482  29.437  28.373  1.00  0.00     0.074 A 
ATOM     46  C   UNL A   1      40.272  29.216  29.345  1.00  0.00     0.049 A 
ATOM     47  N   UNL A   1      43.387  29.892  29.178  1.00  0.00    -0.248 NA
ATOM     48  C   UNL A   1      42.743  29.679  26.946  1.00  0.00     0.031 C 
ATOM     49  C   UNL A   1      38.877  28.785  29.433  1.00  0.00     0.029 A 
ATOM     50  N   UNL A   1      40.262  30.442  29.970  1.00  0.00    -0.354 N 
ATOM     51  C   UNL A   1      44.234  30.642  28.369  1.00  0.00     0.074 A 
ATOM     52  C   UNL A   1      43.890  30.350  26.999  1.00  0.00     0.031 C 
ATOM     53  C   UNL A   1      38.121  29.832  29.842  1.00  0.00     0.029 A 
ATOM     54  C   UNL A   1      38.985  30.954  30.179  1.00  0.00     0.049 A 
ATOM     55  H   UNL A   1      41.082  30.913  30.242  1.00  0.00     0.167 HD
ATOM     56  C   UNL A   1      44.997  31.659  28.846  1.00  0.00     0.034 A 
ATOM     57  C   UNL A   1      38.663  32.223  30.533  1.00  0.00     0.034 A 
ATOM     58  C   UNL A   1      45.064  31.721  30.273  1.00  0.00     0.049 A 
ATOM     59  C   UNL A   1      39.834  32.862  31.184  1.00  0.00     0.074 A 
ATOM     60  C   UNL A   1      45.816  31.187  31.292  1.00  0.00     0.029 A 
ATOM     61  N   UNL A   1      43.988  32.342  30.838  1.00  0.00    -0.354 N 
ATOM     62  N   UNL A   1      40.329  32.505  32.336  1.00  0.00    -0.248 NA
ATOM     63  C   UNL A   1      40.591  33.885  30.464  1.00  0.00     0.031 C 
ATOM     64  C   UNL A   1      45.090  31.424  32.500  1.00  0.00     0.029 A 
ATOM     65  C   UNL A   1      43.908  32.083  32.179  1.00  0.00     0.049 A 
ATOM     66  H   UNL A   1      43.351  32.906  30.343  1.00  0.00     0.167 HD
ATOM     67  C   UNL A   1      41.628  32.971  32.306  1.00  0.00     0.074 A 
ATOM     68  C   UNL A   1      41.675  33.954  31.237  1.00  0.00     0.031 C 
ATOM     69  C   UNL A   1      42.646  32.262  32.864  1.00  0.00     0.034 A 
BRANCH  56  70
ATOM     70  C   UNL A   1      45.329  32.864  28.014  1.00  0.00     0.023 A 
ATOM     71  C   UNL A   1      46.617  32.979  27.462  1.00  0.00     0.012 A 
ATOM     72  C   UNL A   1      44.488  33.999  27.956  1.00  0.00     0.148 A 
ATOM     73  C   UNL A   1      47.032  34.162  26.841  1.00  0.00     0.002 A 
ATOM     74  C   UNL A   1      44.868  35.136  27.260  1.00  0.00     0.091 A 
ATOM     75  F   UNL A   1      43.361  34.020  28.684  1.00  0.00    -0.205 F 
ATOM     76  C   UNL A   1      46.148  35.231  26.713  1.00  0.00     0.022 A 
BRANCH  74  77
ATOM     77  S   UNL A   1      43.714  36.484  27.001  1.00  0.00     0.127 S 
ATOM     78  O   UNL A   1      42.763  35.887  26.070  1.00  0.00    -0.237 OA
ATOM     79  O   UNL A   1      43.201  36.710  28.353  1.00  0.00    -0.237 OA
ATOM     80  O   UNL A   1      44.533  37.576  26.488  1.00  0.00    -0.744 OA
ENDBRANCH  74  77
ENDBRANCH  56  70
BRANCH  57  81
ATOM     81  C   UNL A   1      37.456  33.045  30.237  1.00  0.00     0.023 A 
ATOM     82  C   UNL A   1      37.021  33.156  28.896  1.00  0.00     0.012 A 
ATOM     83  C   UNL A   1      36.567  33.463  31.250  1.00  0.00     0.148 A 
ATOM     84  C   UNL A   1      35.730  33.592  28.579  1.00  0.00     0.002 A 
ATOM     85  C   UNL A   1      35.291  33.923  30.927  1.00  0.00     0.091 A 
ATOM     86  F   UNL A   1      36.924  33.320  32.533  1.00  0.00    -0.205 F 
ATOM     87  C   UNL A   1      34.860  33.967  29.596  1.00  0.00     0.022 A 
BRANCH  85  88
ATOM     88  S   UNL A   1      34.140  34.451  32.203  1.00  0.00     0.127 S 
ATOM     89  O   UNL A   1      34.937  35.410  32.971  1.00  0.00    -0.237 OA
ATOM     90  O   UNL A   1      33.061  35.042  31.420  1.00  0.00    -0.237 OA
ATOM     91  O   UNL A   1      33.812  33.235  32.940  1.00  0.00    -0.744 OA
ENDBRANCH  85  88
ENDBRANCH  57  81
BRANCH  69  92
ATOM     92  C   UNL A   1      42.358  31.421  34.065  1.00  0.00     0.023 A 
ATOM     93  C   UNL A   1      42.165  31.972  35.343  1.00  0.00     0.012 A 
ATOM     94  C   UNL A   1      42.195  30.036  33.879  1.00  0.00     0.148 A 
ATOM     95  C   UNL A   1      41.830  31.149  36.420  1.00  0.00     0.002 A 
ATOM     96  C   UNL A   1      41.822  29.230  34.945  1.00  0.00     0.091 A 
ATOM     97  F   UNL A   1      42.392  29.536  32.649  1.00  0.00    -0.205 F 
ATOM     98  C   UNL A   1      41.645  29.783  36.220  1.00  0.00     0.022 A 
BRANCH  96  99
ATOM     99  S   UNL A   1      41.484  27.479  34.750  1.00  0.00     0.127 S 
ATOM    100  O   UNL A   1      41.126  27.083  36.111  1.00  0.00    -0.237 OA
ATOM    101  O   UNL A   1      40.370  27.486  33.802  1.00  0.00    -0.237 OA
ATOM    102  O   UNL A   1      42.710  26.885  34.232  1.00  0.00    -0.744 OA
ENDBRANCH  96  99
ENDBRANCH  69  92
ENDBRANCH  43  44
ENDBRANCH  36  38
ENDBRANCH  35  36
ENDBRANCH  34  35
ENDBRANCH  33  34
ENDBRANCH  32  33
ENDBRANCH  31  32
ENDBRANCH   1  31
TORSDOF 26
ENDMDL
MODEL 2
REMARK VINA RESULT:      -9.4      3.833      6.964
REMARK SMILES CCn1c(-c2ccccc2)c(C(=O)OCCOCCOCCOCCOC(=O)c2ccc(-c3c4nc(c(-c5cccc(S(=O)(=O)[O-])c5F)c5ccc([nH]5)c(-c5cccc(S(=O)(=O)[O-])c5F)c5nc(c(-c6cccc(S(=O)(=O)[O-])c6F)c6ccc3[nH]6)C=C5)C=C4)cc2)c2ccc(N)cc21
REMARK SMILES IDX 21 1 20 2 19 3 18 4 17 5 16 6 15 7 14 8 12 9 13 10 11 11
REMARK SMILES IDX 3 12 4 13 98 14 92 15 97 16 93 17 95 18 94 19 2 20 1 21 5 22
REMARK SMILES IDX 6 23 10 24 7 25 9 26 8 27 96 28 22 31 23 32 24 33 25 34
REMARK SMILES IDX 26 35 27 36 28 37 29 38 30 39 91 40 31 41 90 42 32 43 33 44
REMARK SMILES IDX 34 45 84 46 35 47 89 48 83 49 85 50 36 51 88 52 82 53 81 54
REMARK SMILES IDX 37 56 69 57 49 58 68 59 50 60 53 61 67 62 86 63 51 64 52 65
REMARK SMILES IDX 66 67 87 68 54 69 38 70 39 71 47 72 40 73 42 74 48 75 41 76
REMARK SMILES IDX 43 77 44 78 45 79 46 80 70 81 71 82 79 83 72 84 74 85 80 86
REMARK SMILES IDX 73 87 75 88 76 89 77 90 78 91 55 92 56 93 64 94 57 95 59 96
REMARK SMILES IDX 65 97 58 98 60 99 61 100 62 101 63 102
REMARK H PARENT 96 29 96 30 85 55 53 66
REMARK Flexibility Score: inf
ROOT
ATOM      1  C   UNL A   1      33.151  25.653  26.100  1.00  0.00     0.188 C 
ENDROOT
BRANCH   1   2
ATOM      2  O   UNL A   1      31.828  26.064  25.797  1.00  0.00    -0.377 OA
BRANCH   2   3
ATOM      3  C   UNL A   1      31.520  27.434  25.929  1.00  0.00     0.188 C 
BRANCH   3   4
ATOM      4  C   UNL A   1      32.031  28.206  27.159  1.00  0.00     0.188 C 
BRANCH   4   5
ATOM      5  O   UNL A   1      31.618  29.566  27.225  1.00  0.00    -0.376 OA
BRANCH   5   6
ATOM      6  C   UNL A   1      32.430  30.495  26.522  1.00  0.00     0.202 C 
BRANCH   6   7
ATOM      7  C   UNL A   1      33.616  31.032  27.325  1.00  0.00     0.261 C 
BRANCH   7   8
ATOM      8  O   UNL A   1      33.419  32.321  27.922  1.00  0.00    -0.460 OA
BRANCH   8   9
ATOM      9  C   UNL A   1      34.526  33.084  28.173  1.00  0.00     0.341 C 
ATOM     10  O   UNL A   1      35.117  33.732  27.348  1.00  0.00    -0.246 OA
BRANCH   9  11
ATOM     11  C   UNL A   1      34.833  33.084  29.610  1.00  0.00     0.093 A 
ATOM     12  N   UNL A   1      35.692  32.524  31.596  1.00  0.00    -0.340 N 
ATOM     13  C   UNL A   1      35.687  32.184  30.256  1.00  0.00     0.064 A 
ATOM     14  C   UNL A   1      34.965  33.681  31.808  1.00  0.00     0.051 A 
ATOM     15  C   UNL A   1      34.453  34.073  30.573  1.00  0.00     0.015 A 
ATOM     16  C   UNL A   1      34.721  34.425  32.981  1.00  0.00     0.052 A 
ATOM     17  C   UNL A   1      33.733  35.285  30.500  1.00  0.00     0.013 A 
ATOM     18  C   UNL A   1      33.929  35.578  32.905  1.00  0.00     0.033 A 
ATOM     19  C   UNL A   1      33.500  36.031  31.662  1.00  0.00     0.026 A 
BRANCH  12  20
ATOM     20  C   UNL A   1      36.377  31.791  32.652  1.00  0.00     0.119 C 
ATOM     21  C   UNL A   1      37.857  32.127  32.710  1.00  0.00     0.027 C 
ENDBRANCH  12  20
BRANCH  13  22
ATOM     22  C   UNL A   1      36.586  31.186  29.661  1.00  0.00    -0.001 A 
ATOM     23  C   UNL A   1      36.287  29.818  29.786  1.00  0.00     0.010 A 
ATOM     24  C   UNL A   1      37.777  31.562  29.043  1.00  0.00     0.010 A 
ATOM     25  C   UNL A   1      37.196  28.846  29.367  1.00  0.00     0.001 A 
ATOM     26  C   UNL A   1      38.672  30.588  28.590  1.00  0.00     0.001 A 
ATOM     27  C   UNL A   1      38.391  29.232  28.770  1.00  0.00     0.000 A 
ENDBRANCH  13  22
BRANCH  18  28
ATOM     28  N   UNL A   1      33.699  36.343  34.044  1.00  0.00    -0.399 N 
ATOM     29  H   UNL A   1      33.961  35.999  34.929  1.00  0.00     0.156 HD
ATOM     30  H   UNL A   1      33.276  37.229  33.966  1.00  0.00     0.156 HD
ENDBRANCH  18  28
ENDBRANCH   9  11
ENDBRANCH   8   9
ENDBRANCH   7   8
ENDBRANCH   6   7
ENDBRANCH   5   6
ENDBRANCH   4   5
ENDBRANCH   3   4
ENDBRANCH   2   3
ENDBRANCH   1   2
BRANCH   1  31
ATOM     31  C   UNL A   1      33.494  24.157  25.984  1.00  0.00     0.188 C 
BRANCH  31  32
ATOM     32  O   UNL A   1      34.699  23.920  25.259  1.00  0.00    -0.376 OA
BRANCH  32  33
ATOM     33  C   UNL A   1      35.777  23.374  26.010  1.00  0.00     0.202 C 
BRANCH  33  34
ATOM     34  C   UNL A   1      37.181  23.640  25.450  1.00  0.00     0.261 C 
BRANCH  34  35
ATOM     35  O   UNL A   1      38.109  24.152  26.419  1.00  0.00    -0.460 OA
BRANCH  35  36
ATOM     36  C   UNL A   1      39.221  23.434  26.714  1.00  0.00     0.338 C 
ATOM     37  O   UNL A   1      39.464  22.296  26.361  1.00  0.00    -0.246 OA
BRANCH  36  38
ATOM     38  C   UNL A   1      40.206  24.425  27.235  1.00  0.00     0.060 A 
ATOM     39  C   UNL A   1      41.330  24.001  27.947  1.00  0.00     0.016 A 
ATOM     40  C   UNL A   1      39.807  25.769  27.282  1.00  0.00     0.016 A 
ATOM     41  C   UNL A   1      41.953  24.890  28.820  1.00  0.00     0.010 A 
ATOM     42  C   UNL A   1      40.445  26.661  28.151  1.00  0.00     0.010 A 
ATOM     43  C   UNL A   1      41.490  26.214  28.960  1.00  0.00    -0.014 A 
BRANCH  43  44
ATOM     44  C   UNL A   1      42.303  27.111  29.799  1.00  0.00     0.031 A 
ATOM     45  C   UNL A   1      43.712  27.203  29.325  1.00  0.00     0.074 A 
ATOM     46  C   UNL A   1      41.927  27.960  30.779  1.00  0.00     0.049 A 
ATOM     47  N   UNL A   1      44.796  26.847  29.934  1.00  0.00    -0.248 NA
ATOM     48  C   UNL A   1      43.899  27.648  27.935  1.00  0.00     0.031 C 
ATOM     49  C   UNL A   1      40.568  28.354  31.150  1.00  0.00     0.029 A 
ATOM     50  N   UNL A   1      42.714  28.763  31.573  1.00  0.00    -0.354 N 
ATOM     51  C   UNL A   1      45.822  27.205  29.066  1.00  0.00     0.074 A 
ATOM     52  C   UNL A   1      45.218  27.541  27.801  1.00  0.00     0.031 C 
ATOM     53  C   UNL A   1      40.628  29.481  31.899  1.00  0.00     0.029 A 
ATOM     54  C   UNL A   1      42.019  29.805  32.180  1.00  0.00     0.049 A 
ATOM     55  H   UNL A   1      43.679  28.614  31.699  1.00  0.00     0.167 HD
ATOM     56  C   UNL A   1      47.087  27.462  29.489  1.00  0.00     0.034 A 
ATOM     57  C   UNL A   1      42.551  30.886  32.802  1.00  0.00     0.034 A 
ATOM     58  C   UNL A   1      47.341  27.079  30.842  1.00  0.00     0.049 A 
ATOM     59  C   UNL A   1      43.939  30.574  33.226  1.00  0.00     0.074 A 
ATOM     60  C   UNL A   1      47.744  25.963  31.537  1.00  0.00     0.029 A 
ATOM     61  N   UNL A   1      46.913  27.998  31.754  1.00  0.00    -0.354 N 
ATOM     62  N   UNL A   1      44.256  29.702  34.142  1.00  0.00    -0.248 NA
ATOM     63  C   UNL A   1      45.064  31.172  32.509  1.00  0.00     0.031 C 
ATOM     64  C   UNL A   1      47.443  26.210  32.912  1.00  0.00     0.029 A 
ATOM     65  C   UNL A   1      46.850  27.464  33.012  1.00  0.00     0.049 A 
ATOM     66  H   UNL A   1      46.679  28.929  31.534  1.00  0.00     0.167 HD
ATOM     67  C   UNL A   1      45.566  29.373  33.856  1.00  0.00     0.074 A 
ATOM     68  C   UNL A   1      46.060  30.422  32.981  1.00  0.00     0.031 C 
ATOM     69  C   UNL A   1      46.026  28.103  34.016  1.00  0.00     0.034 A 
BRANCH  56  70
ATOM     70  C   UNL A   1      47.968  28.466  28.802  1.00  0.00     0.023 A 
ATOM     71  C   UNL A   1      47.822  29.829  29.114  1.00  0.00     0.012 A 
ATOM     72  C   UNL A   1      48.769  28.131  27.686  1.00  0.00     0.148 A 
ATOM     73  C   UNL A   1      48.483  30.813  28.370  1.00  0.00     0.002 A 
ATOM     74  C   UNL A   1      49.494  29.100  27.010  1.00  0.00     0.091 A 
ATOM     75  F   UNL A   1      48.732  26.880  27.201  1.00  0.00    -0.205 F 
ATOM     76  C   UNL A   1      49.342  30.448  27.337  1.00  0.00     0.022 A 
BRANCH  74  77
ATOM     77  S   UNL A   1      50.678  28.645  25.742  1.00  0.00     0.127 S 
ATOM     78  O   UNL A   1      51.304  29.928  25.445  1.00  0.00    -0.237 OA
ATOM     79  O   UNL A   1      51.529  27.687  26.448  1.00  0.00    -0.237 OA
ATOM     80  O   UNL A   1      49.871  28.051  24.683  1.00  0.00    -0.744 OA
ENDBRANCH  74  77
ENDBRANCH  56  70
BRANCH  57  81
ATOM     81  C   UNL A   1      42.037  32.276  32.958  1.00  0.00     0.023 A 
ATOM     82  C   UNL A   1      41.787  33.044  31.797  1.00  0.00     0.012 A 
ATOM     83  C   UNL A   1      41.511  32.748  34.180  1.00  0.00     0.148 A 
ATOM     84  C   UNL A   1      40.985  34.190  31.834  1.00  0.00     0.002 A 
ATOM     85  C   UNL A   1      40.735  33.906  34.216  1.00  0.00     0.091 A 
ATOM     86  F   UNL A   1      41.680  32.018  35.290  1.00  0.00    -0.205 F 
ATOM     87  C   UNL A   1      40.450  34.616  33.044  1.00  0.00     0.022 A 
BRANCH  85  88
ATOM     88  S   UNL A   1      40.048  34.518  35.761  1.00  0.00     0.127 S 
ATOM     89  O   UNL A   1      39.366  35.744  35.341  1.00  0.00    -0.237 OA
ATOM     90  O   UNL A   1      39.160  33.430  36.155  1.00  0.00    -0.237 OA
ATOM     91  O   UNL A   1      41.203  34.752  36.620  1.00  0.00    -0.744 OA
ENDBRANCH  85  88
ENDBRANCH  57  81
BRANCH  69  92
ATOM     92  C   UNL A   1      45.438  27.261  35.101  1.00  0.00     0.023 A 
ATOM     93  C   UNL A   1      46.043  27.124  36.362  1.00  0.00     0.012 A 
ATOM     94  C   UNL A   1      44.190  26.655  34.864  1.00  0.00     0.148 A 
ATOM     95  C   UNL A   1      45.417  26.381  37.364  1.00  0.00     0.002 A 
ATOM     96  C   UNL A   1      43.555  25.952  35.878  1.00  0.00     0.091 A 
ATOM     97  F   UNL A   1      43.639  26.796  33.650  1.00  0.00    -0.205 F 
ATOM     98  C   UNL A   1      44.170  25.806  37.129  1.00  0.00     0.022 A 
BRANCH  96  99
ATOM     99  S   UNL A   1      41.914  25.257  35.679  1.00  0.00     0.127 S 
ATOM    100  O   UNL A   1      41.263  26.248  34.824  1.00  0.00    -0.237 OA
ATOM    101  O   UNL A   1      42.198  23.979  35.027  1.00  0.00    -0.237 OA
ATOM    102  O   UNL A   1      41.359  25.136  37.022  1.00  0.00    -0.744 OA
ENDBRANCH  96  99
ENDBRANCH  69  92
ENDBRANCH  43  44
ENDBRANCH  36  38
ENDBRANCH  35  36
ENDBRANCH  34  35
ENDBRANCH  33  34
ENDBRANCH  32  33
ENDBRANCH  31  32
ENDBRANCH   1  31
TORSDOF 26
ENDMDL
MODEL 3
REMARK VINA RESULT:      -9.2      3.469      8.520
REMARK SMILES CCn1c(-c2ccccc2)c(C(=O)OCCOCCOCCOCCOC(=O)c2ccc(-c3c4nc(c(-c5cccc(S(=O)(=O)[O-])c5F)c5ccc([nH]5)c(-c5cccc(S(=O)(=O)[O-])c5F)c5nc(c(-c6cccc(S(=O)(=O)[O-])c6F)c6ccc3[nH]6)C=C5)C=C4)cc2)c2ccc(N)cc21
REMARK SMILES IDX 21 1 20 2 19 3 18 4 17 5 16 6 15 7 14 8 12 9 13 10 11 11
REMARK SMILES IDX 3 12 4 13 98 14 92 15 97 16 93 17 95 18 94 19 2 20 1 21 5 22
REMARK SMILES IDX 6 23 10 24 7 25 9 26 8 27 96 28 22 31 23 32 24 33 25 34
REMARK SMILES IDX 26 35 27 36 28 37 29 38 30 39 91 40 31 41 90 42 32 43 33 44
REMARK SMILES IDX 34 45 84 46 35 47 89 48 83 49 85 50 36 51 88 52 82 53 81 54
REMARK SMILES IDX 37 56 69 57 49 58 68 59 50 60 53 61 67 62 86 63 51 64 52 65
REMARK SMILES IDX 66 67 87 68 54 69 38 70 39 71 47 72 40 73 42 74 48 75 41 76
REMARK SMILES IDX 43 77 44 78 45 79 46 80 70 81 71 82 79 83 72 84 74 85 80 86
REMARK SMILES IDX 73 87 75 88 76 89 77 90 78 91 55 92 56 93 64 94 57 95 59 96
REMARK SMILES IDX 65 97 58 98 60 99 61 100 62 101 63 102
REMARK H PARENT 96 29 96 30 85 55 53 66
REMARK Flexibility Score: inf
ROOT
ATOM      1  C   UNL A   1      34.670  34.095  28.897  1.00  0.00     0.188 C 
ENDROOT
BRANCH   1   2
ATOM      2  O   UNL A   1      35.385  33.494  27.829  1.00  0.00    -0.377 OA
BRANCH   2   3
ATOM      3  C   UNL A   1      36.681  33.006  28.099  1.00  0.00     0.188 C 
BRANCH   3   4
ATOM      4  C   UNL A   1      36.846  31.595  28.690  1.00  0.00     0.188 C 
BRANCH   4   5
ATOM      5  O   UNL A   1      35.719  30.742  28.521  1.00  0.00    -0.376 OA
BRANCH   5   6
ATOM      6  C   UNL A   1      35.755  29.884  27.390  1.00  0.00     0.202 C 
BRANCH   6   7
ATOM      7  C   UNL A   1      34.552  28.947  27.269  1.00  0.00     0.261 C 
BRANCH   7   8
ATOM      8  O   UNL A   1      33.504  29.403  26.402  1.00  0.00    -0.460 OA
BRANCH   8   9
ATOM      9  C   UNL A   1      32.290  28.779  26.485  1.00  0.00     0.341 C 
ATOM     10  O   UNL A   1      31.654  28.644  27.498  1.00  0.00    -0.246 OA
BRANCH   9  11
ATOM     11  C   UNL A   1      31.823  28.385  25.149  1.00  0.00     0.093 A 
ATOM     12  N   UNL A   1      31.474  27.198  23.288  1.00  0.00    -0.340 N 
ATOM     13  C   UNL A   1      32.082  27.158  24.529  1.00  0.00     0.064 A 
ATOM     14  C   UNL A   1      30.738  28.359  23.142  1.00  0.00     0.051 A 
ATOM     15  C   UNL A   1      30.907  29.099  24.311  1.00  0.00     0.015 A 
ATOM     16  C   UNL A   1      29.927  28.821  22.085  1.00  0.00     0.052 A 
ATOM     17  C   UNL A   1      30.185  30.304  24.452  1.00  0.00     0.013 A 
ATOM     18  C   UNL A   1      29.289  30.062  22.206  1.00  0.00     0.033 A 
ATOM     19  C   UNL A   1      29.370  30.757  23.408  1.00  0.00     0.026 A 
BRANCH  12  20
ATOM     20  C   UNL A   1      31.567  26.163  22.267  1.00  0.00     0.119 C 
ATOM     21  C   UNL A   1      32.876  26.238  21.498  1.00  0.00     0.027 C 
ENDBRANCH  12  20
BRANCH  13  22
ATOM     22  C   UNL A   1      32.693  25.953  25.103  1.00  0.00    -0.001 A 
ATOM     23  C   UNL A   1      31.905  25.062  25.852  1.00  0.00     0.010 A 
ATOM     24  C   UNL A   1      34.061  25.711  24.988  1.00  0.00     0.010 A 
ATOM     25  C   UNL A   1      32.486  23.993  26.536  1.00  0.00     0.001 A 
ATOM     26  C   UNL A   1      34.638  24.618  25.644  1.00  0.00     0.001 A 
ATOM     27  C   UNL A   1      33.856  23.772  26.432  1.00  0.00     0.000 A 
ENDBRANCH  13  22
BRANCH  18  28
ATOM     28  N   UNL A   1      28.461  30.524  21.187  1.00  0.00    -0.399 N 
ATOM     29  H   UNL A   1      27.634  30.036  20.965  1.00  0.00     0.156 HD
ATOM     30  H   UNL A   1      28.700  31.339  20.690  1.00  0.00     0.156 HD
ENDBRANCH  18  28
ENDBRANCH   9  11
ENDBRANCH   8   9
ENDBRANCH   7   8
ENDBRANCH   6   7
ENDBRANCH   5   6
ENDBRANCH   4   5
ENDBRANCH   3   4
ENDBRANCH   2   3
ENDBRANCH   1   2
BRANCH   1  31
ATOM     31  C   UNL A   1      33.181  34.420  28.684  1.00  0.00     0.188 C 
BRANCH  31  32
ATOM     32  O   UNL A   1      32.570  34.993  29.838  1.00  0.00    -0.376 OA
BRANCH  32  33
ATOM     33  C   UNL A   1      33.430  35.735  30.693  1.00  0.00     0.202 C 
BRANCH  33  34
ATOM     34  C   UNL A   1      33.231  35.511  32.199  1.00  0.00     0.261 C 
BRANCH  34  35
ATOM     35  O   UNL A   1      34.369  34.935  32.859  1.00  0.00    -0.460 OA
BRANCH  35  36
ATOM     36  C   UNL A   1      34.562  33.594  32.796  1.00  0.00     0.338 C 
ATOM     37  O   UNL A   1      33.746  32.760  32.454  1.00  0.00    -0.246 OA
BRANCH  36  38
ATOM     38  C   UNL A   1      36.037  33.401  32.882  1.00  0.00     0.060 A 
ATOM     39  C   UNL A   1      36.861  33.740  31.805  1.00  0.00     0.016 A 
ATOM     40  C   UNL A   1      36.524  32.581  33.911  1.00  0.00     0.016 A 
ATOM     41  C   UNL A   1      38.109  33.132  31.691  1.00  0.00     0.010 A 
ATOM     42  C   UNL A   1      37.783  31.983  33.797  1.00  0.00     0.010 A 
ATOM     43  C   UNL A   1      38.562  32.217  32.663  1.00  0.00    -0.014 A 
BRANCH  43  44
ATOM     44  C   UNL A   1      39.949  31.741  32.523  1.00  0.00     0.031 A 
ATOM     45  C   UNL A   1      40.927  32.863  32.455  1.00  0.00     0.074 A 
ATOM     46  C   UNL A   1      40.452  30.491  32.625  1.00  0.00     0.049 A 
ATOM     47  N   UNL A   1      41.716  33.191  31.485  1.00  0.00    -0.248 NA
ATOM     48  C   UNL A   1      40.919  33.796  33.593  1.00  0.00     0.031 C 
ATOM     49  C   UNL A   1      39.767  29.285  33.089  1.00  0.00     0.029 A 
ATOM     50  N   UNL A   1      41.751  30.068  32.454  1.00  0.00    -0.354 N 
ATOM     51  C   UNL A   1      42.444  34.271  31.973  1.00  0.00     0.074 A 
ATOM     52  C   UNL A   1      41.812  34.698  33.197  1.00  0.00     0.031 C 
ATOM     53  C   UNL A   1      40.693  28.347  33.400  1.00  0.00     0.029 A 
ATOM     54  C   UNL A   1      42.016  28.828  33.027  1.00  0.00     0.049 A 
ATOM     55  H   UNL A   1      42.429  30.595  31.973  1.00  0.00     0.167 HD
ATOM     56  C   UNL A   1      43.673  34.602  31.502  1.00  0.00     0.034 A 
ATOM     57  C   UNL A   1      43.235  28.273  33.242  1.00  0.00     0.034 A 
ATOM     58  C   UNL A   1      44.040  33.927  30.297  1.00  0.00     0.049 A 
ATOM     59  C   UNL A   1      44.224  28.894  32.326  1.00  0.00     0.074 A 
ATOM     60  C   UNL A   1      43.895  34.092  28.939  1.00  0.00     0.029 A 
ATOM     61  N   UNL A   1      44.524  32.669  30.507  1.00  0.00    -0.354 N 
ATOM     62  N   UNL A   1      44.222  28.758  31.029  1.00  0.00    -0.248 NA
ATOM     63  C   UNL A   1      45.212  29.830  32.859  1.00  0.00     0.031 C 
ATOM     64  C   UNL A   1      44.218  32.836  28.340  1.00  0.00     0.029 A 
ATOM     65  C   UNL A   1      44.535  31.936  29.352  1.00  0.00     0.049 A 
ATOM     66  H   UNL A   1      44.829  32.332  31.380  1.00  0.00     0.167 HD
ATOM     67  C   UNL A   1      44.934  29.849  30.573  1.00  0.00     0.074 A 
ATOM     68  C   UNL A   1      45.664  30.359  31.722  1.00  0.00     0.031 C 
ATOM     69  C   UNL A   1      44.583  30.492  29.426  1.00  0.00     0.034 A 
BRANCH  56  70
ATOM     70  C   UNL A   1      44.724  35.218  32.380  1.00  0.00     0.023 A 
ATOM     71  C   UNL A   1      45.329  36.423  31.981  1.00  0.00     0.012 A 
ATOM     72  C   UNL A   1      45.302  34.524  33.468  1.00  0.00     0.148 A 
ATOM     73  C   UNL A   1      46.436  36.934  32.665  1.00  0.00     0.002 A 
ATOM     74  C   UNL A   1      46.341  35.080  34.200  1.00  0.00     0.091 A 
ATOM     75  F   UNL A   1      44.923  33.262  33.720  1.00  0.00    -0.205 F 
ATOM     76  C   UNL A   1      46.925  36.279  33.793  1.00  0.00     0.022 A 
BRANCH  74  77
ATOM     77  S   UNL A   1      46.922  34.302  35.708  1.00  0.00     0.127 S 
ATOM     78  O   UNL A   1      45.671  34.062  36.419  1.00  0.00    -0.237 OA
ATOM     79  O   UNL A   1      47.585  33.102  35.197  1.00  0.00    -0.237 OA
ATOM     80  O   UNL A   1      47.833  35.276  36.297  1.00  0.00    -0.744 OA
ENDBRANCH  74  77
ENDBRANCH  56  70
BRANCH  57  81
ATOM     81  C   UNL A   1      43.707  27.326  34.291  1.00  0.00     0.023 A 
ATOM     82  C   UNL A   1      44.259  26.087  33.891  1.00  0.00     0.012 A 
ATOM     83  C   UNL A   1      43.904  27.729  35.629  1.00  0.00     0.148 A 
ATOM     84  C   UNL A   1      45.037  25.316  34.761  1.00  0.00     0.002 A 
ATOM     85  C   UNL A   1      44.658  26.943  36.501  1.00  0.00     0.091 A 
ATOM     86  F   UNL A   1      43.445  28.921  36.028  1.00  0.00    -0.205 F 
ATOM     87  C   UNL A   1      45.245  25.749  36.065  1.00  0.00     0.022 A 
BRANCH  85  88
ATOM     88  S   UNL A   1      44.929  27.442  38.206  1.00  0.00     0.127 S 
ATOM     89  O   UNL A   1      44.635  28.876  38.168  1.00  0.00    -0.237 OA
ATOM     90  O   UNL A   1      43.946  26.636  38.923  1.00  0.00    -0.237 OA
ATOM     91  O   UNL A   1      46.330  27.135  38.470  1.00  0.00    -0.744 OA
ENDBRANCH  85  88
ENDBRANCH  57  81
BRANCH  69  92
ATOM     92  C   UNL A   1      43.966  29.697  28.322  1.00  0.00     0.023 A 
ATOM     93  C   UNL A   1      44.724  29.138  27.279  1.00  0.00     0.012 A 
ATOM     94  C   UNL A   1      42.584  29.438  28.387  1.00  0.00     0.148 A 
ATOM     95  C   UNL A   1      44.108  28.346  26.309  1.00  0.00     0.002 A 
ATOM     96  C   UNL A   1      41.986  28.617  27.442  1.00  0.00     0.091 A 
ATOM     97  F   UNL A   1      41.883  29.990  29.389  1.00  0.00    -0.205 F 
ATOM     98  C   UNL A   1      42.744  28.074  26.396  1.00  0.00     0.022 A 
BRANCH  96  99
ATOM     99  S   UNL A   1      40.255  28.153  27.535  1.00  0.00     0.127 S 
ATOM    100  O   UNL A   1      40.198  27.002  26.634  1.00  0.00    -0.237 OA
ATOM    101  O   UNL A   1      40.100  27.828  28.953  1.00  0.00    -0.237 OA
ATOM    102  O   UNL A   1      39.499  29.320  27.099  1.00  0.00    -0.744 OA
ENDBRANCH  96  99
ENDBRANCH  69  92
ENDBRANCH  43  44
ENDBRANCH  36  38
ENDBRANCH  35  36
ENDBRANCH  34  35
ENDBRANCH  33  34
ENDBRANCH  32  33
ENDBRANCH  31  32
ENDBRANCH   1  31
TORSDOF 26
ENDMDL
