MODEL 1
REMARK VINA RESULT:      -7.5      0.000      0.000
REMARK SMILES COc1ccccc1[C@@H]1C[N@@H+](Cc2cc3c(cc2C)OCO3)C[C@H]1C(=O)OCCOCCOCCOCCOC(=O)c1ccc(-c2c3nc(c(-c4cccc(S(=O)(=O)[O-])c4F)c4ccc([nH]4)c(-c4cccc(S(=O)(=O)[O-])c4F)c4nc(c(-c5cccc(S(=O)(=O)[O-])c5F)c5ccc2[nH]5)C=C4)C=C3)cc1
REMARK SMILES IDX 34 1 33 2 32 3 31 4 30 5 29 6 28 7 27 8 25 9 26 10 24 11
REMARK SMILES IDX 9 12 10 13 11 14 23 15 8 17 3 18 4 19 5 20 7 21 6 22 2 23
REMARK SMILES IDX 1 24 12 25 13 26 14 27 18 28 15 29 17 30 19 31 16 32 22 33
REMARK SMILES IDX 20 34 21 35 35 36 36 37 37 38 38 39 39 40 40 41 41 42 42 43
REMARK SMILES IDX 43 44 104 45 44 46 103 47 45 48 46 49 47 50 97 51 48 52
REMARK SMILES IDX 102 53 96 54 98 55 49 56 101 57 95 58 94 59 50 61 82 62
REMARK SMILES IDX 62 63 81 64 63 65 66 66 80 67 99 68 64 69 65 70 79 72 100 73
REMARK SMILES IDX 67 74 51 75 52 76 60 77 53 78 55 79 61 80 54 81 56 82 57 83
REMARK SMILES IDX 58 84 59 85 83 86 84 87 92 88 85 89 87 90 93 91 86 92 88 93
REMARK SMILES IDX 89 94 90 95 91 96 68 97 69 98 77 99 70 100 72 101 78 102
REMARK SMILES IDX 71 103 73 104 74 105 75 106 76 107
REMARK H PARENT 11 16 98 60 66 71
REMARK Flexibility Score: inf
ROOT
ATOM      1  C   UNL A   1      32.221  36.397  31.679  1.00  0.00     0.188 C 
ENDROOT
BRANCH   1   2
ATOM      2  O   UNL A   1      33.073  37.307  32.323  1.00  0.00    -0.377 OA
BRANCH   2   3
ATOM      3  C   UNL A   1      33.843  36.832  33.400  1.00  0.00     0.188 C 
BRANCH   3   4
ATOM      4  C   UNL A   1      34.943  35.777  33.264  1.00  0.00     0.188 C 
BRANCH   4   5
ATOM      5  O   UNL A   1      35.290  34.975  34.376  1.00  0.00    -0.376 OA
BRANCH   5   6
ATOM      6  C   UNL A   1      36.039  33.775  34.244  1.00  0.00     0.202 C 
BRANCH   6   7
ATOM      7  C   UNL A   1      37.300  33.498  35.072  1.00  0.00     0.261 C 
BRANCH   7   8
ATOM      8  O   UNL A   1      37.156  32.491  36.094  1.00  0.00    -0.463 OA
BRANCH   8   9
ATOM      9  C   UNL A   1      38.178  31.610  36.181  1.00  0.00     0.315 C 
ATOM     10  O   UNL A   1      38.164  30.664  36.972  1.00  0.00    -0.252 OA
BRANCH   9  11
ATOM     11  C   UNL A   1      39.347  31.755  35.207  1.00  0.00     0.167 C 
ATOM     12  C   UNL A   1      40.786  32.222  35.500  1.00  0.00     0.098 C 
ATOM     13  C   UNL A   1      41.674  31.287  34.648  1.00  0.00     0.272 C 
ATOM     14  N   UNL A   1      40.925  30.056  34.421  1.00  0.00    -0.330 N 
ATOM     15  C   UNL A   1      39.511  30.428  34.453  1.00  0.00     0.278 C 
ATOM     16  H   UNL A   1      41.150  29.659  33.509  1.00  0.00     0.348 HD
BRANCH  12  17
ATOM     17  C   UNL A   1      41.252  33.661  35.204  1.00  0.00     0.004 A 
ATOM     18  C   UNL A   1      41.535  34.689  36.126  1.00  0.00     0.122 A 
ATOM     19  C   UNL A   1      42.036  35.928  35.684  1.00  0.00     0.047 A 
ATOM     20  C   UNL A   1      42.235  36.187  34.329  1.00  0.00     0.004 A 
ATOM     21  C   UNL A   1      41.428  33.972  33.829  1.00  0.00     0.008 A 
ATOM     22  C   UNL A   1      41.921  35.209  33.398  1.00  0.00     0.001 A 
BRANCH  18  23
ATOM     23  O   UNL A   1      41.544  34.538  37.486  1.00  0.00    -0.496 OA
ATOM     24  C   UNL A   1      42.645  33.784  37.993  1.00  0.00     0.278 C 
ENDBRANCH  18  23
ENDBRANCH  12  17
BRANCH  14  25
ATOM     25  C   UNL A   1      41.315  28.927  35.289  1.00  0.00     0.299 C 
BRANCH  25  26
ATOM     26  C   UNL A   1      42.599  28.220  34.913  1.00  0.00     0.013 A 
ATOM     27  C   UNL A   1      42.555  27.367  33.792  1.00  0.00     0.060 A 
ATOM     28  C   UNL A   1      43.838  28.429  35.583  1.00  0.00    -0.038 A 
ATOM     29  C   UNL A   1      43.737  26.878  33.306  1.00  0.00     0.166 A 
ATOM     30  C   UNL A   1      45.031  27.966  35.006  1.00  0.00     0.054 A 
ATOM     31  C   UNL A   1      43.965  29.073  36.934  1.00  0.00     0.045 C 
ATOM     32  C   UNL A   1      44.945  27.205  33.873  1.00  0.00     0.166 A 
ATOM     33  O   UNL A   1      43.875  26.027  32.259  1.00  0.00    -0.454 OA
ATOM     34  O   UNL A   1      45.987  26.613  33.235  1.00  0.00    -0.454 OA
ATOM     35  C   UNL A   1      45.233  25.627  32.500  1.00  0.00     0.468 C 
ENDBRANCH  25  26
ENDBRANCH  14  25
ENDBRANCH   9  11
ENDBRANCH   8   9
ENDBRANCH   7   8
ENDBRANCH   6   7
ENDBRANCH   5   6
ENDBRANCH   4   5
ENDBRANCH   3   4
ENDBRANCH   2   3
ENDBRANCH   1   2
BRANCH   1  36
ATOM     36  C   UNL A   1      32.956  35.559  30.628  1.00  0.00     0.188 C 
BRANCH  36  37
ATOM     37  O   UNL A   1      33.362  34.217  30.891  1.00  0.00    -0.376 OA
BRANCH  37  38
ATOM     38  C   UNL A   1      34.395  33.590  30.148  1.00  0.00     0.202 C 
BRANCH  38  39
ATOM     39  C   UNL A   1      35.047  32.272  30.617  1.00  0.00     0.261 C 
BRANCH  39  40
ATOM     40  O   UNL A   1      35.335  31.267  29.638  1.00  0.00    -0.460 OA
BRANCH  40  41
ATOM     41  C   UNL A   1      36.271  31.595  28.725  1.00  0.00     0.338 C 
ATOM     42  O   UNL A   1      36.226  32.526  27.927  1.00  0.00    -0.246 OA
BRANCH  41  43
ATOM     43  C   UNL A   1      37.450  30.720  28.873  1.00  0.00     0.060 A 
ATOM     44  C   UNL A   1      37.964  30.502  30.158  1.00  0.00     0.016 A 
ATOM     45  C   UNL A   1      38.104  30.198  27.755  1.00  0.00     0.016 A 
ATOM     46  C   UNL A   1      39.159  29.803  30.331  1.00  0.00     0.010 A 
ATOM     47  C   UNL A   1      39.314  29.512  27.927  1.00  0.00     0.010 A 
ATOM     48  C   UNL A   1      39.866  29.344  29.214  1.00  0.00    -0.014 A 
BRANCH  48  49
ATOM     49  C   UNL A   1      41.263  28.865  29.376  1.00  0.00     0.031 A 
ATOM     50  C   UNL A   1      42.187  29.680  30.230  1.00  0.00     0.074 A 
ATOM     51  C   UNL A   1      41.708  27.737  28.790  1.00  0.00     0.049 A 
ATOM     52  N   UNL A   1      43.446  29.473  30.502  1.00  0.00    -0.248 NA
ATOM     53  C   UNL A   1      41.611  30.867  30.882  1.00  0.00     0.031 C 
ATOM     54  C   UNL A   1      40.882  26.822  28.018  1.00  0.00     0.029 A 
ATOM     55  N   UNL A   1      42.962  27.184  28.714  1.00  0.00    -0.354 N 
ATOM     56  C   UNL A   1      43.818  30.507  31.348  1.00  0.00     0.074 A 
ATOM     57  C   UNL A   1      42.660  31.357  31.522  1.00  0.00     0.031 C 
ATOM     58  C   UNL A   1      41.659  25.902  27.427  1.00  0.00     0.029 A 
ATOM     59  C   UNL A   1      43.038  26.115  27.849  1.00  0.00     0.049 A 
ATOM     60  H   UNL A   1      43.732  27.519  29.228  1.00  0.00     0.167 HD
ATOM     61  C   UNL A   1      45.014  30.713  31.945  1.00  0.00     0.034 A 
ATOM     62  C   UNL A   1      44.094  25.378  27.452  1.00  0.00     0.034 A 
ATOM     63  C   UNL A   1      46.158  29.866  31.751  1.00  0.00     0.049 A 
ATOM     64  C   UNL A   1      45.427  25.655  28.083  1.00  0.00     0.074 A 
ATOM     65  C   UNL A   1      47.409  29.967  32.327  1.00  0.00     0.029 A 
ATOM     66  N   UNL A   1      46.198  28.776  30.891  1.00  0.00    -0.354 N 
ATOM     67  N   UNL A   1      45.738  26.575  28.965  1.00  0.00    -0.248 NA
ATOM     68  C   UNL A   1      46.540  24.768  27.718  1.00  0.00     0.031 C 
ATOM     69  C   UNL A   1      48.220  28.964  31.783  1.00  0.00     0.029 A 
ATOM     70  C   UNL A   1      47.458  28.206  30.906  1.00  0.00     0.049 A 
ATOM     71  H   UNL A   1      45.440  28.455  30.350  1.00  0.00     0.167 HD
ATOM     72  C   UNL A   1      47.069  26.359  29.289  1.00  0.00     0.074 A 
ATOM     73  C   UNL A   1      47.502  25.208  28.519  1.00  0.00     0.031 C 
ATOM     74  C   UNL A   1      47.861  27.050  30.144  1.00  0.00     0.034 A 
BRANCH  61  75
ATOM     75  C   UNL A   1      45.128  31.907  32.853  1.00  0.00     0.023 A 
ATOM     76  C   UNL A   1      44.913  31.764  34.239  1.00  0.00     0.012 A 
ATOM     77  C   UNL A   1      45.456  33.172  32.330  1.00  0.00     0.148 A 
ATOM     78  C   UNL A   1      44.982  32.870  35.085  1.00  0.00     0.002 A 
ATOM     79  C   UNL A   1      45.573  34.259  33.186  1.00  0.00     0.091 A 
ATOM     80  F   UNL A   1      45.625  33.292  31.005  1.00  0.00    -0.205 F 
ATOM     81  C   UNL A   1      45.321  34.114  34.561  1.00  0.00     0.022 A 
BRANCH  79  82
ATOM     82  S   UNL A   1      46.080  35.884  32.619  1.00  0.00     0.127 S 
ATOM     83  O   UNL A   1      44.950  36.268  31.774  1.00  0.00    -0.237 OA
ATOM     84  O   UNL A   1      46.184  36.626  33.875  1.00  0.00    -0.237 OA
ATOM     85  O   UNL A   1      47.343  35.691  31.919  1.00  0.00    -0.744 OA
ENDBRANCH  79  82
ENDBRANCH  61  75
BRANCH  62  86
ATOM     86  C   UNL A   1      43.911  24.281  26.457  1.00  0.00     0.023 A 
ATOM     87  C   UNL A   1      44.504  24.375  25.182  1.00  0.00     0.012 A 
ATOM     88  C   UNL A   1      43.182  23.122  26.789  1.00  0.00     0.148 A 
ATOM     89  C   UNL A   1      44.352  23.347  24.249  1.00  0.00     0.002 A 
ATOM     90  C   UNL A   1      43.079  22.079  25.874  1.00  0.00     0.091 A 
ATOM     91  F   UNL A   1      42.618  23.056  28.003  1.00  0.00    -0.205 F 
ATOM     92  C   UNL A   1      43.648  22.196  24.597  1.00  0.00     0.022 A 
BRANCH  90  93
ATOM     93  S   UNL A   1      42.302  20.511  26.280  1.00  0.00     0.127 S 
ATOM     94  O   UNL A   1      40.942  20.714  25.788  1.00  0.00    -0.237 OA
ATOM     95  O   UNL A   1      43.105  19.569  25.498  1.00  0.00    -0.237 OA
ATOM     96  O   UNL A   1      42.437  20.364  27.722  1.00  0.00    -0.744 OA
ENDBRANCH  90  93
ENDBRANCH  62  86
BRANCH  74  97
ATOM     97  C   UNL A   1      49.273  26.561  30.318  1.00  0.00     0.023 A 
ATOM     98  C   UNL A   1      50.301  27.057  29.491  1.00  0.00     0.012 A 
ATOM     99  C   UNL A   1      49.586  25.651  31.345  1.00  0.00     0.148 A 
ATOM    100  C   UNL A   1      51.614  26.622  29.659  1.00  0.00     0.002 A 
ATOM    101  C   UNL A   1      50.906  25.266  31.543  1.00  0.00     0.091 A 
ATOM    102  F   UNL A   1      48.589  25.178  32.106  1.00  0.00    -0.205 F 
ATOM    103  C   UNL A   1      51.918  25.737  30.692  1.00  0.00     0.022 A 
BRANCH 101 104
ATOM    104  S   UNL A   1      51.403  24.212  32.908  1.00  0.00     0.127 S 
ATOM    105  O   UNL A   1      50.726  22.959  32.578  1.00  0.00    -0.237 OA
ATOM    106  O   UNL A   1      52.858  24.178  32.755  1.00  0.00    -0.237 OA
ATOM    107  O   UNL A   1      50.936  24.871  34.120  1.00  0.00    -0.744 OA
ENDBRANCH 101 104
ENDBRANCH  74  97
ENDBRANCH  48  49
ENDBRANCH  41  43
ENDBRANCH  40  41
ENDBRANCH  39  40
ENDBRANCH  38  39
ENDBRANCH  37  38
ENDBRANCH  36  37
ENDBRANCH   1  36
TORSDOF 27
ENDMDL
MODEL 2
REMARK VINA RESULT:      -6.7      3.625     10.663
REMARK SMILES COc1ccccc1[C@@H]1C[N@@H+](Cc2cc3c(cc2C)OCO3)C[C@H]1C(=O)OCCOCCOCCOCCOC(=O)c1ccc(-c2c3nc(c(-c4cccc(S(=O)(=O)[O-])c4F)c4ccc([nH]4)c(-c4cccc(S(=O)(=O)[O-])c4F)c4nc(c(-c5cccc(S(=O)(=O)[O-])c5F)c5ccc2[nH]5)C=C4)C=C3)cc1
REMARK SMILES IDX 34 1 33 2 32 3 31 4 30 5 29 6 28 7 27 8 25 9 26 10 24 11
REMARK SMILES IDX 9 12 10 13 11 14 23 15 8 17 3 18 4 19 5 20 7 21 6 22 2 23
REMARK SMILES IDX 1 24 12 25 13 26 14 27 18 28 15 29 17 30 19 31 16 32 22 33
REMARK SMILES IDX 20 34 21 35 35 36 36 37 37 38 38 39 39 40 40 41 41 42 42 43
REMARK SMILES IDX 43 44 104 45 44 46 103 47 45 48 46 49 47 50 97 51 48 52
REMARK SMILES IDX 102 53 96 54 98 55 49 56 101 57 95 58 94 59 50 61 82 62
REMARK SMILES IDX 62 63 81 64 63 65 66 66 80 67 99 68 64 69 65 70 79 72 100 73
REMARK SMILES IDX 67 74 51 75 52 76 60 77 53 78 55 79 61 80 54 81 56 82 57 83
REMARK SMILES IDX 58 84 59 85 83 86 84 87 92 88 85 89 87 90 93 91 86 92 88 93
REMARK SMILES IDX 89 94 90 95 91 96 68 97 69 98 77 99 70 100 72 101 78 102
REMARK SMILES IDX 71 103 73 104 74 105 75 106 76 107
REMARK H PARENT 11 16 98 60 66 71
REMARK Flexibility Score: inf
ROOT
ATOM      1  C   UNL A   1      43.804  19.153  26.040  1.00  0.00     0.188 C 
ENDROOT
BRANCH   1   2
ATOM      2  O   UNL A   1      44.013  20.308  25.271  1.00  0.00    -0.377 OA
BRANCH   2   3
ATOM      3  C   UNL A   1      43.468  21.516  25.743  1.00  0.00     0.188 C 
BRANCH   3   4
ATOM      4  C   UNL A   1      44.088  22.354  26.862  1.00  0.00     0.188 C 
BRANCH   4   5
ATOM      5  O   UNL A   1      43.639  22.194  28.193  1.00  0.00    -0.376 OA
BRANCH   5   6
ATOM      6  C   UNL A   1      43.683  23.250  29.142  1.00  0.00     0.202 C 
BRANCH   6   7
ATOM      7  C   UNL A   1      44.633  23.235  30.346  1.00  0.00     0.261 C 
BRANCH   7   8
ATOM      8  O   UNL A   1      44.219  24.040  31.467  1.00  0.00    -0.463 OA
BRANCH   8   9
ATOM      9  C   UNL A   1      45.012  25.103  31.736  1.00  0.00     0.315 C 
ATOM     10  O   UNL A   1      45.391  25.877  30.854  1.00  0.00    -0.252 OA
BRANCH   9  11
ATOM     11  C   UNL A   1      45.376  25.389  33.191  1.00  0.00     0.167 C 
ATOM     12  C   UNL A   1      44.435  25.541  34.403  1.00  0.00     0.098 C 
ATOM     13  C   UNL A   1      45.168  24.811  35.552  1.00  0.00     0.272 C 
ATOM     14  N   UNL A   1      46.062  23.828  34.949  1.00  0.00    -0.330 N 
ATOM     15  C   UNL A   1      46.425  24.358  33.635  1.00  0.00     0.278 C 
ATOM     16  H   UNL A   1      46.905  23.713  35.512  1.00  0.00     0.348 HD
BRANCH  12  17
ATOM     17  C   UNL A   1      44.026  26.922  34.950  1.00  0.00     0.004 A 
ATOM     18  C   UNL A   1      43.265  27.919  34.307  1.00  0.00     0.122 A 
ATOM     19  C   UNL A   1      42.909  29.097  34.990  1.00  0.00     0.047 A 
ATOM     20  C   UNL A   1      43.323  29.329  36.300  1.00  0.00     0.004 A 
ATOM     21  C   UNL A   1      44.466  27.208  36.271  1.00  0.00     0.008 A 
ATOM     22  C   UNL A   1      44.113  28.385  36.939  1.00  0.00     0.001 A 
BRANCH  18  23
ATOM     23  O   UNL A   1      42.654  27.773  33.091  1.00  0.00    -0.496 OA
ATOM     24  C   UNL A   1      41.252  28.043  33.094  1.00  0.00     0.278 C 
ENDBRANCH  18  23
ENDBRANCH  12  17
BRANCH  14  25
ATOM     25  C   UNL A   1      45.557  22.441  34.968  1.00  0.00     0.299 C 
BRANCH  25  26
ATOM     26  C   UNL A   1      46.092  21.559  36.075  1.00  0.00     0.013 A 
ATOM     27  C   UNL A   1      46.850  22.188  37.083  1.00  0.00     0.060 A 
ATOM     28  C   UNL A   1      45.811  20.167  36.179  1.00  0.00    -0.038 A 
ATOM     29  C   UNL A   1      47.172  21.461  38.197  1.00  0.00     0.166 A 
ATOM     30  C   UNL A   1      46.098  19.483  37.371  1.00  0.00     0.054 A 
ATOM     31  C   UNL A   1      45.270  19.332  35.053  1.00  0.00     0.045 C 
ATOM     32  C   UNL A   1      46.768  20.157  38.354  1.00  0.00     0.166 A 
ATOM     33  O   UNL A   1      47.915  21.898  39.244  1.00  0.00    -0.454 OA
ATOM     34  O   UNL A   1      47.194  19.628  39.529  1.00  0.00    -0.454 OA
ATOM     35  C   UNL A   1      48.189  20.623  39.844  1.00  0.00     0.468 C 
ENDBRANCH  25  26
ENDBRANCH  14  25
ENDBRANCH   9  11
ENDBRANCH   8   9
ENDBRANCH   7   8
ENDBRANCH   6   7
ENDBRANCH   5   6
ENDBRANCH   4   5
ENDBRANCH   3   4
ENDBRANCH   2   3
ENDBRANCH   1   2
BRANCH   1  36
ATOM     36  C   UNL A   1      42.361  19.045  26.543  1.00  0.00     0.188 C 
BRANCH  36  37
ATOM     37  O   UNL A   1      41.260  18.942  25.642  1.00  0.00    -0.376 OA
BRANCH  37  38
ATOM     38  C   UNL A   1      40.074  19.698  25.821  1.00  0.00     0.202 C 
BRANCH  38  39
ATOM     39  C   UNL A   1      40.088  21.077  26.515  1.00  0.00     0.261 C 
BRANCH  39  40
ATOM     40  O   UNL A   1      39.795  22.239  25.730  1.00  0.00    -0.460 OA
BRANCH  40  41
ATOM     41  C   UNL A   1      38.961  23.131  26.301  1.00  0.00     0.338 C 
ATOM     42  O   UNL A   1      37.756  22.999  26.486  1.00  0.00    -0.246 OA
BRANCH  41  43
ATOM     43  C   UNL A   1      39.725  24.298  26.783  1.00  0.00     0.060 A 
ATOM     44  C   UNL A   1      39.898  24.461  28.164  1.00  0.00     0.016 A 
ATOM     45  C   UNL A   1      40.183  25.276  25.896  1.00  0.00     0.016 A 
ATOM     46  C   UNL A   1      40.485  25.621  28.670  1.00  0.00     0.010 A 
ATOM     47  C   UNL A   1      40.755  26.450  26.405  1.00  0.00     0.010 A 
ATOM     48  C   UNL A   1      40.874  26.643  27.798  1.00  0.00    -0.014 A 
BRANCH  48  49
ATOM     49  C   UNL A   1      41.224  27.981  28.343  1.00  0.00     0.031 A 
ATOM     50  C   UNL A   1      42.676  28.301  28.530  1.00  0.00     0.074 A 
ATOM     51  C   UNL A   1      40.287  28.894  28.659  1.00  0.00     0.049 A 
ATOM     52  N   UNL A   1      43.220  29.388  29.003  1.00  0.00    -0.248 NA
ATOM     53  C   UNL A   1      43.640  27.273  28.106  1.00  0.00     0.031 C 
ATOM     54  C   UNL A   1      38.859  28.731  28.435  1.00  0.00     0.029 A 
ATOM     55  N   UNL A   1      40.380  30.120  29.270  1.00  0.00    -0.354 N 
ATOM     56  C   UNL A   1      44.589  29.174  28.944  1.00  0.00     0.074 A 
ATOM     57  C   UNL A   1      44.794  27.842  28.417  1.00  0.00     0.031 C 
ATOM     58  C   UNL A   1      38.192  29.736  29.022  1.00  0.00     0.029 A 
ATOM     59  C   UNL A   1      39.158  30.665  29.595  1.00  0.00     0.049 A 
ATOM     60  H   UNL A   1      41.238  30.566  29.457  1.00  0.00     0.167 HD
ATOM     61  C   UNL A   1      45.586  30.025  29.278  1.00  0.00     0.034 A 
ATOM     62  C   UNL A   1      38.847  31.793  30.264  1.00  0.00     0.034 A 
ATOM     63  C   UNL A   1      45.365  31.340  29.813  1.00  0.00     0.049 A 
ATOM     64  C   UNL A   1      39.969  32.701  30.678  1.00  0.00     0.074 A 
ATOM     65  C   UNL A   1      46.301  32.295  30.160  1.00  0.00     0.029 A 
ATOM     66  N   UNL A   1      44.117  31.876  30.106  1.00  0.00    -0.354 N 
ATOM     67  N   UNL A   1      41.259  32.530  30.518  1.00  0.00    -0.248 NA
ATOM     68  C   UNL A   1      39.601  33.977  31.306  1.00  0.00     0.031 C 
ATOM     69  C   UNL A   1      45.622  33.391  30.704  1.00  0.00     0.029 A 
ATOM     70  C   UNL A   1      44.259  33.140  30.648  1.00  0.00     0.049 A 
ATOM     71  H   UNL A   1      43.257  31.422  29.951  1.00  0.00     0.167 HD
ATOM     72  C   UNL A   1      41.859  33.687  30.993  1.00  0.00     0.074 A 
ATOM     73  C   UNL A   1      40.787  34.561  31.430  1.00  0.00     0.031 C 
ATOM     74  C   UNL A   1      43.176  33.999  31.060  1.00  0.00     0.034 A 
BRANCH  61  75
ATOM     75  C   UNL A   1      46.995  29.541  29.076  1.00  0.00     0.023 A 
ATOM     76  C   UNL A   1      47.681  29.841  27.881  1.00  0.00     0.012 A 
ATOM     77  C   UNL A   1      47.642  28.791  30.076  1.00  0.00     0.148 A 
ATOM     78  C   UNL A   1      48.975  29.368  27.668  1.00  0.00     0.002 A 
ATOM     79  C   UNL A   1      48.950  28.366  29.877  1.00  0.00     0.091 A 
ATOM     80  F   UNL A   1      46.961  28.489  31.191  1.00  0.00    -0.205 F 
ATOM     81  C   UNL A   1      49.612  28.639  28.669  1.00  0.00     0.022 A 
BRANCH  79  82
ATOM     82  S   UNL A   1      49.881  27.491  31.136  1.00  0.00     0.127 S 
ATOM     83  O   UNL A   1      51.190  27.358  30.497  1.00  0.00    -0.237 OA
ATOM     84  O   UNL A   1      49.841  28.433  32.255  1.00  0.00    -0.237 OA
ATOM     85  O   UNL A   1      49.172  26.240  31.367  1.00  0.00    -0.744 OA
ENDBRANCH  79  82
ENDBRANCH  61  75
BRANCH  62  86
ATOM     86  C   UNL A   1      37.420  32.143  30.522  1.00  0.00     0.023 A 
ATOM     87  C   UNL A   1      36.828  31.832  31.762  1.00  0.00     0.012 A 
ATOM     88  C   UNL A   1      36.658  32.823  29.552  1.00  0.00     0.148 A 
ATOM     89  C   UNL A   1      35.497  32.169  32.021  1.00  0.00     0.002 A 
ATOM     90  C   UNL A   1      35.350  33.202  29.834  1.00  0.00     0.091 A 
ATOM     91  F   UNL A   1      37.236  33.101  28.375  1.00  0.00    -0.205 F 
ATOM     92  C   UNL A   1      34.761  32.861  31.061  1.00  0.00     0.022 A 
BRANCH  90  93
ATOM     93  S   UNL A   1      34.370  34.205  28.711  1.00  0.00     0.127 S 
ATOM     94  O   UNL A   1      33.089  34.274  29.410  1.00  0.00    -0.237 OA
ATOM     95  O   UNL A   1      35.128  35.458  28.691  1.00  0.00    -0.237 OA
ATOM     96  O   UNL A   1      34.361  33.487  27.445  1.00  0.00    -0.744 OA
ENDBRANCH  90  93
ENDBRANCH  62  86
BRANCH  74  97
ATOM     97  C   UNL A   1      43.533  35.356  31.602  1.00  0.00     0.023 A 
ATOM     98  C   UNL A   1      43.750  36.435  30.722  1.00  0.00     0.012 A 
ATOM     99  C   UNL A   1      43.594  35.570  32.992  1.00  0.00     0.148 A 
ATOM    100  C   UNL A   1      44.063  37.699  31.219  1.00  0.00     0.002 A 
ATOM    101  C   UNL A   1      43.849  36.844  33.480  1.00  0.00     0.091 A 
ATOM    102  F   UNL A   1      43.403  34.524  33.809  1.00  0.00    -0.205 F 
ATOM    103  C   UNL A   1      44.099  37.906  32.596  1.00  0.00     0.022 A 
BRANCH 101 104
ATOM    104  S   UNL A   1      43.816  37.225  35.234  1.00  0.00     0.127 S 
ATOM    105  O   UNL A   1      44.931  36.422  35.733  1.00  0.00    -0.237 OA
ATOM    106  O   UNL A   1      44.052  38.669  35.239  1.00  0.00    -0.237 OA
ATOM    107  O   UNL A   1      42.499  36.824  35.710  1.00  0.00    -0.744 OA
ENDBRANCH 101 104
ENDBRANCH  74  97
ENDBRANCH  48  49
ENDBRANCH  41  43
ENDBRANCH  40  41
ENDBRANCH  39  40
ENDBRANCH  38  39
ENDBRANCH  37  38
ENDBRANCH  36  37
ENDBRANCH   1  36
TORSDOF 27
ENDMDL
MODEL 3
REMARK VINA RESULT:      -6.6      7.667     12.858
REMARK SMILES COc1ccccc1[C@@H]1C[N@@H+](Cc2cc3c(cc2C)OCO3)C[C@H]1C(=O)OCCOCCOCCOCCOC(=O)c1ccc(-c2c3nc(c(-c4cccc(S(=O)(=O)[O-])c4F)c4ccc([nH]4)c(-c4cccc(S(=O)(=O)[O-])c4F)c4nc(c(-c5cccc(S(=O)(=O)[O-])c5F)c5ccc2[nH]5)C=C4)C=C3)cc1
REMARK SMILES IDX 34 1 33 2 32 3 31 4 30 5 29 6 28 7 27 8 25 9 26 10 24 11
REMARK SMILES IDX 9 12 10 13 11 14 23 15 8 17 3 18 4 19 5 20 7 21 6 22 2 23
REMARK SMILES IDX 1 24 12 25 13 26 14 27 18 28 15 29 17 30 19 31 16 32 22 33
REMARK SMILES IDX 20 34 21 35 35 36 36 37 37 38 38 39 39 40 40 41 41 42 42 43
REMARK SMILES IDX 43 44 104 45 44 46 103 47 45 48 46 49 47 50 97 51 48 52
REMARK SMILES IDX 102 53 96 54 98 55 49 56 101 57 95 58 94 59 50 61 82 62
REMARK SMILES IDX 62 63 81 64 63 65 66 66 80 67 99 68 64 69 65 70 79 72 100 73
REMARK SMILES IDX 67 74 51 75 52 76 60 77 53 78 55 79 61 80 54 81 56 82 57 83
REMARK SMILES IDX 58 84 59 85 83 86 84 87 92 88 85 89 87 90 93 91 86 92 88 93
REMARK SMILES IDX 89 94 90 95 91 96 68 97 69 98 77 99 70 100 72 101 78 102
REMARK SMILES IDX 71 103 73 104 74 105 75 106 76 107
REMARK H PARENT 11 16 98 60 66 71
REMARK Flexibility Score: inf
ROOT
ATOM      1  C   UNL A   1      29.891  36.975  34.576  1.00  0.00     0.188 C 
ENDROOT
BRANCH   1   2
ATOM      2  O   UNL A   1      30.729  37.248  35.668  1.00  0.00    -0.377 OA
BRANCH   2   3
ATOM      3  C   UNL A   1      30.183  37.123  36.959  1.00  0.00     0.188 C 
BRANCH   3   4
ATOM      4  C   UNL A   1      30.979  37.334  38.248  1.00  0.00     0.188 C 
BRANCH   4   5
ATOM      5  O   UNL A   1      31.093  36.282  39.185  1.00  0.00    -0.376 OA
BRANCH   5   6
ATOM      6  C   UNL A   1      31.772  36.436  40.423  1.00  0.00     0.202 C 
BRANCH   6   7
ATOM      7  C   UNL A   1      31.032  36.716  41.737  1.00  0.00     0.261 C 
BRANCH   7   8
ATOM      8  O   UNL A   1      31.872  37.074  42.853  1.00  0.00    -0.463 OA
BRANCH   8   9
ATOM      9  C   UNL A   1      31.932  38.398  43.126  1.00  0.00     0.315 C 
ATOM     10  O   UNL A   1      31.437  39.244  42.379  1.00  0.00    -0.252 OA
BRANCH   9  11
ATOM     11  C   UNL A   1      32.565  38.839  44.444  1.00  0.00     0.167 C 
ATOM     12  C   UNL A   1      32.248  40.090  45.288  1.00  0.00     0.098 C 
ATOM     13  C   UNL A   1      32.292  39.587  46.749  1.00  0.00     0.272 C 
ATOM     14  N   UNL A   1      32.017  38.154  46.730  1.00  0.00    -0.330 N 
ATOM     15  C   UNL A   1      32.485  37.667  45.432  1.00  0.00     0.278 C 
ATOM     16  H   UNL A   1      32.528  37.679  47.474  1.00  0.00     0.348 HD
BRANCH  12  17
ATOM     17  C   UNL A   1      33.125  41.355  45.232  1.00  0.00     0.004 A 
ATOM     18  C   UNL A   1      32.906  42.592  45.871  1.00  0.00     0.122 A 
ATOM     19  C   UNL A   1      33.860  43.623  45.780  1.00  0.00     0.047 A 
ATOM     20  C   UNL A   1      35.027  43.466  45.034  1.00  0.00     0.004 A 
ATOM     21  C   UNL A   1      34.304  41.244  44.447  1.00  0.00     0.008 A 
ATOM     22  C   UNL A   1      35.244  42.276  44.357  1.00  0.00     0.001 A 
BRANCH  18  23
ATOM     23  O   UNL A   1      31.898  42.844  46.762  1.00  0.00    -0.496 OA
ATOM     24  C   UNL A   1      32.327  43.410  48.000  1.00  0.00     0.278 C 
ENDBRANCH  18  23
ENDBRANCH  12  17
BRANCH  14  25
ATOM     25  C   UNL A   1      30.636  37.785  47.098  1.00  0.00     0.299 C 
BRANCH  25  26
ATOM     26  C   UNL A   1      29.572  38.813  46.780  1.00  0.00     0.013 A 
ATOM     27  C   UNL A   1      29.364  39.832  47.729  1.00  0.00     0.060 A 
ATOM     28  C   UNL A   1      28.839  38.836  45.559  1.00  0.00    -0.038 A 
ATOM     29  C   UNL A   1      28.562  40.885  47.381  1.00  0.00     0.166 A 
ATOM     30  C   UNL A   1      28.086  39.970  45.217  1.00  0.00     0.054 A 
ATOM     31  C   UNL A   1      28.758  37.677  44.605  1.00  0.00     0.045 C 
ATOM     32  C   UNL A   1      27.975  40.971  46.141  1.00  0.00     0.166 A 
ATOM     33  O   UNL A   1      28.232  41.932  48.178  1.00  0.00    -0.454 OA
ATOM     34  O   UNL A   1      27.223  42.093  46.008  1.00  0.00    -0.454 OA
ATOM     35  C   UNL A   1      27.133  42.437  47.406  1.00  0.00     0.468 C 
ENDBRANCH  25  26
ENDBRANCH  14  25
ENDBRANCH   9  11
ENDBRANCH   8   9
ENDBRANCH   7   8
ENDBRANCH   6   7
ENDBRANCH   5   6
ENDBRANCH   4   5
ENDBRANCH   3   4
ENDBRANCH   2   3
ENDBRANCH   1   2
BRANCH   1  36
ATOM     36  C   UNL A   1      30.673  36.474  33.358  1.00  0.00     0.188 C 
BRANCH  36  37
ATOM     37  O   UNL A   1      32.017  36.883  33.111  1.00  0.00    -0.376 OA
BRANCH  37  38
ATOM     38  C   UNL A   1      32.565  36.897  31.803  1.00  0.00     0.202 C 
BRANCH  38  39
ATOM     39  C   UNL A   1      33.324  35.683  31.228  1.00  0.00     0.261 C 
BRANCH  39  40
ATOM     40  O   UNL A   1      32.650  34.842  30.283  1.00  0.00    -0.460 OA
BRANCH  40  41
ATOM     41  C   UNL A   1      33.348  34.544  29.168  1.00  0.00     0.338 C 
ATOM     42  O   UNL A   1      33.106  34.918  28.026  1.00  0.00    -0.246 OA
BRANCH  41  43
ATOM     43  C   UNL A   1      34.546  33.757  29.519  1.00  0.00     0.060 A 
ATOM     44  C   UNL A   1      34.385  32.602  30.296  1.00  0.00     0.016 A 
ATOM     45  C   UNL A   1      35.825  34.199  29.173  1.00  0.00     0.016 A 
ATOM     46  C   UNL A   1      35.499  31.910  30.772  1.00  0.00     0.010 A 
ATOM     47  C   UNL A   1      36.944  33.516  29.667  1.00  0.00     0.010 A 
ATOM     48  C   UNL A   1      36.785  32.389  30.501  1.00  0.00    -0.014 A 
BRANCH  48  49
ATOM     49  C   UNL A   1      37.948  31.831  31.240  1.00  0.00     0.031 A 
ATOM     50  C   UNL A   1      38.673  30.671  30.628  1.00  0.00     0.074 A 
ATOM     51  C   UNL A   1      38.359  32.337  32.418  1.00  0.00     0.049 A 
ATOM     52  N   UNL A   1      39.697  30.010  31.092  1.00  0.00    -0.248 NA
ATOM     53  C   UNL A   1      38.198  30.213  29.312  1.00  0.00     0.031 C 
ATOM     54  C   UNL A   1      37.793  33.513  33.059  1.00  0.00     0.029 A 
ATOM     55  N   UNL A   1      39.316  31.913  33.306  1.00  0.00    -0.354 N 
ATOM     56  C   UNL A   1      39.986  29.051  30.132  1.00  0.00     0.074 A 
ATOM     57  C   UNL A   1      39.011  29.197  29.073  1.00  0.00     0.031 C 
ATOM     58  C   UNL A   1      38.302  33.643  34.294  1.00  0.00     0.029 A 
ATOM     59  C   UNL A   1      39.299  32.600  34.500  1.00  0.00     0.049 A 
ATOM     60  H   UNL A   1      39.953  31.189  33.109  1.00  0.00     0.167 HD
ATOM     61  C   UNL A   1      40.991  28.147  30.126  1.00  0.00     0.034 A 
ATOM     62  C   UNL A   1      40.014  32.422  35.628  1.00  0.00     0.034 A 
ATOM     63  C   UNL A   1      41.943  28.007  31.193  1.00  0.00     0.049 A 
ATOM     64  C   UNL A   1      41.090  31.375  35.625  1.00  0.00     0.074 A 
ATOM     65  C   UNL A   1      43.017  27.142  31.278  1.00  0.00     0.029 A 
ATOM     66  N   UNL A   1      41.918  28.733  32.377  1.00  0.00    -0.354 N 
ATOM     67  N   UNL A   1      41.419  30.545  34.664  1.00  0.00    -0.248 NA
ATOM     68  C   UNL A   1      41.931  31.274  36.825  1.00  0.00     0.031 C 
ATOM     69  C   UNL A   1      43.615  27.315  32.531  1.00  0.00     0.029 A 
ATOM     70  C   UNL A   1      42.945  28.323  33.207  1.00  0.00     0.049 A 
ATOM     71  H   UNL A   1      41.264  29.437  32.594  1.00  0.00     0.167 HD
ATOM     72  C   UNL A   1      42.525  29.846  35.126  1.00  0.00     0.074 A 
ATOM     73  C   UNL A   1      42.820  30.364  36.448  1.00  0.00     0.031 C 
ATOM     74  C   UNL A   1      43.231  28.866  34.513  1.00  0.00     0.034 A 
BRANCH  61  75
ATOM     75  C   UNL A   1      41.091  27.243  28.928  1.00  0.00     0.023 A 
ATOM     76  C   UNL A   1      40.305  26.075  28.855  1.00  0.00     0.012 A 
ATOM     77  C   UNL A   1      41.964  27.557  27.869  1.00  0.00     0.148 A 
ATOM     78  C   UNL A   1      40.415  25.212  27.766  1.00  0.00     0.002 A 
ATOM     79  C   UNL A   1      42.031  26.719  26.764  1.00  0.00     0.091 A 
ATOM     80  F   UNL A   1      42.726  28.655  27.973  1.00  0.00    -0.205 F 
ATOM     81  C   UNL A   1      41.271  25.538  26.718  1.00  0.00     0.022 A 
BRANCH  79  82
ATOM     82  S   UNL A   1      43.043  27.093  25.330  1.00  0.00     0.127 S 
ATOM     83  O   UNL A   1      44.328  27.413  25.951  1.00  0.00    -0.237 OA
ATOM     84  O   UNL A   1      43.016  25.825  24.600  1.00  0.00    -0.237 OA
ATOM     85  O   UNL A   1      42.386  28.200  24.651  1.00  0.00    -0.744 OA
ENDBRANCH  79  82
ENDBRANCH  61  75
BRANCH  62  86
ATOM     86  C   UNL A   1      39.771  33.292  36.816  1.00  0.00     0.023 A 
ATOM     87  C   UNL A   1      38.649  33.070  37.638  1.00  0.00     0.012 A 
ATOM     88  C   UNL A   1      40.676  34.318  37.155  1.00  0.00     0.148 A 
ATOM     89  C   UNL A   1      38.420  33.869  38.761  1.00  0.00     0.002 A 
ATOM     90  C   UNL A   1      40.471  35.075  38.303  1.00  0.00     0.091 A 
ATOM     91  F   UNL A   1      41.732  34.519  36.354  1.00  0.00    -0.205 F 
ATOM     92  C   UNL A   1      39.335  34.864  39.099  1.00  0.00     0.022 A 
BRANCH  90  93
ATOM     93  S   UNL A   1      41.659  36.290  38.885  1.00  0.00     0.127 S 
ATOM     94  O   UNL A   1      42.878  35.492  38.988  1.00  0.00    -0.237 OA
ATOM     95  O   UNL A   1      41.651  37.264  37.792  1.00  0.00    -0.237 OA
ATOM     96  O   UNL A   1      41.126  36.794  40.143  1.00  0.00    -0.744 OA
ENDBRANCH  90  93
ENDBRANCH  62  86
BRANCH  74  97
ATOM     97  C   UNL A   1      44.414  28.307  35.254  1.00  0.00     0.023 A 
ATOM     98  C   UNL A   1      45.710  28.793  34.989  1.00  0.00     0.012 A 
ATOM     99  C   UNL A   1      44.228  27.337  36.257  1.00  0.00     0.148 A 
ATOM    100  C   UNL A   1      46.808  28.291  35.685  1.00  0.00     0.002 A 
ATOM    101  C   UNL A   1      45.319  26.884  36.987  1.00  0.00     0.091 A 
ATOM    102  F   UNL A   1      42.988  26.876  36.478  1.00  0.00    -0.205 F 
ATOM    103  C   UNL A   1      46.611  27.348  36.692  1.00  0.00     0.022 A 
BRANCH 101 104
ATOM    104  S   UNL A   1      45.147  25.748  38.365  1.00  0.00     0.127 S 
ATOM    105  O   UNL A   1      44.290  26.509  39.273  1.00  0.00    -0.237 OA
ATOM    106  O   UNL A   1      44.501  24.597  37.736  1.00  0.00    -0.237 OA
ATOM    107  O   UNL A   1      46.497  25.495  38.851  1.00  0.00    -0.744 OA
ENDBRANCH 101 104
ENDBRANCH  74  97
ENDBRANCH  48  49
ENDBRANCH  41  43
ENDBRANCH  40  41
ENDBRANCH  39  40
ENDBRANCH  38  39
ENDBRANCH  37  38
ENDBRANCH  36  37
ENDBRANCH   1  36
TORSDOF 27
ENDMDL
