MODEL 1
REMARK VINA RESULT:      -6.8      0.000      0.000
REMARK SMILES C=C[C@@H]1[C@@H](O)C[C@H]2[C@]3(CC[C@]4(C)[C@@H]([C@H](C)CCC=C(C)C)CC[C@]24C)C[C@]13CCC(=O)OCCOCCOCCOCCOC(=O)c1ccc(-c2c3nc(c(-c4cccc(S(=O)(=O)[O-])c4F)c4ccc([nH]4)c(-c4cccc(S(=O)(=O)[O-])c4F)c4nc(c(-c5cccc(S(=O)(=O)[O-])c5F)c5ccc2[nH]5)C=C4)C=C3)cc1
REMARK SMILES IDX 36 1 35 2 34 3 33 4 32 5 30 6 31 7 29 8 28 9 27 10 3 11 4 12
REMARK SMILES IDX 6 13 8 14 26 15 7 16 9 17 24 18 10 19 11 20 23 21 25 22
REMARK SMILES IDX 13 23 12 24 22 25 2 26 1 27 5 28 14 30 15 31 16 32 17 33
REMARK SMILES IDX 18 34 19 35 20 36 21 37 37 38 38 39 39 40 40 41 41 42 42 43
REMARK SMILES IDX 43 44 44 45 45 46 46 47 47 48 48 49 109 50 49 51 108 52
REMARK SMILES IDX 50 53 51 54 52 55 102 56 53 57 107 58 101 59 103 60 54 61
REMARK SMILES IDX 106 62 100 63 99 64 55 66 87 67 67 68 86 69 68 70 71 71
REMARK SMILES IDX 85 72 104 73 69 74 70 75 84 77 105 78 72 79 56 80 57 81
REMARK SMILES IDX 65 82 58 83 60 84 66 85 59 86 61 87 62 88 63 89 64 90 88 91
REMARK SMILES IDX 89 92 97 93 90 94 92 95 98 96 91 97 93 98 94 99 95 100
REMARK SMILES IDX 96 101 73 102 74 103 82 104 75 105 77 106 83 107 76 108
REMARK SMILES IDX 78 109 79 110 80 111 81 112
REMARK H PARENT 5 29 103 65 71 76
REMARK Flexibility Score: inf
ROOT
ATOM      1  C   UNL A   1      40.377  33.169  44.213  1.00  0.00     0.188 C 
ENDROOT
BRANCH   1   2
ATOM      2  O   UNL A   1      39.911  31.950  43.687  1.00  0.00    -0.376 OA
BRANCH   2   3
ATOM      3  C   UNL A   1      39.778  31.760  42.290  1.00  0.00     0.202 C 
BRANCH   3   4
ATOM      4  C   UNL A   1      38.648  32.346  41.435  1.00  0.00     0.261 C 
BRANCH   4   5
ATOM      5  O   UNL A   1      38.498  31.827  40.112  1.00  0.00    -0.463 OA
BRANCH   5   6
ATOM      6  C   UNL A   1      37.263  31.935  39.579  1.00  0.00     0.305 C 
ATOM      7  O   UNL A   1      36.306  31.227  39.885  1.00  0.00    -0.252 OA
BRANCH   6   8
ATOM      8  C   UNL A   1      37.104  33.046  38.577  1.00  0.00     0.123 C 
BRANCH   8   9
ATOM      9  C   UNL A   1      37.499  32.904  37.114  1.00  0.00     0.020 C 
BRANCH   9  10
ATOM     10  C   UNL A   1      38.860  33.340  36.574  1.00  0.00    -0.014 C 
ATOM     11  C   UNL A   1      40.096  32.603  37.164  1.00  0.00     0.047 C 
ATOM     12  C   UNL A   1      40.694  31.630  36.140  1.00  0.00     0.122 C 
ATOM     13  C   UNL A   1      40.898  32.325  34.801  1.00  0.00     0.037 C 
ATOM     14  C   UNL A   1      38.708  33.650  35.034  1.00  0.00    -0.019 C 
ATOM     15  C   UNL A   1      39.195  34.707  35.959  1.00  0.00     0.016 C 
ATOM     16  C   UNL A   1      39.552  32.723  34.163  1.00  0.00     0.005 C 
ATOM     17  C   UNL A   1      37.356  34.028  34.409  1.00  0.00     0.008 C 
ATOM     18  C   UNL A   1      39.655  33.197  32.665  1.00  0.00    -0.023 C 
ATOM     19  C   UNL A   1      37.491  34.531  32.973  1.00  0.00     0.008 C 
ATOM     20  C   UNL A   1      38.229  33.546  32.045  1.00  0.00    -0.024 C 
ATOM     21  C   UNL A   1      40.039  31.980  31.789  1.00  0.00     0.008 C 
ATOM     22  C   UNL A   1      40.674  34.348  32.524  1.00  0.00     0.012 C 
ATOM     23  C   UNL A   1      37.567  32.128  32.000  1.00  0.00    -0.002 C 
ATOM     24  C   UNL A   1      38.360  34.161  30.627  1.00  0.00     0.012 C 
ATOM     25  C   UNL A   1      38.734  31.202  31.560  1.00  0.00     0.005 C 
BRANCH  11  26
ATOM     26  C   UNL A   1      41.181  33.489  37.764  1.00  0.00    -0.028 C 
ATOM     27  C   UNL A   1      41.327  33.729  39.075  1.00  0.00     0.004 C 
ENDBRANCH  11  26
BRANCH  12  28
ATOM     28  O   UNL A   1      39.841  30.483  36.003  1.00  0.00    -0.392 OA
ATOM     29  H   UNL A   1      40.068  29.828  36.681  1.00  0.00     0.210 HD
ENDBRANCH  12  28
BRANCH  23  30
ATOM     30  C   UNL A   1      36.240  31.758  31.272  1.00  0.00    -0.010 C 
ATOM     31  C   UNL A   1      36.337  30.972  29.961  1.00  0.00     0.008 C 
BRANCH  30  32
ATOM     32  C   UNL A   1      35.430  33.074  30.987  1.00  0.00     0.008 C 
BRANCH  32  33
ATOM     33  C   UNL A   1      34.121  33.214  31.764  1.00  0.00     0.027 C 
BRANCH  33  34
ATOM     34  C   UNL A   1      34.144  34.445  32.627  1.00  0.00    -0.028 C 
ATOM     35  C   UNL A   1      33.669  35.665  32.311  1.00  0.00    -0.080 C 
ATOM     36  C   UNL A   1      33.865  36.825  33.248  1.00  0.00     0.039 C 
ATOM     37  C   UNL A   1      32.971  35.982  31.018  1.00  0.00     0.039 C 
ENDBRANCH  33  34
ENDBRANCH  32  33
ENDBRANCH  30  32
ENDBRANCH  23  30
ENDBRANCH   9  10
ENDBRANCH   8   9
ENDBRANCH   6   8
ENDBRANCH   5   6
ENDBRANCH   4   5
ENDBRANCH   3   4
ENDBRANCH   2   3
ENDBRANCH   1   2
BRANCH   1  38
ATOM     38  C   UNL A   1      41.575  33.824  43.505  1.00  0.00     0.188 C 
BRANCH  38  39
ATOM     39  O   UNL A   1      41.652  35.224  43.309  1.00  0.00    -0.377 OA
BRANCH  39  40
ATOM     40  C   UNL A   1      42.847  35.945  43.574  1.00  0.00     0.188 C 
BRANCH  40  41
ATOM     41  C   UNL A   1      44.162  35.535  42.886  1.00  0.00     0.188 C 
BRANCH  41  42
ATOM     42  O   UNL A   1      45.025  36.615  42.579  1.00  0.00    -0.376 OA
BRANCH  42  43
ATOM     43  C   UNL A   1      45.220  36.930  41.207  1.00  0.00     0.202 C 
BRANCH  43  44
ATOM     44  C   UNL A   1      44.250  36.347  40.165  1.00  0.00     0.261 C 
BRANCH  44  45
ATOM     45  O   UNL A   1      43.222  37.224  39.675  1.00  0.00    -0.460 OA
BRANCH  45  46
ATOM     46  C   UNL A   1      43.568  38.138  38.750  1.00  0.00     0.338 C 
ATOM     47  O   UNL A   1      43.871  39.308  38.941  1.00  0.00    -0.246 OA
BRANCH  46  48
ATOM     48  C   UNL A   1      43.680  37.448  37.453  1.00  0.00     0.060 A 
ATOM     49  C   UNL A   1      42.540  36.866  36.885  1.00  0.00     0.016 A 
ATOM     50  C   UNL A   1      44.921  37.350  36.819  1.00  0.00     0.016 A 
ATOM     51  C   UNL A   1      42.647  36.143  35.698  1.00  0.00     0.010 A 
ATOM     52  C   UNL A   1      45.028  36.611  35.639  1.00  0.00     0.010 A 
ATOM     53  C   UNL A   1      43.899  35.971  35.096  1.00  0.00    -0.014 A 
BRANCH  53  54
ATOM     54  C   UNL A   1      44.058  34.971  34.012  1.00  0.00     0.031 A 
ATOM     55  C   UNL A   1      43.999  35.446  32.584  1.00  0.00     0.074 A 
ATOM     56  C   UNL A   1      44.249  33.669  34.286  1.00  0.00     0.049 A 
ATOM     57  N   UNL A   1      44.062  34.754  31.479  1.00  0.00    -0.248 NA
ATOM     58  C   UNL A   1      43.843  36.896  32.378  1.00  0.00     0.031 C 
ATOM     59  C   UNL A   1      44.333  33.091  35.627  1.00  0.00     0.029 A 
ATOM     60  N   UNL A   1      44.375  32.592  33.444  1.00  0.00    -0.354 N 
ATOM     61  C   UNL A   1      43.911  35.674  30.448  1.00  0.00     0.074 A 
ATOM     62  C   UNL A   1      43.756  36.975  31.059  1.00  0.00     0.031 C 
ATOM     63  C   UNL A   1      44.455  31.756  35.517  1.00  0.00     0.029 A 
ATOM     64  C   UNL A   1      44.427  31.386  34.102  1.00  0.00     0.049 A 
ATOM     65  H   UNL A   1      44.425  32.675  32.465  1.00  0.00     0.167 HD
ATOM     66  C   UNL A   1      43.903  35.454  29.113  1.00  0.00     0.034 A 
ATOM     67  C   UNL A   1      44.412  30.126  33.618  1.00  0.00     0.034 A 
ATOM     68  C   UNL A   1      44.078  34.162  28.509  1.00  0.00     0.049 A 
ATOM     69  C   UNL A   1      44.388  29.911  32.126  1.00  0.00     0.074 A 
ATOM     70  C   UNL A   1      44.154  33.848  27.163  1.00  0.00     0.029 A 
ATOM     71  N   UNL A   1      44.178  32.969  29.206  1.00  0.00    -0.354 N 
ATOM     72  N   UNL A   1      44.373  30.799  31.162  1.00  0.00    -0.248 NA
ATOM     73  C   UNL A   1      44.410  28.517  31.653  1.00  0.00     0.031 C 
ATOM     74  C   UNL A   1      44.250  32.459  27.046  1.00  0.00     0.029 A 
ATOM     75  C   UNL A   1      44.290  31.913  28.319  1.00  0.00     0.049 A 
ATOM     76  H   UNL A   1      44.170  32.885  30.187  1.00  0.00     0.167 HD
ATOM     77  C   UNL A   1      44.425  30.077  29.974  1.00  0.00     0.074 A 
ATOM     78  C   UNL A   1      44.491  28.677  30.340  1.00  0.00     0.031 C 
ATOM     79  C   UNL A   1      44.409  30.528  28.696  1.00  0.00     0.034 A 
BRANCH  66  80
ATOM     80  C   UNL A   1      43.692  36.634  28.203  1.00  0.00     0.023 A 
ATOM     81  C   UNL A   1      42.389  37.102  27.937  1.00  0.00     0.012 A 
ATOM     82  C   UNL A   1      44.798  37.328  27.675  1.00  0.00     0.148 A 
ATOM     83  C   UNL A   1      42.191  38.229  27.141  1.00  0.00     0.002 A 
ATOM     84  C   UNL A   1      44.595  38.478  26.923  1.00  0.00     0.091 A 
ATOM     85  F   UNL A   1      46.027  36.851  27.920  1.00  0.00    -0.205 F 
ATOM     86  C   UNL A   1      43.292  38.924  26.645  1.00  0.00     0.022 A 
BRANCH  84  87
ATOM     87  S   UNL A   1      45.948  39.488  26.313  1.00  0.00     0.127 S 
ATOM     88  O   UNL A   1      45.253  40.390  25.396  1.00  0.00    -0.237 OA
ATOM     89  O   UNL A   1      46.434  40.120  27.540  1.00  0.00    -0.237 OA
ATOM     90  O   UNL A   1      46.888  38.569  25.685  1.00  0.00    -0.744 OA
ENDBRANCH  84  87
ENDBRANCH  66  80
BRANCH  67  91
ATOM     91  C   UNL A   1      44.411  28.965  34.553  1.00  0.00     0.023 A 
ATOM     92  C   UNL A   1      45.628  28.464  35.056  1.00  0.00     0.012 A 
ATOM     93  C   UNL A   1      43.205  28.347  34.935  1.00  0.00     0.148 A 
ATOM     94  C   UNL A   1      45.645  27.344  35.889  1.00  0.00     0.002 A 
ATOM     95  C   UNL A   1      43.225  27.273  35.816  1.00  0.00     0.091 A 
ATOM     96  F   UNL A   1      42.059  28.826  34.432  1.00  0.00    -0.205 F 
ATOM     97  C   UNL A   1      44.445  26.755  36.276  1.00  0.00     0.022 A 
BRANCH  95  98
ATOM     98  S   UNL A   1      41.722  26.541  36.473  1.00  0.00     0.127 S 
ATOM     99  O   UNL A   1      42.247  25.662  37.514  1.00  0.00    -0.237 OA
ATOM    100  O   UNL A   1      41.006  27.721  36.963  1.00  0.00    -0.237 OA
ATOM    101  O   UNL A   1      41.082  25.878  35.345  1.00  0.00    -0.744 OA
ENDBRANCH  95  98
ENDBRANCH  67  91
BRANCH  79 102
ATOM    102  C   UNL A   1      44.522  29.513  27.587  1.00  0.00     0.023 A 
ATOM    103  C   UNL A   1      45.746  29.328  26.914  1.00  0.00     0.012 A 
ATOM    104  C   UNL A   1      43.425  28.685  27.267  1.00  0.00     0.148 A 
ATOM    105  C   UNL A   1      45.866  28.361  25.916  1.00  0.00     0.002 A 
ATOM    106  C   UNL A   1      43.569  27.688  26.311  1.00  0.00     0.091 A 
ATOM    107  F   UNL A   1      42.265  28.886  27.908  1.00  0.00    -0.205 F 
ATOM    108  C   UNL A   1      44.784  27.535  25.624  1.00  0.00     0.022 A 
BRANCH 106 109
ATOM    109  S   UNL A   1      42.263  26.512  25.942  1.00  0.00     0.127 S 
ATOM    110  O   UNL A   1      42.351  25.601  27.082  1.00  0.00    -0.237 OA
ATOM    111  O   UNL A   1      41.073  27.365  25.931  1.00  0.00    -0.237 OA
ATOM    112  O   UNL A   1      42.599  25.927  24.651  1.00  0.00    -0.744 OA
ENDBRANCH 106 109
ENDBRANCH  79 102
ENDBRANCH  53  54
ENDBRANCH  46  48
ENDBRANCH  45  46
ENDBRANCH  44  45
ENDBRANCH  43  44
ENDBRANCH  42  43
ENDBRANCH  41  42
ENDBRANCH  40  41
ENDBRANCH  39  40
ENDBRANCH  38  39
ENDBRANCH   1  38
TORSDOF 31
ENDMDL
MODEL 2
REMARK VINA RESULT:      -6.0      6.467     10.158
REMARK SMILES C=C[C@@H]1[C@@H](O)C[C@H]2[C@]3(CC[C@]4(C)[C@@H]([C@H](C)CCC=C(C)C)CC[C@]24C)C[C@]13CCC(=O)OCCOCCOCCOCCOC(=O)c1ccc(-c2c3nc(c(-c4cccc(S(=O)(=O)[O-])c4F)c4ccc([nH]4)c(-c4cccc(S(=O)(=O)[O-])c4F)c4nc(c(-c5cccc(S(=O)(=O)[O-])c5F)c5ccc2[nH]5)C=C4)C=C3)cc1
REMARK SMILES IDX 36 1 35 2 34 3 33 4 32 5 30 6 31 7 29 8 28 9 27 10 3 11 4 12
REMARK SMILES IDX 6 13 8 14 26 15 7 16 9 17 24 18 10 19 11 20 23 21 25 22
REMARK SMILES IDX 13 23 12 24 22 25 2 26 1 27 5 28 14 30 15 31 16 32 17 33
REMARK SMILES IDX 18 34 19 35 20 36 21 37 37 38 38 39 39 40 40 41 41 42 42 43
REMARK SMILES IDX 43 44 44 45 45 46 46 47 47 48 48 49 109 50 49 51 108 52
REMARK SMILES IDX 50 53 51 54 52 55 102 56 53 57 107 58 101 59 103 60 54 61
REMARK SMILES IDX 106 62 100 63 99 64 55 66 87 67 67 68 86 69 68 70 71 71
REMARK SMILES IDX 85 72 104 73 69 74 70 75 84 77 105 78 72 79 56 80 57 81
REMARK SMILES IDX 65 82 58 83 60 84 66 85 59 86 61 87 62 88 63 89 64 90 88 91
REMARK SMILES IDX 89 92 97 93 90 94 92 95 98 96 91 97 93 98 94 99 95 100
REMARK SMILES IDX 96 101 73 102 74 103 82 104 75 105 77 106 83 107 76 108
REMARK SMILES IDX 78 109 79 110 80 111 81 112
REMARK H PARENT 5 29 103 65 71 76
REMARK Flexibility Score: inf
ROOT
ATOM      1  C   UNL A   1      37.278  33.033  35.416  1.00  0.00     0.188 C 
ENDROOT
BRANCH   1   2
ATOM      2  O   UNL A   1      35.968  33.465  35.135  1.00  0.00    -0.376 OA
BRANCH   2   3
ATOM      3  C   UNL A   1      35.363  33.198  33.883  1.00  0.00     0.202 C 
BRANCH   3   4
ATOM      4  C   UNL A   1      36.132  32.855  32.601  1.00  0.00     0.261 C 
BRANCH   4   5
ATOM      5  O   UNL A   1      36.355  31.471  32.328  1.00  0.00    -0.463 OA
BRANCH   5   6
ATOM      6  C   UNL A   1      36.443  31.140  31.022  1.00  0.00     0.305 C 
ATOM      7  O   UNL A   1      36.337  31.936  30.092  1.00  0.00    -0.252 OA
BRANCH   6   8
ATOM      8  C   UNL A   1      36.732  29.687  30.758  1.00  0.00     0.123 C 
BRANCH   8   9
ATOM      9  C   UNL A   1      38.134  29.098  30.813  1.00  0.00     0.020 C 
BRANCH   9  10
ATOM     10  C   UNL A   1      39.394  29.925  30.561  1.00  0.00    -0.014 C 
ATOM     11  C   UNL A   1      40.211  30.326  31.822  1.00  0.00     0.047 C 
ATOM     12  C   UNL A   1      41.510  29.516  31.914  1.00  0.00     0.122 C 
ATOM     13  C   UNL A   1      42.255  29.553  30.587  1.00  0.00     0.037 C 
ATOM     14  C   UNL A   1      40.074  29.404  29.236  1.00  0.00    -0.019 C 
ATOM     15  C   UNL A   1      39.657  30.827  29.346  1.00  0.00     0.016 C 
ATOM     16  C   UNL A   1      41.466  28.828  29.478  1.00  0.00     0.005 C 
ATOM     17  C   UNL A   1      39.279  28.667  28.147  1.00  0.00     0.008 C 
ATOM     18  C   UNL A   1      42.280  28.582  28.153  1.00  0.00    -0.023 C 
ATOM     19  C   UNL A   1      40.074  28.487  26.856  1.00  0.00     0.008 C 
ATOM     20  C   UNL A   1      41.432  27.786  27.065  1.00  0.00    -0.024 C 
ATOM     21  C   UNL A   1      43.390  27.543  28.442  1.00  0.00     0.008 C 
ATOM     22  C   UNL A   1      42.862  29.907  27.616  1.00  0.00     0.012 C 
ATOM     23  C   UNL A   1      41.302  26.386  27.751  1.00  0.00    -0.002 C 
ATOM     24  C   UNL A   1      42.185  27.692  25.712  1.00  0.00     0.012 C 
ATOM     25  C   UNL A   1      42.700  26.171  28.394  1.00  0.00     0.005 C 
BRANCH  11  26
ATOM     26  C   UNL A   1      40.489  31.814  31.996  1.00  0.00    -0.028 C 
ATOM     27  C   UNL A   1      39.723  32.653  32.708  1.00  0.00     0.004 C 
ENDBRANCH  11  26
BRANCH  12  28
ATOM     28  O   UNL A   1      41.214  28.165  32.305  1.00  0.00    -0.392 OA
ATOM     29  H   UNL A   1      40.790  27.702  31.567  1.00  0.00     0.210 HD
ENDBRANCH  12  28
BRANCH  23  30
ATOM     30  C   UNL A   1      40.775  25.080  27.082  1.00  0.00    -0.010 C 
ATOM     31  C   UNL A   1      39.447  24.505  27.581  1.00  0.00     0.008 C 
BRANCH  30  32
ATOM     32  C   UNL A   1      41.868  23.961  27.219  1.00  0.00     0.008 C 
BRANCH  32  33
ATOM     33  C   UNL A   1      41.933  22.969  26.057  1.00  0.00     0.027 C 
BRANCH  33  34
ATOM     34  C   UNL A   1      43.117  23.259  25.176  1.00  0.00    -0.028 C 
ATOM     35  C   UNL A   1      44.115  22.413  24.856  1.00  0.00    -0.080 C 
ATOM     36  C   UNL A   1      45.288  22.891  24.045  1.00  0.00     0.039 C 
ATOM     37  C   UNL A   1      44.175  20.981  25.307  1.00  0.00     0.039 C 
ENDBRANCH  33  34
ENDBRANCH  32  33
ENDBRANCH  30  32
ENDBRANCH  23  30
ENDBRANCH   9  10
ENDBRANCH   8   9
ENDBRANCH   6   8
ENDBRANCH   5   6
ENDBRANCH   4   5
ENDBRANCH   3   4
ENDBRANCH   2   3
ENDBRANCH   1   2
BRANCH   1  38
ATOM     38  C   UNL A   1      38.147  33.958  36.285  1.00  0.00     0.188 C 
BRANCH  38  39
ATOM     39  O   UNL A   1      39.398  34.446  35.835  1.00  0.00    -0.377 OA
BRANCH  39  40
ATOM     40  C   UNL A   1      40.617  33.827  36.221  1.00  0.00     0.188 C 
BRANCH  40  41
ATOM     41  C   UNL A   1      40.625  32.354  36.669  1.00  0.00     0.188 C 
BRANCH  41  42
ATOM     42  O   UNL A   1      41.080  31.444  35.684  1.00  0.00    -0.376 OA
BRANCH  42  43
ATOM     43  C   UNL A   1      41.782  30.292  36.130  1.00  0.00     0.202 C 
BRANCH  43  44
ATOM     44  C   UNL A   1      41.377  28.913  35.580  1.00  0.00     0.261 C 
BRANCH  44  45
ATOM     45  O   UNL A   1      41.950  27.765  36.226  1.00  0.00    -0.460 OA
BRANCH  45  46
ATOM     46  C   UNL A   1      42.005  26.616  35.526  1.00  0.00     0.338 C 
ATOM     47  O   UNL A   1      41.071  25.884  35.228  1.00  0.00    -0.246 OA
BRANCH  46  48
ATOM     48  C   UNL A   1      43.381  26.458  35.025  1.00  0.00     0.060 A 
ATOM     49  C   UNL A   1      44.418  27.181  35.629  1.00  0.00     0.016 A 
ATOM     50  C   UNL A   1      43.638  25.619  33.939  1.00  0.00     0.016 A 
ATOM     51  C   UNL A   1      45.712  27.101  35.116  1.00  0.00     0.010 A 
ATOM     52  C   UNL A   1      44.932  25.554  33.417  1.00  0.00     0.010 A 
ATOM     53  C   UNL A   1      45.965  26.326  33.978  1.00  0.00    -0.014 A 
BRANCH  53  54
ATOM     54  C   UNL A   1      47.258  26.471  33.268  1.00  0.00     0.031 A 
ATOM     55  C   UNL A   1      47.300  27.310  32.018  1.00  0.00     0.074 A 
ATOM     56  C   UNL A   1      48.373  25.871  33.719  1.00  0.00     0.049 A 
ATOM     57  N   UNL A   1      48.298  27.539  31.209  1.00  0.00    -0.248 NA
ATOM     58  C   UNL A   1      46.045  27.975  31.629  1.00  0.00     0.031 C 
ATOM     59  C   UNL A   1      48.460  25.041  34.920  1.00  0.00     0.029 A 
ATOM     60  N   UNL A   1      49.643  25.843  33.196  1.00  0.00    -0.354 N 
ATOM     61  C   UNL A   1      47.785  28.337  30.193  1.00  0.00     0.074 A 
ATOM     62  C   UNL A   1      46.387  28.556  30.489  1.00  0.00     0.031 C 
ATOM     63  C   UNL A   1      49.709  24.552  35.020  1.00  0.00     0.029 A 
ATOM     64  C   UNL A   1      50.497  25.007  33.875  1.00  0.00     0.049 A 
ATOM     65  H   UNL A   1      49.915  26.372  32.412  1.00  0.00     0.167 HD
ATOM     66  C   UNL A   1      48.422  28.843  29.111  1.00  0.00     0.034 A 
ATOM     67  C   UNL A   1      51.757  24.622  33.584  1.00  0.00     0.034 A 
ATOM     68  C   UNL A   1      49.817  28.641  28.831  1.00  0.00     0.049 A 
ATOM     69  C   UNL A   1      52.437  25.191  32.364  1.00  0.00     0.074 A 
ATOM     70  C   UNL A   1      50.569  29.170  27.797  1.00  0.00     0.029 A 
ATOM     71  N   UNL A   1      50.663  27.829  29.568  1.00  0.00    -0.354 N 
ATOM     72  N   UNL A   1      51.977  26.045  31.483  1.00  0.00    -0.248 NA
ATOM     73  C   UNL A   1      53.823  24.765  32.115  1.00  0.00     0.031 C 
ATOM     74  C   UNL A   1      51.858  28.638  27.881  1.00  0.00     0.029 A 
ATOM     75  C   UNL A   1      51.924  27.822  28.998  1.00  0.00     0.049 A 
ATOM     76  H   UNL A   1      50.405  27.331  30.377  1.00  0.00     0.167 HD
ATOM     77  C   UNL A   1      53.025  26.290  30.602  1.00  0.00     0.074 A 
ATOM     78  C   UNL A   1      54.151  25.507  31.066  1.00  0.00     0.031 C 
ATOM     79  C   UNL A   1      53.052  27.081  29.501  1.00  0.00     0.034 A 
BRANCH  66  80
ATOM     80  C   UNL A   1      47.619  29.664  28.137  1.00  0.00     0.023 A 
ATOM     81  C   UNL A   1      47.019  29.052  27.019  1.00  0.00     0.012 A 
ATOM     82  C   UNL A   1      47.396  31.034  28.381  1.00  0.00     0.148 A 
ATOM     83  C   UNL A   1      46.228  29.797  26.145  1.00  0.00     0.002 A 
ATOM     84  C   UNL A   1      46.567  31.757  27.533  1.00  0.00     0.091 A 
ATOM     85  F   UNL A   1      47.997  31.600  29.437  1.00  0.00    -0.205 F 
ATOM     86  C   UNL A   1      45.992  31.144  26.408  1.00  0.00     0.022 A 
BRANCH  84  87
ATOM     87  S   UNL A   1      46.135  33.474  27.835  1.00  0.00     0.127 S 
ATOM     88  O   UNL A   1      44.925  33.619  27.027  1.00  0.00    -0.237 OA
ATOM     89  O   UNL A   1      45.907  33.481  29.280  1.00  0.00    -0.237 OA
ATOM     90  O   UNL A   1      47.276  34.262  27.392  1.00  0.00    -0.744 OA
ENDBRANCH  84  87
ENDBRANCH  66  80
BRANCH  67  91
ATOM     91  C   UNL A   1      52.461  23.640  34.457  1.00  0.00     0.023 A 
ATOM     92  C   UNL A   1      53.001  24.054  35.690  1.00  0.00     0.012 A 
ATOM     93  C   UNL A   1      52.607  22.297  34.061  1.00  0.00     0.148 A 
ATOM     94  C   UNL A   1      53.710  23.158  36.493  1.00  0.00     0.002 A 
ATOM     95  C   UNL A   1      53.257  21.395  34.894  1.00  0.00     0.091 A 
ATOM     96  F   UNL A   1      52.102  21.927  32.876  1.00  0.00    -0.205 F 
ATOM     97  C   UNL A   1      53.829  21.828  36.099  1.00  0.00     0.022 A 
BRANCH  95  98
ATOM     98  S   UNL A   1      53.337  19.638  34.531  1.00  0.00     0.127 S 
ATOM     99  O   UNL A   1      53.302  19.632  33.071  1.00  0.00    -0.237 OA
ATOM    100  O   UNL A   1      54.626  19.271  35.120  1.00  0.00    -0.237 OA
ATOM    101  O   UNL A   1      52.184  19.046  35.196  1.00  0.00    -0.744 OA
ENDBRANCH  95  98
ENDBRANCH  67  91
BRANCH  79 102
ATOM    102  C   UNL A   1      54.351  27.197  28.746  1.00  0.00     0.023 A 
ATOM    103  C   UNL A   1      54.595  26.384  27.621  1.00  0.00     0.012 A 
ATOM    104  C   UNL A   1      55.300  28.174  29.110  1.00  0.00     0.148 A 
ATOM    105  C   UNL A   1      55.778  26.516  26.894  1.00  0.00     0.002 A 
ATOM    106  C   UNL A   1      56.451  28.337  28.349  1.00  0.00     0.091 A 
ATOM    107  F   UNL A   1      55.057  28.928  30.192  1.00  0.00    -0.205 F 
ATOM    108  C   UNL A   1      56.699  27.499  27.251  1.00  0.00     0.022 A 
BRANCH 106 109
ATOM    109  S   UNL A   1      57.642  29.643  28.672  1.00  0.00     0.127 S 
ATOM    110  O   UNL A   1      58.560  28.985  29.600  1.00  0.00    -0.237 OA
ATOM    111  O   UNL A   1      58.194  29.892  27.340  1.00  0.00    -0.237 OA
ATOM    112  O   UNL A   1      56.882  30.753  29.229  1.00  0.00    -0.744 OA
ENDBRANCH 106 109
ENDBRANCH  79 102
ENDBRANCH  53  54
ENDBRANCH  46  48
ENDBRANCH  45  46
ENDBRANCH  44  45
ENDBRANCH  43  44
ENDBRANCH  42  43
ENDBRANCH  41  42
ENDBRANCH  40  41
ENDBRANCH  39  40
ENDBRANCH  38  39
ENDBRANCH   1  38
TORSDOF 31
ENDMDL
MODEL 3
REMARK VINA RESULT:      -5.8      2.213      2.628
REMARK SMILES C=C[C@@H]1[C@@H](O)C[C@H]2[C@]3(CC[C@]4(C)[C@@H]([C@H](C)CCC=C(C)C)CC[C@]24C)C[C@]13CCC(=O)OCCOCCOCCOCCOC(=O)c1ccc(-c2c3nc(c(-c4cccc(S(=O)(=O)[O-])c4F)c4ccc([nH]4)c(-c4cccc(S(=O)(=O)[O-])c4F)c4nc(c(-c5cccc(S(=O)(=O)[O-])c5F)c5ccc2[nH]5)C=C4)C=C3)cc1
REMARK SMILES IDX 36 1 35 2 34 3 33 4 32 5 30 6 31 7 29 8 28 9 27 10 3 11 4 12
REMARK SMILES IDX 6 13 8 14 26 15 7 16 9 17 24 18 10 19 11 20 23 21 25 22
REMARK SMILES IDX 13 23 12 24 22 25 2 26 1 27 5 28 14 30 15 31 16 32 17 33
REMARK SMILES IDX 18 34 19 35 20 36 21 37 37 38 38 39 39 40 40 41 41 42 42 43
REMARK SMILES IDX 43 44 44 45 45 46 46 47 47 48 48 49 109 50 49 51 108 52
REMARK SMILES IDX 50 53 51 54 52 55 102 56 53 57 107 58 101 59 103 60 54 61
REMARK SMILES IDX 106 62 100 63 99 64 55 66 87 67 67 68 86 69 68 70 71 71
REMARK SMILES IDX 85 72 104 73 69 74 70 75 84 77 105 78 72 79 56 80 57 81
REMARK SMILES IDX 65 82 58 83 60 84 66 85 59 86 61 87 62 88 63 89 64 90 88 91
REMARK SMILES IDX 89 92 97 93 90 94 92 95 98 96 91 97 93 98 94 99 95 100
REMARK SMILES IDX 96 101 73 102 74 103 82 104 75 105 77 106 83 107 76 108
REMARK SMILES IDX 78 109 79 110 80 111 81 112
REMARK H PARENT 5 29 103 65 71 76
REMARK Flexibility Score: inf
ROOT
ATOM      1  C   UNL A   1      38.944  33.255  43.502  1.00  0.00     0.188 C 
ENDROOT
BRANCH   1   2
ATOM      2  O   UNL A   1      38.850  32.136  42.654  1.00  0.00    -0.376 OA
BRANCH   2   3
ATOM      3  C   UNL A   1      38.997  32.268  41.251  1.00  0.00     0.202 C 
BRANCH   3   4
ATOM      4  C   UNL A   1      37.939  32.870  40.318  1.00  0.00     0.261 C 
BRANCH   4   5
ATOM      5  O   UNL A   1      38.011  32.510  38.937  1.00  0.00    -0.463 OA
BRANCH   5   6
ATOM      6  C   UNL A   1      36.961  32.892  38.180  1.00  0.00     0.305 C 
ATOM      7  O   UNL A   1      35.783  32.687  38.465  1.00  0.00    -0.252 OA
BRANCH   6   8
ATOM      8  C   UNL A   1      37.327  33.651  36.933  1.00  0.00     0.123 C 
BRANCH   8   9
ATOM      9  C   UNL A   1      37.467  32.988  35.570  1.00  0.00     0.020 C 
BRANCH   9  10
ATOM     10  C   UNL A   1      38.820  32.677  34.932  1.00  0.00    -0.014 C 
ATOM     11  C   UNL A   1      39.569  31.434  35.490  1.00  0.00     0.047 C 
ATOM     12  C   UNL A   1      39.527  30.272  34.489  1.00  0.00     0.122 C 
ATOM     13  C   UNL A   1      39.946  30.748  33.105  1.00  0.00     0.037 C 
ATOM     14  C   UNL A   1      38.725  32.992  33.389  1.00  0.00    -0.019 C 
ATOM     15  C   UNL A   1      39.741  33.683  34.226  1.00  0.00     0.016 C 
ATOM     16  C   UNL A   1      38.931  31.752  32.522  1.00  0.00     0.005 C 
ATOM     17  C   UNL A   1      37.696  33.981  32.821  1.00  0.00     0.008 C 
ATOM     18  C   UNL A   1      39.141  32.083  30.998  1.00  0.00    -0.023 C 
ATOM     19  C   UNL A   1      37.954  34.323  31.355  1.00  0.00     0.008 C 
ATOM     20  C   UNL A   1      38.034  33.084  30.441  1.00  0.00    -0.024 C 
ATOM     21  C   UNL A   1      38.804  30.820  30.169  1.00  0.00     0.008 C 
ATOM     22  C   UNL A   1      40.583  32.570  30.738  1.00  0.00     0.012 C 
ATOM     23  C   UNL A   1      36.755  32.185  30.510  1.00  0.00    -0.002 C 
ATOM     24  C   UNL A   1      38.345  33.525  28.987  1.00  0.00     0.012 C 
ATOM     25  C   UNL A   1      37.272  30.791  30.056  1.00  0.00     0.005 C 
BRANCH  11  26
ATOM     26  C   UNL A   1      40.992  31.672  35.980  1.00  0.00    -0.028 C 
ATOM     27  C   UNL A   1      41.930  30.720  36.084  1.00  0.00     0.004 C 
ENDBRANCH  11  26
BRANCH  12  28
ATOM     28  O   UNL A   1      38.209  29.701  34.462  1.00  0.00    -0.392 OA
ATOM     29  H   UNL A   1      38.015  29.376  33.570  1.00  0.00     0.210 HD
ENDBRANCH  12  28
BRANCH  23  30
ATOM     30  C   UNL A   1      35.368  32.511  29.878  1.00  0.00    -0.010 C 
ATOM     31  C   UNL A   1      35.345  33.084  28.459  1.00  0.00     0.008 C 
BRANCH  30  32
ATOM     32  C   UNL A   1      34.604  33.513  30.816  1.00  0.00     0.008 C 
BRANCH  32  33
ATOM     33  C   UNL A   1      34.196  34.833  30.163  1.00  0.00     0.027 C 
BRANCH  33  34
ATOM     34  C   UNL A   1      33.050  35.461  30.907  1.00  0.00    -0.028 C 
ATOM     35  C   UNL A   1      33.069  35.950  32.162  1.00  0.00    -0.080 C 
ATOM     36  C   UNL A   1      31.804  36.452  32.803  1.00  0.00     0.039 C 
ATOM     37  C   UNL A   1      34.298  35.989  33.027  1.00  0.00     0.039 C 
ENDBRANCH  33  34
ENDBRANCH  32  33
ENDBRANCH  30  32
ENDBRANCH  23  30
ENDBRANCH   9  10
ENDBRANCH   8   9
ENDBRANCH   6   8
ENDBRANCH   5   6
ENDBRANCH   4   5
ENDBRANCH   3   4
ENDBRANCH   2   3
ENDBRANCH   1   2
BRANCH   1  38
ATOM     38  C   UNL A   1      40.086  34.248  43.225  1.00  0.00     0.188 C 
BRANCH  38  39
ATOM     39  O   UNL A   1      39.874  35.648  43.230  1.00  0.00    -0.377 OA
BRANCH  39  40
ATOM     40  C   UNL A   1      40.648  36.512  44.051  1.00  0.00     0.188 C 
BRANCH  40  41
ATOM     41  C   UNL A   1      42.185  36.484  43.963  1.00  0.00     0.188 C 
BRANCH  41  42
ATOM     42  O   UNL A   1      42.772  37.709  43.562  1.00  0.00    -0.376 OA
BRANCH  42  43
ATOM     43  C   UNL A   1      43.625  37.687  42.427  1.00  0.00     0.202 C 
BRANCH  43  44
ATOM     44  C   UNL A   1      43.496  36.531  41.420  1.00  0.00     0.261 C 
BRANCH  44  45
ATOM     45  O   UNL A   1      42.463  36.650  40.428  1.00  0.00    -0.460 OA
BRANCH  45  46
ATOM     46  C   UNL A   1      42.636  37.558  39.449  1.00  0.00     0.338 C 
ATOM     47  O   UNL A   1      42.635  38.776  39.561  1.00  0.00    -0.246 OA
BRANCH  46  48
ATOM     48  C   UNL A   1      42.993  36.833  38.218  1.00  0.00     0.060 A 
ATOM     49  C   UNL A   1      42.025  36.047  37.580  1.00  0.00     0.016 A 
ATOM     50  C   UNL A   1      44.294  36.906  37.716  1.00  0.00     0.016 A 
ATOM     51  C   UNL A   1      42.370  35.294  36.458  1.00  0.00     0.010 A 
ATOM     52  C   UNL A   1      44.641  36.137  36.602  1.00  0.00     0.010 A 
ATOM     53  C   UNL A   1      43.690  35.297  35.994  1.00  0.00    -0.014 A 
BRANCH  53  54
ATOM     54  C   UNL A   1      44.118  34.285  34.999  1.00  0.00     0.031 A 
ATOM     55  C   UNL A   1      43.918  34.587  33.537  1.00  0.00     0.074 A 
ATOM     56  C   UNL A   1      44.672  33.121  35.381  1.00  0.00     0.049 A 
ATOM     57  N   UNL A   1      44.167  33.839  32.496  1.00  0.00    -0.248 NA
ATOM     58  C   UNL A   1      43.357  35.908  33.209  1.00  0.00     0.031 C 
ATOM     59  C   UNL A   1      44.925  32.719  36.764  1.00  0.00     0.029 A 
ATOM     60  N   UNL A   1      45.092  32.048  34.634  1.00  0.00    -0.354 N 
ATOM     61  C   UNL A   1      43.754  34.578  31.393  1.00  0.00     0.074 A 
ATOM     62  C   UNL A   1      43.242  35.835  31.891  1.00  0.00     0.031 C 
ATOM     63  C   UNL A   1      45.419  31.468  36.768  1.00  0.00     0.029 A 
ATOM     64  C   UNL A   1      45.487  30.972  35.394  1.00  0.00     0.049 A 
ATOM     65  H   UNL A   1      45.109  32.049  33.650  1.00  0.00     0.167 HD
ATOM     66  C   UNL A   1      43.800  34.240  30.084  1.00  0.00     0.034 A 
ATOM     67  C   UNL A   1      45.825  29.720  35.025  1.00  0.00     0.034 A 
ATOM     68  C   UNL A   1      44.330  32.998  29.591  1.00  0.00     0.049 A 
ATOM     69  C   UNL A   1      45.854  29.367  33.559  1.00  0.00     0.074 A 
ATOM     70  C   UNL A   1      44.483  32.593  28.277  1.00  0.00     0.029 A 
ATOM     71  N   UNL A   1      44.767  31.953  30.388  1.00  0.00    -0.354 N 
ATOM     72  N   UNL A   1      45.582  30.120  32.521  1.00  0.00    -0.248 NA
ATOM     73  C   UNL A   1      46.266  27.997  33.211  1.00  0.00     0.031 C 
ATOM     74  C   UNL A   1      44.967  31.282  28.280  1.00  0.00     0.029 A 
ATOM     75  C   UNL A   1      45.168  30.892  29.594  1.00  0.00     0.049 A 
ATOM     76  H   UNL A   1      44.790  31.963  31.372  1.00  0.00     0.167 HD
ATOM     77  C   UNL A   1      45.828  29.332  31.401  1.00  0.00     0.074 A 
ATOM     78  C   UNL A   1      46.289  28.049  31.887  1.00  0.00     0.031 C 
ATOM     79  C   UNL A   1      45.676  29.638  30.088  1.00  0.00     0.034 A 
BRANCH  66  80
ATOM     80  C   UNL A   1      43.258  35.222  29.080  1.00  0.00     0.023 A 
ATOM     81  C   UNL A   1      41.927  35.114  28.629  1.00  0.00     0.012 A 
ATOM     82  C   UNL A   1      44.051  36.302  28.646  1.00  0.00     0.148 A 
ATOM     83  C   UNL A   1      41.402  36.054  27.743  1.00  0.00     0.002 A 
ATOM     84  C   UNL A   1      43.506  37.261  27.803  1.00  0.00     0.091 A 
ATOM     85  F   UNL A   1      45.321  36.371  29.069  1.00  0.00    -0.205 F 
ATOM     86  C   UNL A   1      42.186  37.133  27.340  1.00  0.00     0.022 A 
BRANCH  84  87
ATOM     87  S   UNL A   1      44.407  38.730  27.296  1.00  0.00     0.127 S 
ATOM     88  O   UNL A   1      43.369  39.486  26.597  1.00  0.00    -0.237 OA
ATOM     89  O   UNL A   1      44.812  39.297  28.583  1.00  0.00    -0.237 OA
ATOM     90  O   UNL A   1      45.505  38.263  26.461  1.00  0.00    -0.744 OA
ENDBRANCH  84  87
ENDBRANCH  66  80
BRANCH  67  91
ATOM     91  C   UNL A   1      46.160  28.698  36.058  1.00  0.00     0.023 A 
ATOM     92  C   UNL A   1      47.503  28.470  36.414  1.00  0.00     0.012 A 
ATOM     93  C   UNL A   1      45.147  27.944  36.681  1.00  0.00     0.148 A 
ATOM     94  C   UNL A   1      47.834  27.479  37.341  1.00  0.00     0.002 A 
ATOM     95  C   UNL A   1      45.478  27.005  37.650  1.00  0.00     0.091 A 
ATOM     96  F   UNL A   1      43.876  28.163  36.315  1.00  0.00    -0.205 F 
ATOM     97  C   UNL A   1      46.822  26.755  37.965  1.00  0.00     0.022 A 
BRANCH  95  98
ATOM     98  S   UNL A   1      44.234  26.125  38.600  1.00  0.00     0.127 S 
ATOM     99  O   UNL A   1      44.740  24.756  38.560  1.00  0.00    -0.237 OA
ATOM    100  O   UNL A   1      44.333  26.783  39.904  1.00  0.00    -0.237 OA
ATOM    101  O   UNL A   1      42.974  26.357  37.906  1.00  0.00    -0.744 OA
ENDBRANCH  95  98
ENDBRANCH  67  91
BRANCH  79 102
ATOM    102  C   UNL A   1      46.064  28.596  29.071  1.00  0.00     0.023 A 
ATOM    103  C   UNL A   1      45.101  27.698  28.570  1.00  0.00     0.012 A 
ATOM    104  C   UNL A   1      47.375  28.563  28.553  1.00  0.00     0.148 A 
ATOM    105  C   UNL A   1      45.446  26.759  27.597  1.00  0.00     0.002 A 
ATOM    106  C   UNL A   1      47.697  27.662  27.546  1.00  0.00     0.091 A 
ATOM    107  F   UNL A   1      48.281  29.416  29.052  1.00  0.00    -0.205 F 
ATOM    108  C   UNL A   1      46.739  26.750  27.078  1.00  0.00     0.022 A 
BRANCH 106 109
ATOM    109  S   UNL A   1      49.306  27.646  26.746  1.00  0.00     0.127 S 
ATOM    110  O   UNL A   1      49.347  26.295  26.188  1.00  0.00    -0.237 OA
ATOM    111  O   UNL A   1      49.168  28.713  25.754  1.00  0.00    -0.237 OA
ATOM    112  O   UNL A   1      50.280  27.917  27.794  1.00  0.00    -0.744 OA
ENDBRANCH 106 109
ENDBRANCH  79 102
ENDBRANCH  53  54
ENDBRANCH  46  48
ENDBRANCH  45  46
ENDBRANCH  44  45
ENDBRANCH  43  44
ENDBRANCH  42  43
ENDBRANCH  41  42
ENDBRANCH  40  41
ENDBRANCH  39  40
ENDBRANCH  38  39
ENDBRANCH   1  38
TORSDOF 31
ENDMDL
