MODEL 1
REMARK VINA RESULT:      -8.8      0.000      0.000
REMARK SMILES COc1ccccc1[C@@H]1C[N@@H+](Cc2cn3cc(C)ccc3n2)C[C@H]1C(=O)OCCOCCOCCOCCOC(=O)c1ccc(-c2c3nc(c(-c4cccc(S(=O)(=O)[O-])c4F)c4ccc([nH]4)c(-c4cccc(S(=O)(=O)[O-])c4F)c4nc(c(-c5cccc(S(=O)(=O)[O-])c5F)c5ccc2[nH]5)C=C4)C=C3)cc1
REMARK SMILES IDX 34 1 33 2 32 3 31 4 30 5 29 6 28 7 27 8 25 9 26 10 24 11
REMARK SMILES IDX 9 12 10 13 11 14 23 15 8 17 3 18 4 19 5 20 7 21 6 22 2 23
REMARK SMILES IDX 1 24 12 25 13 26 14 27 22 28 15 29 21 30 16 31 20 32 17 33
REMARK SMILES IDX 19 34 18 35 35 36 36 37 37 38 38 39 39 40 40 41 41 42 42 43
REMARK SMILES IDX 43 44 104 45 44 46 103 47 45 48 46 49 47 50 97 51 48 52
REMARK SMILES IDX 102 53 96 54 98 55 49 56 101 57 95 58 94 59 50 61 82 62
REMARK SMILES IDX 62 63 81 64 63 65 66 66 80 67 99 68 64 69 65 70 79 72 100 73
REMARK SMILES IDX 67 74 51 75 52 76 60 77 53 78 55 79 61 80 54 81 56 82 57 83
REMARK SMILES IDX 58 84 59 85 83 86 84 87 92 88 85 89 87 90 93 91 86 92 88 93
REMARK SMILES IDX 89 94 90 95 91 96 68 97 69 98 77 99 70 100 72 101 78 102
REMARK SMILES IDX 71 103 73 104 74 105 75 106 76 107
REMARK H PARENT 11 16 98 60 66 71
REMARK Flexibility Score: inf
ROOT
ATOM      1  C   UNL A   1      32.755  29.584  25.611  1.00  0.00     0.188 C 
ENDROOT
BRANCH   1   2
ATOM      2  O   UNL A   1      32.100  28.392  25.218  1.00  0.00    -0.377 OA
BRANCH   2   3
ATOM      3  C   UNL A   1      32.775  27.358  24.534  1.00  0.00     0.188 C 
BRANCH   3   4
ATOM      4  C   UNL A   1      32.121  25.971  24.391  1.00  0.00     0.188 C 
BRANCH   4   5
ATOM      5  O   UNL A   1      31.583  25.589  23.131  1.00  0.00    -0.376 OA
BRANCH   5   6
ATOM      6  C   UNL A   1      32.474  25.071  22.154  1.00  0.00     0.202 C 
BRANCH   6   7
ATOM      7  C   UNL A   1      33.418  23.960  22.598  1.00  0.00     0.261 C 
BRANCH   7   8
ATOM      8  O   UNL A   1      34.779  24.412  22.759  1.00  0.00    -0.463 OA
BRANCH   8   9
ATOM      9  C   UNL A   1      35.680  23.454  23.058  1.00  0.00     0.315 C 
ATOM     10  O   UNL A   1      36.492  23.001  22.250  1.00  0.00    -0.252 OA
BRANCH   9  11
ATOM     11  C   UNL A   1      35.590  22.854  24.443  1.00  0.00     0.167 C 
ATOM     12  C   UNL A   1      35.657  21.370  24.802  1.00  0.00     0.098 C 
ATOM     13  C   UNL A   1      36.317  21.380  26.197  1.00  0.00     0.272 C 
ATOM     14  N   UNL A   1      37.221  22.530  26.224  1.00  0.00    -0.329 N 
ATOM     15  C   UNL A   1      36.680  23.519  25.284  1.00  0.00     0.278 C 
ATOM     16  H   UNL A   1      37.249  22.918  27.167  1.00  0.00     0.348 HD
BRANCH  12  17
ATOM     17  C   UNL A   1      34.452  20.422  24.850  1.00  0.00     0.004 A 
ATOM     18  C   UNL A   1      33.087  20.679  25.073  1.00  0.00     0.122 A 
ATOM     19  C   UNL A   1      32.165  19.603  25.037  1.00  0.00     0.047 A 
ATOM     20  C   UNL A   1      32.556  18.282  24.821  1.00  0.00     0.004 A 
ATOM     21  C   UNL A   1      34.819  19.051  24.663  1.00  0.00     0.008 A 
ATOM     22  C   UNL A   1      33.897  18.004  24.646  1.00  0.00     0.001 A 
BRANCH  18  23
ATOM     23  O   UNL A   1      32.422  21.865  25.187  1.00  0.00    -0.496 OA
ATOM     24  C   UNL A   1      31.100  21.939  25.690  1.00  0.00     0.278 C 
ENDBRANCH  18  23
ENDBRANCH  12  17
BRANCH  14  25
ATOM     25  C   UNL A   1      38.640  22.199  25.986  1.00  0.00     0.321 C 
BRANCH  25  26
ATOM     26  C   UNL A   1      39.626  23.059  26.719  1.00  0.00     0.114 A 
ATOM     27  C   UNL A   1      39.527  24.410  26.998  1.00  0.00     0.122 A 
ATOM     28  N   UNL A   1      40.799  22.549  27.237  1.00  0.00    -0.228 NA
ATOM     29  N   UNL A   1      40.630  24.723  27.746  1.00  0.00    -0.306 N 
ATOM     30  C   UNL A   1      41.383  23.561  27.851  1.00  0.00     0.137 A 
ATOM     31  C   UNL A   1      40.990  25.940  28.317  1.00  0.00     0.096 A 
ATOM     32  C   UNL A   1      42.599  23.654  28.586  1.00  0.00     0.048 A 
ATOM     33  C   UNL A   1      42.147  26.035  29.001  1.00  0.00    -0.034 A 
ATOM     34  C   UNL A   1      42.968  24.830  29.133  1.00  0.00     0.009 A 
ATOM     35  C   UNL A   1      42.617  27.304  29.638  1.00  0.00     0.046 C 
ENDBRANCH  25  26
ENDBRANCH  14  25
ENDBRANCH   9  11
ENDBRANCH   8   9
ENDBRANCH   7   8
ENDBRANCH   6   7
ENDBRANCH   5   6
ENDBRANCH   4   5
ENDBRANCH   3   4
ENDBRANCH   2   3
ENDBRANCH   1   2
BRANCH   1  36
ATOM     36  C   UNL A   1      33.675  29.645  26.839  1.00  0.00     0.188 C 
BRANCH  36  37
ATOM     37  O   UNL A   1      33.747  30.901  27.489  1.00  0.00    -0.376 OA
BRANCH  37  38
ATOM     38  C   UNL A   1      35.007  31.460  27.800  1.00  0.00     0.202 C 
BRANCH  38  39
ATOM     39  C   UNL A   1      35.062  32.621  28.779  1.00  0.00     0.261 C 
BRANCH  39  40
ATOM     40  O   UNL A   1      34.666  32.327  30.105  1.00  0.00    -0.460 OA
BRANCH  40  41
ATOM     41  C   UNL A   1      34.509  33.401  30.901  1.00  0.00     0.338 C 
ATOM     42  O   UNL A   1      33.784  34.357  30.717  1.00  0.00    -0.246 OA
BRANCH  41  43
ATOM     43  C   UNL A   1      35.509  33.281  31.965  1.00  0.00     0.060 A 
ATOM     44  C   UNL A   1      36.379  34.344  32.188  1.00  0.00     0.016 A 
ATOM     45  C   UNL A   1      35.689  32.024  32.571  1.00  0.00     0.016 A 
ATOM     46  C   UNL A   1      37.514  34.103  32.936  1.00  0.00     0.010 A 
ATOM     47  C   UNL A   1      36.819  31.787  33.312  1.00  0.00     0.010 A 
ATOM     48  C   UNL A   1      37.751  32.809  33.428  1.00  0.00    -0.014 A 
BRANCH  48  49
ATOM     49  C   UNL A   1      38.983  32.563  34.144  1.00  0.00     0.031 A 
ATOM     50  C   UNL A   1      39.097  33.334  35.398  1.00  0.00     0.074 A 
ATOM     51  C   UNL A   1      39.901  31.665  33.739  1.00  0.00     0.049 A 
ATOM     52  N   UNL A   1      39.853  34.360  35.600  1.00  0.00    -0.248 NA
ATOM     53  C   UNL A   1      38.139  33.068  36.479  1.00  0.00     0.031 C 
ATOM     54  C   UNL A   1      39.781  30.672  32.667  1.00  0.00     0.029 A 
ATOM     55  N   UNL A   1      41.104  31.370  34.299  1.00  0.00    -0.354 N 
ATOM     56  C   UNL A   1      39.674  34.688  36.938  1.00  0.00     0.074 A 
ATOM     57  C   UNL A   1      38.467  34.021  37.355  1.00  0.00     0.031 C 
ATOM     58  C   UNL A   1      40.744  29.735  32.825  1.00  0.00     0.029 A 
ATOM     59  C   UNL A   1      41.621  30.141  33.909  1.00  0.00     0.049 A 
ATOM     60  H   UNL A   1      41.567  31.972  34.926  1.00  0.00     0.167 HD
ATOM     61  C   UNL A   1      40.698  35.230  37.651  1.00  0.00     0.034 A 
ATOM     62  C   UNL A   1      42.652  29.480  34.492  1.00  0.00     0.034 A 
ATOM     63  C   UNL A   1      41.725  35.755  36.779  1.00  0.00     0.049 A 
ATOM     64  C   UNL A   1      43.467  30.485  35.215  1.00  0.00     0.074 A 
ATOM     65  C   UNL A   1      41.745  36.646  35.723  1.00  0.00     0.029 A 
ATOM     66  N   UNL A   1      42.895  35.039  36.683  1.00  0.00    -0.354 N 
ATOM     67  N   UNL A   1      44.154  31.412  34.607  1.00  0.00    -0.248 NA
ATOM     68  C   UNL A   1      43.162  30.747  36.612  1.00  0.00     0.031 C 
ATOM     69  C   UNL A   1      42.658  36.081  34.784  1.00  0.00     0.029 A 
ATOM     70  C   UNL A   1      43.204  34.931  35.355  1.00  0.00     0.049 A 
ATOM     71  H   UNL A   1      43.415  34.672  37.434  1.00  0.00     0.167 HD
ATOM     72  C   UNL A   1      43.928  32.552  35.367  1.00  0.00     0.074 A 
ATOM     73  C   UNL A   1      43.417  32.059  36.646  1.00  0.00     0.031 C 
ATOM     74  C   UNL A   1      43.887  33.790  34.787  1.00  0.00     0.034 A 
BRANCH  61  75
ATOM     75  C   UNL A   1      40.990  34.912  39.101  1.00  0.00     0.023 A 
ATOM     76  C   UNL A   1      41.205  33.554  39.427  1.00  0.00     0.012 A 
ATOM     77  C   UNL A   1      40.760  35.800  40.178  1.00  0.00     0.148 A 
ATOM     78  C   UNL A   1      41.105  33.091  40.742  1.00  0.00     0.002 A 
ATOM     79  C   UNL A   1      40.740  35.348  41.491  1.00  0.00     0.091 A 
ATOM     80  F   UNL A   1      40.423  37.069  39.947  1.00  0.00    -0.205 F 
ATOM     81  C   UNL A   1      40.873  33.988  41.776  1.00  0.00     0.022 A 
BRANCH  79  82
ATOM     82  S   UNL A   1      40.486  36.473  42.870  1.00  0.00     0.127 S 
ATOM     83  O   UNL A   1      41.732  37.235  42.853  1.00  0.00    -0.237 OA
ATOM     84  O   UNL A   1      39.299  37.209  42.436  1.00  0.00    -0.237 OA
ATOM     85  O   UNL A   1      40.271  35.624  44.035  1.00  0.00    -0.744 OA
ENDBRANCH  79  82
ENDBRANCH  61  75
BRANCH  62  86
ATOM     86  C   UNL A   1      42.843  28.024  34.682  1.00  0.00     0.023 A 
ATOM     87  C   UNL A   1      41.902  27.286  35.429  1.00  0.00     0.012 A 
ATOM     88  C   UNL A   1      43.779  27.308  33.903  1.00  0.00     0.148 A 
ATOM     89  C   UNL A   1      41.874  25.886  35.374  1.00  0.00     0.002 A 
ATOM     90  C   UNL A   1      43.754  25.919  33.857  1.00  0.00     0.091 A 
ATOM     91  F   UNL A   1      44.635  27.992  33.133  1.00  0.00    -0.205 F 
ATOM     92  C   UNL A   1      42.793  25.204  34.582  1.00  0.00     0.022 A 
BRANCH  90  93
ATOM     93  S   UNL A   1      44.897  24.978  32.836  1.00  0.00     0.127 S 
ATOM     94  O   UNL A   1      46.033  24.797  33.741  1.00  0.00    -0.237 OA
ATOM     95  O   UNL A   1      44.130  23.766  32.562  1.00  0.00    -0.237 OA
ATOM     96  O   UNL A   1      45.183  25.819  31.680  1.00  0.00    -0.744 OA
ENDBRANCH  90  93
ENDBRANCH  62  86
BRANCH  74  97
ATOM     97  C   UNL A   1      44.357  33.927  33.359  1.00  0.00     0.023 A 
ATOM     98  C   UNL A   1      45.714  34.105  33.016  1.00  0.00     0.012 A 
ATOM     99  C   UNL A   1      43.423  33.722  32.330  1.00  0.00     0.148 A 
ATOM    100  C   UNL A   1      46.122  34.115  31.679  1.00  0.00     0.002 A 
ATOM    101  C   UNL A   1      43.839  33.687  31.004  1.00  0.00     0.091 A 
ATOM    102  F   UNL A   1      42.136  33.547  32.666  1.00  0.00    -0.205 F 
ATOM    103  C   UNL A   1      45.185  33.895  30.673  1.00  0.00     0.022 A 
BRANCH 101 104
ATOM    104  S   UNL A   1      42.695  33.290  29.681  1.00  0.00     0.127 S 
ATOM    105  O   UNL A   1      42.040  34.574  29.447  1.00  0.00    -0.237 OA
ATOM    106  O   UNL A   1      43.590  32.854  28.607  1.00  0.00    -0.237 OA
ATOM    107  O   UNL A   1      41.839  32.229  30.202  1.00  0.00    -0.744 OA
ENDBRANCH 101 104
ENDBRANCH  74  97
ENDBRANCH  48  49
ENDBRANCH  41  43
ENDBRANCH  40  41
ENDBRANCH  39  40
ENDBRANCH  38  39
ENDBRANCH  37  38
ENDBRANCH  36  37
ENDBRANCH   1  36
TORSDOF 27
ENDMDL
MODEL 2
REMARK VINA RESULT:      -8.8      2.163      2.478
REMARK SMILES COc1ccccc1[C@@H]1C[N@@H+](Cc2cn3cc(C)ccc3n2)C[C@H]1C(=O)OCCOCCOCCOCCOC(=O)c1ccc(-c2c3nc(c(-c4cccc(S(=O)(=O)[O-])c4F)c4ccc([nH]4)c(-c4cccc(S(=O)(=O)[O-])c4F)c4nc(c(-c5cccc(S(=O)(=O)[O-])c5F)c5ccc2[nH]5)C=C4)C=C3)cc1
REMARK SMILES IDX 34 1 33 2 32 3 31 4 30 5 29 6 28 7 27 8 25 9 26 10 24 11
REMARK SMILES IDX 9 12 10 13 11 14 23 15 8 17 3 18 4 19 5 20 7 21 6 22 2 23
REMARK SMILES IDX 1 24 12 25 13 26 14 27 22 28 15 29 21 30 16 31 20 32 17 33
REMARK SMILES IDX 19 34 18 35 35 36 36 37 37 38 38 39 39 40 40 41 41 42 42 43
REMARK SMILES IDX 43 44 104 45 44 46 103 47 45 48 46 49 47 50 97 51 48 52
REMARK SMILES IDX 102 53 96 54 98 55 49 56 101 57 95 58 94 59 50 61 82 62
REMARK SMILES IDX 62 63 81 64 63 65 66 66 80 67 99 68 64 69 65 70 79 72 100 73
REMARK SMILES IDX 67 74 51 75 52 76 60 77 53 78 55 79 61 80 54 81 56 82 57 83
REMARK SMILES IDX 58 84 59 85 83 86 84 87 92 88 85 89 87 90 93 91 86 92 88 93
REMARK SMILES IDX 89 94 90 95 91 96 68 97 69 98 77 99 70 100 72 101 78 102
REMARK SMILES IDX 71 103 73 104 74 105 75 106 76 107
REMARK H PARENT 11 16 98 60 66 71
REMARK Flexibility Score: inf
ROOT
ATOM      1  C   UNL A   1      32.733  29.907  25.821  1.00  0.00     0.188 C 
ENDROOT
BRANCH   1   2
ATOM      2  O   UNL A   1      32.169  28.654  25.480  1.00  0.00    -0.377 OA
BRANCH   2   3
ATOM      3  C   UNL A   1      32.918  27.649  24.829  1.00  0.00     0.188 C 
BRANCH   3   4
ATOM      4  C   UNL A   1      32.372  26.211  24.748  1.00  0.00     0.188 C 
BRANCH   4   5
ATOM      5  O   UNL A   1      31.690  25.799  23.569  1.00  0.00    -0.376 OA
BRANCH   5   6
ATOM      6  C   UNL A   1      32.461  25.264  22.504  1.00  0.00     0.202 C 
BRANCH   6   7
ATOM      7  C   UNL A   1      33.394  24.106  22.838  1.00  0.00     0.261 C 
BRANCH   7   8
ATOM      8  O   UNL A   1      34.776  24.510  22.935  1.00  0.00    -0.463 OA
BRANCH   8   9
ATOM      9  C   UNL A   1      35.660  23.515  23.157  1.00  0.00     0.315 C 
ATOM     10  O   UNL A   1      36.429  23.079  22.300  1.00  0.00    -0.252 OA
BRANCH   9  11
ATOM     11  C   UNL A   1      35.603  22.855  24.516  1.00  0.00     0.167 C 
ATOM     12  C   UNL A   1      35.794  21.369  24.819  1.00  0.00     0.098 C 
ATOM     13  C   UNL A   1      36.430  21.380  26.225  1.00  0.00     0.272 C 
ATOM     14  N   UNL A   1      37.230  22.602  26.312  1.00  0.00    -0.329 N 
ATOM     15  C   UNL A   1      36.619  23.577  25.402  1.00  0.00     0.278 C 
ATOM     16  H   UNL A   1      37.211  22.953  27.270  1.00  0.00     0.348 HD
BRANCH  12  17
ATOM     17  C   UNL A   1      34.675  20.319  24.808  1.00  0.00     0.004 A 
ATOM     18  C   UNL A   1      33.292  20.445  25.032  1.00  0.00     0.122 A 
ATOM     19  C   UNL A   1      32.468  19.297  24.933  1.00  0.00     0.047 A 
ATOM     20  C   UNL A   1      32.973  18.028  24.655  1.00  0.00     0.004 A 
ATOM     21  C   UNL A   1      35.161  18.997  24.556  1.00  0.00     0.008 A 
ATOM     22  C   UNL A   1      34.334  17.875  24.478  1.00  0.00     0.001 A 
BRANCH  18  23
ATOM     23  O   UNL A   1      32.526  21.562  25.199  1.00  0.00    -0.496 OA
ATOM     24  C   UNL A   1      32.569  22.330  26.388  1.00  0.00     0.278 C 
ENDBRANCH  18  23
ENDBRANCH  12  17
BRANCH  14  25
ATOM     25  C   UNL A   1      38.676  22.406  26.087  1.00  0.00     0.321 C 
BRANCH  25  26
ATOM     26  C   UNL A   1      39.565  23.429  26.726  1.00  0.00     0.114 A 
ATOM     27  C   UNL A   1      39.187  24.523  27.484  1.00  0.00     0.122 A 
ATOM     28  N   UNL A   1      40.941  23.367  26.628  1.00  0.00    -0.228 NA
ATOM     29  N   UNL A   1      40.350  25.111  27.904  1.00  0.00    -0.306 N 
ATOM     30  C   UNL A   1      41.391  24.381  27.345  1.00  0.00     0.137 A 
ATOM     31  C   UNL A   1      40.529  26.220  28.725  1.00  0.00     0.096 A 
ATOM     32  C   UNL A   1      42.711  24.825  27.640  1.00  0.00     0.048 A 
ATOM     33  C   UNL A   1      41.777  26.651  28.995  1.00  0.00    -0.034 A 
ATOM     34  C   UNL A   1      42.899  25.906  28.423  1.00  0.00     0.009 A 
ATOM     35  C   UNL A   1      42.062  27.839  29.859  1.00  0.00     0.046 C 
ENDBRANCH  25  26
ENDBRANCH  14  25
ENDBRANCH   9  11
ENDBRANCH   8   9
ENDBRANCH   7   8
ENDBRANCH   6   7
ENDBRANCH   5   6
ENDBRANCH   4   5
ENDBRANCH   3   4
ENDBRANCH   2   3
ENDBRANCH   1   2
BRANCH   1  36
ATOM     36  C   UNL A   1      33.566  30.109  27.095  1.00  0.00     0.188 C 
BRANCH  36  37
ATOM     37  O   UNL A   1      33.591  31.428  27.609  1.00  0.00    -0.376 OA
BRANCH  37  38
ATOM     38  C   UNL A   1      34.818  32.009  27.997  1.00  0.00     0.202 C 
BRANCH  38  39
ATOM     39  C   UNL A   1      34.789  33.219  28.916  1.00  0.00     0.261 C 
BRANCH  39  40
ATOM     40  O   UNL A   1      34.264  32.997  30.211  1.00  0.00    -0.460 OA
BRANCH  40  41
ATOM     41  C   UNL A   1      34.244  34.081  31.008  1.00  0.00     0.338 C 
ATOM     42  O   UNL A   1      33.652  35.124  30.822  1.00  0.00    -0.246 OA
BRANCH  41  43
ATOM     43  C   UNL A   1      35.213  33.828  32.078  1.00  0.00     0.060 A 
ATOM     44  C   UNL A   1      36.126  34.828  32.402  1.00  0.00     0.016 A 
ATOM     45  C   UNL A   1      35.322  32.520  32.584  1.00  0.00     0.016 A 
ATOM     46  C   UNL A   1      37.232  34.474  33.150  1.00  0.00     0.010 A 
ATOM     47  C   UNL A   1      36.423  32.171  33.324  1.00  0.00     0.010 A 
ATOM     48  C   UNL A   1      37.398  33.136  33.540  1.00  0.00    -0.014 A 
BRANCH  48  49
ATOM     49  C   UNL A   1      38.601  32.775  34.257  1.00  0.00     0.031 A 
ATOM     50  C   UNL A   1      38.584  33.186  35.675  1.00  0.00     0.074 A 
ATOM     51  C   UNL A   1      39.604  32.072  33.699  1.00  0.00     0.049 A 
ATOM     52  N   UNL A   1      39.249  34.160  36.198  1.00  0.00    -0.248 NA
ATOM     53  C   UNL A   1      37.587  32.586  36.571  1.00  0.00     0.031 C 
ATOM     54  C   UNL A   1      39.621  31.397  32.398  1.00  0.00     0.029 A 
ATOM     55  N   UNL A   1      40.791  31.704  34.252  1.00  0.00    -0.354 N 
ATOM     56  C   UNL A   1      38.968  34.105  37.557  1.00  0.00     0.074 A 
ATOM     57  C   UNL A   1      37.792  33.285  37.690  1.00  0.00     0.031 C 
ATOM     58  C   UNL A   1      40.640  30.508  32.375  1.00  0.00     0.029 A 
ATOM     59  C   UNL A   1      41.420  30.656  33.591  1.00  0.00     0.049 A 
ATOM     60  H   UNL A   1      41.171  32.141  35.049  1.00  0.00     0.167 HD
ATOM     61  C   UNL A   1      39.907  34.492  38.464  1.00  0.00     0.034 A 
ATOM     62  C   UNL A   1      42.461  29.921  34.056  1.00  0.00     0.034 A 
ATOM     63  C   UNL A   1      40.941  35.289  37.843  1.00  0.00     0.049 A 
ATOM     64  C   UNL A   1      43.156  30.738  35.078  1.00  0.00     0.074 A 
ATOM     65  C   UNL A   1      40.956  36.431  37.064  1.00  0.00     0.029 A 
ATOM     66  N   UNL A   1      42.164  34.691  37.650  1.00  0.00    -0.354 N 
ATOM     67  N   UNL A   1      43.806  31.831  34.791  1.00  0.00    -0.248 NA
ATOM     68  C   UNL A   1      42.751  30.598  36.467  1.00  0.00     0.031 C 
ATOM     69  C   UNL A   1      41.962  36.190  36.082  1.00  0.00     0.029 A 
ATOM     70  C   UNL A   1      42.558  34.961  36.368  1.00  0.00     0.049 A 
ATOM     71  H   UNL A   1      42.665  34.165  38.314  1.00  0.00     0.167 HD
ATOM     72  C   UNL A   1      43.453  32.711  35.806  1.00  0.00     0.074 A 
ATOM     73  C   UNL A   1      42.906  31.864  36.866  1.00  0.00     0.031 C 
ATOM     74  C   UNL A   1      43.355  34.054  35.572  1.00  0.00     0.034 A 
BRANCH  61  75
ATOM     75  C   UNL A   1      40.136  33.813  39.796  1.00  0.00     0.023 A 
ATOM     76  C   UNL A   1      41.389  33.190  39.989  1.00  0.00     0.012 A 
ATOM     77  C   UNL A   1      39.113  33.491  40.719  1.00  0.00     0.148 A 
ATOM     78  C   UNL A   1      41.585  32.229  40.986  1.00  0.00     0.002 A 
ATOM     79  C   UNL A   1      39.336  32.595  41.756  1.00  0.00     0.091 A 
ATOM     80  F   UNL A   1      37.870  33.937  40.532  1.00  0.00    -0.205 F 
ATOM     81  C   UNL A   1      40.559  31.932  41.871  1.00  0.00     0.022 A 
BRANCH  79  82
ATOM     82  S   UNL A   1      38.054  32.207  42.955  1.00  0.00     0.127 S 
ATOM     83  O   UNL A   1      37.077  31.515  42.119  1.00  0.00    -0.237 OA
ATOM     84  O   UNL A   1      38.779  31.358  43.899  1.00  0.00    -0.237 OA
ATOM     85  O   UNL A   1      37.631  33.488  43.506  1.00  0.00    -0.744 OA
ENDBRANCH  79  82
ENDBRANCH  61  75
BRANCH  62  86
ATOM     86  C   UNL A   1      42.747  28.480  33.867  1.00  0.00     0.023 A 
ATOM     87  C   UNL A   1      43.777  28.078  32.993  1.00  0.00     0.012 A 
ATOM     88  C   UNL A   1      42.210  27.514  34.748  1.00  0.00     0.148 A 
ATOM     89  C   UNL A   1      44.279  26.770  33.020  1.00  0.00     0.002 A 
ATOM     90  C   UNL A   1      42.705  26.215  34.767  1.00  0.00     0.091 A 
ATOM     91  F   UNL A   1      41.280  27.894  35.634  1.00  0.00    -0.205 F 
ATOM     92  C   UNL A   1      43.749  25.842  33.913  1.00  0.00     0.022 A 
BRANCH  90  93
ATOM     93  S   UNL A   1      42.082  24.975  35.910  1.00  0.00     0.127 S 
ATOM     94  O   UNL A   1      42.760  23.764  35.444  1.00  0.00    -0.237 OA
ATOM     95  O   UNL A   1      42.551  25.485  37.196  1.00  0.00    -0.237 OA
ATOM     96  O   UNL A   1      40.636  24.956  35.728  1.00  0.00    -0.744 OA
ENDBRANCH  90  93
ENDBRANCH  62  86
BRANCH  74  97
ATOM     97  C   UNL A   1      43.895  34.596  34.271  1.00  0.00     0.023 A 
ATOM     98  C   UNL A   1      43.154  34.578  33.070  1.00  0.00     0.012 A 
ATOM     99  C   UNL A   1      45.124  35.276  34.293  1.00  0.00     0.148 A 
ATOM    100  C   UNL A   1      43.644  35.190  31.913  1.00  0.00     0.002 A 
ATOM    101  C   UNL A   1      45.587  35.924  33.154  1.00  0.00     0.091 A 
ATOM    102  F   UNL A   1      45.818  35.295  35.441  1.00  0.00    -0.205 F 
ATOM    103  C   UNL A   1      44.857  35.873  31.958  1.00  0.00     0.022 A 
BRANCH 101 104
ATOM    104  S   UNL A   1      47.081  36.916  33.190  1.00  0.00     0.127 S 
ATOM    105  O   UNL A   1      47.927  36.160  34.111  1.00  0.00    -0.237 OA
ATOM    106  O   UNL A   1      47.517  36.884  31.793  1.00  0.00    -0.237 OA
ATOM    107  O   UNL A   1      46.669  38.237  33.650  1.00  0.00    -0.744 OA
ENDBRANCH 101 104
ENDBRANCH  74  97
ENDBRANCH  48  49
ENDBRANCH  41  43
ENDBRANCH  40  41
ENDBRANCH  39  40
ENDBRANCH  38  39
ENDBRANCH  37  38
ENDBRANCH  36  37
ENDBRANCH   1  36
TORSDOF 27
ENDMDL
MODEL 3
REMARK VINA RESULT:      -8.7      1.702      2.023
REMARK SMILES COc1ccccc1[C@@H]1C[N@@H+](Cc2cn3cc(C)ccc3n2)C[C@H]1C(=O)OCCOCCOCCOCCOC(=O)c1ccc(-c2c3nc(c(-c4cccc(S(=O)(=O)[O-])c4F)c4ccc([nH]4)c(-c4cccc(S(=O)(=O)[O-])c4F)c4nc(c(-c5cccc(S(=O)(=O)[O-])c5F)c5ccc2[nH]5)C=C4)C=C3)cc1
REMARK SMILES IDX 34 1 33 2 32 3 31 4 30 5 29 6 28 7 27 8 25 9 26 10 24 11
REMARK SMILES IDX 9 12 10 13 11 14 23 15 8 17 3 18 4 19 5 20 7 21 6 22 2 23
REMARK SMILES IDX 1 24 12 25 13 26 14 27 22 28 15 29 21 30 16 31 20 32 17 33
REMARK SMILES IDX 19 34 18 35 35 36 36 37 37 38 38 39 39 40 40 41 41 42 42 43
REMARK SMILES IDX 43 44 104 45 44 46 103 47 45 48 46 49 47 50 97 51 48 52
REMARK SMILES IDX 102 53 96 54 98 55 49 56 101 57 95 58 94 59 50 61 82 62
REMARK SMILES IDX 62 63 81 64 63 65 66 66 80 67 99 68 64 69 65 70 79 72 100 73
REMARK SMILES IDX 67 74 51 75 52 76 60 77 53 78 55 79 61 80 54 81 56 82 57 83
REMARK SMILES IDX 58 84 59 85 83 86 84 87 92 88 85 89 87 90 93 91 86 92 88 93
REMARK SMILES IDX 89 94 90 95 91 96 68 97 69 98 77 99 70 100 72 101 78 102
REMARK SMILES IDX 71 103 73 104 74 105 75 106 76 107
REMARK H PARENT 11 16 98 60 66 71
REMARK Flexibility Score: inf
ROOT
ATOM      1  C   UNL A   1      32.380  28.495  26.381  1.00  0.00     0.188 C 
ENDROOT
BRANCH   1   2
ATOM      2  O   UNL A   1      31.938  27.198  26.024  1.00  0.00    -0.377 OA
BRANCH   2   3
ATOM      3  C   UNL A   1      32.528  26.472  24.966  1.00  0.00     0.188 C 
BRANCH   3   4
ATOM      4  C   UNL A   1      32.139  25.001  24.729  1.00  0.00     0.188 C 
BRANCH   4   5
ATOM      5  O   UNL A   1      31.440  24.656  23.539  1.00  0.00    -0.376 OA
BRANCH   5   6
ATOM      6  C   UNL A   1      32.202  24.383  22.372  1.00  0.00     0.202 C 
BRANCH   6   7
ATOM      7  C   UNL A   1      33.364  23.406  22.518  1.00  0.00     0.261 C 
BRANCH   7   8
ATOM      8  O   UNL A   1      34.650  24.060  22.505  1.00  0.00    -0.463 OA
BRANCH   8   9
ATOM      9  C   UNL A   1      35.679  23.331  22.984  1.00  0.00     0.315 C 
ATOM     10  O   UNL A   1      36.637  22.968  22.301  1.00  0.00    -0.252 OA
BRANCH   9  11
ATOM     11  C   UNL A   1      35.564  22.868  24.419  1.00  0.00     0.167 C 
ATOM     12  C   UNL A   1      35.851  21.463  24.950  1.00  0.00     0.098 C 
ATOM     13  C   UNL A   1      36.366  21.732  26.380  1.00  0.00     0.272 C 
ATOM     14  N   UNL A   1      37.053  23.023  26.341  1.00  0.00    -0.329 N 
ATOM     15  C   UNL A   1      36.441  23.799  25.256  1.00  0.00     0.278 C 
ATOM     16  H   UNL A   1      36.927  23.502  27.233  1.00  0.00     0.348 HD
BRANCH  12  17
ATOM     17  C   UNL A   1      34.826  20.323  25.017  1.00  0.00     0.004 A 
ATOM     18  C   UNL A   1      33.494  20.308  25.471  1.00  0.00     0.122 A 
ATOM     19  C   UNL A   1      32.752  19.103  25.395  1.00  0.00     0.047 A 
ATOM     20  C   UNL A   1      33.295  17.911  24.918  1.00  0.00     0.004 A 
ATOM     21  C   UNL A   1      35.359  19.075  24.564  1.00  0.00     0.008 A 
ATOM     22  C   UNL A   1      34.614  17.895  24.512  1.00  0.00     0.001 A 
BRANCH  18  23
ATOM     23  O   UNL A   1      32.687  21.335  25.866  1.00  0.00    -0.496 OA
ATOM     24  C   UNL A   1      31.404  21.541  25.302  1.00  0.00     0.278 C 
ENDBRANCH  18  23
ENDBRANCH  12  17
BRANCH  14  25
ATOM     25  C   UNL A   1      38.524  22.932  26.249  1.00  0.00     0.321 C 
BRANCH  25  26
ATOM     26  C   UNL A   1      39.274  24.037  26.928  1.00  0.00     0.114 A 
ATOM     27  C   UNL A   1      40.544  24.502  26.636  1.00  0.00     0.122 A 
ATOM     28  N   UNL A   1      38.729  24.759  27.970  1.00  0.00    -0.228 NA
ATOM     29  N   UNL A   1      40.761  25.562  27.476  1.00  0.00    -0.306 N 
ATOM     30  C   UNL A   1      39.633  25.670  28.280  1.00  0.00     0.137 A 
ATOM     31  C   UNL A   1      41.864  26.405  27.563  1.00  0.00     0.096 A 
ATOM     32  C   UNL A   1      39.641  26.711  29.251  1.00  0.00     0.048 A 
ATOM     33  C   UNL A   1      41.881  27.382  28.490  1.00  0.00    -0.034 A 
ATOM     34  C   UNL A   1      40.710  27.527  29.356  1.00  0.00     0.009 A 
ATOM     35  C   UNL A   1      43.029  28.327  28.661  1.00  0.00     0.046 C 
ENDBRANCH  25  26
ENDBRANCH  14  25
ENDBRANCH   9  11
ENDBRANCH   8   9
ENDBRANCH   7   8
ENDBRANCH   6   7
ENDBRANCH   5   6
ENDBRANCH   4   5
ENDBRANCH   3   4
ENDBRANCH   2   3
ENDBRANCH   1   2
BRANCH   1  36
ATOM     36  C   UNL A   1      33.584  28.722  27.308  1.00  0.00     0.188 C 
BRANCH  36  37
ATOM     37  O   UNL A   1      33.708  30.026  27.844  1.00  0.00    -0.376 OA
BRANCH  37  38
ATOM     38  C   UNL A   1      34.543  30.971  27.208  1.00  0.00     0.202 C 
BRANCH  38  39
ATOM     39  C   UNL A   1      35.125  32.101  28.041  1.00  0.00     0.261 C 
BRANCH  39  40
ATOM     40  O   UNL A   1      35.606  31.737  29.321  1.00  0.00    -0.460 OA
BRANCH  40  41
ATOM     41  C   UNL A   1      35.073  32.430  30.345  1.00  0.00     0.338 C 
ATOM     42  O   UNL A   1      34.016  33.027  30.361  1.00  0.00    -0.246 OA
BRANCH  41  43
ATOM     43  C   UNL A   1      36.092  32.469  31.397  1.00  0.00     0.060 A 
ATOM     44  C   UNL A   1      37.273  33.166  31.159  1.00  0.00     0.016 A 
ATOM     45  C   UNL A   1      35.929  31.629  32.514  1.00  0.00     0.016 A 
ATOM     46  C   UNL A   1      38.346  32.920  31.990  1.00  0.00     0.010 A 
ATOM     47  C   UNL A   1      36.999  31.384  33.337  1.00  0.00     0.010 A 
ATOM     48  C   UNL A   1      38.213  31.980  33.025  1.00  0.00    -0.014 A 
BRANCH  48  49
ATOM     49  C   UNL A   1      39.373  31.684  33.836  1.00  0.00     0.031 A 
ATOM     50  C   UNL A   1      39.521  32.581  34.999  1.00  0.00     0.074 A 
ATOM     51  C   UNL A   1      40.195  30.647  33.588  1.00  0.00     0.049 A 
ATOM     52  N   UNL A   1      40.383  33.532  35.128  1.00  0.00    -0.248 NA
ATOM     53  C   UNL A   1      38.490  32.554  36.045  1.00  0.00     0.031 C 
ATOM     54  C   UNL A   1      40.007  29.552  32.631  1.00  0.00     0.029 A 
ATOM     55  N   UNL A   1      41.329  30.287  34.248  1.00  0.00    -0.354 N 
ATOM     56  C   UNL A   1      40.184  34.034  36.408  1.00  0.00     0.074 A 
ATOM     57  C   UNL A   1      38.889  33.562  36.825  1.00  0.00     0.031 C 
ATOM     58  C   UNL A   1      40.844  28.539  32.950  1.00  0.00     0.029 A 
ATOM     59  C   UNL A   1      41.713  28.970  34.031  1.00  0.00     0.049 A 
ATOM     60  H   UNL A   1      41.831  30.904  34.829  1.00  0.00     0.167 HD
ATOM     61  C   UNL A   1      41.232  34.539  37.114  1.00  0.00     0.034 A 
ATOM     62  C   UNL A   1      42.632  28.271  34.745  1.00  0.00     0.034 A 
ATOM     63  C   UNL A   1      42.352  34.838  36.250  1.00  0.00     0.049 A 
ATOM     64  C   UNL A   1      43.526  29.257  35.396  1.00  0.00     0.074 A 
ATOM     65  C   UNL A   1      42.525  35.589  35.103  1.00  0.00     0.029 A 
ATOM     66  N   UNL A   1      43.432  33.989  36.304  1.00  0.00    -0.354 N 
ATOM     67  N   UNL A   1      44.345  30.022  34.729  1.00  0.00    -0.248 NA
ATOM     68  C   UNL A   1      43.191  29.716  36.734  1.00  0.00     0.031 C 
ATOM     69  C   UNL A   1      43.406  34.817  34.289  1.00  0.00     0.029 A 
ATOM     70  C   UNL A   1      43.786  33.689  35.018  1.00  0.00     0.049 A 
ATOM     71  H   UNL A   1      43.870  33.657  37.122  1.00  0.00     0.167 HD
ATOM     72  C   UNL A   1      44.221  31.262  35.341  1.00  0.00     0.074 A 
ATOM     73  C   UNL A   1      43.598  30.985  36.635  1.00  0.00     0.031 C 
ATOM     74  C   UNL A   1      44.354  32.419  34.624  1.00  0.00     0.034 A 
BRANCH  61  75
ATOM     75  C   UNL A   1      41.418  34.365  38.605  1.00  0.00     0.023 A 
ATOM     76  C   UNL A   1      41.722  33.064  39.064  1.00  0.00     0.012 A 
ATOM     77  C   UNL A   1      41.013  35.308  39.579  1.00  0.00     0.148 A 
ATOM     78  C   UNL A   1      41.545  32.697  40.401  1.00  0.00     0.002 A 
ATOM     79  C   UNL A   1      40.914  34.960  40.920  1.00  0.00     0.091 A 
ATOM     80  F   UNL A   1      40.587  36.518  39.212  1.00  0.00    -0.205 F 
ATOM     81  C   UNL A   1      41.141  33.646  41.331  1.00  0.00     0.022 A 
BRANCH  79  82
ATOM     82  S   UNL A   1      40.437  36.161  42.170  1.00  0.00     0.127 S 
ATOM     83  O   UNL A   1      41.461  37.187  41.989  1.00  0.00    -0.237 OA
ATOM     84  O   UNL A   1      39.095  36.533  41.725  1.00  0.00    -0.237 OA
ATOM     85  O   UNL A   1      40.469  35.441  43.437  1.00  0.00    -0.744 OA
ENDBRANCH  79  82
ENDBRANCH  61  75
BRANCH  62  86
ATOM     86  C   UNL A   1      42.639  26.835  35.108  1.00  0.00     0.023 A 
ATOM     87  C   UNL A   1      41.571  26.296  35.853  1.00  0.00     0.012 A 
ATOM     88  C   UNL A   1      43.538  25.937  34.492  1.00  0.00     0.148 A 
ATOM     89  C   UNL A   1      41.385  24.910  35.950  1.00  0.00     0.002 A 
ATOM     90  C   UNL A   1      43.356  24.563  34.598  1.00  0.00     0.091 A 
ATOM     91  F   UNL A   1      44.519  26.430  33.724  1.00  0.00    -0.205 F 
ATOM     92  C   UNL A   1      42.272  24.045  35.316  1.00  0.00     0.022 A 
BRANCH  90  93
ATOM     93  S   UNL A   1      44.451  23.391  33.783  1.00  0.00     0.127 S 
ATOM     94  O   UNL A   1      44.064  23.540  32.379  1.00  0.00    -0.237 OA
ATOM     95  O   UNL A   1      45.768  23.925  34.117  1.00  0.00    -0.237 OA
ATOM     96  O   UNL A   1      44.135  22.088  34.354  1.00  0.00    -0.744 OA
ENDBRANCH  90  93
ENDBRANCH  62  86
BRANCH  74  97
ATOM     97  C   UNL A   1      44.901  32.332  33.219  1.00  0.00     0.023 A 
ATOM     98  C   UNL A   1      44.089  32.041  32.101  1.00  0.00     0.012 A 
ATOM     99  C   UNL A   1      46.238  32.700  33.002  1.00  0.00     0.148 A 
ATOM    100  C   UNL A   1      44.611  32.080  30.805  1.00  0.00     0.002 A 
ATOM    101  C   UNL A   1      46.741  32.783  31.710  1.00  0.00     0.091 A 
ATOM    102  F   UNL A   1      47.000  32.982  34.070  1.00  0.00    -0.205 F 
ATOM    103  C   UNL A   1      45.935  32.461  30.608  1.00  0.00     0.022 A 
BRANCH 101 104
ATOM    104  S   UNL A   1      48.402  33.383  31.394  1.00  0.00     0.127 S 
ATOM    105  O   UNL A   1      49.224  32.359  32.035  1.00  0.00    -0.237 OA
ATOM    106  O   UNL A   1      48.465  33.391  29.932  1.00  0.00    -0.237 OA
ATOM    107  O   UNL A   1      48.464  34.711  31.994  1.00  0.00    -0.744 OA
ENDBRANCH 101 104
ENDBRANCH  74  97
ENDBRANCH  48  49
ENDBRANCH  41  43
ENDBRANCH  40  41
ENDBRANCH  39  40
ENDBRANCH  38  39
ENDBRANCH  37  38
ENDBRANCH  36  37
ENDBRANCH   1  36
TORSDOF 27
ENDMDL
