MODEL 1
REMARK VINA RESULT:      -9.0      0.000      0.000
REMARK SMILES CSCC[C@@H](NC(=O)[C@@H]1CC(=O)N(C)C1)C(=O)OCCOCCOCCOCCOC(=O)c1ccc(-c2c3nc(c(-c4cccc(S(=O)(=O)[O-])c4F)c4ccc([nH]4)c(-c4cccc(S(=O)(=O)[O-])c4F)c4nc(c(-c5cccc(S(=O)(=O)[O-])c5F)c5ccc2[nH]5)C=C4)C=C3)cc1
REMARK SMILES IDX 24 1 23 2 22 3 21 4 20 5 19 6 18 7 16 8 17 9 5 10 4 11 3 12
REMARK SMILES IDX 2 13 1 14 6 15 7 16 8 18 9 19 10 20 15 21 11 22 13 23 12 24
REMARK SMILES IDX 14 25 25 26 26 27 27 28 28 29 29 30 30 31 31 32 32 33 33 34
REMARK SMILES IDX 34 35 95 36 35 37 94 38 36 39 37 40 38 41 88 42 39 43 93 44
REMARK SMILES IDX 87 45 89 46 40 47 92 48 86 49 85 50 41 52 73 53 53 54 72 55
REMARK SMILES IDX 54 56 57 57 71 58 90 59 55 60 56 61 70 63 91 64 58 65 42 66
REMARK SMILES IDX 43 67 51 68 44 69 46 70 52 71 45 72 47 73 48 74 49 75 50 76
REMARK SMILES IDX 74 77 75 78 83 79 76 80 78 81 84 82 77 83 79 84 80 85 81 86
REMARK SMILES IDX 82 87 59 88 60 89 68 90 61 91 63 92 69 93 62 94 64 95 65 96
REMARK SMILES IDX 66 97 67 98
REMARK H PARENT 6 17 89 51 57 62
REMARK Flexibility Score: inf
ROOT
ATOM      1  O   UNL A   1      31.357  26.812  25.285  1.00  0.00    -0.377 OA
ENDROOT
BRANCH   1   2
ATOM      2  C   UNL A   1      30.420  25.758  25.172  1.00  0.00     0.188 C 
BRANCH   2   3
ATOM      3  C   UNL A   1      29.797  25.502  23.785  1.00  0.00     0.188 C 
BRANCH   3   4
ATOM      4  O   UNL A   1      30.556  24.908  22.749  1.00  0.00    -0.376 OA
BRANCH   4   5
ATOM      5  C   UNL A   1      31.945  24.679  22.910  1.00  0.00     0.202 C 
BRANCH   5   6
ATOM      6  C   UNL A   1      32.513  23.283  23.120  1.00  0.00     0.261 C 
BRANCH   6   7
ATOM      7  O   UNL A   1      31.636  22.259  23.621  1.00  0.00    -0.462 OA
BRANCH   7   8
ATOM      8  C   UNL A   1      32.045  20.975  23.450  1.00  0.00     0.328 C 
ATOM      9  O   UNL A   1      32.062  20.395  22.367  1.00  0.00    -0.250 OA
BRANCH   8  10
ATOM     10  C   UNL A   1      32.267  20.222  24.771  1.00  0.00     0.193 C 
BRANCH  10  11
ATOM     11  C   UNL A   1      33.200  19.004  24.791  1.00  0.00     0.048 C 
BRANCH  11  12
ATOM     12  C   UNL A   1      32.651  17.840  25.645  1.00  0.00     0.072 C 
BRANCH  12  13
ATOM     13  S   UNL A   1      33.105  16.152  25.068  1.00  0.00    -0.165 SA
ATOM     14  C   UNL A   1      34.919  16.238  25.042  1.00  0.00     0.085 C 
ENDBRANCH  12  13
ENDBRANCH  11  12
ENDBRANCH  10  11
BRANCH  10  15
ATOM     15  N   UNL A   1      32.325  21.040  26.002  1.00  0.00    -0.342 N 
ATOM     16  C   UNL A   1      33.358  21.705  26.609  1.00  0.00     0.226 C 
ATOM     17  H   UNL A   1      31.464  21.120  26.472  1.00  0.00     0.164 HD
ATOM     18  O   UNL A   1      33.181  22.147  27.741  1.00  0.00    -0.275 OA
BRANCH  16  19
ATOM     19  C   UNL A   1      34.595  22.002  25.811  1.00  0.00     0.107 C 
ATOM     20  C   UNL A   1      35.645  20.920  25.603  1.00  0.00     0.115 C 
ATOM     21  C   UNL A   1      35.397  23.108  26.488  1.00  0.00     0.133 C 
ATOM     22  C   UNL A   1      36.869  21.762  25.279  1.00  0.00     0.223 C 
ATOM     23  N   UNL A   1      36.671  23.021  25.829  1.00  0.00    -0.345 N 
ATOM     24  O   UNL A   1      37.843  21.408  24.640  1.00  0.00    -0.275 OA
ATOM     25  C   UNL A   1      37.614  24.114  25.786  1.00  0.00     0.146 C 
ENDBRANCH  16  19
ENDBRANCH  10  15
ENDBRANCH   8  10
ENDBRANCH   7   8
ENDBRANCH   6   7
ENDBRANCH   5   6
ENDBRANCH   4   5
ENDBRANCH   3   4
ENDBRANCH   2   3
ENDBRANCH   1   2
BRANCH   1  26
ATOM     26  C   UNL A   1      31.079  28.090  24.724  1.00  0.00     0.188 C 
BRANCH  26  27
ATOM     27  C   UNL A   1      32.213  28.957  24.140  1.00  0.00     0.188 C 
BRANCH  27  28
ATOM     28  O   UNL A   1      32.641  30.015  24.980  1.00  0.00    -0.376 OA
BRANCH  28  29
ATOM     29  C   UNL A   1      32.556  29.842  26.386  1.00  0.00     0.202 C 
BRANCH  29  30
ATOM     30  C   UNL A   1      32.232  31.072  27.251  1.00  0.00     0.261 C 
BRANCH  30  31
ATOM     31  O   UNL A   1      32.755  32.331  26.797  1.00  0.00    -0.460 OA
BRANCH  31  32
ATOM     32  C   UNL A   1      33.377  33.115  27.698  1.00  0.00     0.338 C 
ATOM     33  O   UNL A   1      32.911  34.096  28.264  1.00  0.00    -0.246 OA
BRANCH  32  34
ATOM     34  C   UNL A   1      34.657  32.480  28.062  1.00  0.00     0.060 A 
ATOM     35  C   UNL A   1      34.648  31.141  28.474  1.00  0.00     0.016 A 
ATOM     36  C   UNL A   1      35.848  33.209  28.040  1.00  0.00     0.016 A 
ATOM     37  C   UNL A   1      35.819  30.548  28.935  1.00  0.00     0.010 A 
ATOM     38  C   UNL A   1      37.020  32.618  28.524  1.00  0.00     0.010 A 
ATOM     39  C   UNL A   1      36.994  31.305  29.027  1.00  0.00    -0.014 A 
BRANCH  39  40
ATOM     40  C   UNL A   1      38.100  30.785  29.864  1.00  0.00     0.031 A 
ATOM     41  C   UNL A   1      39.073  29.819  29.242  1.00  0.00     0.074 A 
ATOM     42  C   UNL A   1      38.286  31.220  31.122  1.00  0.00     0.049 A 
ATOM     43  N   UNL A   1      40.154  29.287  29.748  1.00  0.00    -0.248 NA
ATOM     44  C   UNL A   1      38.792  29.400  27.857  1.00  0.00     0.031 C 
ATOM     45  C   UNL A   1      37.424  32.167  31.826  1.00  0.00     0.029 A 
ATOM     46  N   UNL A   1      39.266  30.912  32.032  1.00  0.00    -0.354 N 
ATOM     47  C   UNL A   1      40.667  28.455  28.759  1.00  0.00     0.074 A 
ATOM     48  C   UNL A   1      39.770  28.537  27.628  1.00  0.00     0.031 C 
ATOM     49  C   UNL A   1      37.907  32.354  33.067  1.00  0.00     0.029 A 
ATOM     50  C   UNL A   1      39.097  31.525  33.250  1.00  0.00     0.049 A 
ATOM     51  H   UNL A   1      40.018  30.309  31.831  1.00  0.00     0.167 HD
ATOM     52  C   UNL A   1      41.793  27.703  28.781  1.00  0.00     0.034 A 
ATOM     53  C   UNL A   1      39.815  31.416  34.385  1.00  0.00     0.034 A 
ATOM     54  C   UNL A   1      42.688  27.631  29.903  1.00  0.00     0.049 A 
ATOM     55  C   UNL A   1      41.050  30.553  34.393  1.00  0.00     0.074 A 
ATOM     56  C   UNL A   1      43.871  26.924  30.016  1.00  0.00     0.029 A 
ATOM     57  N   UNL A   1      42.492  28.278  31.114  1.00  0.00    -0.354 N 
ATOM     58  N   UNL A   1      41.575  29.849  33.419  1.00  0.00    -0.248 NA
ATOM     59  C   UNL A   1      41.816  30.504  35.646  1.00  0.00     0.031 C 
ATOM     60  C   UNL A   1      44.369  27.110  31.310  1.00  0.00     0.029 A 
ATOM     61  C   UNL A   1      43.525  27.977  31.985  1.00  0.00     0.049 A 
ATOM     62  H   UNL A   1      41.731  28.866  31.324  1.00  0.00     0.167 HD
ATOM     63  C   UNL A   1      42.753  29.311  33.926  1.00  0.00     0.074 A 
ATOM     64  C   UNL A   1      42.872  29.788  35.289  1.00  0.00     0.031 C 
ATOM     65  C   UNL A   1      43.653  28.493  33.324  1.00  0.00     0.034 A 
BRANCH  52  66
ATOM     66  C   UNL A   1      42.118  26.898  27.549  1.00  0.00     0.023 A 
ATOM     67  C   UNL A   1      42.693  27.528  26.425  1.00  0.00     0.012 A 
ATOM     68  C   UNL A   1      41.890  25.509  27.520  1.00  0.00     0.148 A 
ATOM     69  C   UNL A   1      43.001  26.792  25.280  1.00  0.00     0.002 A 
ATOM     70  C   UNL A   1      42.246  24.775  26.396  1.00  0.00     0.091 A 
ATOM     71  F   UNL A   1      41.320  24.933  28.588  1.00  0.00    -0.205 F 
ATOM     72  C   UNL A   1      42.789  25.417  25.270  1.00  0.00     0.022 A 
BRANCH  70  73
ATOM     73  S   UNL A   1      42.088  22.988  26.316  1.00  0.00     0.127 S 
ATOM     74  O   UNL A   1      42.591  22.708  24.971  1.00  0.00    -0.237 OA
ATOM     75  O   UNL A   1      42.971  22.554  27.399  1.00  0.00    -0.237 OA
ATOM     76  O   UNL A   1      40.678  22.697  26.527  1.00  0.00    -0.744 OA
ENDBRANCH  70  73
ENDBRANCH  52  66
BRANCH  53  77
ATOM     77  C   UNL A   1      39.402  32.168  35.603  1.00  0.00     0.023 A 
ATOM     78  C   UNL A   1      38.437  31.625  36.473  1.00  0.00     0.012 A 
ATOM     79  C   UNL A   1      39.968  33.422  35.904  1.00  0.00     0.148 A 
ATOM     80  C   UNL A   1      38.019  32.332  37.601  1.00  0.00     0.002 A 
ATOM     81  C   UNL A   1      39.590  34.095  37.058  1.00  0.00     0.091 A 
ATOM     82  F   UNL A   1      40.873  33.928  35.054  1.00  0.00    -0.205 F 
ATOM     83  C   UNL A   1      38.602  33.562  37.899  1.00  0.00     0.022 A 
BRANCH  81  84
ATOM     84  S   UNL A   1      40.372  35.626  37.579  1.00  0.00     0.127 S 
ATOM     85  O   UNL A   1      39.813  36.585  36.631  1.00  0.00    -0.237 OA
ATOM     86  O   UNL A   1      39.885  35.760  38.952  1.00  0.00    -0.237 OA
ATOM     87  O   UNL A   1      41.806  35.395  37.470  1.00  0.00    -0.744 OA
ENDBRANCH  81  84
ENDBRANCH  53  77
BRANCH  65  88
ATOM     88  C   UNL A   1      44.879  28.105  34.113  1.00  0.00     0.023 A 
ATOM     89  C   UNL A   1      46.010  28.945  34.134  1.00  0.00     0.012 A 
ATOM     90  C   UNL A   1      44.890  26.915  34.870  1.00  0.00     0.148 A 
ATOM     91  C   UNL A   1      47.151  28.581  34.848  1.00  0.00     0.002 A 
ATOM     92  C   UNL A   1      46.009  26.588  35.625  1.00  0.00     0.091 A 
ATOM     93  F   UNL A   1      43.812  26.118  34.828  1.00  0.00    -0.205 F 
ATOM     94  C   UNL A   1      47.148  27.408  35.601  1.00  0.00     0.022 A 
BRANCH  92  95
ATOM     95  S   UNL A   1      46.052  25.151  36.704  1.00  0.00     0.127 S 
ATOM     96  O   UNL A   1      46.185  24.059  35.741  1.00  0.00    -0.237 OA
ATOM     97  O   UNL A   1      47.248  25.404  37.509  1.00  0.00    -0.237 OA
ATOM     98  O   UNL A   1      44.804  25.177  37.455  1.00  0.00    -0.744 OA
ENDBRANCH  92  95
ENDBRANCH  65  88
ENDBRANCH  39  40
ENDBRANCH  32  34
ENDBRANCH  31  32
ENDBRANCH  30  31
ENDBRANCH  29  30
ENDBRANCH  28  29
ENDBRANCH  27  28
ENDBRANCH  26  27
ENDBRANCH   1  26
TORSDOF 28
ENDMDL
MODEL 2
REMARK VINA RESULT:      -8.5      2.526      8.101
REMARK SMILES CSCC[C@@H](NC(=O)[C@@H]1CC(=O)N(C)C1)C(=O)OCCOCCOCCOCCOC(=O)c1ccc(-c2c3nc(c(-c4cccc(S(=O)(=O)[O-])c4F)c4ccc([nH]4)c(-c4cccc(S(=O)(=O)[O-])c4F)c4nc(c(-c5cccc(S(=O)(=O)[O-])c5F)c5ccc2[nH]5)C=C4)C=C3)cc1
REMARK SMILES IDX 24 1 23 2 22 3 21 4 20 5 19 6 18 7 16 8 17 9 5 10 4 11 3 12
REMARK SMILES IDX 2 13 1 14 6 15 7 16 8 18 9 19 10 20 15 21 11 22 13 23 12 24
REMARK SMILES IDX 14 25 25 26 26 27 27 28 28 29 29 30 30 31 31 32 32 33 33 34
REMARK SMILES IDX 34 35 95 36 35 37 94 38 36 39 37 40 38 41 88 42 39 43 93 44
REMARK SMILES IDX 87 45 89 46 40 47 92 48 86 49 85 50 41 52 73 53 53 54 72 55
REMARK SMILES IDX 54 56 57 57 71 58 90 59 55 60 56 61 70 63 91 64 58 65 42 66
REMARK SMILES IDX 43 67 51 68 44 69 46 70 52 71 45 72 47 73 48 74 49 75 50 76
REMARK SMILES IDX 74 77 75 78 83 79 76 80 78 81 84 82 77 83 79 84 80 85 81 86
REMARK SMILES IDX 82 87 59 88 60 89 68 90 61 91 63 92 69 93 62 94 64 95 65 96
REMARK SMILES IDX 66 97 67 98
REMARK H PARENT 6 17 89 51 57 62
REMARK Flexibility Score: inf
ROOT
ATOM      1  O   UNL A   1      31.837  29.494  26.577  1.00  0.00    -0.377 OA
ENDROOT
BRANCH   1   2
ATOM      2  C   UNL A   1      31.952  28.925  25.286  1.00  0.00     0.188 C 
BRANCH   2   3
ATOM      3  C   UNL A   1      31.825  27.393  25.167  1.00  0.00     0.188 C 
BRANCH   3   4
ATOM      4  O   UNL A   1      31.531  26.601  26.301  1.00  0.00    -0.376 OA
BRANCH   4   5
ATOM      5  C   UNL A   1      31.649  25.190  26.250  1.00  0.00     0.202 C 
BRANCH   5   6
ATOM      6  C   UNL A   1      30.733  24.336  25.386  1.00  0.00     0.261 C 
BRANCH   6   7
ATOM      7  O   UNL A   1      31.334  23.417  24.456  1.00  0.00    -0.462 OA
BRANCH   7   8
ATOM      8  C   UNL A   1      32.406  23.876  23.760  1.00  0.00     0.328 C 
ATOM      9  O   UNL A   1      32.333  24.663  22.819  1.00  0.00    -0.250 OA
BRANCH   8  10
ATOM     10  C   UNL A   1      33.714  23.142  24.096  1.00  0.00     0.193 C 
BRANCH  10  11
ATOM     11  C   UNL A   1      35.055  23.826  23.798  1.00  0.00     0.048 C 
BRANCH  11  12
ATOM     12  C   UNL A   1      36.143  22.836  23.327  1.00  0.00     0.072 C 
BRANCH  12  13
ATOM     13  S   UNL A   1      37.236  22.172  24.651  1.00  0.00    -0.165 SA
ATOM     14  C   UNL A   1      37.175  23.499  25.890  1.00  0.00     0.085 C 
ENDBRANCH  12  13
ENDBRANCH  11  12
ENDBRANCH  10  11
BRANCH  10  15
ATOM     15  N   UNL A   1      33.721  22.326  25.330  1.00  0.00    -0.342 N 
ATOM     16  C   UNL A   1      33.479  20.995  25.546  1.00  0.00     0.226 C 
ATOM     17  H   UNL A   1      33.939  22.832  26.145  1.00  0.00     0.164 HD
ATOM     18  O   UNL A   1      33.352  20.606  26.704  1.00  0.00    -0.275 OA
BRANCH  16  19
ATOM     19  C   UNL A   1      33.537  20.050  24.380  1.00  0.00     0.107 C 
ATOM     20  C   UNL A   1      32.302  19.826  23.519  1.00  0.00     0.115 C 
ATOM     21  C   UNL A   1      33.854  18.640  24.869  1.00  0.00     0.133 C 
ATOM     22  C   UNL A   1      32.627  18.480  22.891  1.00  0.00     0.223 C 
ATOM     23  N   UNL A   1      33.526  17.832  23.728  1.00  0.00    -0.345 N 
ATOM     24  O   UNL A   1      32.194  18.048  21.838  1.00  0.00    -0.275 OA
ATOM     25  C   UNL A   1      34.060  16.505  23.520  1.00  0.00     0.146 C 
ENDBRANCH  16  19
ENDBRANCH  10  15
ENDBRANCH   8  10
ENDBRANCH   7   8
ENDBRANCH   6   7
ENDBRANCH   5   6
ENDBRANCH   4   5
ENDBRANCH   3   4
ENDBRANCH   2   3
ENDBRANCH   1   2
BRANCH   1  26
ATOM     26  C   UNL A   1      31.839  30.907  26.747  1.00  0.00     0.188 C 
BRANCH  26  27
ATOM     27  C   UNL A   1      33.079  31.629  27.311  1.00  0.00     0.188 C 
BRANCH  27  28
ATOM     28  O   UNL A   1      32.896  33.013  27.557  1.00  0.00    -0.376 OA
BRANCH  28  29
ATOM     29  C   UNL A   1      33.956  33.742  28.155  1.00  0.00     0.202 C 
BRANCH  29  30
ATOM     30  C   UNL A   1      34.199  33.567  29.664  1.00  0.00     0.261 C 
BRANCH  30  31
ATOM     31  O   UNL A   1      34.326  34.772  30.437  1.00  0.00    -0.460 OA
BRANCH  31  32
ATOM     32  C   UNL A   1      34.129  34.689  31.766  1.00  0.00     0.338 C 
ATOM     33  O   UNL A   1      33.083  34.896  32.368  1.00  0.00    -0.246 OA
BRANCH  32  34
ATOM     34  C   UNL A   1      35.334  34.101  32.379  1.00  0.00     0.060 A 
ATOM     35  C   UNL A   1      36.575  34.699  32.127  1.00  0.00     0.016 A 
ATOM     36  C   UNL A   1      35.248  32.944  33.158  1.00  0.00     0.016 A 
ATOM     37  C   UNL A   1      37.742  34.102  32.593  1.00  0.00     0.010 A 
ATOM     38  C   UNL A   1      36.424  32.334  33.607  1.00  0.00     0.010 A 
ATOM     39  C   UNL A   1      37.675  32.881  33.275  1.00  0.00    -0.014 A 
BRANCH  39  40
ATOM     40  C   UNL A   1      38.919  32.087  33.415  1.00  0.00     0.031 A 
ATOM     41  C   UNL A   1      39.759  32.287  34.648  1.00  0.00     0.074 A 
ATOM     42  C   UNL A   1      39.253  31.151  32.509  1.00  0.00     0.049 A 
ATOM     43  N   UNL A   1      40.843  31.662  35.025  1.00  0.00    -0.248 NA
ATOM     44  C   UNL A   1      39.313  33.332  35.587  1.00  0.00     0.031 C 
ATOM     45  C   UNL A   1      38.510  30.852  31.287  1.00  0.00     0.029 A 
ATOM     46  N   UNL A   1      40.315  30.283  32.483  1.00  0.00    -0.354 N 
ATOM     47  C   UNL A   1      41.222  32.249  36.227  1.00  0.00     0.074 A 
ATOM     48  C   UNL A   1      40.264  33.295  36.508  1.00  0.00     0.031 C 
ATOM     49  C   UNL A   1      39.148  29.874  30.620  1.00  0.00     0.029 A 
ATOM     50  C   UNL A   1      40.352  29.495  31.356  1.00  0.00     0.049 A 
ATOM     51  H   UNL A   1      40.986  30.228  33.201  1.00  0.00     0.167 HD
ATOM     52  C   UNL A   1      42.263  31.937  37.034  1.00  0.00     0.034 A 
ATOM     53  C   UNL A   1      41.263  28.584  30.963  1.00  0.00     0.034 A 
ATOM     54  C   UNL A   1      43.208  30.891  36.756  1.00  0.00     0.049 A 
ATOM     55  C   UNL A   1      42.427  28.271  31.867  1.00  0.00     0.074 A 
ATOM     56  C   UNL A   1      44.280  30.474  37.524  1.00  0.00     0.029 A 
ATOM     57  N   UNL A   1      43.205  30.104  35.614  1.00  0.00    -0.354 N 
ATOM     58  N   UNL A   1      42.718  28.768  33.045  1.00  0.00    -0.248 NA
ATOM     59  C   UNL A   1      43.367  27.240  31.404  1.00  0.00     0.031 C 
ATOM     60  C   UNL A   1      44.950  29.463  36.826  1.00  0.00     0.029 A 
ATOM     61  C   UNL A   1      44.263  29.213  35.649  1.00  0.00     0.049 A 
ATOM     62  H   UNL A   1      42.546  30.170  34.885  1.00  0.00     0.167 HD
ATOM     63  C   UNL A   1      43.845  28.081  33.484  1.00  0.00     0.074 A 
ATOM     64  C   UNL A   1      44.171  27.118  32.450  1.00  0.00     0.031 C 
ATOM     65  C   UNL A   1      44.550  28.232  34.633  1.00  0.00     0.034 A 
BRANCH  52  66
ATOM     66  C   UNL A   1      42.431  32.742  38.297  1.00  0.00     0.023 A 
ATOM     67  C   UNL A   1      41.820  32.313  39.494  1.00  0.00     0.012 A 
ATOM     68  C   UNL A   1      43.230  33.901  38.308  1.00  0.00     0.148 A 
ATOM     69  C   UNL A   1      41.971  33.047  40.671  1.00  0.00     0.002 A 
ATOM     70  C   UNL A   1      43.416  34.599  39.494  1.00  0.00     0.091 A 
ATOM     71  F   UNL A   1      43.782  34.307  37.155  1.00  0.00    -0.205 F 
ATOM     72  C   UNL A   1      42.777  34.181  40.673  1.00  0.00     0.022 A 
BRANCH  70  73
ATOM     73  S   UNL A   1      44.501  36.025  39.619  1.00  0.00     0.127 S 
ATOM     74  O   UNL A   1      45.818  35.406  39.478  1.00  0.00    -0.237 OA
ATOM     75  O   UNL A   1      44.080  36.830  38.471  1.00  0.00    -0.237 OA
ATOM     76  O   UNL A   1      44.230  36.626  40.916  1.00  0.00    -0.744 OA
ENDBRANCH  70  73
ENDBRANCH  52  66
BRANCH  53  77
ATOM     77  C   UNL A   1      41.095  27.876  29.662  1.00  0.00     0.023 A 
ATOM     78  C   UNL A   1      40.100  26.890  29.520  1.00  0.00     0.012 A 
ATOM     79  C   UNL A   1      41.921  28.182  28.563  1.00  0.00     0.148 A 
ATOM     80  C   UNL A   1      39.953  26.198  28.317  1.00  0.00     0.002 A 
ATOM     81  C   UNL A   1      41.731  27.531  27.351  1.00  0.00     0.091 A 
ATOM     82  F   UNL A   1      42.873  29.112  28.726  1.00  0.00    -0.205 F 
ATOM     83  C   UNL A   1      40.761  26.525  27.230  1.00  0.00     0.022 A 
BRANCH  81  84
ATOM     84  S   UNL A   1      42.648  27.969  25.870  1.00  0.00     0.127 S 
ATOM     85  O   UNL A   1      41.973  27.168  24.852  1.00  0.00    -0.237 OA
ATOM     86  O   UNL A   1      42.407  29.409  25.782  1.00  0.00    -0.237 OA
ATOM     87  O   UNL A   1      44.032  27.606  26.140  1.00  0.00    -0.744 OA
ENDBRANCH  81  84
ENDBRANCH  53  77
BRANCH  65  88
ATOM     88  C   UNL A   1      45.713  27.300  34.865  1.00  0.00     0.023 A 
ATOM     89  C   UNL A   1      47.007  27.651  34.432  1.00  0.00     0.012 A 
ATOM     90  C   UNL A   1      45.524  26.084  35.555  1.00  0.00     0.148 A 
ATOM     91  C   UNL A   1      48.082  26.784  34.629  1.00  0.00     0.002 A 
ATOM     92  C   UNL A   1      46.610  25.253  35.799  1.00  0.00     0.091 A 
ATOM     93  F   UNL A   1      44.285  25.757  35.948  1.00  0.00    -0.205 F 
ATOM     94  C   UNL A   1      47.885  25.590  35.320  1.00  0.00     0.022 A 
BRANCH  92  95
ATOM     95  S   UNL A   1      46.466  23.748  36.771  1.00  0.00     0.127 S 
ATOM     96  O   UNL A   1      47.861  23.483  37.119  1.00  0.00    -0.237 OA
ATOM     97  O   UNL A   1      45.631  24.183  37.892  1.00  0.00    -0.237 OA
ATOM     98  O   UNL A   1      45.838  22.766  35.898  1.00  0.00    -0.744 OA
ENDBRANCH  92  95
ENDBRANCH  65  88
ENDBRANCH  39  40
ENDBRANCH  32  34
ENDBRANCH  31  32
ENDBRANCH  30  31
ENDBRANCH  29  30
ENDBRANCH  28  29
ENDBRANCH  27  28
ENDBRANCH  26  27
ENDBRANCH   1  26
TORSDOF 28
ENDMDL
MODEL 3
REMARK VINA RESULT:      -7.9      3.144      8.649
REMARK SMILES CSCC[C@@H](NC(=O)[C@@H]1CC(=O)N(C)C1)C(=O)OCCOCCOCCOCCOC(=O)c1ccc(-c2c3nc(c(-c4cccc(S(=O)(=O)[O-])c4F)c4ccc([nH]4)c(-c4cccc(S(=O)(=O)[O-])c4F)c4nc(c(-c5cccc(S(=O)(=O)[O-])c5F)c5ccc2[nH]5)C=C4)C=C3)cc1
REMARK SMILES IDX 24 1 23 2 22 3 21 4 20 5 19 6 18 7 16 8 17 9 5 10 4 11 3 12
REMARK SMILES IDX 2 13 1 14 6 15 7 16 8 18 9 19 10 20 15 21 11 22 13 23 12 24
REMARK SMILES IDX 14 25 25 26 26 27 27 28 28 29 29 30 30 31 31 32 32 33 33 34
REMARK SMILES IDX 34 35 95 36 35 37 94 38 36 39 37 40 38 41 88 42 39 43 93 44
REMARK SMILES IDX 87 45 89 46 40 47 92 48 86 49 85 50 41 52 73 53 53 54 72 55
REMARK SMILES IDX 54 56 57 57 71 58 90 59 55 60 56 61 70 63 91 64 58 65 42 66
REMARK SMILES IDX 43 67 51 68 44 69 46 70 52 71 45 72 47 73 48 74 49 75 50 76
REMARK SMILES IDX 74 77 75 78 83 79 76 80 78 81 84 82 77 83 79 84 80 85 81 86
REMARK SMILES IDX 82 87 59 88 60 89 68 90 61 91 63 92 69 93 62 94 64 95 65 96
REMARK SMILES IDX 66 97 67 98
REMARK H PARENT 6 17 89 51 57 62
REMARK Flexibility Score: inf
ROOT
ATOM      1  O   UNL A   1      31.806  29.337  26.589  1.00  0.00    -0.377 OA
ENDROOT
BRANCH   1   2
ATOM      2  C   UNL A   1      31.870  28.782  25.289  1.00  0.00     0.188 C 
BRANCH   2   3
ATOM      3  C   UNL A   1      31.706  27.255  25.155  1.00  0.00     0.188 C 
BRANCH   3   4
ATOM      4  O   UNL A   1      31.435  26.454  26.290  1.00  0.00    -0.376 OA
BRANCH   4   5
ATOM      5  C   UNL A   1      31.577  25.046  26.233  1.00  0.00     0.202 C 
BRANCH   5   6
ATOM      6  C   UNL A   1      30.646  24.174  25.404  1.00  0.00     0.261 C 
BRANCH   6   7
ATOM      7  O   UNL A   1      31.231  23.242  24.477  1.00  0.00    -0.462 OA
BRANCH   7   8
ATOM      8  C   UNL A   1      32.267  23.702  23.728  1.00  0.00     0.328 C 
ATOM      9  O   UNL A   1      32.141  24.451  22.762  1.00  0.00    -0.250 OA
BRANCH   8  10
ATOM     10  C   UNL A   1      33.605  23.016  24.047  1.00  0.00     0.193 C 
BRANCH  10  11
ATOM     11  C   UNL A   1      34.916  23.746  23.726  1.00  0.00     0.048 C 
BRANCH  11  12
ATOM     12  C   UNL A   1      36.048  22.787  23.296  1.00  0.00     0.072 C 
BRANCH  12  13
ATOM     13  S   UNL A   1      37.228  22.309  24.625  1.00  0.00    -0.165 SA
ATOM     14  C   UNL A   1      37.078  23.702  25.781  1.00  0.00     0.085 C 
ENDBRANCH  12  13
ENDBRANCH  11  12
ENDBRANCH  10  11
BRANCH  10  15
ATOM     15  N   UNL A   1      33.659  22.206  25.283  1.00  0.00    -0.342 N 
ATOM     16  C   UNL A   1      33.463  20.869  25.508  1.00  0.00     0.226 C 
ATOM     17  H   UNL A   1      33.876  22.722  26.092  1.00  0.00     0.164 HD
ATOM     18  O   UNL A   1      33.369  20.481  26.670  1.00  0.00    -0.275 OA
BRANCH  16  19
ATOM     19  C   UNL A   1      33.528  19.922  24.345  1.00  0.00     0.107 C 
ATOM     20  C   UNL A   1      32.286  19.657  23.506  1.00  0.00     0.115 C 
ATOM     21  C   UNL A   1      33.895  18.524  24.833  1.00  0.00     0.133 C 
ATOM     22  C   UNL A   1      32.640  18.319  22.878  1.00  0.00     0.223 C 
ATOM     23  N   UNL A   1      33.572  17.702  23.701  1.00  0.00    -0.345 N 
ATOM     24  O   UNL A   1      32.201  17.871  21.834  1.00  0.00    -0.275 OA
ATOM     25  C   UNL A   1      34.142  16.391  23.488  1.00  0.00     0.146 C 
ENDBRANCH  16  19
ENDBRANCH  10  15
ENDBRANCH   8  10
ENDBRANCH   7   8
ENDBRANCH   6   7
ENDBRANCH   5   6
ENDBRANCH   4   5
ENDBRANCH   3   4
ENDBRANCH   2   3
ENDBRANCH   1   2
BRANCH   1  26
ATOM     26  C   UNL A   1      31.965  30.737  26.786  1.00  0.00     0.188 C 
BRANCH  26  27
ATOM     27  C   UNL A   1      33.270  31.306  27.378  1.00  0.00     0.188 C 
BRANCH  27  28
ATOM     28  O   UNL A   1      33.253  32.703  27.615  1.00  0.00    -0.376 OA
BRANCH  28  29
ATOM     29  C   UNL A   1      34.357  33.292  28.284  1.00  0.00     0.202 C 
BRANCH  29  30
ATOM     30  C   UNL A   1      34.424  33.180  29.816  1.00  0.00     0.261 C 
BRANCH  30  31
ATOM     31  O   UNL A   1      34.680  34.397  30.537  1.00  0.00    -0.460 OA
BRANCH  31  32
ATOM     32  C   UNL A   1      34.306  34.453  31.829  1.00  0.00     0.338 C 
ATOM     33  O   UNL A   1      33.167  34.590  32.259  1.00  0.00    -0.246 OA
BRANCH  32  34
ATOM     34  C   UNL A   1      35.470  34.111  32.666  1.00  0.00     0.060 A 
ATOM     35  C   UNL A   1      36.635  34.880  32.541  1.00  0.00     0.016 A 
ATOM     36  C   UNL A   1      35.432  33.016  33.533  1.00  0.00     0.016 A 
ATOM     37  C   UNL A   1      37.787  34.512  33.228  1.00  0.00     0.010 A 
ATOM     38  C   UNL A   1      36.597  32.636  34.206  1.00  0.00     0.010 A 
ATOM     39  C   UNL A   1      37.792  33.350  34.009  1.00  0.00    -0.014 A 
BRANCH  39  40
ATOM     40  C   UNL A   1      39.100  32.776  34.406  1.00  0.00     0.031 A 
ATOM     41  C   UNL A   1      39.605  33.046  35.798  1.00  0.00     0.074 A 
ATOM     42  C   UNL A   1      39.786  31.969  33.579  1.00  0.00     0.049 A 
ATOM     43  N   UNL A   1      40.677  32.597  36.394  1.00  0.00    -0.248 NA
ATOM     44  C   UNL A   1      38.785  33.940  36.635  1.00  0.00     0.031 C 
ATOM     45  C   UNL A   1      39.390  31.618  32.217  1.00  0.00     0.029 A 
ATOM     46  N   UNL A   1      40.968  31.301  33.771  1.00  0.00    -0.354 N 
ATOM     47  C   UNL A   1      40.676  33.169  37.661  1.00  0.00     0.074 A 
ATOM     48  C   UNL A   1      39.506  34.015  37.743  1.00  0.00     0.031 C 
ATOM     49  C   UNL A   1      40.323  30.807  31.689  1.00  0.00     0.029 A 
ATOM     50  C   UNL A   1      41.390  30.600  32.666  1.00  0.00     0.049 A 
ATOM     51  H   UNL A   1      41.469  31.321  34.619  1.00  0.00     0.167 HD
ATOM     52  C   UNL A   1      41.558  32.996  38.673  1.00  0.00     0.034 A 
ATOM     53  C   UNL A   1      42.514  29.885  32.467  1.00  0.00     0.034 A 
ATOM     54  C   UNL A   1      42.716  32.147  38.592  1.00  0.00     0.049 A 
ATOM     55  C   UNL A   1      43.495  29.727  33.601  1.00  0.00     0.074 A 
ATOM     56  C   UNL A   1      43.656  31.878  39.570  1.00  0.00     0.029 A 
ATOM     57  N   UNL A   1      43.101  31.441  37.462  1.00  0.00    -0.354 N 
ATOM     58  N   UNL A   1      43.430  30.195  34.824  1.00  0.00    -0.248 NA
ATOM     59  C   UNL A   1      44.683  28.904  33.338  1.00  0.00     0.031 C 
ATOM     60  C   UNL A   1      44.633  31.042  39.018  1.00  0.00     0.029 A 
ATOM     61  C   UNL A   1      44.272  30.747  37.714  1.00  0.00     0.049 A 
ATOM     62  H   UNL A   1      42.614  31.435  36.607  1.00  0.00     0.167 HD
ATOM     63  C   UNL A   1      44.542  29.690  35.488  1.00  0.00     0.074 A 
ATOM     64  C   UNL A   1      45.252  28.861  34.534  1.00  0.00     0.031 C 
ATOM     65  C   UNL A   1      44.945  29.893  36.768  1.00  0.00     0.034 A 
BRANCH  52  66
ATOM     66  C   UNL A   1      41.302  33.741  39.958  1.00  0.00     0.023 A 
ATOM     67  C   UNL A   1      40.562  33.131  40.993  1.00  0.00     0.012 A 
ATOM     68  C   UNL A   1      41.830  35.031  40.156  1.00  0.00     0.148 A 
ATOM     69  C   UNL A   1      40.320  33.809  42.188  1.00  0.00     0.002 A 
ATOM     70  C   UNL A   1      41.628  35.680  41.367  1.00  0.00     0.091 A 
ATOM     71  F   UNL A   1      42.509  35.604  39.152  1.00  0.00    -0.205 F 
ATOM     72  C   UNL A   1      40.863  35.076  42.379  1.00  0.00     0.022 A 
BRANCH  70  73
ATOM     73  S   UNL A   1      42.353  37.280  41.742  1.00  0.00     0.127 S 
ATOM     74  O   UNL A   1      43.782  36.970  41.709  1.00  0.00    -0.237 OA
ATOM     75  O   UNL A   1      41.881  38.098  40.624  1.00  0.00    -0.237 OA
ATOM     76  O   UNL A   1      41.829  37.666  43.043  1.00  0.00    -0.744 OA
ENDBRANCH  70  73
ENDBRANCH  52  66
BRANCH  53  77
ATOM     77  C   UNL A   1      42.762  29.237  31.148  1.00  0.00     0.023 A 
ATOM     78  C   UNL A   1      42.293  27.931  30.905  1.00  0.00     0.012 A 
ATOM     79  C   UNL A   1      43.461  29.916  30.131  1.00  0.00     0.148 A 
ATOM     80  C   UNL A   1      42.546  27.302  29.686  1.00  0.00     0.002 A 
ATOM     81  C   UNL A   1      43.658  29.306  28.899  1.00  0.00     0.091 A 
ATOM     82  F   UNL A   1      43.912  31.152  30.389  1.00  0.00    -0.205 F 
ATOM     83  C   UNL A   1      43.218  27.992  28.680  1.00  0.00     0.022 A 
BRANCH  81  84
ATOM     84  S   UNL A   1      44.411  30.162  27.511  1.00  0.00     0.127 S 
ATOM     85  O   UNL A   1      45.823  29.830  27.685  1.00  0.00    -0.237 OA
ATOM     86  O   UNL A   1      43.762  29.515  26.371  1.00  0.00    -0.237 OA
ATOM     87  O   UNL A   1      44.069  31.567  27.681  1.00  0.00    -0.744 OA
ENDBRANCH  81  84
ENDBRANCH  53  77
BRANCH  65  88
ATOM     88  C   UNL A   1      46.181  29.164  37.234  1.00  0.00     0.023 A 
ATOM     89  C   UNL A   1      47.453  29.754  37.092  1.00  0.00     0.012 A 
ATOM     90  C   UNL A   1      46.072  27.902  37.853  1.00  0.00     0.148 A 
ATOM     91  C   UNL A   1      48.599  29.076  37.506  1.00  0.00     0.002 A 
ATOM     92  C   UNL A   1      47.213  27.259  38.316  1.00  0.00     0.091 A 
ATOM     93  F   UNL A   1      44.856  27.347  37.967  1.00  0.00    -0.205 F 
ATOM     94  C   UNL A   1      48.479  27.834  38.126  1.00  0.00     0.022 A 
BRANCH  92  95
ATOM     95  S   UNL A   1      47.140  25.706  39.218  1.00  0.00     0.127 S 
ATOM     96  O   UNL A   1      48.476  25.641  39.807  1.00  0.00    -0.237 OA
ATOM     97  O   UNL A   1      46.062  25.956  40.177  1.00  0.00    -0.237 OA
ATOM     98  O   UNL A   1      46.839  24.682  38.227  1.00  0.00    -0.744 OA
ENDBRANCH  92  95
ENDBRANCH  65  88
ENDBRANCH  39  40
ENDBRANCH  32  34
ENDBRANCH  31  32
ENDBRANCH  30  31
ENDBRANCH  29  30
ENDBRANCH  28  29
ENDBRANCH  27  28
ENDBRANCH  26  27
ENDBRANCH   1  26
TORSDOF 28
ENDMDL
