MODEL 1
REMARK VINA RESULT:     -10.0      0.000      0.000
REMARK SMILES Cc1cc2cc(-c3ccc([C@@H](C)C(=O)OCCOCCOCCOCCOC(=O)c4ccc(-c5c6nc(c(-c7cccc(S(=O)(=O)[O-])c7F)c7ccc([nH]7)c(-c7cccc(S(=O)(=O)[O-])c7F)c7nc(c(-c8cccc(S(=O)(=O)[O-])c8F)c8ccc5[nH]8)C=C7)C=C6)cc4)cc3)ccc2[nH]1
REMARK SMILES IDX 22 1 21 2 20 3 19 4 18 5 17 6 16 7 15 8 13 9 14 10 11 11
REMARK SMILES IDX 12 12 10 13 7 14 8 15 94 16 9 17 93 18 6 19 1 20 2 21 3 22
REMARK SMILES IDX 98 23 4 24 97 25 5 27 96 28 95 29 23 30 24 31 25 32 26 33
REMARK SMILES IDX 27 34 28 35 29 36 30 37 31 38 92 39 32 40 91 41 33 42 34 43
REMARK SMILES IDX 35 44 85 45 36 46 90 47 84 48 86 49 37 50 89 51 83 52 82 53
REMARK SMILES IDX 38 55 70 56 50 57 69 58 51 59 54 60 68 61 87 62 52 63 53 64
REMARK SMILES IDX 67 66 88 67 55 68 39 69 40 70 48 71 41 72 43 73 49 74 42 75
REMARK SMILES IDX 44 76 45 77 46 78 47 79 71 80 72 81 80 82 73 83 75 84 81 85
REMARK SMILES IDX 74 86 76 87 77 88 78 89 79 90 56 91 57 92 65 93 58 94 60 95
REMARK SMILES IDX 66 96 59 97 61 98 62 99 63 100 64 101
REMARK H PARENT 98 26 86 54 54 65
REMARK Flexibility Score: inf
ROOT
ATOM      1  C   UNL A   1      31.738  29.314  23.256  1.00  0.00     0.188 C 
ENDROOT
BRANCH   1   2
ATOM      2  O   UNL A   1      30.843  29.100  22.179  1.00  0.00    -0.377 OA
BRANCH   2   3
ATOM      3  C   UNL A   1      29.998  30.172  21.829  1.00  0.00     0.188 C 
BRANCH   3   4
ATOM      4  C   UNL A   1      28.501  29.917  22.048  1.00  0.00     0.188 C 
BRANCH   4   5
ATOM      5  O   UNL A   1      27.988  28.596  22.167  1.00  0.00    -0.376 OA
BRANCH   5   6
ATOM      6  C   UNL A   1      27.725  28.034  23.446  1.00  0.00     0.202 C 
BRANCH   6   7
ATOM      7  C   UNL A   1      28.387  26.717  23.894  1.00  0.00     0.261 C 
BRANCH   7   8
ATOM      8  O   UNL A   1      29.801  26.576  23.646  1.00  0.00    -0.463 OA
BRANCH   8   9
ATOM      9  C   UNL A   1      30.510  25.880  24.563  1.00  0.00     0.313 C 
ATOM     10  O   UNL A   1      30.121  25.689  25.716  1.00  0.00    -0.252 OA
BRANCH   9  11
ATOM     11  C   UNL A   1      31.862  25.338  24.100  1.00  0.00     0.126 C 
ATOM     12  C   UNL A   1      32.088  25.776  22.657  1.00  0.00     0.025 C 
BRANCH  11  13
ATOM     13  C   UNL A   1      32.242  23.871  24.298  1.00  0.00    -0.034 A 
ATOM     14  C   UNL A   1      33.070  21.152  24.675  1.00  0.00    -0.018 A 
ATOM     15  C   UNL A   1      31.752  21.481  24.309  1.00  0.00     0.009 A 
ATOM     16  C   UNL A   1      33.966  22.210  24.868  1.00  0.00     0.009 A 
ATOM     17  C   UNL A   1      31.344  22.814  24.118  1.00  0.00     0.005 A 
ATOM     18  C   UNL A   1      33.564  23.541  24.670  1.00  0.00     0.005 A 
BRANCH  14  19
ATOM     19  C   UNL A   1      33.505  19.743  24.758  1.00  0.00    -0.018 A 
ATOM     20  C   UNL A   1      32.912  13.714  25.725  1.00  0.00     0.064 C 
ATOM     21  C   UNL A   1      33.116  15.158  25.456  1.00  0.00     0.013 A 
ATOM     22  C   UNL A   1      32.223  16.208  25.489  1.00  0.00     0.031 A 
ATOM     23  N   UNL A   1      34.346  15.682  25.132  1.00  0.00    -0.359 N 
ATOM     24  C   UNL A   1      32.929  17.399  25.179  1.00  0.00     0.000 A 
ATOM     25  C   UNL A   1      34.256  17.047  24.947  1.00  0.00     0.046 A 
ATOM     26  H   UNL A   1      35.175  15.158  25.046  1.00  0.00     0.166 HD
ATOM     27  C   UNL A   1      32.558  18.753  25.084  1.00  0.00     0.019 A 
ATOM     28  C   UNL A   1      35.231  17.995  24.610  1.00  0.00     0.027 A 
ATOM     29  C   UNL A   1      34.829  19.342  24.517  1.00  0.00     0.011 A 
ENDBRANCH  14  19
ENDBRANCH  11  13
ENDBRANCH   9  11
ENDBRANCH   8   9
ENDBRANCH   7   8
ENDBRANCH   6   7
ENDBRANCH   5   6
ENDBRANCH   4   5
ENDBRANCH   3   4
ENDBRANCH   2   3
ENDBRANCH   1   2
BRANCH   1  30
ATOM     30  C   UNL A   1      31.111  29.678  24.614  1.00  0.00     0.188 C 
BRANCH  30  31
ATOM     31  O   UNL A   1      31.524  28.838  25.687  1.00  0.00    -0.376 OA
BRANCH  31  32
ATOM     32  C   UNL A   1      31.772  29.422  26.957  1.00  0.00     0.202 C 
BRANCH  32  33
ATOM     33  C   UNL A   1      31.960  30.948  27.054  1.00  0.00     0.261 C 
BRANCH  33  34
ATOM     34  O   UNL A   1      33.247  31.480  26.706  1.00  0.00    -0.460 OA
BRANCH  34  35
ATOM     35  C   UNL A   1      33.838  32.353  27.544  1.00  0.00     0.338 C 
ATOM     36  O   UNL A   1      33.366  33.398  27.964  1.00  0.00    -0.246 OA
BRANCH  35  37
ATOM     37  C   UNL A   1      35.082  31.727  28.044  1.00  0.00     0.060 A 
ATOM     38  C   UNL A   1      35.114  30.339  28.246  1.00  0.00     0.016 A 
ATOM     39  C   UNL A   1      36.217  32.501  28.298  1.00  0.00     0.016 A 
ATOM     40  C   UNL A   1      36.267  29.727  28.740  1.00  0.00     0.010 A 
ATOM     41  C   UNL A   1      37.361  31.891  28.819  1.00  0.00     0.010 A 
ATOM     42  C   UNL A   1      37.379  30.507  29.077  1.00  0.00    -0.014 A 
BRANCH  42  43
ATOM     43  C   UNL A   1      38.473  29.928  29.893  1.00  0.00     0.031 A 
ATOM     44  C   UNL A   1      38.648  30.435  31.301  1.00  0.00     0.074 A 
ATOM     45  C   UNL A   1      39.305  28.991  29.404  1.00  0.00     0.049 A 
ATOM     46  N   UNL A   1      39.582  30.164  32.173  1.00  0.00    -0.248 NA
ATOM     47  C   UNL A   1      37.627  31.381  31.785  1.00  0.00     0.031 C 
ATOM     48  C   UNL A   1      39.223  28.399  28.070  1.00  0.00     0.029 A 
ATOM     49  N   UNL A   1      40.408  28.400  29.969  1.00  0.00    -0.354 N 
ATOM     50  C   UNL A   1      39.283  30.929  33.294  1.00  0.00     0.074 A 
ATOM     51  C   UNL A   1      38.088  31.682  32.990  1.00  0.00     0.031 C 
ATOM     52  C   UNL A   1      40.258  27.555  27.906  1.00  0.00     0.029 A 
ATOM     53  C   UNL A   1      41.092  27.576  29.107  1.00  0.00     0.049 A 
ATOM     54  H   UNL A   1      40.682  28.551  30.903  1.00  0.00     0.167 HD
ATOM     55  C   UNL A   1      39.940  30.992  34.477  1.00  0.00     0.034 A 
ATOM     56  C   UNL A   1      42.274  26.944  29.258  1.00  0.00     0.034 A 
ATOM     57  C   UNL A   1      41.126  30.240  34.777  1.00  0.00     0.049 A 
ATOM     58  C   UNL A   1      43.020  27.078  30.564  1.00  0.00     0.074 A 
ATOM     59  C   UNL A   1      41.852  30.215  35.954  1.00  0.00     0.029 A 
ATOM     60  N   UNL A   1      41.771  29.393  33.889  1.00  0.00    -0.354 N 
ATOM     61  N   UNL A   1      42.680  27.732  31.649  1.00  0.00    -0.248 NA
ATOM     62  C   UNL A   1      44.301  26.362  30.677  1.00  0.00     0.031 C 
ATOM     63  C   UNL A   1      42.959  29.381  35.765  1.00  0.00     0.029 A 
ATOM     64  C   UNL A   1      42.894  28.850  34.487  1.00  0.00     0.049 A 
ATOM     65  H   UNL A   1      41.474  29.207  32.970  1.00  0.00     0.167 HD
ATOM     66  C   UNL A   1      43.677  27.469  32.585  1.00  0.00     0.074 A 
ATOM     67  C   UNL A   1      44.628  26.586  31.943  1.00  0.00     0.031 C 
ATOM     68  C   UNL A   1      43.799  27.923  33.857  1.00  0.00     0.034 A 
BRANCH  55  69
ATOM     69  C   UNL A   1      39.381  31.903  35.536  1.00  0.00     0.023 A 
ATOM     70  C   UNL A   1      38.423  31.415  36.449  1.00  0.00     0.012 A 
ATOM     71  C   UNL A   1      39.839  33.230  35.661  1.00  0.00     0.148 A 
ATOM     72  C   UNL A   1      37.903  32.241  37.444  1.00  0.00     0.002 A 
ATOM     73  C   UNL A   1      39.353  34.032  36.686  1.00  0.00     0.091 A 
ATOM     74  F   UNL A   1      40.734  33.682  34.773  1.00  0.00    -0.205 F 
ATOM     75  C   UNL A   1      38.375  33.544  37.569  1.00  0.00     0.022 A 
BRANCH  73  76
ATOM     76  S   UNL A   1      39.953  35.699  36.981  1.00  0.00     0.127 S 
ATOM     77  O   UNL A   1      39.619  36.361  35.720  1.00  0.00    -0.237 OA
ATOM     78  O   UNL A   1      39.140  36.118  38.123  1.00  0.00    -0.237 OA
ATOM     79  O   UNL A   1      41.377  35.572  37.259  1.00  0.00    -0.744 OA
ENDBRANCH  73  76
ENDBRANCH  55  69
BRANCH  56  80
ATOM     80  C   UNL A   1      42.835  26.115  28.152  1.00  0.00     0.023 A 
ATOM     81  C   UNL A   1      43.762  26.683  27.257  1.00  0.00     0.012 A 
ATOM     82  C   UNL A   1      42.442  24.774  27.973  1.00  0.00     0.148 A 
ATOM     83  C   UNL A   1      44.257  25.945  26.180  1.00  0.00     0.002 A 
ATOM     84  C   UNL A   1      42.983  24.027  26.931  1.00  0.00     0.091 A 
ATOM     85  F   UNL A   1      41.547  24.255  28.824  1.00  0.00    -0.205 F 
ATOM     86  C   UNL A   1      43.873  24.616  26.023  1.00  0.00     0.022 A 
BRANCH  84  87
ATOM     87  S   UNL A   1      42.641  22.277  26.720  1.00  0.00     0.127 S 
ATOM     88  O   UNL A   1      41.317  22.303  26.106  1.00  0.00    -0.237 OA
ATOM     89  O   UNL A   1      43.727  21.865  25.829  1.00  0.00    -0.237 OA
ATOM     90  O   UNL A   1      42.706  21.697  28.055  1.00  0.00    -0.744 OA
ENDBRANCH  84  87
ENDBRANCH  56  80
BRANCH  68  91
ATOM     91  C   UNL A   1      44.962  27.426  34.678  1.00  0.00     0.023 A 
ATOM     92  C   UNL A   1      46.150  28.179  34.756  1.00  0.00     0.012 A 
ATOM     93  C   UNL A   1      44.833  26.254  35.450  1.00  0.00     0.148 A 
ATOM     94  C   UNL A   1      47.204  27.756  35.565  1.00  0.00     0.002 A 
ATOM     95  C   UNL A   1      45.866  25.868  36.296  1.00  0.00     0.091 A 
ATOM     96  F   UNL A   1      43.700  25.545  35.351  1.00  0.00    -0.205 F 
ATOM     97  C   UNL A   1      47.057  26.609  36.344  1.00  0.00     0.022 A 
BRANCH  95  98
ATOM     98  S   UNL A   1      45.729  24.466  37.411  1.00  0.00     0.127 S 
ATOM     99  O   UNL A   1      45.066  25.070  38.567  1.00  0.00    -0.237 OA
ATOM    100  O   UNL A   1      44.893  23.543  36.643  1.00  0.00    -0.237 OA
ATOM    101  O   UNL A   1      47.088  24.001  37.647  1.00  0.00    -0.744 OA
ENDBRANCH  95  98
ENDBRANCH  68  91
ENDBRANCH  42  43
ENDBRANCH  35  37
ENDBRANCH  34  35
ENDBRANCH  33  34
ENDBRANCH  32  33
ENDBRANCH  31  32
ENDBRANCH  30  31
ENDBRANCH   1  30
TORSDOF 25
ENDMDL
MODEL 2
REMARK VINA RESULT:      -9.5      3.116      8.009
REMARK SMILES Cc1cc2cc(-c3ccc([C@@H](C)C(=O)OCCOCCOCCOCCOC(=O)c4ccc(-c5c6nc(c(-c7cccc(S(=O)(=O)[O-])c7F)c7ccc([nH]7)c(-c7cccc(S(=O)(=O)[O-])c7F)c7nc(c(-c8cccc(S(=O)(=O)[O-])c8F)c8ccc5[nH]8)C=C7)C=C6)cc4)cc3)ccc2[nH]1
REMARK SMILES IDX 22 1 21 2 20 3 19 4 18 5 17 6 16 7 15 8 13 9 14 10 11 11
REMARK SMILES IDX 12 12 10 13 7 14 8 15 94 16 9 17 93 18 6 19 1 20 2 21 3 22
REMARK SMILES IDX 98 23 4 24 97 25 5 27 96 28 95 29 23 30 24 31 25 32 26 33
REMARK SMILES IDX 27 34 28 35 29 36 30 37 31 38 92 39 32 40 91 41 33 42 34 43
REMARK SMILES IDX 35 44 85 45 36 46 90 47 84 48 86 49 37 50 89 51 83 52 82 53
REMARK SMILES IDX 38 55 70 56 50 57 69 58 51 59 54 60 68 61 87 62 52 63 53 64
REMARK SMILES IDX 67 66 88 67 55 68 39 69 40 70 48 71 41 72 43 73 49 74 42 75
REMARK SMILES IDX 44 76 45 77 46 78 47 79 71 80 72 81 80 82 73 83 75 84 81 85
REMARK SMILES IDX 74 86 76 87 77 88 78 89 79 90 56 91 57 92 65 93 58 94 60 95
REMARK SMILES IDX 66 96 59 97 61 98 62 99 63 100 64 101
REMARK H PARENT 98 26 86 54 54 65
REMARK Flexibility Score: inf
ROOT
ATOM      1  C   UNL A   1      31.868  28.951  23.223  1.00  0.00     0.188 C 
ENDROOT
BRANCH   1   2
ATOM      2  O   UNL A   1      31.122  27.898  22.640  1.00  0.00    -0.377 OA
BRANCH   2   3
ATOM      3  C   UNL A   1      29.717  27.995  22.717  1.00  0.00     0.188 C 
BRANCH   3   4
ATOM      4  C   UNL A   1      29.064  27.114  23.790  1.00  0.00     0.188 C 
BRANCH   4   5
ATOM      5  O   UNL A   1      29.247  25.703  23.798  1.00  0.00    -0.376 OA
BRANCH   5   6
ATOM      6  C   UNL A   1      30.360  25.123  24.464  1.00  0.00     0.202 C 
BRANCH   6   7
ATOM      7  C   UNL A   1      30.752  23.650  24.234  1.00  0.00     0.261 C 
BRANCH   7   8
ATOM      8  O   UNL A   1      31.553  23.358  23.071  1.00  0.00    -0.463 OA
BRANCH   8   9
ATOM      9  C   UNL A   1      32.795  22.874  23.298  1.00  0.00     0.313 C 
ATOM     10  O   UNL A   1      33.174  21.771  22.902  1.00  0.00    -0.252 OA
BRANCH   9  11
ATOM     11  C   UNL A   1      33.731  23.772  24.107  1.00  0.00     0.126 C 
ATOM     12  C   UNL A   1      33.953  25.063  23.328  1.00  0.00     0.025 C 
BRANCH  11  13
ATOM     13  C   UNL A   1      35.044  23.240  24.681  1.00  0.00    -0.034 A 
ATOM     14  C   UNL A   1      37.550  22.356  25.756  1.00  0.00    -0.018 A 
ATOM     15  C   UNL A   1      36.575  21.447  25.306  1.00  0.00     0.009 A 
ATOM     16  C   UNL A   1      37.243  23.719  25.677  1.00  0.00     0.009 A 
ATOM     17  C   UNL A   1      35.347  21.878  24.773  1.00  0.00     0.005 A 
ATOM     18  C   UNL A   1      36.021  24.153  25.137  1.00  0.00     0.005 A 
BRANCH  14  19
ATOM     19  C   UNL A   1      38.876  21.885  26.204  1.00  0.00    -0.018 A 
ATOM     20  C   UNL A   1      43.592  17.995  26.722  1.00  0.00     0.064 C 
ATOM     21  C   UNL A   1      42.495  18.988  26.619  1.00  0.00     0.013 A 
ATOM     22  C   UNL A   1      41.303  18.933  25.928  1.00  0.00     0.031 A 
ATOM     23  N   UNL A   1      42.525  20.193  27.283  1.00  0.00    -0.359 N 
ATOM     24  C   UNL A   1      40.591  20.134  26.181  1.00  0.00     0.000 A 
ATOM     25  C   UNL A   1      41.378  20.916  27.023  1.00  0.00     0.046 A 
ATOM     26  H   UNL A   1      43.260  20.496  27.863  1.00  0.00     0.166 HD
ATOM     27  C   UNL A   1      39.336  20.625  25.774  1.00  0.00     0.019 A 
ATOM     28  C   UNL A   1      40.968  22.178  27.468  1.00  0.00     0.027 A 
ATOM     29  C   UNL A   1      39.709  22.646  27.040  1.00  0.00     0.011 A 
ENDBRANCH  14  19
ENDBRANCH  11  13
ENDBRANCH   9  11
ENDBRANCH   8   9
ENDBRANCH   7   8
ENDBRANCH   6   7
ENDBRANCH   5   6
ENDBRANCH   4   5
ENDBRANCH   3   4
ENDBRANCH   2   3
ENDBRANCH   1   2
BRANCH   1  30
ATOM     30  C   UNL A   1      31.389  29.465  24.593  1.00  0.00     0.188 C 
BRANCH  30  31
ATOM     31  O   UNL A   1      31.670  28.582  25.674  1.00  0.00    -0.376 OA
BRANCH  31  32
ATOM     32  C   UNL A   1      31.936  29.134  26.956  1.00  0.00     0.202 C 
BRANCH  32  33
ATOM     33  C   UNL A   1      32.303  30.625  27.066  1.00  0.00     0.261 C 
BRANCH  33  34
ATOM     34  O   UNL A   1      33.693  30.973  26.992  1.00  0.00    -0.460 OA
BRANCH  34  35
ATOM     35  C   UNL A   1      34.133  32.045  27.679  1.00  0.00     0.338 C 
ATOM     36  O   UNL A   1      33.514  33.074  27.904  1.00  0.00    -0.246 OA
BRANCH  35  37
ATOM     37  C   UNL A   1      35.426  31.683  28.300  1.00  0.00     0.060 A 
ATOM     38  C   UNL A   1      35.582  30.403  28.852  1.00  0.00     0.016 A 
ATOM     39  C   UNL A   1      36.484  32.595  28.326  1.00  0.00     0.016 A 
ATOM     40  C   UNL A   1      36.784  30.046  29.467  1.00  0.00     0.010 A 
ATOM     41  C   UNL A   1      37.675  32.245  28.967  1.00  0.00     0.010 A 
ATOM     42  C   UNL A   1      37.818  30.983  29.572  1.00  0.00    -0.014 A 
BRANCH  42  43
ATOM     43  C   UNL A   1      38.955  30.734  30.491  1.00  0.00     0.031 A 
ATOM     44  C   UNL A   1      40.022  29.768  30.048  1.00  0.00     0.074 A 
ATOM     45  C   UNL A   1      39.040  31.332  31.693  1.00  0.00     0.049 A 
ATOM     46  N   UNL A   1      41.054  29.310  30.705  1.00  0.00    -0.248 NA
ATOM     47  C   UNL A   1      39.901  29.245  28.675  1.00  0.00     0.031 C 
ATOM     48  C   UNL A   1      38.090  32.306  32.225  1.00  0.00     0.029 A 
ATOM     49  N   UNL A   1      39.960  31.173  32.700  1.00  0.00    -0.354 N 
ATOM     50  C   UNL A   1      41.686  28.423  29.841  1.00  0.00     0.074 A 
ATOM     51  C   UNL A   1      40.916  28.397  28.618  1.00  0.00     0.031 C 
ATOM     52  C   UNL A   1      38.455  32.631  33.477  1.00  0.00     0.029 A 
ATOM     53  C   UNL A   1      39.643  31.861  33.848  1.00  0.00     0.049 A 
ATOM     54  H   UNL A   1      40.771  30.620  32.609  1.00  0.00     0.167 HD
ATOM     55  C   UNL A   1      42.812  27.698  30.045  1.00  0.00     0.034 A 
ATOM     56  C   UNL A   1      40.222  31.840  35.065  1.00  0.00     0.034 A 
ATOM     57  C   UNL A   1      43.576  27.727  31.260  1.00  0.00     0.049 A 
ATOM     58  C   UNL A   1      41.441  30.977  35.287  1.00  0.00     0.074 A 
ATOM     59  C   UNL A   1      44.745  27.050  31.557  1.00  0.00     0.029 A 
ATOM     60  N   UNL A   1      43.239  28.459  32.389  1.00  0.00    -0.354 N 
ATOM     61  N   UNL A   1      42.081  30.212  34.435  1.00  0.00    -0.248 NA
ATOM     62  C   UNL A   1      42.037  30.997  36.633  1.00  0.00     0.031 C 
ATOM     63  C   UNL A   1      45.095  27.344  32.878  1.00  0.00     0.029 A 
ATOM     64  C   UNL A   1      44.171  28.241  33.387  1.00  0.00     0.049 A 
ATOM     65  H   UNL A   1      42.453  29.047  32.466  1.00  0.00     0.167 HD
ATOM     66  C   UNL A   1      43.176  29.700  35.126  1.00  0.00     0.074 A 
ATOM     67  C   UNL A   1      43.120  30.251  36.463  1.00  0.00     0.031 C 
ATOM     68  C   UNL A   1      44.136  28.845  34.695  1.00  0.00     0.034 A 
BRANCH  55  69
ATOM     69  C   UNL A   1      43.287  26.819  28.919  1.00  0.00     0.023 A 
ATOM     70  C   UNL A   1      42.774  25.512  28.785  1.00  0.00     0.012 A 
ATOM     71  C   UNL A   1      44.206  27.301  27.966  1.00  0.00     0.148 A 
ATOM     72  C   UNL A   1      43.195  24.688  27.742  1.00  0.00     0.002 A 
ATOM     73  C   UNL A   1      44.583  26.491  26.903  1.00  0.00     0.091 A 
ATOM     74  F   UNL A   1      44.698  28.538  28.123  1.00  0.00    -0.205 F 
ATOM     75  C   UNL A   1      44.090  25.180  26.797  1.00  0.00     0.022 A 
BRANCH  73  76
ATOM     76  S   UNL A   1      45.668  27.057  25.589  1.00  0.00     0.127 S 
ATOM     77  O   UNL A   1      45.761  25.865  24.748  1.00  0.00    -0.237 OA
ATOM     78  O   UNL A   1      44.896  28.156  25.006  1.00  0.00    -0.237 OA
ATOM     79  O   UNL A   1      46.910  27.461  26.236  1.00  0.00    -0.744 OA
ENDBRANCH  73  76
ENDBRANCH  55  69
BRANCH  56  80
ATOM     80  C   UNL A   1      39.671  32.665  36.179  1.00  0.00     0.023 A 
ATOM     81  C   UNL A   1      40.111  33.993  36.347  1.00  0.00     0.012 A 
ATOM     82  C   UNL A   1      38.727  32.137  37.082  1.00  0.00     0.148 A 
ATOM     83  C   UNL A   1      39.653  34.765  37.416  1.00  0.00     0.002 A 
ATOM     84  C   UNL A   1      38.232  32.931  38.111  1.00  0.00     0.091 A 
ATOM     85  F   UNL A   1      38.332  30.867  36.917  1.00  0.00    -0.205 F 
ATOM     86  C   UNL A   1      38.709  34.237  38.292  1.00  0.00     0.022 A 
BRANCH  84  87
ATOM     87  S   UNL A   1      36.928  32.379  39.214  1.00  0.00     0.127 S 
ATOM     88  O   UNL A   1      37.188  33.178  40.409  1.00  0.00    -0.237 OA
ATOM     89  O   UNL A   1      35.726  32.758  38.469  1.00  0.00    -0.237 OA
ATOM     90  O   UNL A   1      37.116  30.943  39.362  1.00  0.00    -0.744 OA
ENDBRANCH  84  87
ENDBRANCH  56  80
BRANCH  68  91
ATOM     91  C   UNL A   1      45.254  28.496  35.646  1.00  0.00     0.023 A 
ATOM     92  C   UNL A   1      45.140  27.380  36.497  1.00  0.00     0.012 A 
ATOM     93  C   UNL A   1      46.458  29.230  35.622  1.00  0.00     0.148 A 
ATOM     94  C   UNL A   1      46.197  27.016  37.332  1.00  0.00     0.002 A 
ATOM     95  C   UNL A   1      47.526  28.829  36.416  1.00  0.00     0.091 A 
ATOM     96  F   UNL A   1      46.540  30.297  34.815  1.00  0.00    -0.205 F 
ATOM     97  C   UNL A   1      47.392  27.731  37.281  1.00  0.00     0.022 A 
BRANCH  95  98
ATOM     98  S   UNL A   1      49.135  29.624  36.345  1.00  0.00     0.127 S 
ATOM     99  O   UNL A   1      48.793  30.938  35.802  1.00  0.00    -0.237 OA
ATOM    100  O   UNL A   1      49.537  29.631  37.751  1.00  0.00    -0.237 OA
ATOM    101  O   UNL A   1      49.960  28.791  35.482  1.00  0.00    -0.744 OA
ENDBRANCH  95  98
ENDBRANCH  68  91
ENDBRANCH  42  43
ENDBRANCH  35  37
ENDBRANCH  34  35
ENDBRANCH  33  34
ENDBRANCH  32  33
ENDBRANCH  31  32
ENDBRANCH  30  31
ENDBRANCH   1  30
TORSDOF 25
ENDMDL
MODEL 3
REMARK VINA RESULT:      -9.1      5.792      9.329
REMARK SMILES Cc1cc2cc(-c3ccc([C@@H](C)C(=O)OCCOCCOCCOCCOC(=O)c4ccc(-c5c6nc(c(-c7cccc(S(=O)(=O)[O-])c7F)c7ccc([nH]7)c(-c7cccc(S(=O)(=O)[O-])c7F)c7nc(c(-c8cccc(S(=O)(=O)[O-])c8F)c8ccc5[nH]8)C=C7)C=C6)cc4)cc3)ccc2[nH]1
REMARK SMILES IDX 22 1 21 2 20 3 19 4 18 5 17 6 16 7 15 8 13 9 14 10 11 11
REMARK SMILES IDX 12 12 10 13 7 14 8 15 94 16 9 17 93 18 6 19 1 20 2 21 3 22
REMARK SMILES IDX 98 23 4 24 97 25 5 27 96 28 95 29 23 30 24 31 25 32 26 33
REMARK SMILES IDX 27 34 28 35 29 36 30 37 31 38 92 39 32 40 91 41 33 42 34 43
REMARK SMILES IDX 35 44 85 45 36 46 90 47 84 48 86 49 37 50 89 51 83 52 82 53
REMARK SMILES IDX 38 55 70 56 50 57 69 58 51 59 54 60 68 61 87 62 52 63 53 64
REMARK SMILES IDX 67 66 88 67 55 68 39 69 40 70 48 71 41 72 43 73 49 74 42 75
REMARK SMILES IDX 44 76 45 77 46 78 47 79 71 80 72 81 80 82 73 83 75 84 81 85
REMARK SMILES IDX 74 86 76 87 77 88 78 89 79 90 56 91 57 92 65 93 58 94 60 95
REMARK SMILES IDX 66 96 59 97 61 98 62 99 63 100 64 101
REMARK H PARENT 98 26 86 54 54 65
REMARK Flexibility Score: inf
ROOT
ATOM      1  C   UNL A   1      39.692  29.133  27.265  1.00  0.00     0.188 C 
ENDROOT
BRANCH   1   2
ATOM      2  O   UNL A   1      38.900  29.626  28.331  1.00  0.00    -0.377 OA
BRANCH   2   3
ATOM      3  C   UNL A   1      37.623  29.053  28.494  1.00  0.00     0.188 C 
BRANCH   3   4
ATOM      4  C   UNL A   1      36.508  29.705  27.665  1.00  0.00     0.188 C 
BRANCH   4   5
ATOM      5  O   UNL A   1      35.203  29.143  27.611  1.00  0.00    -0.376 OA
BRANCH   5   6
ATOM      6  C   UNL A   1      34.054  29.978  27.643  1.00  0.00     0.202 C 
BRANCH   6   7
ATOM      7  C   UNL A   1      33.250  30.283  26.364  1.00  0.00     0.261 C 
BRANCH   7   8
ATOM      8  O   UNL A   1      31.996  29.592  26.196  1.00  0.00    -0.463 OA
BRANCH   8   9
ATOM      9  C   UNL A   1      31.602  29.353  24.925  1.00  0.00     0.313 C 
ATOM     10  O   UNL A   1      30.507  29.701  24.480  1.00  0.00    -0.252 OA
BRANCH   9  11
ATOM     11  C   UNL A   1      32.593  28.594  24.044  1.00  0.00     0.126 C 
ATOM     12  C   UNL A   1      32.280  28.908  22.586  1.00  0.00     0.025 C 
BRANCH  11  13
ATOM     13  C   UNL A   1      32.853  27.100  24.244  1.00  0.00    -0.034 A 
ATOM     14  C   UNL A   1      33.455  24.328  24.655  1.00  0.00    -0.018 A 
ATOM     15  C   UNL A   1      32.284  24.742  23.995  1.00  0.00     0.009 A 
ATOM     16  C   UNL A   1      34.315  25.326  25.124  1.00  0.00     0.009 A 
ATOM     17  C   UNL A   1      31.988  26.101  23.787  1.00  0.00     0.005 A 
ATOM     18  C   UNL A   1      34.027  26.685  24.911  1.00  0.00     0.005 A 
BRANCH  14  19
ATOM     19  C   UNL A   1      33.799  22.896  24.760  1.00  0.00    -0.018 A 
ATOM     20  C   UNL A   1      33.134  16.862  23.870  1.00  0.00     0.064 C 
ATOM     21  C   UNL A   1      33.363  18.309  24.103  1.00  0.00     0.013 A 
ATOM     22  C   UNL A   1      32.643  19.406  23.681  1.00  0.00     0.031 A 
ATOM     23  N   UNL A   1      34.411  18.778  24.861  1.00  0.00    -0.359 N 
ATOM     24  C   UNL A   1      33.269  20.570  24.198  1.00  0.00     0.000 A 
ATOM     25  C   UNL A   1      34.382  20.156  24.925  1.00  0.00     0.046 A 
ATOM     26  H   UNL A   1      35.086  18.210  25.298  1.00  0.00     0.166 HD
ATOM     27  C   UNL A   1      32.981  21.946  24.120  1.00  0.00     0.019 A 
ATOM     28  C   UNL A   1      35.231  21.064  25.570  1.00  0.00     0.027 A 
ATOM     29  C   UNL A   1      34.921  22.435  25.469  1.00  0.00     0.011 A 
ENDBRANCH  14  19
ENDBRANCH  11  13
ENDBRANCH   9  11
ENDBRANCH   8   9
ENDBRANCH   7   8
ENDBRANCH   6   7
ENDBRANCH   5   6
ENDBRANCH   4   5
ENDBRANCH   3   4
ENDBRANCH   2   3
ENDBRANCH   1   2
BRANCH   1  30
ATOM     30  C   UNL A   1      40.029  27.630  27.290  1.00  0.00     0.188 C 
BRANCH  30  31
ATOM     31  O   UNL A   1      40.763  27.183  26.155  1.00  0.00    -0.376 OA
BRANCH  31  32
ATOM     32  C   UNL A   1      41.253  25.849  26.140  1.00  0.00     0.202 C 
BRANCH  32  33
ATOM     33  C   UNL A   1      42.561  25.542  25.388  1.00  0.00     0.261 C 
BRANCH  33  34
ATOM     34  O   UNL A   1      43.446  26.639  25.123  1.00  0.00    -0.460 OA
BRANCH  34  35
ATOM     35  C   UNL A   1      44.582  26.746  25.839  1.00  0.00     0.338 C 
ATOM     36  O   UNL A   1      45.647  26.194  25.608  1.00  0.00    -0.246 OA
BRANCH  35  37
ATOM     37  C   UNL A   1      44.386  27.817  26.841  1.00  0.00     0.060 A 
ATOM     38  C   UNL A   1      43.865  29.052  26.425  1.00  0.00     0.016 A 
ATOM     39  C   UNL A   1      44.697  27.602  28.185  1.00  0.00     0.016 A 
ATOM     40  C   UNL A   1      43.693  30.087  27.346  1.00  0.00     0.010 A 
ATOM     41  C   UNL A   1      44.552  28.648  29.099  1.00  0.00     0.010 A 
ATOM     42  C   UNL A   1      44.084  29.907  28.678  1.00  0.00    -0.014 A 
BRANCH  42  43
ATOM     43  C   UNL A   1      44.212  31.077  29.580  1.00  0.00     0.031 A 
ATOM     44  C   UNL A   1      43.039  31.421  30.460  1.00  0.00     0.074 A 
ATOM     45  C   UNL A   1      45.327  31.829  29.614  1.00  0.00     0.049 A 
ATOM     46  N   UNL A   1      42.867  32.444  31.253  1.00  0.00    -0.248 NA
ATOM     47  C   UNL A   1      41.904  30.482  30.432  1.00  0.00     0.031 C 
ATOM     48  C   UNL A   1      46.539  31.583  28.835  1.00  0.00     0.029 A 
ATOM     49  N   UNL A   1      45.602  32.978  30.314  1.00  0.00    -0.354 N 
ATOM     50  C   UNL A   1      41.596  32.291  31.794  1.00  0.00     0.074 A 
ATOM     51  C   UNL A   1      41.036  31.083  31.231  1.00  0.00     0.031 C 
ATOM     52  C   UNL A   1      47.415  32.575  29.071  1.00  0.00     0.029 A 
ATOM     53  C   UNL A   1      46.813  33.543  29.988  1.00  0.00     0.049 A 
ATOM     54  H   UNL A   1      44.991  33.360  30.985  1.00  0.00     0.167 HD
ATOM     55  C   UNL A   1      40.953  33.081  32.687  1.00  0.00     0.034 A 
ATOM     56  C   UNL A   1      47.353  34.722  30.358  1.00  0.00     0.034 A 
ATOM     57  C   UNL A   1      41.513  34.279  33.246  1.00  0.00     0.049 A 
ATOM     58  C   UNL A   1      46.591  35.615  31.307  1.00  0.00     0.074 A 
ATOM     59  C   UNL A   1      40.954  35.135  34.177  1.00  0.00     0.029 A 
ATOM     60  N   UNL A   1      42.754  34.802  32.915  1.00  0.00    -0.354 N 
ATOM     61  N   UNL A   1      45.429  35.415  31.882  1.00  0.00    -0.248 NA
ATOM     62  C   UNL A   1      47.230  36.887  31.683  1.00  0.00     0.031 C 
ATOM     63  C   UNL A   1      41.841  36.197  34.381  1.00  0.00     0.029 A 
ATOM     64  C   UNL A   1      42.973  35.975  33.614  1.00  0.00     0.049 A 
ATOM     65  H   UNL A   1      43.384  34.398  32.277  1.00  0.00     0.167 HD
ATOM     66  C   UNL A   1      45.221  36.508  32.719  1.00  0.00     0.074 A 
ATOM     67  C   UNL A   1      46.382  37.362  32.586  1.00  0.00     0.031 C 
ATOM     68  C   UNL A   1      44.161  36.784  33.518  1.00  0.00     0.034 A 
BRANCH  55  69
ATOM     69  C   UNL A   1      39.572  32.665  33.118  1.00  0.00     0.023 A 
ATOM     70  C   UNL A   1      39.414  31.743  34.174  1.00  0.00     0.012 A 
ATOM     71  C   UNL A   1      38.429  33.223  32.512  1.00  0.00     0.148 A 
ATOM     72  C   UNL A   1      38.143  31.355  34.594  1.00  0.00     0.002 A 
ATOM     73  C   UNL A   1      37.167  32.869  32.970  1.00  0.00     0.091 A 
ATOM     74  F   UNL A   1      38.599  34.081  31.498  1.00  0.00    -0.205 F 
ATOM     75  C   UNL A   1      37.021  31.925  34.000  1.00  0.00     0.022 A 
BRANCH  73  76
ATOM     76  S   UNL A   1      35.660  33.604  32.326  1.00  0.00     0.127 S 
ATOM     77  O   UNL A   1      34.643  32.986  33.175  1.00  0.00    -0.237 OA
ATOM     78  O   UNL A   1      35.882  35.028  32.579  1.00  0.00    -0.237 OA
ATOM     79  O   UNL A   1      35.601  33.237  30.917  1.00  0.00    -0.744 OA
ENDBRANCH  73  76
ENDBRANCH  55  69
BRANCH  56  80
ATOM     80  C   UNL A   1      48.690  35.136  29.843  1.00  0.00     0.023 A 
ATOM     81  C   UNL A   1      49.853  34.775  30.553  1.00  0.00     0.012 A 
ATOM     82  C   UNL A   1      48.815  35.898  28.665  1.00  0.00     0.148 A 
ATOM     83  C   UNL A   1      51.111  35.201  30.122  1.00  0.00     0.002 A 
ATOM     84  C   UNL A   1      50.076  36.270  28.211  1.00  0.00     0.091 A 
ATOM     85  F   UNL A   1      47.698  36.246  28.012  1.00  0.00    -0.205 F 
ATOM     86  C   UNL A   1      51.222  35.940  28.948  1.00  0.00     0.022 A 
BRANCH  84  87
ATOM     87  S   UNL A   1      50.328  37.119  26.648  1.00  0.00     0.127 S 
ATOM     88  O   UNL A   1      51.781  37.261  26.616  1.00  0.00    -0.237 OA
ATOM     89  O   UNL A   1      49.781  36.154  25.693  1.00  0.00    -0.237 OA
ATOM     90  O   UNL A   1      49.574  38.360  26.747  1.00  0.00    -0.744 OA
ENDBRANCH  84  87
ENDBRANCH  56  80
BRANCH  68  91
ATOM     91  C   UNL A   1      44.223  38.024  34.374  1.00  0.00     0.023 A 
ATOM     92  C   UNL A   1      44.909  38.006  35.604  1.00  0.00     0.012 A 
ATOM     93  C   UNL A   1      43.676  39.236  33.905  1.00  0.00     0.148 A 
ATOM     94  C   UNL A   1      45.024  39.167  36.368  1.00  0.00     0.002 A 
ATOM     95  C   UNL A   1      43.841  40.400  34.645  1.00  0.00     0.091 A 
ATOM     96  F   UNL A   1      43.015  39.229  32.739  1.00  0.00    -0.205 F 
ATOM     97  C   UNL A   1      44.503  40.365  35.883  1.00  0.00     0.022 A 
BRANCH  95  98
ATOM     98  S   UNL A   1      43.295  42.006  34.055  1.00  0.00     0.127 S 
ATOM     99  O   UNL A   1      41.886  41.751  33.759  1.00  0.00    -0.237 OA
ATOM    100  O   UNL A   1      43.528  42.859  35.221  1.00  0.00    -0.237 OA
ATOM    101  O   UNL A   1      44.126  42.317  32.900  1.00  0.00    -0.744 OA
ENDBRANCH  95  98
ENDBRANCH  68  91
ENDBRANCH  42  43
ENDBRANCH  35  37
ENDBRANCH  34  35
ENDBRANCH  33  34
ENDBRANCH  32  33
ENDBRANCH  31  32
ENDBRANCH  30  31
ENDBRANCH   1  30
TORSDOF 25
ENDMDL
