MODEL 1
REMARK VINA RESULT:      -9.1      0.000      0.000
REMARK SMILES Cn1c(SCC(=O)Nc2ccc(C(=O)OCCOCCOCCOCCOC(=O)c3ccc(-c4c5nc(c(-c6cccc(S(=O)(=O)[O-])c6F)c6ccc([nH]6)c(-c6cccc(S(=O)(=O)[O-])c6F)c6nc(c(-c7cccc(S(=O)(=O)[O-])c7F)c7ccc4[nH]7)C=C6)C=C5)cc3)cc2)nc2ccccc2c1=O
REMARK SMILES IDX 20 1 19 2 18 3 17 4 16 5 15 6 13 7 14 8 12 9 9 10 10 11
REMARK SMILES IDX 94 12 11 13 93 14 8 15 6 16 7 17 5 19 4 20 3 21 1 22 2 23
REMARK SMILES IDX 102 24 95 25 101 26 103 27 96 28 100 29 97 30 99 31 98 32
REMARK SMILES IDX 21 33 22 34 23 35 24 36 25 37 26 38 27 39 28 40 29 41 30 42
REMARK SMILES IDX 31 43 92 44 32 45 91 46 33 47 34 48 35 49 85 50 36 51 90 52
REMARK SMILES IDX 84 53 86 54 37 55 89 56 83 57 82 58 38 60 70 61 50 62 69 63
REMARK SMILES IDX 51 64 54 65 68 66 87 67 52 68 53 69 67 71 88 72 55 73 39 74
REMARK SMILES IDX 40 75 48 76 41 77 43 78 49 79 42 80 44 81 45 82 46 83 47 84
REMARK SMILES IDX 71 85 72 86 80 87 73 88 75 89 81 90 74 91 76 92 77 93 78 94
REMARK SMILES IDX 79 95 56 96 57 97 65 98 58 99 60 100 66 101 59 102 61 103
REMARK SMILES IDX 62 104 63 105 64 106
REMARK H PARENT 8 18 86 59 54 70
REMARK Flexibility Score: inf
ROOT
ATOM      1  C   UNL A   1      37.698  30.682  29.055  1.00  0.00     0.188 C 
ENDROOT
BRANCH   1   2
ATOM      2  C   UNL A   1      37.612  32.177  29.407  1.00  0.00     0.188 C 
BRANCH   2   3
ATOM      3  O   UNL A   1      36.484  32.834  28.846  1.00  0.00    -0.376 OA
BRANCH   3   4
ATOM      4  C   UNL A   1      35.759  32.132  27.844  1.00  0.00     0.202 C 
BRANCH   4   5
ATOM      5  C   UNL A   1      34.252  31.952  28.087  1.00  0.00     0.261 C 
BRANCH   5   6
ATOM      6  O   UNL A   1      33.605  31.042  27.188  1.00  0.00    -0.460 OA
BRANCH   6   7
ATOM      7  C   UNL A   1      34.042  29.764  27.180  1.00  0.00     0.338 C 
ATOM      8  O   UNL A   1      34.596  29.172  28.090  1.00  0.00    -0.246 OA
BRANCH   7   9
ATOM      9  C   UNL A   1      33.490  29.113  25.967  1.00  0.00     0.060 A 
ATOM     10  C   UNL A   1      32.498  28.189  23.518  1.00  0.00     0.041 A 
ATOM     11  C   UNL A   1      31.769  29.114  24.264  1.00  0.00     0.027 A 
ATOM     12  C   UNL A   1      33.703  27.687  24.024  1.00  0.00     0.027 A 
ATOM     13  C   UNL A   1      32.255  29.564  25.493  1.00  0.00     0.018 A 
ATOM     14  C   UNL A   1      34.215  28.169  25.234  1.00  0.00     0.018 A 
BRANCH  10  15
ATOM     15  N   UNL A   1      32.024  27.669  22.310  1.00  0.00    -0.325 N 
ATOM     16  C   UNL A   1      31.455  26.456  22.031  1.00  0.00     0.234 C 
ATOM     17  O   UNL A   1      31.381  26.114  20.848  1.00  0.00    -0.274 OA
ATOM     18  H   UNL A   1      32.113  28.271  21.536  1.00  0.00     0.169 HD
BRANCH  16  19
ATOM     19  C   UNL A   1      30.687  25.719  23.105  1.00  0.00     0.178 C 
BRANCH  19  20
ATOM     20  S   UNL A   1      30.711  23.941  23.238  1.00  0.00    -0.078 SA
BRANCH  20  21
ATOM     21  C   UNL A   1      32.104  23.379  24.121  1.00  0.00     0.171 A 
ATOM     22  C   UNL A   1      31.021  23.721  26.372  1.00  0.00     0.156 C 
ATOM     23  N   UNL A   1      32.135  23.383  25.501  1.00  0.00    -0.290 N 
ATOM     24  C   UNL A   1      33.315  23.073  26.180  1.00  0.00     0.261 A 
ATOM     25  N   UNL A   1      33.143  23.157  23.376  1.00  0.00    -0.224 NA
ATOM     26  C   UNL A   1      34.539  22.977  25.371  1.00  0.00     0.066 A 
ATOM     27  O   UNL A   1      33.396  22.934  27.399  1.00  0.00    -0.269 OA
ATOM     28  C   UNL A   1      34.395  23.019  23.990  1.00  0.00     0.079 A 
ATOM     29  C   UNL A   1      35.804  22.947  25.975  1.00  0.00     0.016 A 
ATOM     30  C   UNL A   1      35.553  23.038  23.202  1.00  0.00     0.029 A 
ATOM     31  C   UNL A   1      36.948  22.980  25.180  1.00  0.00     0.001 A 
ATOM     32  C   UNL A   1      36.823  23.026  23.793  1.00  0.00     0.002 A 
ENDBRANCH  20  21
ENDBRANCH  19  20
ENDBRANCH  16  19
ENDBRANCH  10  15
ENDBRANCH   7   9
ENDBRANCH   6   7
ENDBRANCH   5   6
ENDBRANCH   4   5
ENDBRANCH   3   4
ENDBRANCH   2   3
ENDBRANCH   1   2
BRANCH   1  33
ATOM     33  O   UNL A   1      38.925  30.220  28.518  1.00  0.00    -0.377 OA
BRANCH  33  34
ATOM     34  C   UNL A   1      39.442  28.959  28.941  1.00  0.00     0.188 C 
BRANCH  34  35
ATOM     35  C   UNL A   1      39.083  27.626  28.243  1.00  0.00     0.188 C 
BRANCH  35  36
ATOM     36  O   UNL A   1      40.137  26.671  28.187  1.00  0.00    -0.376 OA
BRANCH  36  37
ATOM     37  C   UNL A   1      39.993  25.634  27.228  1.00  0.00     0.202 C 
BRANCH  37  38
ATOM     38  C   UNL A   1      40.439  24.259  27.735  1.00  0.00     0.261 C 
BRANCH  38  39
ATOM     39  O   UNL A   1      41.855  24.101  27.905  1.00  0.00    -0.460 OA
BRANCH  39  40
ATOM     40  C   UNL A   1      42.609  23.955  26.791  1.00  0.00     0.338 C 
ATOM     41  O   UNL A   1      42.357  23.260  25.821  1.00  0.00    -0.246 OA
BRANCH  40  42
ATOM     42  C   UNL A   1      43.706  24.941  26.877  1.00  0.00     0.060 A 
ATOM     43  C   UNL A   1      44.459  25.244  25.740  1.00  0.00     0.016 A 
ATOM     44  C   UNL A   1      44.018  25.521  28.112  1.00  0.00     0.016 A 
ATOM     45  C   UNL A   1      45.515  26.149  25.836  1.00  0.00     0.010 A 
ATOM     46  C   UNL A   1      45.081  26.425  28.207  1.00  0.00     0.010 A 
ATOM     47  C   UNL A   1      45.823  26.761  27.064  1.00  0.00    -0.014 A 
BRANCH  47  48
ATOM     48  C   UNL A   1      46.780  27.892  27.088  1.00  0.00     0.031 A 
ATOM     49  C   UNL A   1      48.256  27.700  27.249  1.00  0.00     0.074 A 
ATOM     50  C   UNL A   1      46.271  29.133  26.962  1.00  0.00     0.049 A 
ATOM     51  N   UNL A   1      49.206  28.596  27.169  1.00  0.00    -0.248 NA
ATOM     52  C   UNL A   1      48.735  26.340  27.541  1.00  0.00     0.031 C 
ATOM     53  C   UNL A   1      44.844  29.445  26.861  1.00  0.00     0.029 A 
ATOM     54  N   UNL A   1      46.887  30.356  26.895  1.00  0.00    -0.354 N 
ATOM     55  C   UNL A   1      50.395  27.921  27.404  1.00  0.00     0.074 A 
ATOM     56  C   UNL A   1      50.046  26.536  27.646  1.00  0.00     0.031 C 
ATOM     57  C   UNL A   1      44.693  30.771  26.734  1.00  0.00     0.029 A 
ATOM     58  C   UNL A   1      46.008  31.403  26.751  1.00  0.00     0.049 A 
ATOM     59  H   UNL A   1      47.864  30.473  26.946  1.00  0.00     0.167 HD
ATOM     60  C   UNL A   1      51.657  28.412  27.396  1.00  0.00     0.034 A 
ATOM     61  C   UNL A   1      46.230  32.725  26.634  1.00  0.00     0.034 A 
ATOM     62  C   UNL A   1      51.996  29.788  27.138  1.00  0.00     0.049 A 
ATOM     63  C   UNL A   1      47.640  33.238  26.606  1.00  0.00     0.074 A 
ATOM     64  C   UNL A   1      53.256  30.353  27.030  1.00  0.00     0.029 A 
ATOM     65  N   UNL A   1      51.083  30.816  26.969  1.00  0.00    -0.354 N 
ATOM     66  N   UNL A   1      48.758  32.558  26.668  1.00  0.00    -0.248 NA
ATOM     67  C   UNL A   1      47.822  34.689  26.460  1.00  0.00     0.031 C 
ATOM     68  C   UNL A   1      53.104  31.726  26.814  1.00  0.00     0.029 A 
ATOM     69  C   UNL A   1      51.749  32.014  26.772  1.00  0.00     0.049 A 
ATOM     70  H   UNL A   1      50.104  30.711  26.986  1.00  0.00     0.167 HD
ATOM     71  C   UNL A   1      49.778  33.495  26.554  1.00  0.00     0.074 A 
ATOM     72  C   UNL A   1      49.144  34.788  26.402  1.00  0.00     0.031 C 
ATOM     73  C   UNL A   1      51.116  33.293  26.584  1.00  0.00     0.034 A 
BRANCH  60  74
ATOM     74  C   UNL A   1      52.798  27.454  27.605  1.00  0.00     0.023 A 
ATOM     75  C   UNL A   1      53.361  27.338  28.891  1.00  0.00     0.012 A 
ATOM     76  C   UNL A   1      53.209  26.574  26.584  1.00  0.00     0.148 A 
ATOM     77  C   UNL A   1      54.322  26.362  29.159  1.00  0.00     0.002 A 
ATOM     78  C   UNL A   1      54.148  25.588  26.864  1.00  0.00     0.091 A 
ATOM     79  F   UNL A   1      52.661  26.708  25.368  1.00  0.00    -0.205 F 
ATOM     80  C   UNL A   1      54.706  25.483  28.150  1.00  0.00     0.022 A 
BRANCH  78  81
ATOM     81  S   UNL A   1      54.674  24.368  25.655  1.00  0.00     0.127 S 
ATOM     82  O   UNL A   1      53.410  23.699  25.347  1.00  0.00    -0.237 OA
ATOM     83  O   UNL A   1      55.197  25.208  24.579  1.00  0.00    -0.237 OA
ATOM     84  O   UNL A   1      55.666  23.537  26.323  1.00  0.00    -0.744 OA
ENDBRANCH  78  81
ENDBRANCH  60  74
BRANCH  61  85
ATOM     85  C   UNL A   1      45.069  33.633  26.454  1.00  0.00     0.023 A 
ATOM     86  C   UNL A   1      44.483  33.755  25.179  1.00  0.00     0.012 A 
ATOM     87  C   UNL A   1      44.484  34.289  27.553  1.00  0.00     0.148 A 
ATOM     88  C   UNL A   1      43.332  34.523  25.002  1.00  0.00     0.002 A 
ATOM     89  C   UNL A   1      43.317  35.020  27.377  1.00  0.00     0.091 A 
ATOM     90  F   UNL A   1      45.063  34.148  28.754  1.00  0.00    -0.205 F 
ATOM     91  C   UNL A   1      42.744  35.145  26.101  1.00  0.00     0.022 A 
BRANCH  89  92
ATOM     92  S   UNL A   1      42.425  35.769  28.745  1.00  0.00     0.127 S 
ATOM     93  O   UNL A   1      41.166  36.145  28.108  1.00  0.00    -0.237 OA
ATOM     94  O   UNL A   1      42.333  34.652  29.685  1.00  0.00    -0.237 OA
ATOM     95  O   UNL A   1      43.252  36.879  29.197  1.00  0.00    -0.744 OA
ENDBRANCH  89  92
ENDBRANCH  61  85
BRANCH  73  96
ATOM     96  C   UNL A   1      52.016  34.491  26.454  1.00  0.00     0.023 A 
ATOM     97  C   UNL A   1      52.438  35.166  27.616  1.00  0.00     0.012 A 
ATOM     98  C   UNL A   1      52.544  34.863  25.202  1.00  0.00     0.148 A 
ATOM     99  C   UNL A   1      53.371  36.199  27.533  1.00  0.00     0.002 A 
ATOM    100  C   UNL A   1      53.499  35.870  25.131  1.00  0.00     0.091 A 
ATOM    101  F   UNL A   1      52.119  34.209  24.111  1.00  0.00    -0.205 F 
ATOM    102  C   UNL A   1      53.910  36.542  26.296  1.00  0.00     0.022 A 
BRANCH 100 103
ATOM    103  S   UNL A   1      54.306  36.337  23.596  1.00  0.00     0.127 S 
ATOM    104  O   UNL A   1      53.821  35.308  22.678  1.00  0.00    -0.237 OA
ATOM    105  O   UNL A   1      53.761  37.674  23.356  1.00  0.00    -0.237 OA
ATOM    106  O   UNL A   1      55.737  36.301  23.863  1.00  0.00    -0.744 OA
ENDBRANCH 100 103
ENDBRANCH  73  96
ENDBRANCH  47  48
ENDBRANCH  40  42
ENDBRANCH  39  40
ENDBRANCH  38  39
ENDBRANCH  37  38
ENDBRANCH  36  37
ENDBRANCH  35  36
ENDBRANCH  34  35
ENDBRANCH  33  34
ENDBRANCH   1  33
TORSDOF 27
ENDMDL
MODEL 2
REMARK VINA RESULT:      -8.9      4.695      7.937
REMARK SMILES Cn1c(SCC(=O)Nc2ccc(C(=O)OCCOCCOCCOCCOC(=O)c3ccc(-c4c5nc(c(-c6cccc(S(=O)(=O)[O-])c6F)c6ccc([nH]6)c(-c6cccc(S(=O)(=O)[O-])c6F)c6nc(c(-c7cccc(S(=O)(=O)[O-])c7F)c7ccc4[nH]7)C=C6)C=C5)cc3)cc2)nc2ccccc2c1=O
REMARK SMILES IDX 20 1 19 2 18 3 17 4 16 5 15 6 13 7 14 8 12 9 9 10 10 11
REMARK SMILES IDX 94 12 11 13 93 14 8 15 6 16 7 17 5 19 4 20 3 21 1 22 2 23
REMARK SMILES IDX 102 24 95 25 101 26 103 27 96 28 100 29 97 30 99 31 98 32
REMARK SMILES IDX 21 33 22 34 23 35 24 36 25 37 26 38 27 39 28 40 29 41 30 42
REMARK SMILES IDX 31 43 92 44 32 45 91 46 33 47 34 48 35 49 85 50 36 51 90 52
REMARK SMILES IDX 84 53 86 54 37 55 89 56 83 57 82 58 38 60 70 61 50 62 69 63
REMARK SMILES IDX 51 64 54 65 68 66 87 67 52 68 53 69 67 71 88 72 55 73 39 74
REMARK SMILES IDX 40 75 48 76 41 77 43 78 49 79 42 80 44 81 45 82 46 83 47 84
REMARK SMILES IDX 71 85 72 86 80 87 73 88 75 89 81 90 74 91 76 92 77 93 78 94
REMARK SMILES IDX 79 95 56 96 57 97 65 98 58 99 60 100 66 101 59 102 61 103
REMARK SMILES IDX 62 104 63 105 64 106
REMARK H PARENT 8 18 86 59 54 70
REMARK Flexibility Score: inf
ROOT
ATOM      1  C   UNL A   1      37.945  30.373  30.188  1.00  0.00     0.188 C 
ENDROOT
BRANCH   1   2
ATOM      2  C   UNL A   1      37.919  31.904  30.046  1.00  0.00     0.188 C 
BRANCH   2   3
ATOM      3  O   UNL A   1      36.758  32.512  30.594  1.00  0.00    -0.376 OA
BRANCH   3   4
ATOM      4  C   UNL A   1      35.807  33.034  29.675  1.00  0.00     0.202 C 
BRANCH   4   5
ATOM      5  C   UNL A   1      34.663  32.094  29.263  1.00  0.00     0.261 C 
BRANCH   5   6
ATOM      6  O   UNL A   1      34.694  31.679  27.891  1.00  0.00    -0.460 OA
BRANCH   6   7
ATOM      7  C   UNL A   1      34.735  30.352  27.647  1.00  0.00     0.338 C 
ATOM      8  O   UNL A   1      35.434  29.523  28.204  1.00  0.00    -0.246 OA
BRANCH   7   9
ATOM      9  C   UNL A   1      33.583  30.026  26.770  1.00  0.00     0.060 A 
ATOM     10  C   UNL A   1      31.493  29.697  24.937  1.00  0.00     0.041 A 
ATOM     11  C   UNL A   1      31.450  30.733  25.870  1.00  0.00     0.027 A 
ATOM     12  C   UNL A   1      32.561  28.793  24.955  1.00  0.00     0.027 A 
ATOM     13  C   UNL A   1      32.483  30.889  26.795  1.00  0.00     0.018 A 
ATOM     14  C   UNL A   1      33.622  28.972  25.851  1.00  0.00     0.018 A 
BRANCH  10  15
ATOM     15  N   UNL A   1      30.454  29.470  24.029  1.00  0.00    -0.325 N 
ATOM     16  C   UNL A   1      30.424  28.712  22.891  1.00  0.00     0.234 C 
ATOM     17  O   UNL A   1      29.491  28.893  22.104  1.00  0.00    -0.274 OA
ATOM     18  H   UNL A   1      29.610  29.928  24.243  1.00  0.00     0.169 HD
BRANCH  16  19
ATOM     19  C   UNL A   1      31.328  27.507  22.764  1.00  0.00     0.178 C 
BRANCH  19  20
ATOM     20  S   UNL A   1      30.892  25.917  23.445  1.00  0.00    -0.078 SA
BRANCH  20  21
ATOM     21  C   UNL A   1      32.301  25.011  23.922  1.00  0.00     0.171 A 
ATOM     22  C   UNL A   1      33.092  24.674  21.552  1.00  0.00     0.156 C 
ATOM     23  N   UNL A   1      33.164  24.469  22.990  1.00  0.00    -0.290 N 
ATOM     24  C   UNL A   1      34.196  23.621  23.394  1.00  0.00     0.261 A 
ATOM     25  N   UNL A   1      32.344  24.735  25.189  1.00  0.00    -0.224 NA
ATOM     26  C   UNL A   1      34.170  23.165  24.791  1.00  0.00     0.066 A 
ATOM     27  O   UNL A   1      35.077  23.199  22.647  1.00  0.00    -0.269 OA
ATOM     28  C   UNL A   1      33.237  23.754  25.636  1.00  0.00     0.079 A 
ATOM     29  C   UNL A   1      34.985  22.110  25.222  1.00  0.00     0.016 A 
ATOM     30  C   UNL A   1      33.120  23.260  26.941  1.00  0.00     0.029 A 
ATOM     31  C   UNL A   1      34.850  21.618  26.519  1.00  0.00     0.001 A 
ATOM     32  C   UNL A   1      33.917  22.193  27.379  1.00  0.00     0.002 A 
ENDBRANCH  20  21
ENDBRANCH  19  20
ENDBRANCH  16  19
ENDBRANCH  10  15
ENDBRANCH   7   9
ENDBRANCH   6   7
ENDBRANCH   5   6
ENDBRANCH   4   5
ENDBRANCH   3   4
ENDBRANCH   2   3
ENDBRANCH   1   2
BRANCH   1  33
ATOM     33  O   UNL A   1      39.015  29.689  29.561  1.00  0.00    -0.377 OA
BRANCH  33  34
ATOM     34  C   UNL A   1      38.906  28.285  29.328  1.00  0.00     0.188 C 
BRANCH  34  35
ATOM     35  C   UNL A   1      39.453  27.599  28.053  1.00  0.00     0.188 C 
BRANCH  35  36
ATOM     36  O   UNL A   1      39.824  26.235  28.214  1.00  0.00    -0.376 OA
BRANCH  36  37
ATOM     37  C   UNL A   1      39.944  25.473  27.022  1.00  0.00     0.202 C 
BRANCH  37  38
ATOM     38  C   UNL A   1      41.320  24.824  26.840  1.00  0.00     0.261 C 
BRANCH  38  39
ATOM     39  O   UNL A   1      42.437  25.716  26.974  1.00  0.00    -0.460 OA
BRANCH  39  40
ATOM     40  C   UNL A   1      42.617  26.645  26.008  1.00  0.00     0.338 C 
ATOM     41  O   UNL A   1      42.380  26.522  24.818  1.00  0.00    -0.246 OA
BRANCH  40  42
ATOM     42  C   UNL A   1      42.975  27.910  26.684  1.00  0.00     0.060 A 
ATOM     43  C   UNL A   1      42.325  29.095  26.331  1.00  0.00     0.016 A 
ATOM     44  C   UNL A   1      44.003  27.918  27.633  1.00  0.00     0.016 A 
ATOM     45  C   UNL A   1      42.691  30.291  26.948  1.00  0.00     0.010 A 
ATOM     46  C   UNL A   1      44.373  29.119  28.248  1.00  0.00     0.010 A 
ATOM     47  C   UNL A   1      43.704  30.309  27.924  1.00  0.00    -0.014 A 
BRANCH  47  48
ATOM     48  C   UNL A   1      43.904  31.535  28.734  1.00  0.00     0.031 A 
ATOM     49  C   UNL A   1      44.890  32.598  28.363  1.00  0.00     0.074 A 
ATOM     50  C   UNL A   1      43.155  31.668  29.846  1.00  0.00     0.049 A 
ATOM     51  N   UNL A   1      45.075  33.766  28.923  1.00  0.00    -0.248 NA
ATOM     52  C   UNL A   1      45.788  32.325  27.231  1.00  0.00     0.031 C 
ATOM     53  C   UNL A   1      42.206  30.667  30.339  1.00  0.00     0.029 A 
ATOM     54  N   UNL A   1      43.070  32.687  30.758  1.00  0.00    -0.354 N 
ATOM     55  C   UNL A   1      46.109  34.371  28.222  1.00  0.00     0.074 A 
ATOM     56  C   UNL A   1      46.525  33.432  27.201  1.00  0.00     0.031 C 
ATOM     57  C   UNL A   1      41.626  31.126  31.456  1.00  0.00     0.029 A 
ATOM     58  C   UNL A   1      42.165  32.447  31.763  1.00  0.00     0.049 A 
ATOM     59  H   UNL A   1      43.606  33.512  30.698  1.00  0.00     0.167 HD
ATOM     60  C   UNL A   1      46.642  35.603  28.406  1.00  0.00     0.034 A 
ATOM     61  C   UNL A   1      41.796  33.206  32.812  1.00  0.00     0.034 A 
ATOM     62  C   UNL A   1      46.211  36.537  29.414  1.00  0.00     0.049 A 
ATOM     63  C   UNL A   1      42.387  34.575  32.977  1.00  0.00     0.074 A 
ATOM     64  C   UNL A   1      46.641  37.837  29.615  1.00  0.00     0.029 A 
ATOM     65  N   UNL A   1      45.272  36.271  30.398  1.00  0.00    -0.354 N 
ATOM     66  N   UNL A   1      43.248  35.192  32.206  1.00  0.00    -0.248 NA
ATOM     67  C   UNL A   1      41.936  35.364  34.131  1.00  0.00     0.031 C 
ATOM     68  C   UNL A   1      45.977  38.352  30.733  1.00  0.00     0.029 A 
ATOM     69  C   UNL A   1      45.121  37.377  31.218  1.00  0.00     0.049 A 
ATOM     70  H   UNL A   1      44.785  35.421  30.500  1.00  0.00     0.167 HD
ATOM     71  C   UNL A   1      43.432  36.447  32.772  1.00  0.00     0.074 A 
ATOM     72  C   UNL A   1      42.580  36.510  33.941  1.00  0.00     0.031 C 
ATOM     73  C   UNL A   1      44.244  37.449  32.358  1.00  0.00     0.034 A 
BRANCH  60  74
ATOM     74  C   UNL A   1      47.714  36.066  27.458  1.00  0.00     0.023 A 
ATOM     75  C   UNL A   1      47.349  36.869  26.359  1.00  0.00     0.012 A 
ATOM     76  C   UNL A   1      49.077  35.837  27.730  1.00  0.00     0.148 A 
ATOM     77  C   UNL A   1      48.326  37.434  25.540  1.00  0.00     0.002 A 
ATOM     78  C   UNL A   1      50.046  36.424  26.923  1.00  0.00     0.091 A 
ATOM     79  F   UNL A   1      49.398  35.066  28.778  1.00  0.00    -0.205 F 
ATOM     80  C   UNL A   1      49.672  37.221  25.828  1.00  0.00     0.022 A 
BRANCH  78  81
ATOM     81  S   UNL A   1      51.808  36.261  27.237  1.00  0.00     0.127 S 
ATOM     82  O   UNL A   1      51.889  36.637  28.649  1.00  0.00    -0.237 OA
ATOM     83  O   UNL A   1      52.036  34.841  26.971  1.00  0.00    -0.237 OA
ATOM     84  O   UNL A   1      52.469  37.174  26.315  1.00  0.00    -0.744 OA
ENDBRANCH  78  81
ENDBRANCH  60  74
BRANCH  61  85
ATOM     85  C   UNL A   1      40.751  32.694  33.734  1.00  0.00     0.023 A 
ATOM     86  C   UNL A   1      41.122  31.835  34.786  1.00  0.00     0.012 A 
ATOM     87  C   UNL A   1      39.417  33.134  33.634  1.00  0.00     0.148 A 
ATOM     88  C   UNL A   1      40.178  31.419  35.723  1.00  0.00     0.002 A 
ATOM     89  C   UNL A   1      38.491  32.747  34.593  1.00  0.00     0.091 A 
ATOM     90  F   UNL A   1      39.097  33.955  32.624  1.00  0.00    -0.205 F 
ATOM     91  C   UNL A   1      38.867  31.882  35.633  1.00  0.00     0.022 A 
BRANCH  89  92
ATOM     92  S   UNL A   1      36.808  33.374  34.625  1.00  0.00     0.127 S 
ATOM     93  O   UNL A   1      36.114  32.404  33.783  1.00  0.00    -0.237 OA
ATOM     94  O   UNL A   1      36.489  33.294  36.051  1.00  0.00    -0.237 OA
ATOM     95  O   UNL A   1      36.878  34.727  34.092  1.00  0.00    -0.744 OA
ENDBRANCH  89  92
ENDBRANCH  61  85
BRANCH  73  96
ATOM     96  C   UNL A   1      44.272  38.717  33.165  1.00  0.00     0.023 A 
ATOM     97  C   UNL A   1      45.151  38.818  34.261  1.00  0.00     0.012 A 
ATOM     98  C   UNL A   1      43.530  39.844  32.762  1.00  0.00     0.148 A 
ATOM     99  C   UNL A   1      45.288  40.024  34.948  1.00  0.00     0.002 A 
ATOM    100  C   UNL A   1      43.698  41.052  33.429  1.00  0.00     0.091 A 
ATOM    101  F   UNL A   1      42.695  39.719  31.720  1.00  0.00    -0.205 F 
ATOM    102  C   UNL A   1      44.573  41.142  34.524  1.00  0.00     0.022 A 
BRANCH 100 103
ATOM    103  S   UNL A   1      42.878  42.566  32.917  1.00  0.00     0.127 S 
ATOM    104  O   UNL A   1      42.215  42.979  34.153  1.00  0.00    -0.237 OA
ATOM    105  O   UNL A   1      44.007  43.409  32.521  1.00  0.00    -0.237 OA
ATOM    106  O   UNL A   1      41.982  42.196  31.831  1.00  0.00    -0.744 OA
ENDBRANCH 100 103
ENDBRANCH  73  96
ENDBRANCH  47  48
ENDBRANCH  40  42
ENDBRANCH  39  40
ENDBRANCH  38  39
ENDBRANCH  37  38
ENDBRANCH  36  37
ENDBRANCH  35  36
ENDBRANCH  34  35
ENDBRANCH  33  34
ENDBRANCH   1  33
TORSDOF 27
ENDMDL
MODEL 3
REMARK VINA RESULT:      -8.9      3.539      8.627
REMARK SMILES Cn1c(SCC(=O)Nc2ccc(C(=O)OCCOCCOCCOCCOC(=O)c3ccc(-c4c5nc(c(-c6cccc(S(=O)(=O)[O-])c6F)c6ccc([nH]6)c(-c6cccc(S(=O)(=O)[O-])c6F)c6nc(c(-c7cccc(S(=O)(=O)[O-])c7F)c7ccc4[nH]7)C=C6)C=C5)cc3)cc2)nc2ccccc2c1=O
REMARK SMILES IDX 20 1 19 2 18 3 17 4 16 5 15 6 13 7 14 8 12 9 9 10 10 11
REMARK SMILES IDX 94 12 11 13 93 14 8 15 6 16 7 17 5 19 4 20 3 21 1 22 2 23
REMARK SMILES IDX 102 24 95 25 101 26 103 27 96 28 100 29 97 30 99 31 98 32
REMARK SMILES IDX 21 33 22 34 23 35 24 36 25 37 26 38 27 39 28 40 29 41 30 42
REMARK SMILES IDX 31 43 92 44 32 45 91 46 33 47 34 48 35 49 85 50 36 51 90 52
REMARK SMILES IDX 84 53 86 54 37 55 89 56 83 57 82 58 38 60 70 61 50 62 69 63
REMARK SMILES IDX 51 64 54 65 68 66 87 67 52 68 53 69 67 71 88 72 55 73 39 74
REMARK SMILES IDX 40 75 48 76 41 77 43 78 49 79 42 80 44 81 45 82 46 83 47 84
REMARK SMILES IDX 71 85 72 86 80 87 73 88 75 89 81 90 74 91 76 92 77 93 78 94
REMARK SMILES IDX 79 95 56 96 57 97 65 98 58 99 60 100 66 101 59 102 61 103
REMARK SMILES IDX 62 104 63 105 64 106
REMARK H PARENT 8 18 86 59 54 70
REMARK Flexibility Score: inf
ROOT
ATOM      1  C   UNL A   1      35.691  33.895  31.348  1.00  0.00     0.188 C 
ENDROOT
BRANCH   1   2
ATOM      2  C   UNL A   1      34.255  33.951  30.802  1.00  0.00     0.188 C 
BRANCH   2   3
ATOM      3  O   UNL A   1      34.118  33.417  29.492  1.00  0.00    -0.376 OA
BRANCH   3   4
ATOM      4  C   UNL A   1      34.788  32.192  29.220  1.00  0.00     0.202 C 
BRANCH   4   5
ATOM      5  C   UNL A   1      34.732  31.687  27.770  1.00  0.00     0.261 C 
BRANCH   5   6
ATOM      6  O   UNL A   1      33.823  30.599  27.550  1.00  0.00    -0.460 OA
BRANCH   6   7
ATOM      7  C   UNL A   1      32.579  30.908  27.129  1.00  0.00     0.338 C 
ATOM      8  O   UNL A   1      32.105  32.023  26.992  1.00  0.00    -0.246 OA
BRANCH   7   9
ATOM      9  C   UNL A   1      31.968  29.665  26.597  1.00  0.00     0.060 A 
ATOM     10  C   UNL A   1      31.115  27.271  25.423  1.00  0.00     0.041 A 
ATOM     11  C   UNL A   1      31.273  28.416  24.643  1.00  0.00     0.027 A 
ATOM     12  C   UNL A   1      31.336  27.338  26.804  1.00  0.00     0.027 A 
ATOM     13  C   UNL A   1      31.683  29.615  25.229  1.00  0.00     0.018 A 
ATOM     14  C   UNL A   1      31.791  28.526  27.389  1.00  0.00     0.018 A 
BRANCH  10  15
ATOM     15  N   UNL A   1      30.653  26.065  24.888  1.00  0.00    -0.325 N 
ATOM     16  C   UNL A   1      30.909  25.479  23.678  1.00  0.00     0.234 C 
ATOM     17  O   UNL A   1      30.167  24.562  23.315  1.00  0.00    -0.274 OA
ATOM     18  H   UNL A   1      30.049  25.556  25.474  1.00  0.00     0.169 HD
BRANCH  16  19
ATOM     19  C   UNL A   1      32.218  25.747  22.972  1.00  0.00     0.178 C 
BRANCH  19  20
ATOM     20  S   UNL A   1      33.790  25.291  23.680  1.00  0.00    -0.078 SA
BRANCH  20  21
ATOM     21  C   UNL A   1      33.776  23.656  24.282  1.00  0.00     0.171 A 
ATOM     22  C   UNL A   1      35.850  23.978  25.681  1.00  0.00     0.156 C 
ATOM     23  N   UNL A   1      34.772  23.184  25.115  1.00  0.00    -0.290 N 
ATOM     24  C   UNL A   1      34.821  21.831  25.458  1.00  0.00     0.261 A 
ATOM     25  N   UNL A   1      32.881  22.899  23.726  1.00  0.00    -0.224 NA
ATOM     26  C   UNL A   1      33.924  20.929  24.720  1.00  0.00     0.066 A 
ATOM     27  O   UNL A   1      35.594  21.355  26.286  1.00  0.00    -0.269 OA
ATOM     28  C   UNL A   1      32.982  21.511  23.882  1.00  0.00     0.079 A 
ATOM     29  C   UNL A   1      34.086  19.538  24.787  1.00  0.00     0.016 A 
ATOM     30  C   UNL A   1      32.191  20.670  23.088  1.00  0.00     0.029 A 
ATOM     31  C   UNL A   1      33.302  18.713  23.981  1.00  0.00     0.001 A 
ATOM     32  C   UNL A   1      32.355  19.280  23.132  1.00  0.00     0.002 A 
ENDBRANCH  20  21
ENDBRANCH  19  20
ENDBRANCH  16  19
ENDBRANCH  10  15
ENDBRANCH   7   9
ENDBRANCH   6   7
ENDBRANCH   5   6
ENDBRANCH   4   5
ENDBRANCH   3   4
ENDBRANCH   2   3
ENDBRANCH   1   2
BRANCH   1  33
ATOM     33  O   UNL A   1      36.082  34.933  32.229  1.00  0.00    -0.377 OA
BRANCH  33  34
ATOM     34  C   UNL A   1      35.781  34.821  33.619  1.00  0.00     0.188 C 
BRANCH  34  35
ATOM     35  C   UNL A   1      35.444  33.473  34.301  1.00  0.00     0.188 C 
BRANCH  35  36
ATOM     36  O   UNL A   1      36.268  32.380  33.915  1.00  0.00    -0.376 OA
BRANCH  36  37
ATOM     37  C   UNL A   1      37.610  32.412  34.378  1.00  0.00     0.202 C 
BRANCH  37  38
ATOM     38  C   UNL A   1      38.025  31.157  35.153  1.00  0.00     0.261 C 
BRANCH  38  39
ATOM     39  O   UNL A   1      38.955  30.300  34.473  1.00  0.00    -0.460 OA
BRANCH  39  40
ATOM     40  C   UNL A   1      38.698  29.996  33.180  1.00  0.00     0.338 C 
ATOM     41  O   UNL A   1      37.659  29.549  32.724  1.00  0.00    -0.246 OA
BRANCH  40  42
ATOM     42  C   UNL A   1      39.843  30.485  32.384  1.00  0.00     0.060 A 
ATOM     43  C   UNL A   1      39.739  30.565  30.993  1.00  0.00     0.016 A 
ATOM     44  C   UNL A   1      41.043  30.810  33.027  1.00  0.00     0.016 A 
ATOM     45  C   UNL A   1      40.835  30.994  30.245  1.00  0.00     0.010 A 
ATOM     46  C   UNL A   1      42.143  31.235  32.275  1.00  0.00     0.010 A 
ATOM     47  C   UNL A   1      42.038  31.350  30.880  1.00  0.00    -0.014 A 
BRANCH  47  48
ATOM     48  C   UNL A   1      43.096  32.030  30.095  1.00  0.00     0.031 A 
ATOM     49  C   UNL A   1      43.048  33.491  29.768  1.00  0.00     0.074 A 
ATOM     50  C   UNL A   1      44.129  31.277  29.669  1.00  0.00     0.049 A 
ATOM     51  N   UNL A   1      43.965  34.225  29.192  1.00  0.00    -0.248 NA
ATOM     52  C   UNL A   1      41.824  34.225  30.122  1.00  0.00     0.031 C 
ATOM     53  C   UNL A   1      44.250  29.832  29.875  1.00  0.00     0.029 A 
ATOM     54  N   UNL A   1      45.265  31.614  28.981  1.00  0.00    -0.354 N 
ATOM     55  C   UNL A   1      43.437  35.505  29.105  1.00  0.00     0.074 A 
ATOM     56  C   UNL A   1      42.107  35.445  29.677  1.00  0.00     0.031 C 
ATOM     57  C   UNL A   1      45.402  29.408  29.337  1.00  0.00     0.029 A 
ATOM     58  C   UNL A   1      46.095  30.546  28.741  1.00  0.00     0.049 A 
ATOM     59  H   UNL A   1      45.467  32.532  28.687  1.00  0.00     0.167 HD
ATOM     60  C   UNL A   1      44.020  36.624  28.613  1.00  0.00     0.034 A 
ATOM     61  C   UNL A   1      47.289  30.484  28.123  1.00  0.00     0.034 A 
ATOM     62  C   UNL A   1      45.349  36.677  28.062  1.00  0.00     0.049 A 
ATOM     63  C   UNL A   1      47.921  31.743  27.608  1.00  0.00     0.074 A 
ATOM     64  C   UNL A   1      46.047  37.787  27.617  1.00  0.00     0.029 A 
ATOM     65  N   UNL A   1      46.173  35.581  27.859  1.00  0.00    -0.354 N 
ATOM     66  N   UNL A   1      47.472  32.971  27.681  1.00  0.00    -0.248 NA
ATOM     67  C   UNL A   1      49.231  31.616  26.955  1.00  0.00     0.031 C 
ATOM     68  C   UNL A   1      47.286  37.360  27.128  1.00  0.00     0.029 A 
ATOM     69  C   UNL A   1      47.365  35.986  27.283  1.00  0.00     0.049 A 
ATOM     70  H   UNL A   1      45.944  34.652  28.091  1.00  0.00     0.167 HD
ATOM     71  C   UNL A   1      48.450  33.768  27.100  1.00  0.00     0.074 A 
ATOM     72  C   UNL A   1      49.523  32.885  26.693  1.00  0.00     0.031 C 
ATOM     73  C   UNL A   1      48.446  35.109  26.914  1.00  0.00     0.034 A 
BRANCH  60  74
ATOM     74  C   UNL A   1      43.263  37.921  28.702  1.00  0.00     0.023 A 
ATOM     75  C   UNL A   1      43.401  38.711  29.861  1.00  0.00     0.012 A 
ATOM     76  C   UNL A   1      42.546  38.424  27.599  1.00  0.00     0.148 A 
ATOM     77  C   UNL A   1      42.832  39.983  29.923  1.00  0.00     0.002 A 
ATOM     78  C   UNL A   1      42.002  39.703  27.659  1.00  0.00     0.091 A 
ATOM     79  F   UNL A   1      42.426  37.652  26.510  1.00  0.00    -0.205 F 
ATOM     80  C   UNL A   1      42.143  40.481  28.820  1.00  0.00     0.022 A 
BRANCH  78  81
ATOM     81  S   UNL A   1      41.143  40.465  26.277  1.00  0.00     0.127 S 
ATOM     82  O   UNL A   1      42.242  41.144  25.589  1.00  0.00    -0.237 OA
ATOM     83  O   UNL A   1      40.608  39.302  25.570  1.00  0.00    -0.237 OA
ATOM     84  O   UNL A   1      40.140  41.345  26.860  1.00  0.00    -0.744 OA
ENDBRANCH  78  81
ENDBRANCH  60  74
BRANCH  61  85
ATOM     85  C   UNL A   1      47.985  29.174  28.040  1.00  0.00     0.023 A 
ATOM     86  C   UNL A   1      47.828  28.384  26.885  1.00  0.00     0.012 A 
ATOM     87  C   UNL A   1      48.877  28.762  29.049  1.00  0.00     0.148 A 
ATOM     88  C   UNL A   1      48.547  27.198  26.739  1.00  0.00     0.002 A 
ATOM     89  C   UNL A   1      49.617  27.600  28.879  1.00  0.00     0.091 A 
ATOM     90  F   UNL A   1      49.007  29.539  30.133  1.00  0.00    -0.205 F 
ATOM     91  C   UNL A   1      49.447  26.812  27.730  1.00  0.00     0.022 A 
BRANCH  89  92
ATOM     92  S   UNL A   1      50.878  27.075  30.045  1.00  0.00     0.127 S 
ATOM     93  O   UNL A   1      51.338  25.826  29.443  1.00  0.00    -0.237 OA
ATOM     94  O   UNL A   1      51.830  28.183  29.972  1.00  0.00    -0.237 OA
ATOM     95  O   UNL A   1      50.202  26.937  31.327  1.00  0.00    -0.744 OA
ENDBRANCH  89  92
ENDBRANCH  61  85
BRANCH  73  96
ATOM     96  C   UNL A   1      49.635  35.734  26.236  1.00  0.00     0.023 A 
ATOM     97  C   UNL A   1      49.731  35.684  24.832  1.00  0.00     0.012 A 
ATOM     98  C   UNL A   1      50.577  36.476  26.973  1.00  0.00     0.148 A 
ATOM     99  C   UNL A   1      50.754  36.363  24.170  1.00  0.00     0.002 A 
ATOM    100  C   UNL A   1      51.573  37.178  26.305  1.00  0.00     0.091 A 
ATOM    101  F   UNL A   1      50.466  36.500  28.309  1.00  0.00    -0.205 F 
ATOM    102  C   UNL A   1      51.665  37.119  24.904  1.00  0.00     0.022 A 
BRANCH 100 103
ATOM    103  S   UNL A   1      52.751  38.237  27.153  1.00  0.00     0.127 S 
ATOM    104  O   UNL A   1      51.900  39.347  27.580  1.00  0.00    -0.237 OA
ATOM    105  O   UNL A   1      53.216  37.373  28.239  1.00  0.00    -0.237 OA
ATOM    106  O   UNL A   1      53.767  38.583  26.169  1.00  0.00    -0.744 OA
ENDBRANCH 100 103
ENDBRANCH  73  96
ENDBRANCH  47  48
ENDBRANCH  40  42
ENDBRANCH  39  40
ENDBRANCH  38  39
ENDBRANCH  37  38
ENDBRANCH  36  37
ENDBRANCH  35  36
ENDBRANCH  34  35
ENDBRANCH  33  34
ENDBRANCH   1  33
TORSDOF 27
ENDMDL
