MODEL 1
REMARK VINA RESULT:     -10.1      0.000      0.000
REMARK SMILES O=C(OCCOCCOCCOCCOC(=O)c1cc(-c2cccc(Cl)c2)ccc1Cl)c1ccc(-c2c3nc(c(-c4cccc(S(=O)(=O)[O-])c4F)c4ccc([nH]4)c(-c4cccc(S(=O)(=O)[O-])c4F)c4nc(c(-c5cccc(S(=O)(=O)[O-])c5F)c5ccc2[nH]5)C=C4)C=C3)cc1
REMARK SMILES IDX 8 1 7 2 6 3 5 4 4 5 3 6 2 7 1 8 32 9 33 10 94 11 34 12 93 13
REMARK SMILES IDX 35 14 36 15 37 16 87 17 38 18 92 19 86 20 88 21 39 22 91 23
REMARK SMILES IDX 85 24 84 25 40 27 72 28 52 29 71 30 53 31 56 32 70 33 89 34
REMARK SMILES IDX 54 35 55 36 69 38 90 39 57 40 41 41 42 42 50 43 43 44 45 45
REMARK SMILES IDX 51 46 44 47 46 48 47 49 48 50 49 51 73 52 74 53 82 54 75 55
REMARK SMILES IDX 77 56 83 57 76 58 78 59 79 60 80 61 81 62 58 63 59 64 67 65
REMARK SMILES IDX 60 66 62 67 68 68 61 69 63 70 64 71 65 72 66 73 9 74 10 75
REMARK SMILES IDX 11 76 12 77 13 78 14 79 15 80 16 81 17 82 18 83 19 84 30 85
REMARK SMILES IDX 20 86 29 87 31 88 28 89 21 90 22 91 27 92 23 93 25 94 24 95
REMARK SMILES IDX 26 96
REMARK H PARENT 88 26 56 37
REMARK Flexibility Score: inf
ROOT
ATOM      1  C   UNL A   1      33.961  23.557  23.724  1.00  0.00     0.188 C 
ENDROOT
BRANCH   1   2
ATOM      2  C   UNL A   1      34.644  22.197  23.579  1.00  0.00     0.188 C 
BRANCH   2   3
ATOM      3  O   UNL A   1      35.361  21.858  24.768  1.00  0.00    -0.376 OA
BRANCH   3   4
ATOM      4  C   UNL A   1      35.554  20.464  25.004  1.00  0.00     0.202 C 
BRANCH   4   5
ATOM      5  C   UNL A   1      37.015  20.010  24.985  1.00  0.00     0.261 C 
BRANCH   5   6
ATOM      6  O   UNL A   1      37.931  21.107  25.111  1.00  0.00    -0.460 OA
BRANCH   6   7
ATOM      7  C   UNL A   1      38.933  21.249  26.019  1.00  0.00     0.338 C 
ATOM      8  O   UNL A   1      39.464  20.228  26.456  1.00  0.00    -0.246 OA
BRANCH   7   9
ATOM      9  C   UNL A   1      39.440  22.571  26.511  1.00  0.00     0.060 A 
ATOM     10  C   UNL A   1      38.966  23.821  26.110  1.00  0.00     0.016 A 
ATOM     11  C   UNL A   1      40.445  22.542  27.493  1.00  0.00     0.016 A 
ATOM     12  C   UNL A   1      39.524  25.000  26.574  1.00  0.00     0.010 A 
ATOM     13  C   UNL A   1      40.997  23.725  27.994  1.00  0.00     0.010 A 
ATOM     14  C   UNL A   1      40.564  24.957  27.493  1.00  0.00    -0.014 A 
BRANCH  14  15
ATOM     15  C   UNL A   1      41.300  26.209  27.727  1.00  0.00     0.031 A 
ATOM     16  C   UNL A   1      40.632  27.255  28.568  1.00  0.00     0.074 A 
ATOM     17  C   UNL A   1      42.581  26.320  27.336  1.00  0.00     0.049 A 
ATOM     18  N   UNL A   1      41.056  28.439  28.909  1.00  0.00    -0.248 NA
ATOM     19  C   UNL A   1      39.307  26.909  29.119  1.00  0.00     0.031 C 
ATOM     20  C   UNL A   1      43.341  25.284  26.632  1.00  0.00     0.029 A 
ATOM     21  N   UNL A   1      43.477  27.342  27.497  1.00  0.00    -0.354 N 
ATOM     22  C   UNL A   1      40.029  29.000  29.657  1.00  0.00     0.074 A 
ATOM     23  C   UNL A   1      38.969  28.024  29.742  1.00  0.00     0.031 C 
ATOM     24  C   UNL A   1      44.592  25.725  26.422  1.00  0.00     0.029 A 
ATOM     25  C   UNL A   1      44.699  27.092  26.918  1.00  0.00     0.049 A 
ATOM     26  H   UNL A   1      43.267  28.174  27.979  1.00  0.00     0.167 HD
ATOM     27  C   UNL A   1      39.980  30.230  30.215  1.00  0.00     0.034 A 
ATOM     28  C   UNL A   1      45.764  27.905  26.778  1.00  0.00     0.034 A 
ATOM     29  C   UNL A   1      41.062  31.168  30.126  1.00  0.00     0.049 A 
ATOM     30  C   UNL A   1      45.659  29.293  27.353  1.00  0.00     0.074 A 
ATOM     31  C   UNL A   1      41.128  32.463  30.598  1.00  0.00     0.029 A 
ATOM     32  N   UNL A   1      42.277  30.897  29.508  1.00  0.00    -0.354 N 
ATOM     33  N   UNL A   1      44.681  29.826  28.049  1.00  0.00    -0.248 NA
ATOM     34  C   UNL A   1      46.801  30.189  27.137  1.00  0.00     0.031 C 
ATOM     35  C   UNL A   1      42.375  32.985  30.241  1.00  0.00     0.029 A 
ATOM     36  C   UNL A   1      43.100  32.003  29.579  1.00  0.00     0.049 A 
ATOM     37  H   UNL A   1      42.517  30.042  29.083  1.00  0.00     0.167 HD
ATOM     38  C   UNL A   1      45.097  31.109  28.375  1.00  0.00     0.074 A 
ATOM     39  C   UNL A   1      46.430  31.262  27.820  1.00  0.00     0.031 C 
ATOM     40  C   UNL A   1      44.440  32.084  29.052  1.00  0.00     0.034 A 
BRANCH  27  41
ATOM     41  C   UNL A   1      38.704  30.618  30.910  1.00  0.00     0.023 A 
ATOM     42  C   UNL A   1      38.480  30.247  32.252  1.00  0.00     0.012 A 
ATOM     43  C   UNL A   1      37.701  31.317  30.210  1.00  0.00     0.148 A 
ATOM     44  C   UNL A   1      37.263  30.530  32.872  1.00  0.00     0.002 A 
ATOM     45  C   UNL A   1      36.508  31.633  30.848  1.00  0.00     0.091 A 
ATOM     46  F   UNL A   1      37.921  31.632  28.926  1.00  0.00    -0.205 F 
ATOM     47  C   UNL A   1      36.280  31.227  32.172  1.00  0.00     0.022 A 
BRANCH  45  48
ATOM     48  S   UNL A   1      35.202  32.573  30.049  1.00  0.00     0.127 S 
ATOM     49  O   UNL A   1      34.230  32.708  31.132  1.00  0.00    -0.237 OA
ATOM     50  O   UNL A   1      35.895  33.812  29.692  1.00  0.00    -0.237 OA
ATOM     51  O   UNL A   1      34.765  31.772  28.914  1.00  0.00    -0.744 OA
ENDBRANCH  45  48
ENDBRANCH  27  41
BRANCH  28  52
ATOM     52  C   UNL A   1      46.987  27.438  26.064  1.00  0.00     0.023 A 
ATOM     53  C   UNL A   1      47.140  27.697  24.688  1.00  0.00     0.012 A 
ATOM     54  C   UNL A   1      48.013  26.750  26.745  1.00  0.00     0.148 A 
ATOM     55  C   UNL A   1      48.274  27.257  24.000  1.00  0.00     0.002 A 
ATOM     56  C   UNL A   1      49.165  26.366  26.068  1.00  0.00     0.091 A 
ATOM     57  F   UNL A   1      47.845  26.488  28.049  1.00  0.00    -0.205 F 
ATOM     58  C   UNL A   1      49.290  26.603  24.691  1.00  0.00     0.022 A 
BRANCH  56  59
ATOM     59  S   UNL A   1      50.575  25.632  26.907  1.00  0.00     0.127 S 
ATOM     60  O   UNL A   1      50.002  24.391  27.422  1.00  0.00    -0.237 OA
ATOM     61  O   UNL A   1      51.527  25.462  25.810  1.00  0.00    -0.237 OA
ATOM     62  O   UNL A   1      50.985  26.606  27.909  1.00  0.00    -0.744 OA
ENDBRANCH  56  59
ENDBRANCH  28  52
BRANCH  40  63
ATOM     63  C   UNL A   1      45.170  33.381  29.264  1.00  0.00     0.023 A 
ATOM     64  C   UNL A   1      45.965  33.558  30.412  1.00  0.00     0.012 A 
ATOM     65  C   UNL A   1      45.138  34.380  28.272  1.00  0.00     0.148 A 
ATOM     66  C   UNL A   1      46.696  34.731  30.585  1.00  0.00     0.002 A 
ATOM     67  C   UNL A   1      45.912  35.520  28.426  1.00  0.00     0.091 A 
ATOM     68  F   UNL A   1      44.356  34.193  27.199  1.00  0.00    -0.205 F 
ATOM     69  C   UNL A   1      46.682  35.704  29.587  1.00  0.00     0.022 A 
BRANCH  67  70
ATOM     70  S   UNL A   1      46.039  36.766  27.140  1.00  0.00     0.127 S 
ATOM     71  O   UNL A   1      46.538  35.982  26.013  1.00  0.00    -0.237 OA
ATOM     72  O   UNL A   1      44.652  37.215  27.007  1.00  0.00    -0.237 OA
ATOM     73  O   UNL A   1      46.951  37.779  27.653  1.00  0.00    -0.744 OA
ENDBRANCH  67  70
ENDBRANCH  40  63
ENDBRANCH  14  15
ENDBRANCH   7   9
ENDBRANCH   6   7
ENDBRANCH   5   6
ENDBRANCH   4   5
ENDBRANCH   3   4
ENDBRANCH   2   3
ENDBRANCH   1   2
BRANCH   1  74
ATOM     74  O   UNL A   1      32.535  23.507  23.709  1.00  0.00    -0.377 OA
BRANCH  74  75
ATOM     75  C   UNL A   1      31.889  24.272  22.696  1.00  0.00     0.188 C 
BRANCH  75  76
ATOM     76  C   UNL A   1      32.759  25.058  21.689  1.00  0.00     0.188 C 
BRANCH  76  77
ATOM     77  O   UNL A   1      32.573  26.459  21.763  1.00  0.00    -0.376 OA
BRANCH  77  78
ATOM     78  C   UNL A   1      33.658  27.215  22.282  1.00  0.00     0.202 C 
BRANCH  78  79
ATOM     79  C   UNL A   1      33.527  28.748  22.289  1.00  0.00     0.261 C 
BRANCH  79  80
ATOM     80  O   UNL A   1      32.931  29.329  23.463  1.00  0.00    -0.460 OA
BRANCH  80  81
ATOM     81  C   UNL A   1      31.600  29.234  23.678  1.00  0.00     0.339 C 
ATOM     82  O   UNL A   1      30.702  29.408  22.873  1.00  0.00    -0.246 OA
BRANCH  81  83
ATOM     83  C   UNL A   1      31.431  28.644  25.030  1.00  0.00     0.079 A 
ATOM     84  C   UNL A   1      31.289  27.241  25.127  1.00  0.00     0.026 A 
ATOM     85  C   UNL A   1      31.614  29.409  26.186  1.00  0.00     0.055 A 
ATOM     86  C   UNL A   1      31.419  26.595  26.370  1.00  0.00    -0.017 A 
ATOM     87  C   UNL A   1      31.687  28.775  27.428  1.00  0.00     0.022 A 
ATOM     88  Cl  UNL A   1      31.763  31.130  26.155  1.00  0.00    -0.083 Cl
ATOM     89  C   UNL A   1      31.607  27.383  27.516  1.00  0.00     0.010 A 
BRANCH  86  90
ATOM     90  C   UNL A   1      31.447  25.132  26.495  1.00  0.00    -0.017 A 
ATOM     91  C   UNL A   1      30.306  24.364  26.222  1.00  0.00     0.009 A 
ATOM     92  C   UNL A   1      32.593  24.475  26.979  1.00  0.00     0.029 A 
ATOM     93  C   UNL A   1      30.300  22.982  26.438  1.00  0.00     0.002 A 
ATOM     94  C   UNL A   1      32.584  23.094  27.191  1.00  0.00     0.041 A 
ATOM     95  C   UNL A   1      31.441  22.345  26.927  1.00  0.00     0.020 A 
ATOM     96  Cl  UNL A   1      33.991  22.316  27.809  1.00  0.00    -0.084 Cl
ENDBRANCH  86  90
ENDBRANCH  81  83
ENDBRANCH  80  81
ENDBRANCH  79  80
ENDBRANCH  78  79
ENDBRANCH  77  78
ENDBRANCH  76  77
ENDBRANCH  75  76
ENDBRANCH  74  75
ENDBRANCH   1  74
TORSDOF 24
ENDMDL
MODEL 2
REMARK VINA RESULT:      -9.0      2.677      4.723
REMARK SMILES O=C(OCCOCCOCCOCCOC(=O)c1cc(-c2cccc(Cl)c2)ccc1Cl)c1ccc(-c2c3nc(c(-c4cccc(S(=O)(=O)[O-])c4F)c4ccc([nH]4)c(-c4cccc(S(=O)(=O)[O-])c4F)c4nc(c(-c5cccc(S(=O)(=O)[O-])c5F)c5ccc2[nH]5)C=C4)C=C3)cc1
REMARK SMILES IDX 8 1 7 2 6 3 5 4 4 5 3 6 2 7 1 8 32 9 33 10 94 11 34 12 93 13
REMARK SMILES IDX 35 14 36 15 37 16 87 17 38 18 92 19 86 20 88 21 39 22 91 23
REMARK SMILES IDX 85 24 84 25 40 27 72 28 52 29 71 30 53 31 56 32 70 33 89 34
REMARK SMILES IDX 54 35 55 36 69 38 90 39 57 40 41 41 42 42 50 43 43 44 45 45
REMARK SMILES IDX 51 46 44 47 46 48 47 49 48 50 49 51 73 52 74 53 82 54 75 55
REMARK SMILES IDX 77 56 83 57 76 58 78 59 79 60 80 61 81 62 58 63 59 64 67 65
REMARK SMILES IDX 60 66 62 67 68 68 61 69 63 70 64 71 65 72 66 73 9 74 10 75
REMARK SMILES IDX 11 76 12 77 13 78 14 79 15 80 16 81 17 82 18 83 19 84 30 85
REMARK SMILES IDX 20 86 29 87 31 88 28 89 21 90 22 91 27 92 23 93 25 94 24 95
REMARK SMILES IDX 26 96
REMARK H PARENT 88 26 56 37
REMARK Flexibility Score: inf
ROOT
ATOM      1  C   UNL A   1      38.783  20.904  25.751  1.00  0.00     0.188 C 
ENDROOT
BRANCH   1   2
ATOM      2  C   UNL A   1      39.974  19.959  25.903  1.00  0.00     0.188 C 
BRANCH   2   3
ATOM      3  O   UNL A   1      40.825  20.379  26.970  1.00  0.00    -0.376 OA
BRANCH   3   4
ATOM      4  C   UNL A   1      41.956  19.549  27.231  1.00  0.00     0.202 C 
BRANCH   4   5
ATOM      5  C   UNL A   1      42.335  18.607  26.085  1.00  0.00     0.261 C 
BRANCH   5   6
ATOM      6  O   UNL A   1      42.911  19.304  24.972  1.00  0.00    -0.460 OA
BRANCH   6   7
ATOM      7  C   UNL A   1      44.036  20.067  24.965  1.00  0.00     0.338 C 
ATOM      8  O   UNL A   1      45.081  19.550  24.569  1.00  0.00    -0.246 OA
BRANCH   7   9
ATOM      9  C   UNL A   1      44.082  21.501  25.399  1.00  0.00     0.060 A 
ATOM     10  C   UNL A   1      43.833  22.604  24.580  1.00  0.00     0.016 A 
ATOM     11  C   UNL A   1      44.353  21.748  26.755  1.00  0.00     0.016 A 
ATOM     12  C   UNL A   1      43.946  23.903  25.044  1.00  0.00     0.010 A 
ATOM     13  C   UNL A   1      44.440  23.055  27.246  1.00  0.00     0.010 A 
ATOM     14  C   UNL A   1      44.282  24.134  26.372  1.00  0.00    -0.014 A 
BRANCH  14  15
ATOM     15  C   UNL A   1      44.667  25.508  26.733  1.00  0.00     0.031 A 
ATOM     16  C   UNL A   1      43.621  26.372  27.370  1.00  0.00     0.074 A 
ATOM     17  C   UNL A   1      45.951  25.893  26.643  1.00  0.00     0.049 A 
ATOM     18  N   UNL A   1      43.699  27.611  27.766  1.00  0.00    -0.248 NA
ATOM     19  C   UNL A   1      42.307  25.744  27.613  1.00  0.00     0.031 C 
ATOM     20  C   UNL A   1      47.052  25.055  26.160  1.00  0.00     0.029 A 
ATOM     21  N   UNL A   1      46.553  27.076  26.976  1.00  0.00    -0.354 N 
ATOM     22  C   UNL A   1      42.434  27.929  28.243  1.00  0.00     0.074 A 
ATOM     23  C   UNL A   1      41.609  26.751  28.110  1.00  0.00     0.031 C 
ATOM     24  C   UNL A   1      48.197  25.752  26.230  1.00  0.00     0.029 A 
ATOM     25  C   UNL A   1      47.900  27.100  26.699  1.00  0.00     0.049 A 
ATOM     26  H   UNL A   1      46.069  27.835  27.374  1.00  0.00     0.167 HD
ATOM     27  C   UNL A   1      42.002  29.109  28.741  1.00  0.00     0.034 A 
ATOM     28  C   UNL A   1      48.774  28.120  26.783  1.00  0.00     0.034 A 
ATOM     29  C   UNL A   1      42.855  30.254  28.875  1.00  0.00     0.049 A 
ATOM     30  C   UNL A   1      48.253  29.444  27.281  1.00  0.00     0.074 A 
ATOM     31  C   UNL A   1      42.539  31.524  29.313  1.00  0.00     0.029 A 
ATOM     32  N   UNL A   1      44.209  30.257  28.560  1.00  0.00    -0.354 N 
ATOM     33  N   UNL A   1      47.052  29.745  27.719  1.00  0.00    -0.248 NA
ATOM     34  C   UNL A   1      49.202  30.563  27.306  1.00  0.00     0.031 C 
ATOM     35  C   UNL A   1      43.698  32.303  29.237  1.00  0.00     0.029 A 
ATOM     36  C   UNL A   1      44.744  31.510  28.786  1.00  0.00     0.049 A 
ATOM     37  H   UNL A   1      44.713  29.481  28.224  1.00  0.00     0.167 HD
ATOM     38  C   UNL A   1      47.106  31.080  28.096  1.00  0.00     0.074 A 
ATOM     39  C   UNL A   1      48.467  31.520  27.857  1.00  0.00     0.031 C 
ATOM     40  C   UNL A   1      46.122  31.880  28.577  1.00  0.00     0.034 A 
BRANCH  27  41
ATOM     41  C   UNL A   1      40.548  29.205  29.114  1.00  0.00     0.023 A 
ATOM     42  C   UNL A   1      39.577  29.493  28.134  1.00  0.00     0.012 A 
ATOM     43  C   UNL A   1      40.151  29.051  30.457  1.00  0.00     0.148 A 
ATOM     44  C   UNL A   1      38.239  29.668  28.492  1.00  0.00     0.002 A 
ATOM     45  C   UNL A   1      38.811  29.185  30.799  1.00  0.00     0.091 A 
ATOM     46  F   UNL A   1      41.094  28.810  31.378  1.00  0.00    -0.205 F 
ATOM     47  C   UNL A   1      37.857  29.508  29.822  1.00  0.00     0.022 A 
BRANCH  45  48
ATOM     48  S   UNL A   1      38.211  28.947  32.475  1.00  0.00     0.127 S 
ATOM     49  O   UNL A   1      38.962  29.965  33.206  1.00  0.00    -0.237 OA
ATOM     50  O   UNL A   1      36.782  29.229  32.329  1.00  0.00    -0.237 OA
ATOM     51  O   UNL A   1      38.526  27.568  32.824  1.00  0.00    -0.744 OA
ENDBRANCH  45  48
ENDBRANCH  27  41
BRANCH  28  52
ATOM     52  C   UNL A   1      50.199  27.936  26.381  1.00  0.00     0.023 A 
ATOM     53  C   UNL A   1      51.164  27.597  27.350  1.00  0.00     0.012 A 
ATOM     54  C   UNL A   1      50.603  28.077  25.038  1.00  0.00     0.148 A 
ATOM     55  C   UNL A   1      52.505  27.432  26.993  1.00  0.00     0.002 A 
ATOM     56  C   UNL A   1      51.928  27.854  24.680  1.00  0.00     0.091 A 
ATOM     57  F   UNL A   1      49.679  28.422  24.129  1.00  0.00    -0.205 F 
ATOM     58  C   UNL A   1      52.884  27.548  25.659  1.00  0.00     0.022 A 
BRANCH  56  59
ATOM     59  S   UNL A   1      52.476  27.860  22.968  1.00  0.00     0.127 S 
ATOM     60  O   UNL A   1      52.256  29.253  22.589  1.00  0.00    -0.237 OA
ATOM     61  O   UNL A   1      53.880  27.471  23.098  1.00  0.00    -0.237 OA
ATOM     62  O   UNL A   1      51.644  26.877  22.287  1.00  0.00    -0.744 OA
ENDBRANCH  56  59
ENDBRANCH  28  52
BRANCH  40  63
ATOM     63  C   UNL A   1      46.497  33.296  28.914  1.00  0.00     0.023 A 
ATOM     64  C   UNL A   1      47.004  33.602  30.191  1.00  0.00     0.012 A 
ATOM     65  C   UNL A   1      46.432  34.298  27.927  1.00  0.00     0.148 A 
ATOM     66  C   UNL A   1      47.414  34.899  30.491  1.00  0.00     0.002 A 
ATOM     67  C   UNL A   1      46.894  35.573  28.217  1.00  0.00     0.091 A 
ATOM     68  F   UNL A   1      45.925  33.983  26.726  1.00  0.00    -0.205 F 
ATOM     69  C   UNL A   1      47.373  35.880  29.501  1.00  0.00     0.022 A 
BRANCH  67  70
ATOM     70  S   UNL A   1      46.982  36.861  26.969  1.00  0.00     0.127 S 
ATOM     71  O   UNL A   1      45.623  37.396  26.997  1.00  0.00    -0.237 OA
ATOM     72  O   UNL A   1      48.003  37.755  27.519  1.00  0.00    -0.237 OA
ATOM     73  O   UNL A   1      47.370  36.195  25.733  1.00  0.00    -0.744 OA
ENDBRANCH  67  70
ENDBRANCH  40  63
ENDBRANCH  14  15
ENDBRANCH   7   9
ENDBRANCH   6   7
ENDBRANCH   5   6
ENDBRANCH   4   5
ENDBRANCH   3   4
ENDBRANCH   2   3
ENDBRANCH   1   2
BRANCH   1  74
ATOM     74  O   UNL A   1      37.696  20.370  24.994  1.00  0.00    -0.377 OA
BRANCH  74  75
ATOM     75  C   UNL A   1      36.610  21.256  24.742  1.00  0.00     0.188 C 
BRANCH  75  76
ATOM     76  C   UNL A   1      36.209  22.272  25.835  1.00  0.00     0.188 C 
BRANCH  76  77
ATOM     77  O   UNL A   1      35.013  21.926  26.509  1.00  0.00    -0.376 OA
BRANCH  77  78
ATOM     78  C   UNL A   1      34.090  22.980  26.742  1.00  0.00     0.202 C 
BRANCH  78  79
ATOM     79  C   UNL A   1      32.836  22.665  27.577  1.00  0.00     0.261 C 
BRANCH  79  80
ATOM     80  O   UNL A   1      31.625  23.334  27.180  1.00  0.00    -0.460 OA
BRANCH  80  81
ATOM     81  C   UNL A   1      30.798  22.776  26.268  1.00  0.00     0.339 C 
ATOM     82  O   UNL A   1      29.936  21.937  26.460  1.00  0.00    -0.246 OA
BRANCH  81  83
ATOM     83  C   UNL A   1      30.974  23.547  25.011  1.00  0.00     0.079 A 
ATOM     84  C   UNL A   1      30.543  24.893  24.995  1.00  0.00     0.026 A 
ATOM     85  C   UNL A   1      31.723  23.041  23.945  1.00  0.00     0.055 A 
ATOM     86  C   UNL A   1      30.938  25.757  23.957  1.00  0.00    -0.017 A 
ATOM     87  C   UNL A   1      32.069  23.882  22.885  1.00  0.00     0.022 A 
ATOM     88  Cl  UNL A   1      32.259  21.400  23.874  1.00  0.00    -0.083 Cl
ATOM     89  C   UNL A   1      31.694  25.228  22.900  1.00  0.00     0.010 A 
BRANCH  86  90
ATOM     90  C   UNL A   1      30.657  27.198  23.985  1.00  0.00    -0.017 A 
ATOM     91  C   UNL A   1      29.788  27.780  23.051  1.00  0.00     0.009 A 
ATOM     92  C   UNL A   1      31.324  28.041  24.892  1.00  0.00     0.029 A 
ATOM     93  C   UNL A   1      29.597  29.165  23.012  1.00  0.00     0.002 A 
ATOM     94  C   UNL A   1      31.129  29.424  24.851  1.00  0.00     0.041 A 
ATOM     95  C   UNL A   1      30.272  29.991  23.911  1.00  0.00     0.020 A 
ATOM     96  Cl  UNL A   1      31.976  30.439  25.955  1.00  0.00    -0.084 Cl
ENDBRANCH  86  90
ENDBRANCH  81  83
ENDBRANCH  80  81
ENDBRANCH  79  80
ENDBRANCH  78  79
ENDBRANCH  77  78
ENDBRANCH  76  77
ENDBRANCH  75  76
ENDBRANCH  74  75
ENDBRANCH   1  74
TORSDOF 24
ENDMDL
MODEL 3
REMARK VINA RESULT:      -8.5      8.516     13.436
REMARK SMILES O=C(OCCOCCOCCOCCOC(=O)c1cc(-c2cccc(Cl)c2)ccc1Cl)c1ccc(-c2c3nc(c(-c4cccc(S(=O)(=O)[O-])c4F)c4ccc([nH]4)c(-c4cccc(S(=O)(=O)[O-])c4F)c4nc(c(-c5cccc(S(=O)(=O)[O-])c5F)c5ccc2[nH]5)C=C4)C=C3)cc1
REMARK SMILES IDX 8 1 7 2 6 3 5 4 4 5 3 6 2 7 1 8 32 9 33 10 94 11 34 12 93 13
REMARK SMILES IDX 35 14 36 15 37 16 87 17 38 18 92 19 86 20 88 21 39 22 91 23
REMARK SMILES IDX 85 24 84 25 40 27 72 28 52 29 71 30 53 31 56 32 70 33 89 34
REMARK SMILES IDX 54 35 55 36 69 38 90 39 57 40 41 41 42 42 50 43 43 44 45 45
REMARK SMILES IDX 51 46 44 47 46 48 47 49 48 50 49 51 73 52 74 53 82 54 75 55
REMARK SMILES IDX 77 56 83 57 76 58 78 59 79 60 80 61 81 62 58 63 59 64 67 65
REMARK SMILES IDX 60 66 62 67 68 68 61 69 63 70 64 71 65 72 66 73 9 74 10 75
REMARK SMILES IDX 11 76 12 77 13 78 14 79 15 80 16 81 17 82 18 83 19 84 30 85
REMARK SMILES IDX 20 86 29 87 31 88 28 89 21 90 22 91 27 92 23 93 25 94 24 95
REMARK SMILES IDX 26 96
REMARK H PARENT 88 26 56 37
REMARK Flexibility Score: inf
ROOT
ATOM      1  C   UNL A   1      35.755  35.042  32.931  1.00  0.00     0.188 C 
ENDROOT
BRANCH   1   2
ATOM      2  C   UNL A   1      35.242  33.877  32.086  1.00  0.00     0.188 C 
BRANCH   2   3
ATOM      3  O   UNL A   1      36.236  32.858  31.965  1.00  0.00    -0.376 OA
BRANCH   3   4
ATOM      4  C   UNL A   1      35.777  31.516  32.130  1.00  0.00     0.202 C 
BRANCH   4   5
ATOM      5  C   UNL A   1      36.879  30.455  32.093  1.00  0.00     0.261 C 
BRANCH   5   6
ATOM      6  O   UNL A   1      37.905  30.765  31.138  1.00  0.00    -0.460 OA
BRANCH   6   7
ATOM      7  C   UNL A   1      39.243  30.857  31.361  1.00  0.00     0.338 C 
ATOM      8  O   UNL A   1      39.988  30.127  30.707  1.00  0.00    -0.246 OA
BRANCH   7   9
ATOM      9  C   UNL A   1      39.867  31.800  32.344  1.00  0.00     0.060 A 
ATOM     10  C   UNL A   1      40.962  31.513  33.161  1.00  0.00     0.016 A 
ATOM     11  C   UNL A   1      39.330  33.097  32.411  1.00  0.00     0.016 A 
ATOM     12  C   UNL A   1      41.448  32.423  34.083  1.00  0.00     0.010 A 
ATOM     13  C   UNL A   1      39.832  34.038  33.316  1.00  0.00     0.010 A 
ATOM     14  C   UNL A   1      40.864  33.678  34.187  1.00  0.00    -0.014 A 
BRANCH  14  15
ATOM     15  C   UNL A   1      41.226  34.487  35.363  1.00  0.00     0.031 A 
ATOM     16  C   UNL A   1      42.151  35.646  35.144  1.00  0.00     0.074 A 
ATOM     17  C   UNL A   1      40.607  34.281  36.537  1.00  0.00     0.049 A 
ATOM     18  N   UNL A   1      42.631  36.497  36.006  1.00  0.00    -0.248 NA
ATOM     19  C   UNL A   1      42.582  35.890  33.754  1.00  0.00     0.031 C 
ATOM     20  C   UNL A   1      39.590  33.257  36.788  1.00  0.00     0.029 A 
ATOM     21  N   UNL A   1      40.724  34.936  37.734  1.00  0.00    -0.354 N 
ATOM     22  C   UNL A   1      43.465  37.334  35.277  1.00  0.00     0.074 A 
ATOM     23  C   UNL A   1      43.414  36.908  33.899  1.00  0.00     0.031 C 
ATOM     24  C   UNL A   1      39.174  33.353  38.061  1.00  0.00     0.029 A 
ATOM     25  C   UNL A   1      39.940  34.400  38.728  1.00  0.00     0.049 A 
ATOM     26  H   UNL A   1      41.312  35.713  37.869  1.00  0.00     0.167 HD
ATOM     27  C   UNL A   1      44.213  38.365  35.729  1.00  0.00     0.034 A 
ATOM     28  C   UNL A   1      39.888  34.706  40.038  1.00  0.00     0.034 A 
ATOM     29  C   UNL A   1      44.225  38.773  37.104  1.00  0.00     0.049 A 
ATOM     30  C   UNL A   1      40.780  35.817  40.528  1.00  0.00     0.074 A 
ATOM     31  C   UNL A   1      44.973  39.763  37.708  1.00  0.00     0.029 A 
ATOM     32  N   UNL A   1      43.442  38.192  38.094  1.00  0.00    -0.354 N 
ATOM     33  N   UNL A   1      41.578  36.598  39.838  1.00  0.00    -0.248 NA
ATOM     34  C   UNL A   1      40.761  36.097  41.968  1.00  0.00     0.031 C 
ATOM     35  C   UNL A   1      44.660  39.763  39.071  1.00  0.00     0.029 A 
ATOM     36  C   UNL A   1      43.692  38.797  39.310  1.00  0.00     0.049 A 
ATOM     37  H   UNL A   1      42.802  37.458  37.951  1.00  0.00     0.167 HD
ATOM     38  C   UNL A   1      42.138  37.479  40.754  1.00  0.00     0.074 A 
ATOM     39  C   UNL A   1      41.565  37.148  42.045  1.00  0.00     0.031 C 
ATOM     40  C   UNL A   1      43.054  38.460  40.558  1.00  0.00     0.034 A 
BRANCH  27  41
ATOM     41  C   UNL A   1      45.097  39.061  34.729  1.00  0.00     0.023 A 
ATOM     42  C   UNL A   1      46.407  38.599  34.490  1.00  0.00     0.012 A 
ATOM     43  C   UNL A   1      44.634  40.209  34.056  1.00  0.00     0.148 A 
ATOM     44  C   UNL A   1      47.257  39.293  33.628  1.00  0.00     0.002 A 
ATOM     45  C   UNL A   1      45.473  40.870  33.167  1.00  0.00     0.091 A 
ATOM     46  F   UNL A   1      43.398  40.651  34.321  1.00  0.00    -0.205 F 
ATOM     47  C   UNL A   1      46.788  40.423  32.963  1.00  0.00     0.022 A 
BRANCH  45  48
ATOM     48  S   UNL A   1      44.946  42.304  32.222  1.00  0.00     0.127 S 
ATOM     49  O   UNL A   1      43.735  41.803  31.575  1.00  0.00    -0.237 OA
ATOM     50  O   UNL A   1      44.712  43.292  33.276  1.00  0.00    -0.237 OA
ATOM     51  O   UNL A   1      46.047  42.623  31.324  1.00  0.00    -0.744 OA
ENDBRANCH  45  48
ENDBRANCH  27  41
BRANCH  28  52
ATOM     52  C   UNL A   1      38.987  33.954  40.959  1.00  0.00     0.023 A 
ATOM     53  C   UNL A   1      37.729  34.488  41.302  1.00  0.00     0.012 A 
ATOM     54  C   UNL A   1      39.363  32.702  41.488  1.00  0.00     0.148 A 
ATOM     55  C   UNL A   1      36.877  33.803  42.172  1.00  0.00     0.002 A 
ATOM     56  C   UNL A   1      38.487  31.999  42.307  1.00  0.00     0.091 A 
ATOM     57  F   UNL A   1      40.572  32.216  41.173  1.00  0.00    -0.205 F 
ATOM     58  C   UNL A   1      37.250  32.556  42.665  1.00  0.00     0.022 A 
BRANCH  56  59
ATOM     59  S   UNL A   1      38.836  30.332  42.882  1.00  0.00     0.127 S 
ATOM     60  O   UNL A   1      40.292  30.352  42.987  1.00  0.00    -0.237 OA
ATOM     61  O   UNL A   1      38.125  30.298  44.161  1.00  0.00    -0.237 OA
ATOM     62  O   UNL A   1      38.283  29.444  41.868  1.00  0.00    -0.744 OA
ENDBRANCH  56  59
ENDBRANCH  28  52
BRANCH  40  63
ATOM     63  C   UNL A   1      43.458  39.267  41.760  1.00  0.00     0.023 A 
ATOM     64  C   UNL A   1      44.586  38.887  42.513  1.00  0.00     0.012 A 
ATOM     65  C   UNL A   1      42.770  40.454  42.079  1.00  0.00     0.148 A 
ATOM     66  C   UNL A   1      45.006  39.665  43.589  1.00  0.00     0.002 A 
ATOM     67  C   UNL A   1      43.229  41.251  43.117  1.00  0.00     0.091 A 
ATOM     68  F   UNL A   1      41.688  40.780  41.359  1.00  0.00    -0.205 F 
ATOM     69  C   UNL A   1      44.338  40.852  43.882  1.00  0.00     0.022 A 
BRANCH  67  70
ATOM     70  S   UNL A   1      42.496  42.848  43.487  1.00  0.00     0.127 S 
ATOM     71  O   UNL A   1      42.184  43.348  42.150  1.00  0.00    -0.237 OA
ATOM     72  O   UNL A   1      41.330  42.475  44.289  1.00  0.00    -0.237 OA
ATOM     73  O   UNL A   1      43.513  43.595  44.215  1.00  0.00    -0.744 OA
ENDBRANCH  67  70
ENDBRANCH  40  63
ENDBRANCH  14  15
ENDBRANCH   7   9
ENDBRANCH   6   7
ENDBRANCH   5   6
ENDBRANCH   4   5
ENDBRANCH   3   4
ENDBRANCH   2   3
ENDBRANCH   1   2
BRANCH   1  74
ATOM     74  O   UNL A   1      34.740  35.754  33.638  1.00  0.00    -0.377 OA
BRANCH  74  75
ATOM     75  C   UNL A   1      34.041  36.752  32.900  1.00  0.00     0.188 C 
BRANCH  75  76
ATOM     76  C   UNL A   1      32.608  36.448  32.409  1.00  0.00     0.188 C 
BRANCH  76  77
ATOM     77  O   UNL A   1      32.391  36.808  31.058  1.00  0.00    -0.376 OA
BRANCH  77  78
ATOM     78  C   UNL A   1      33.307  36.282  30.108  1.00  0.00     0.202 C 
BRANCH  78  79
ATOM     79  C   UNL A   1      32.818  35.149  29.190  1.00  0.00     0.261 C 
BRANCH  79  80
ATOM     80  O   UNL A   1      33.669  33.991  29.102  1.00  0.00    -0.460 OA
BRANCH  80  81
ATOM     81  C   UNL A   1      34.450  33.792  28.017  1.00  0.00     0.339 C 
ATOM     82  O   UNL A   1      34.894  34.633  27.256  1.00  0.00    -0.246 OA
BRANCH  81  83
ATOM     83  C   UNL A   1      34.869  32.369  28.053  1.00  0.00     0.079 A 
ATOM     84  C   UNL A   1      33.934  31.393  27.638  1.00  0.00     0.026 A 
ATOM     85  C   UNL A   1      36.199  32.006  28.286  1.00  0.00     0.055 A 
ATOM     86  C   UNL A   1      34.348  30.076  27.369  1.00  0.00    -0.017 A 
ATOM     87  C   UNL A   1      36.601  30.685  28.074  1.00  0.00     0.022 A 
ATOM     88  Cl  UNL A   1      37.394  33.130  28.825  1.00  0.00    -0.083 Cl
ATOM     89  C   UNL A   1      35.689  29.736  27.605  1.00  0.00     0.010 A 
BRANCH  86  90
ATOM     90  C   UNL A   1      33.450  29.076  26.777  1.00  0.00    -0.017 A 
ATOM     91  C   UNL A   1      32.387  28.536  27.514  1.00  0.00     0.009 A 
ATOM     92  C   UNL A   1      33.692  28.570  25.487  1.00  0.00     0.029 A 
ATOM     93  C   UNL A   1      31.593  27.511  26.989  1.00  0.00     0.002 A 
ATOM     94  C   UNL A   1      32.895  27.548  24.964  1.00  0.00     0.041 A 
ATOM     95  C   UNL A   1      31.850  27.013  25.711  1.00  0.00     0.020 A 
ATOM     96  Cl  UNL A   1      33.226  26.927  23.392  1.00  0.00    -0.084 Cl
ENDBRANCH  86  90
ENDBRANCH  81  83
ENDBRANCH  80  81
ENDBRANCH  79  80
ENDBRANCH  78  79
ENDBRANCH  77  78
ENDBRANCH  76  77
ENDBRANCH  75  76
ENDBRANCH  74  75
ENDBRANCH   1  74
TORSDOF 24
ENDMDL
