MODEL 1
REMARK VINA RESULT:      -7.3      0.000      0.000
REMARK SMILES O=C(CC1CCN(C(=O)c2ccc3[nH]ccc3c2)CC1)OCCOCCOCCOCCOC(=O)c1ccc(-c2c3nc(c(-c4cccc(S(=O)(=O)[O-])c4F)c4ccc([nH]4)c(-c4cccc(S(=O)(=O)[O-])c4F)c4nc(c(-c5cccc(S(=O)(=O)[O-])c5F)c5ccc2[nH]5)C=C4)C=C3)cc1
REMARK SMILES IDX 28 1 27 2 26 3 25 4 24 5 23 6 22 7 21 8 2 9 1 10 3 11 4 12
REMARK SMILES IDX 5 13 20 14 6 15 19 16 7 17 8 18 9 19 10 20 11 21 18 22 12 23
REMARK SMILES IDX 17 24 13 25 16 26 14 27 15 28 29 30 30 31 31 32 32 33 33 34
REMARK SMILES IDX 34 35 35 36 36 37 37 38 98 39 38 40 97 41 39 42 40 43 41 44
REMARK SMILES IDX 91 45 42 46 96 47 90 48 92 49 43 50 95 51 89 52 88 53 44 55
REMARK SMILES IDX 76 56 56 57 75 58 57 59 60 60 74 61 93 62 58 63 59 64 73 66
REMARK SMILES IDX 94 67 61 68 45 69 46 70 54 71 47 72 49 73 55 74 48 75 50 76
REMARK SMILES IDX 51 77 52 78 53 79 77 80 78 81 86 82 79 83 81 84 87 85 80 86
REMARK SMILES IDX 82 87 83 88 84 89 85 90 62 91 63 92 71 93 64 94 66 95 72 96
REMARK SMILES IDX 65 97 67 98 68 99 69 100 70 101
REMARK H PARENT 14 29 92 54 60 65
REMARK Flexibility Score: inf
ROOT
ATOM      1  C   UNL A   1      36.015  32.937  32.207  1.00  0.00     0.188 C 
ENDROOT
BRANCH   1   2
ATOM      2  O   UNL A   1      35.746  33.089  33.590  1.00  0.00    -0.377 OA
BRANCH   2   3
ATOM      3  C   UNL A   1      36.598  33.976  34.294  1.00  0.00     0.188 C 
BRANCH   3   4
ATOM      4  C   UNL A   1      36.939  33.485  35.695  1.00  0.00     0.188 C 
BRANCH   4   5
ATOM      5  O   UNL A   1      38.070  32.634  35.847  1.00  0.00    -0.376 OA
BRANCH   5   6
ATOM      6  C   UNL A   1      38.898  32.312  34.742  1.00  0.00     0.202 C 
BRANCH   6   7
ATOM      7  C   UNL A   1      39.877  31.146  34.828  1.00  0.00     0.261 C 
BRANCH   7   8
ATOM      8  O   UNL A   1      39.313  29.836  34.757  1.00  0.00    -0.463 OA
BRANCH   8   9
ATOM      9  C   UNL A   1      39.938  28.886  34.019  1.00  0.00     0.306 C 
ATOM     10  O   UNL A   1      39.340  28.261  33.149  1.00  0.00    -0.252 OA
BRANCH   9  11
ATOM     11  C   UNL A   1      41.347  28.525  34.431  1.00  0.00     0.126 C 
BRANCH  11  12
ATOM     12  C   UNL A   1      41.837  27.093  34.195  1.00  0.00     0.003 C 
ATOM     13  C   UNL A   1      41.404  26.175  35.344  1.00  0.00     0.026 C 
ATOM     14  C   UNL A   1      43.322  26.900  33.896  1.00  0.00     0.026 C 
ATOM     15  C   UNL A   1      42.250  26.295  36.608  1.00  0.00     0.120 C 
ATOM     16  C   UNL A   1      44.234  26.507  35.059  1.00  0.00     0.120 C 
ATOM     17  N   UNL A   1      43.668  26.564  36.403  1.00  0.00    -0.339 N 
ATOM     18  C   UNL A   1      44.461  26.676  37.561  1.00  0.00     0.253 C 
ATOM     19  O   UNL A   1      44.001  26.696  38.700  1.00  0.00    -0.269 OA
BRANCH  18  20
ATOM     20  C   UNL A   1      45.924  26.809  37.401  1.00  0.00     0.040 A 
ATOM     21  C   UNL A   1      46.769  26.000  38.164  1.00  0.00     0.016 A 
ATOM     22  C   UNL A   1      46.433  27.772  36.516  1.00  0.00     0.024 A 
ATOM     23  C   UNL A   1      48.154  26.182  38.120  1.00  0.00     0.027 A 
ATOM     24  C   UNL A   1      47.824  27.975  36.471  1.00  0.00     0.000 A 
ATOM     25  C   UNL A   1      48.647  27.191  37.282  1.00  0.00     0.045 A 
ATOM     26  C   UNL A   1      48.669  28.866  35.754  1.00  0.00     0.028 A 
ATOM     27  N   UNL A   1      49.942  27.616  37.077  1.00  0.00    -0.361 N 
ATOM     28  C   UNL A   1      49.964  28.631  36.156  1.00  0.00     0.083 A 
ATOM     29  H   UNL A   1      50.735  27.245  37.526  1.00  0.00     0.166 HD
ENDBRANCH  18  20
ENDBRANCH  11  12
ENDBRANCH   9  11
ENDBRANCH   8   9
ENDBRANCH   7   8
ENDBRANCH   6   7
ENDBRANCH   5   6
ENDBRANCH   4   5
ENDBRANCH   3   4
ENDBRANCH   2   3
ENDBRANCH   1   2
BRANCH   1  30
ATOM     30  C   UNL A   1      34.879  32.314  31.361  1.00  0.00     0.188 C 
BRANCH  30  31
ATOM     31  O   UNL A   1      34.143  33.085  30.416  1.00  0.00    -0.376 OA
BRANCH  31  32
ATOM     32  C   UNL A   1      34.773  33.517  29.225  1.00  0.00     0.202 C 
BRANCH  32  33
ATOM     33  C   UNL A   1      34.945  32.472  28.113  1.00  0.00     0.261 C 
BRANCH  33  34
ATOM     34  O   UNL A   1      34.335  31.198  28.382  1.00  0.00    -0.460 OA
BRANCH  34  35
ATOM     35  C   UNL A   1      34.848  30.133  27.705  1.00  0.00     0.338 C 
ATOM     36  O   UNL A   1      34.371  29.599  26.729  1.00  0.00    -0.246 OA
BRANCH  35  37
ATOM     37  C   UNL A   1      36.217  29.829  28.219  1.00  0.00     0.060 A 
ATOM     38  C   UNL A   1      37.304  30.044  27.357  1.00  0.00     0.016 A 
ATOM     39  C   UNL A   1      36.448  29.384  29.523  1.00  0.00     0.016 A 
ATOM     40  C   UNL A   1      38.614  29.797  27.782  1.00  0.00     0.010 A 
ATOM     41  C   UNL A   1      37.760  29.106  29.940  1.00  0.00     0.010 A 
ATOM     42  C   UNL A   1      38.847  29.284  29.063  1.00  0.00    -0.014 A 
BRANCH  42  43
ATOM     43  C   UNL A   1      40.179  28.723  29.412  1.00  0.00     0.031 A 
ATOM     44  C   UNL A   1      41.051  29.514  30.353  1.00  0.00     0.074 A 
ATOM     45  C   UNL A   1      40.634  27.567  28.893  1.00  0.00     0.049 A 
ATOM     46  N   UNL A   1      42.282  29.289  30.730  1.00  0.00    -0.248 NA
ATOM     47  C   UNL A   1      40.452  30.725  30.942  1.00  0.00     0.031 C 
ATOM     48  C   UNL A   1      39.896  26.693  27.985  1.00  0.00     0.029 A 
ATOM     49  N   UNL A   1      41.858  26.952  29.032  1.00  0.00    -0.354 N 
ATOM     50  C   UNL A   1      42.618  30.346  31.567  1.00  0.00     0.074 A 
ATOM     51  C   UNL A   1      41.460  31.209  31.651  1.00  0.00     0.031 C 
ATOM     52  C   UNL A   1      40.699  25.680  27.607  1.00  0.00     0.029 A 
ATOM     53  C   UNL A   1      42.015  25.849  28.224  1.00  0.00     0.049 A 
ATOM     54  H   UNL A   1      42.554  27.271  29.650  1.00  0.00     0.167 HD
ATOM     55  C   UNL A   1      43.784  30.580  32.212  1.00  0.00     0.034 A 
ATOM     56  C   UNL A   1      43.105  25.090  27.979  1.00  0.00     0.034 A 
ATOM     57  C   UNL A   1      44.932  29.720  32.155  1.00  0.00     0.049 A 
ATOM     58  C   UNL A   1      44.408  25.405  28.678  1.00  0.00     0.074 A 
ATOM     59  C   UNL A   1      46.130  29.846  32.836  1.00  0.00     0.029 A 
ATOM     60  N   UNL A   1      45.038  28.595  31.359  1.00  0.00    -0.354 N 
ATOM     61  N   UNL A   1      44.665  26.321  29.580  1.00  0.00    -0.248 NA
ATOM     62  C   UNL A   1      45.570  24.567  28.334  1.00  0.00     0.031 C 
ATOM     63  C   UNL A   1      46.975  28.812  32.423  1.00  0.00     0.029 A 
ATOM     64  C   UNL A   1      46.294  28.031  31.506  1.00  0.00     0.049 A 
ATOM     65  H   UNL A   1      44.327  28.246  30.774  1.00  0.00     0.167 HD
ATOM     66  C   UNL A   1      46.002  26.150  29.930  1.00  0.00     0.074 A 
ATOM     67  C   UNL A   1      46.496  25.026  29.166  1.00  0.00     0.031 C 
ATOM     68  C   UNL A   1      46.761  26.875  30.788  1.00  0.00     0.034 A 
BRANCH  55  69
ATOM     69  C   UNL A   1      43.881  31.819  33.058  1.00  0.00     0.023 A 
ATOM     70  C   UNL A   1      44.221  33.048  32.462  1.00  0.00     0.012 A 
ATOM     71  C   UNL A   1      43.545  31.776  34.426  1.00  0.00     0.148 A 
ATOM     72  C   UNL A   1      44.237  34.219  33.219  1.00  0.00     0.002 A 
ATOM     73  C   UNL A   1      43.523  32.952  35.163  1.00  0.00     0.091 A 
ATOM     74  F   UNL A   1      43.247  30.589  34.973  1.00  0.00    -0.205 F 
ATOM     75  C   UNL A   1      43.876  34.173  34.563  1.00  0.00     0.022 A 
BRANCH  73  76
ATOM     76  S   UNL A   1      42.999  33.012  36.879  1.00  0.00     0.127 S 
ATOM     77  O   UNL A   1      44.135  33.684  37.511  1.00  0.00    -0.237 OA
ATOM     78  O   UNL A   1      41.781  33.818  36.799  1.00  0.00    -0.237 OA
ATOM     79  O   UNL A   1      42.791  31.630  37.287  1.00  0.00    -0.744 OA
ENDBRANCH  73  76
ENDBRANCH  55  69
BRANCH  56  80
ATOM     80  C   UNL A   1      43.038  23.955  27.012  1.00  0.00     0.023 A 
ATOM     81  C   UNL A   1      43.589  24.100  25.723  1.00  0.00     0.012 A 
ATOM     82  C   UNL A   1      42.395  22.749  27.350  1.00  0.00     0.148 A 
ATOM     83  C   UNL A   1      43.464  23.081  24.777  1.00  0.00     0.002 A 
ATOM     84  C   UNL A   1      42.328  21.715  26.423  1.00  0.00     0.091 A 
ATOM     85  F   UNL A   1      41.847  22.638  28.569  1.00  0.00    -0.205 F 
ATOM     86  C   UNL A   1      42.844  21.886  25.129  1.00  0.00     0.022 A 
BRANCH  84  87
ATOM     87  S   UNL A   1      41.671  20.098  26.843  1.00  0.00     0.127 S 
ATOM     88  O   UNL A   1      41.639  19.440  25.540  1.00  0.00    -0.237 OA
ATOM     89  O   UNL A   1      42.688  19.594  27.768  1.00  0.00    -0.237 OA
ATOM     90  O   UNL A   1      40.379  20.358  27.463  1.00  0.00    -0.744 OA
ENDBRANCH  84  87
ENDBRANCH  56  80
BRANCH  68  91
ATOM     91  C   UNL A   1      48.202  26.473  30.978  1.00  0.00     0.023 A 
ATOM     92  C   UNL A   1      49.191  26.997  30.122  1.00  0.00     0.012 A 
ATOM     93  C   UNL A   1      48.587  25.654  32.059  1.00  0.00     0.148 A 
ATOM     94  C   UNL A   1      50.536  26.690  30.322  1.00  0.00     0.002 A 
ATOM     95  C   UNL A   1      49.934  25.391  32.280  1.00  0.00     0.091 A 
ATOM     96  F   UNL A   1      47.631  25.155  32.856  1.00  0.00    -0.205 F 
ATOM     97  C   UNL A   1      50.909  25.899  31.406  1.00  0.00     0.022 A 
BRANCH  95  98
ATOM     98  S   UNL A   1      50.518  24.460  33.703  1.00  0.00     0.127 S 
ATOM     99  O   UNL A   1      51.959  24.421  33.461  1.00  0.00    -0.237 OA
ATOM    100  O   UNL A   1      50.110  25.313  34.819  1.00  0.00    -0.237 OA
ATOM    101  O   UNL A   1      49.841  23.172  33.645  1.00  0.00    -0.744 OA
ENDBRANCH  95  98
ENDBRANCH  68  91
ENDBRANCH  42  43
ENDBRANCH  35  37
ENDBRANCH  34  35
ENDBRANCH  33  34
ENDBRANCH  32  33
ENDBRANCH  31  32
ENDBRANCH  30  31
ENDBRANCH   1  30
TORSDOF 25
ENDMDL
MODEL 2
REMARK VINA RESULT:      -7.2      5.475     10.191
REMARK SMILES O=C(CC1CCN(C(=O)c2ccc3[nH]ccc3c2)CC1)OCCOCCOCCOCCOC(=O)c1ccc(-c2c3nc(c(-c4cccc(S(=O)(=O)[O-])c4F)c4ccc([nH]4)c(-c4cccc(S(=O)(=O)[O-])c4F)c4nc(c(-c5cccc(S(=O)(=O)[O-])c5F)c5ccc2[nH]5)C=C4)C=C3)cc1
REMARK SMILES IDX 28 1 27 2 26 3 25 4 24 5 23 6 22 7 21 8 2 9 1 10 3 11 4 12
REMARK SMILES IDX 5 13 20 14 6 15 19 16 7 17 8 18 9 19 10 20 11 21 18 22 12 23
REMARK SMILES IDX 17 24 13 25 16 26 14 27 15 28 29 30 30 31 31 32 32 33 33 34
REMARK SMILES IDX 34 35 35 36 36 37 37 38 98 39 38 40 97 41 39 42 40 43 41 44
REMARK SMILES IDX 91 45 42 46 96 47 90 48 92 49 43 50 95 51 89 52 88 53 44 55
REMARK SMILES IDX 76 56 56 57 75 58 57 59 60 60 74 61 93 62 58 63 59 64 73 66
REMARK SMILES IDX 94 67 61 68 45 69 46 70 54 71 47 72 49 73 55 74 48 75 50 76
REMARK SMILES IDX 51 77 52 78 53 79 77 80 78 81 86 82 79 83 81 84 87 85 80 86
REMARK SMILES IDX 82 87 83 88 84 89 85 90 62 91 63 92 71 93 64 94 66 95 72 96
REMARK SMILES IDX 65 97 67 98 68 99 69 100 70 101
REMARK H PARENT 14 29 92 54 60 65
REMARK Flexibility Score: inf
ROOT
ATOM      1  C   UNL A   1      35.730  33.435  30.961  1.00  0.00     0.188 C 
ENDROOT
BRANCH   1   2
ATOM      2  O   UNL A   1      35.255  34.224  29.883  1.00  0.00    -0.377 OA
BRANCH   2   3
ATOM      3  C   UNL A   1      33.863  34.492  29.876  1.00  0.00     0.188 C 
BRANCH   3   4
ATOM      4  C   UNL A   1      33.272  34.520  28.473  1.00  0.00     0.188 C 
BRANCH   4   5
ATOM      5  O   UNL A   1      33.134  33.283  27.782  1.00  0.00    -0.376 OA
BRANCH   5   6
ATOM      6  C   UNL A   1      31.876  32.860  27.282  1.00  0.00     0.202 C 
BRANCH   6   7
ATOM      7  C   UNL A   1      31.751  31.535  26.537  1.00  0.00     0.261 C 
BRANCH   7   8
ATOM      8  O   UNL A   1      32.818  30.603  26.712  1.00  0.00    -0.463 OA
BRANCH   8   9
ATOM      9  C   UNL A   1      32.527  29.304  26.964  1.00  0.00     0.306 C 
ATOM     10  O   UNL A   1      31.696  28.992  27.811  1.00  0.00    -0.252 OA
BRANCH   9  11
ATOM     11  C   UNL A   1      33.388  28.270  26.275  1.00  0.00     0.126 C 
BRANCH  11  12
ATOM     12  C   UNL A   1      32.906  27.682  24.945  1.00  0.00     0.003 C 
ATOM     13  C   UNL A   1      31.380  27.535  24.938  1.00  0.00     0.026 C 
ATOM     14  C   UNL A   1      33.563  26.387  24.471  1.00  0.00     0.026 C 
ATOM     15  C   UNL A   1      30.853  26.326  25.705  1.00  0.00     0.120 C 
ATOM     16  C   UNL A   1      32.835  25.074  24.763  1.00  0.00     0.120 C 
ATOM     17  N   UNL A   1      31.687  25.131  25.663  1.00  0.00    -0.339 N 
ATOM     18  C   UNL A   1      31.213  24.007  26.366  1.00  0.00     0.253 C 
ATOM     19  O   UNL A   1      30.232  24.032  27.104  1.00  0.00    -0.269 OA
BRANCH  18  20
ATOM     20  C   UNL A   1      31.952  22.734  26.238  1.00  0.00     0.040 A 
ATOM     21  C   UNL A   1      32.988  22.455  27.131  1.00  0.00     0.016 A 
ATOM     22  C   UNL A   1      31.622  21.851  25.199  1.00  0.00     0.024 A 
ATOM     23  C   UNL A   1      33.779  21.315  26.966  1.00  0.00     0.027 A 
ATOM     24  C   UNL A   1      32.417  20.706  25.012  1.00  0.00     0.000 A 
ATOM     25  C   UNL A   1      33.482  20.474  25.885  1.00  0.00     0.045 A 
ATOM     26  C   UNL A   1      32.413  19.644  24.066  1.00  0.00     0.028 A 
ATOM     27  N   UNL A   1      34.112  19.324  25.460  1.00  0.00    -0.361 N 
ATOM     28  C   UNL A   1      33.473  18.817  24.358  1.00  0.00     0.083 A 
ATOM     29  H   UNL A   1      34.904  18.924  25.886  1.00  0.00     0.166 HD
ENDBRANCH  18  20
ENDBRANCH  11  12
ENDBRANCH   9  11
ENDBRANCH   8   9
ENDBRANCH   7   8
ENDBRANCH   6   7
ENDBRANCH   5   6
ENDBRANCH   4   5
ENDBRANCH   3   4
ENDBRANCH   2   3
ENDBRANCH   1   2
BRANCH   1  30
ATOM     30  C   UNL A   1      37.035  33.924  31.632  1.00  0.00     0.188 C 
BRANCH  30  31
ATOM     31  O   UNL A   1      37.018  34.650  32.858  1.00  0.00    -0.376 OA
BRANCH  31  32
ATOM     32  C   UNL A   1      35.945  34.469  33.762  1.00  0.00     0.202 C 
BRANCH  32  33
ATOM     33  C   UNL A   1      36.089  33.341  34.793  1.00  0.00     0.261 C 
BRANCH  33  34
ATOM     34  O   UNL A   1      37.253  33.433  35.631  1.00  0.00    -0.460 OA
BRANCH  34  35
ATOM     35  C   UNL A   1      37.882  32.258  35.915  1.00  0.00     0.338 C 
ATOM     36  O   UNL A   1      37.489  31.390  36.662  1.00  0.00    -0.246 OA
BRANCH  35  37
ATOM     37  C   UNL A   1      39.055  32.088  35.005  1.00  0.00     0.060 A 
ATOM     38  C   UNL A   1      38.851  31.410  33.793  1.00  0.00     0.016 A 
ATOM     39  C   UNL A   1      40.317  32.610  35.301  1.00  0.00     0.016 A 
ATOM     40  C   UNL A   1      39.902  31.233  32.888  1.00  0.00     0.010 A 
ATOM     41  C   UNL A   1      41.379  32.405  34.406  1.00  0.00     0.010 A 
ATOM     42  C   UNL A   1      41.185  31.691  33.209  1.00  0.00    -0.014 A 
BRANCH  42  43
ATOM     43  C   UNL A   1      42.360  31.238  32.418  1.00  0.00     0.031 A 
ATOM     44  C   UNL A   1      42.867  32.145  31.328  1.00  0.00     0.074 A 
ATOM     45  C   UNL A   1      42.951  30.045  32.623  1.00  0.00     0.049 A 
ATOM     46  N   UNL A   1      43.806  31.935  30.443  1.00  0.00    -0.248 NA
ATOM     47  C   UNL A   1      42.222  33.465  31.220  1.00  0.00     0.031 C 
ATOM     48  C   UNL A   1      42.577  29.075  33.650  1.00  0.00     0.029 A 
ATOM     49  N   UNL A   1      43.976  29.432  31.939  1.00  0.00    -0.354 N 
ATOM     50  C   UNL A   1      43.838  33.076  29.650  1.00  0.00     0.074 A 
ATOM     51  C   UNL A   1      42.833  33.980  30.163  1.00  0.00     0.031 C 
ATOM     52  C   UNL A   1      43.327  27.967  33.495  1.00  0.00     0.029 A 
ATOM     53  C   UNL A   1      44.214  28.139  32.344  1.00  0.00     0.049 A 
ATOM     54  H   UNL A   1      44.489  29.877  31.226  1.00  0.00     0.167 HD
ATOM     55  C   UNL A   1      44.634  33.351  28.592  1.00  0.00     0.034 A 
ATOM     56  C   UNL A   1      45.022  27.192  31.821  1.00  0.00     0.034 A 
ATOM     57  C   UNL A   1      45.652  32.472  28.089  1.00  0.00     0.049 A 
ATOM     58  C   UNL A   1      45.865  27.513  30.608  1.00  0.00     0.074 A 
ATOM     59  C   UNL A   1      46.553  32.704  27.065  1.00  0.00     0.029 A 
ATOM     60  N   UNL A   1      45.888  31.190  28.550  1.00  0.00    -0.354 N 
ATOM     61  N   UNL A   1      45.991  28.647  29.963  1.00  0.00    -0.248 NA
ATOM     62  C   UNL A   1      46.691  26.422  30.060  1.00  0.00     0.031 C 
ATOM     63  C   UNL A   1      47.313  31.545  26.883  1.00  0.00     0.029 A 
ATOM     64  C   UNL A   1      46.901  30.604  27.811  1.00  0.00     0.049 A 
ATOM     65  H   UNL A   1      45.407  30.759  29.293  1.00  0.00     0.167 HD
ATOM     66  C   UNL A   1      46.927  28.415  28.958  1.00  0.00     0.074 A 
ATOM     67  C   UNL A   1      47.359  27.042  29.095  1.00  0.00     0.031 C 
ATOM     68  C   UNL A   1      47.370  29.256  27.992  1.00  0.00     0.034 A 
BRANCH  55  69
ATOM     69  C   UNL A   1      44.452  34.675  27.903  1.00  0.00     0.023 A 
ATOM     70  C   UNL A   1      43.392  34.849  26.993  1.00  0.00     0.012 A 
ATOM     71  C   UNL A   1      45.277  35.769  28.231  1.00  0.00     0.148 A 
ATOM     72  C   UNL A   1      43.163  36.092  26.406  1.00  0.00     0.002 A 
ATOM     73  C   UNL A   1      45.017  37.014  27.674  1.00  0.00     0.091 A 
ATOM     74  F   UNL A   1      46.293  35.569  29.082  1.00  0.00    -0.205 F 
ATOM     75  C   UNL A   1      43.965  37.176  26.756  1.00  0.00     0.022 A 
BRANCH  73  76
ATOM     76  S   UNL A   1      45.942  38.487  28.118  1.00  0.00     0.127 S 
ATOM     77  O   UNL A   1      45.812  39.293  26.903  1.00  0.00    -0.237 OA
ATOM     78  O   UNL A   1      45.187  38.988  29.266  1.00  0.00    -0.237 OA
ATOM     79  O   UNL A   1      47.294  38.040  28.422  1.00  0.00    -0.744 OA
ENDBRANCH  73  76
ENDBRANCH  55  69
BRANCH  56  80
ATOM     80  C   UNL A   1      45.077  25.825  32.421  1.00  0.00     0.023 A 
ATOM     81  C   UNL A   1      44.275  24.795  31.890  1.00  0.00     0.012 A 
ATOM     82  C   UNL A   1      45.887  25.555  33.540  1.00  0.00     0.148 A 
ATOM     83  C   UNL A   1      44.249  23.534  32.487  1.00  0.00     0.002 A 
ATOM     84  C   UNL A   1      45.903  24.279  34.091  1.00  0.00     0.091 A 
ATOM     85  F   UNL A   1      46.619  26.553  34.053  1.00  0.00    -0.205 F 
ATOM     86  C   UNL A   1      45.070  23.272  33.580  1.00  0.00     0.022 A 
BRANCH  84  87
ATOM     87  S   UNL A   1      47.034  23.823  35.409  1.00  0.00     0.127 S 
ATOM     88  O   UNL A   1      46.644  24.746  36.472  1.00  0.00    -0.237 OA
ATOM     89  O   UNL A   1      46.674  22.423  35.641  1.00  0.00    -0.237 OA
ATOM     90  O   UNL A   1      48.367  24.011  34.854  1.00  0.00    -0.744 OA
ENDBRANCH  84  87
ENDBRANCH  56  80
BRANCH  68  91
ATOM     91  C   UNL A   1      48.394  28.739  27.013  1.00  0.00     0.023 A 
ATOM     92  C   UNL A   1      49.750  28.674  27.391  1.00  0.00     0.012 A 
ATOM     93  C   UNL A   1      48.002  28.231  25.758  1.00  0.00     0.148 A 
ATOM     94  C   UNL A   1      50.703  28.137  26.526  1.00  0.00     0.002 A 
ATOM     95  C   UNL A   1      48.951  27.655  24.920  1.00  0.00     0.091 A 
ATOM     96  F   UNL A   1      46.710  28.312  25.410  1.00  0.00    -0.205 F 
ATOM     97  C   UNL A   1      50.303  27.617  25.297  1.00  0.00     0.022 A 
BRANCH  95  98
ATOM     98  S   UNL A   1      48.516  26.875  23.359  1.00  0.00     0.127 S 
ATOM     99  O   UNL A   1      47.883  25.638  23.811  1.00  0.00    -0.237 OA
ATOM    100  O   UNL A   1      47.599  27.851  22.771  1.00  0.00    -0.237 OA
ATOM    101  O   UNL A   1      49.767  26.706  22.633  1.00  0.00    -0.744 OA
ENDBRANCH  95  98
ENDBRANCH  68  91
ENDBRANCH  42  43
ENDBRANCH  35  37
ENDBRANCH  34  35
ENDBRANCH  33  34
ENDBRANCH  32  33
ENDBRANCH  31  32
ENDBRANCH  30  31
ENDBRANCH   1  30
TORSDOF 25
ENDMDL
MODEL 3
REMARK VINA RESULT:      -7.1      4.464      9.458
REMARK SMILES O=C(CC1CCN(C(=O)c2ccc3[nH]ccc3c2)CC1)OCCOCCOCCOCCOC(=O)c1ccc(-c2c3nc(c(-c4cccc(S(=O)(=O)[O-])c4F)c4ccc([nH]4)c(-c4cccc(S(=O)(=O)[O-])c4F)c4nc(c(-c5cccc(S(=O)(=O)[O-])c5F)c5ccc2[nH]5)C=C4)C=C3)cc1
REMARK SMILES IDX 28 1 27 2 26 3 25 4 24 5 23 6 22 7 21 8 2 9 1 10 3 11 4 12
REMARK SMILES IDX 5 13 20 14 6 15 19 16 7 17 8 18 9 19 10 20 11 21 18 22 12 23
REMARK SMILES IDX 17 24 13 25 16 26 14 27 15 28 29 30 30 31 31 32 32 33 33 34
REMARK SMILES IDX 34 35 35 36 36 37 37 38 98 39 38 40 97 41 39 42 40 43 41 44
REMARK SMILES IDX 91 45 42 46 96 47 90 48 92 49 43 50 95 51 89 52 88 53 44 55
REMARK SMILES IDX 76 56 56 57 75 58 57 59 60 60 74 61 93 62 58 63 59 64 73 66
REMARK SMILES IDX 94 67 61 68 45 69 46 70 54 71 47 72 49 73 55 74 48 75 50 76
REMARK SMILES IDX 51 77 52 78 53 79 77 80 78 81 86 82 79 83 81 84 87 85 80 86
REMARK SMILES IDX 82 87 83 88 84 89 85 90 62 91 63 92 71 93 64 94 66 95 72 96
REMARK SMILES IDX 65 97 67 98 68 99 69 100 70 101
REMARK H PARENT 14 29 92 54 60 65
REMARK Flexibility Score: inf
ROOT
ATOM      1  C   UNL A   1      33.619  35.269  32.513  1.00  0.00     0.188 C 
ENDROOT
BRANCH   1   2
ATOM      2  O   UNL A   1      33.574  33.853  32.483  1.00  0.00    -0.377 OA
BRANCH   2   3
ATOM      3  C   UNL A   1      34.347  33.229  31.473  1.00  0.00     0.188 C 
BRANCH   3   4
ATOM      4  C   UNL A   1      34.329  33.994  30.156  1.00  0.00     0.188 C 
BRANCH   4   5
ATOM      5  O   UNL A   1      34.339  33.242  28.947  1.00  0.00    -0.376 OA
BRANCH   5   6
ATOM      6  C   UNL A   1      35.373  32.313  28.671  1.00  0.00     0.202 C 
BRANCH   6   7
ATOM      7  C   UNL A   1      35.233  31.325  27.517  1.00  0.00     0.261 C 
BRANCH   7   8
ATOM      8  O   UNL A   1      34.093  30.465  27.551  1.00  0.00    -0.463 OA
BRANCH   8   9
ATOM      9  C   UNL A   1      34.261  29.137  27.344  1.00  0.00     0.306 C 
ATOM     10  O   UNL A   1      35.379  28.651  27.207  1.00  0.00    -0.252 OA
BRANCH   9  11
ATOM     11  C   UNL A   1      33.006  28.321  27.126  1.00  0.00     0.126 C 
BRANCH  11  12
ATOM     12  C   UNL A   1      32.669  27.859  25.706  1.00  0.00     0.003 C 
ATOM     13  C   UNL A   1      31.162  27.617  25.556  1.00  0.00     0.026 C 
ATOM     14  C   UNL A   1      33.451  26.671  25.149  1.00  0.00     0.026 C 
ATOM     15  C   UNL A   1      30.668  26.298  26.143  1.00  0.00     0.120 C 
ATOM     16  C   UNL A   1      32.800  25.290  25.236  1.00  0.00     0.120 C 
ATOM     17  N   UNL A   1      31.587  25.171  26.039  1.00  0.00    -0.339 N 
ATOM     18  C   UNL A   1      31.143  23.947  26.575  1.00  0.00     0.253 C 
ATOM     19  O   UNL A   1      30.111  23.825  27.228  1.00  0.00    -0.269 OA
BRANCH  18  20
ATOM     20  C   UNL A   1      31.980  22.745  26.371  1.00  0.00     0.040 A 
ATOM     21  C   UNL A   1      33.110  22.559  27.170  1.00  0.00     0.016 A 
ATOM     22  C   UNL A   1      31.643  21.839  25.354  1.00  0.00     0.024 A 
ATOM     23  C   UNL A   1      33.982  21.494  26.925  1.00  0.00     0.027 A 
ATOM     24  C   UNL A   1      32.519  20.772  25.088  1.00  0.00     0.000 A 
ATOM     25  C   UNL A   1      33.671  20.634  25.865  1.00  0.00     0.045 A 
ATOM     26  C   UNL A   1      32.529  19.717  24.134  1.00  0.00     0.028 A 
ATOM     27  N   UNL A   1      34.362  19.547  25.375  1.00  0.00    -0.361 N 
ATOM     28  C   UNL A   1      33.679  18.987  24.326  1.00  0.00     0.083 A 
ATOM     29  H   UNL A   1      35.221  19.219  25.728  1.00  0.00     0.166 HD
ENDBRANCH  18  20
ENDBRANCH  11  12
ENDBRANCH   9  11
ENDBRANCH   8   9
ENDBRANCH   7   8
ENDBRANCH   6   7
ENDBRANCH   5   6
ENDBRANCH   4   5
ENDBRANCH   3   4
ENDBRANCH   2   3
ENDBRANCH   1   2
BRANCH   1  30
ATOM     30  C   UNL A   1      34.730  35.892  33.392  1.00  0.00     0.188 C 
BRANCH  30  31
ATOM     31  O   UNL A   1      35.767  35.096  33.960  1.00  0.00    -0.376 OA
BRANCH  31  32
ATOM     32  C   UNL A   1      36.879  34.728  33.167  1.00  0.00     0.202 C 
BRANCH  32  33
ATOM     33  C   UNL A   1      37.855  33.708  33.772  1.00  0.00     0.261 C 
BRANCH  33  34
ATOM     34  O   UNL A   1      39.183  33.745  33.223  1.00  0.00    -0.460 OA
BRANCH  34  35
ATOM     35  C   UNL A   1      39.422  32.910  32.174  1.00  0.00     0.338 C 
ATOM     36  O   UNL A   1      39.034  33.050  31.035  1.00  0.00    -0.246 OA
BRANCH  35  37
ATOM     37  C   UNL A   1      40.421  31.875  32.578  1.00  0.00     0.060 A 
ATOM     38  C   UNL A   1      41.723  32.304  32.881  1.00  0.00     0.016 A 
ATOM     39  C   UNL A   1      40.093  30.522  32.701  1.00  0.00     0.016 A 
ATOM     40  C   UNL A   1      42.701  31.389  33.284  1.00  0.00     0.010 A 
ATOM     41  C   UNL A   1      41.083  29.600  33.075  1.00  0.00     0.010 A 
ATOM     42  C   UNL A   1      42.399  30.024  33.341  1.00  0.00    -0.014 A 
BRANCH  42  43
ATOM     43  C   UNL A   1      43.491  29.021  33.454  1.00  0.00     0.031 A 
ATOM     44  C   UNL A   1      43.899  28.577  34.836  1.00  0.00     0.074 A 
ATOM     45  C   UNL A   1      44.137  28.533  32.378  1.00  0.00     0.049 A 
ATOM     46  N   UNL A   1      44.881  27.795  35.199  1.00  0.00    -0.248 NA
ATOM     47  C   UNL A   1      43.091  29.092  35.955  1.00  0.00     0.031 C 
ATOM     48  C   UNL A   1      43.840  28.861  30.986  1.00  0.00     0.029 A 
ATOM     49  N   UNL A   1      45.215  27.680  32.300  1.00  0.00    -0.354 N 
ATOM     50  C   UNL A   1      44.834  27.754  36.587  1.00  0.00     0.074 A 
ATOM     51  C   UNL A   1      43.723  28.582  37.002  1.00  0.00     0.031 C 
ATOM     52  C   UNL A   1      44.746  28.257  30.194  1.00  0.00     0.029 A 
ATOM     53  C   UNL A   1      45.702  27.523  31.023  1.00  0.00     0.049 A 
ATOM     54  H   UNL A   1      45.600  27.226  33.084  1.00  0.00     0.167 HD
ATOM     55  C   UNL A   1      45.640  27.087  37.444  1.00  0.00     0.034 A 
ATOM     56  C   UNL A   1      46.814  26.896  30.581  1.00  0.00     0.034 A 
ATOM     57  C   UNL A   1      46.732  26.243  37.045  1.00  0.00     0.049 A 
ATOM     58  C   UNL A   1      47.723  26.199  31.567  1.00  0.00     0.074 A 
ATOM     59  C   UNL A   1      47.555  25.472  37.845  1.00  0.00     0.029 A 
ATOM     60  N   UNL A   1      47.169  26.079  35.743  1.00  0.00    -0.354 N 
ATOM     61  N   UNL A   1      47.580  26.046  32.861  1.00  0.00    -0.248 NA
ATOM     62  C   UNL A   1      48.941  25.572  31.025  1.00  0.00     0.031 C 
ATOM     63  C   UNL A   1      48.515  24.868  37.029  1.00  0.00     0.029 A 
ATOM     64  C   UNL A   1      48.271  25.243  35.718  1.00  0.00     0.049 A 
ATOM     65  H   UNL A   1      46.757  26.496  34.951  1.00  0.00     0.167 HD
ATOM     66  C   UNL A   1      48.669  25.286  33.280  1.00  0.00     0.074 A 
ATOM     67  C   UNL A   1      49.449  24.982  32.100  1.00  0.00     0.031 C 
ATOM     68  C   UNL A   1      49.008  24.894  34.533  1.00  0.00     0.034 A 
BRANCH  55  69
ATOM     69  C   UNL A   1      45.368  27.224  38.916  1.00  0.00     0.023 A 
ATOM     70  C   UNL A   1      44.577  26.263  39.574  1.00  0.00     0.012 A 
ATOM     71  C   UNL A   1      45.975  28.256  39.660  1.00  0.00     0.148 A 
ATOM     72  C   UNL A   1      44.382  26.333  40.952  1.00  0.00     0.002 A 
ATOM     73  C   UNL A   1      45.809  28.296  41.037  1.00  0.00     0.091 A 
ATOM     74  F   UNL A   1      46.703  29.171  39.005  1.00  0.00    -0.205 F 
ATOM     75  C   UNL A   1      45.007  27.339  41.684  1.00  0.00     0.022 A 
BRANCH  73  76
ATOM     76  S   UNL A   1      46.633  29.504  42.079  1.00  0.00     0.127 S 
ATOM     77  O   UNL A   1      46.155  29.121  43.408  1.00  0.00    -0.237 OA
ATOM     78  O   UNL A   1      48.044  29.210  41.831  1.00  0.00    -0.237 OA
ATOM     79  O   UNL A   1      46.190  30.810  41.613  1.00  0.00    -0.744 OA
ENDBRANCH  73  76
ENDBRANCH  55  69
BRANCH  56  80
ATOM     80  C   UNL A   1      47.160  26.900  29.128  1.00  0.00     0.023 A 
ATOM     81  C   UNL A   1      48.078  27.847  28.631  1.00  0.00     0.012 A 
ATOM     82  C   UNL A   1      46.553  25.999  28.233  1.00  0.00     0.148 A 
ATOM     83  C   UNL A   1      48.353  27.921  27.264  1.00  0.00     0.002 A 
ATOM     84  C   UNL A   1      46.878  26.039  26.882  1.00  0.00     0.091 A 
ATOM     85  F   UNL A   1      45.658  25.127  28.717  1.00  0.00    -0.205 F 
ATOM     86  C   UNL A   1      47.762  27.012  26.392  1.00  0.00     0.022 A 
BRANCH  84  87
ATOM     87  S   UNL A   1      46.269  24.816  25.718  1.00  0.00     0.127 S 
ATOM     88  O   UNL A   1      44.893  24.630  26.171  1.00  0.00    -0.237 OA
ATOM     89  O   UNL A   1      46.412  25.521  24.443  1.00  0.00    -0.237 OA
ATOM     90  O   UNL A   1      47.154  23.670  25.867  1.00  0.00    -0.744 OA
ENDBRANCH  84  87
ENDBRANCH  56  80
BRANCH  68  91
ATOM     91  C   UNL A   1      50.260  24.073  34.708  1.00  0.00     0.023 A 
ATOM     92  C   UNL A   1      51.483  24.715  34.986  1.00  0.00     0.012 A 
ATOM     93  C   UNL A   1      50.208  22.664  34.691  1.00  0.00     0.148 A 
ATOM     94  C   UNL A   1      52.639  23.971  35.217  1.00  0.00     0.002 A 
ATOM     95  C   UNL A   1      51.355  21.928  34.968  1.00  0.00     0.091 A 
ATOM     96  F   UNL A   1      49.038  22.071  34.412  1.00  0.00    -0.205 F 
ATOM     97  C   UNL A   1      52.573  22.579  35.220  1.00  0.00     0.022 A 
BRANCH  95  98
ATOM     98  S   UNL A   1      51.347  20.134  35.087  1.00  0.00     0.127 S 
ATOM     99  O   UNL A   1      50.589  19.921  36.318  1.00  0.00    -0.237 OA
ATOM    100  O   UNL A   1      50.646  19.746  33.863  1.00  0.00    -0.237 OA
ATOM    101  O   UNL A   1      52.745  19.729  35.138  1.00  0.00    -0.744 OA
ENDBRANCH  95  98
ENDBRANCH  68  91
ENDBRANCH  42  43
ENDBRANCH  35  37
ENDBRANCH  34  35
ENDBRANCH  33  34
ENDBRANCH  32  33
ENDBRANCH  31  32
ENDBRANCH  30  31
ENDBRANCH   1  30
TORSDOF 25
ENDMDL
