MODEL 1
REMARK VINA RESULT:     -10.0      0.000      0.000
REMARK SMILES CC1(C)CC(=O)C(/C=N/Cc2ccc(C(=O)OCCOCCOCCOCCOC(=O)c3ccc(-c4c5nc(c(-c6cccc(S(=O)(=O)[O-])c6F)c6ccc([nH]6)c(-c6cccc(S(=O)(=O)[O-])c6F)c6nc(c(-c7cccc(S(=O)(=O)[O-])c7F)c7ccc4[nH]7)C=C6)C=C5)cc3)cc2)=C([O-])C1
REMARK SMILES IDX 23 1 22 2 21 3 20 4 19 5 18 6 17 7 15 8 16 9 14 10 11 11
REMARK SMILES IDX 12 12 96 13 13 14 95 15 10 16 9 17 8 18 7 19 1 20 2 21 3 22
REMARK SMILES IDX 4 23 99 24 5 25 97 26 6 27 98 28 24 29 25 30 26 31 27 32
REMARK SMILES IDX 28 33 29 34 30 35 31 36 32 37 33 38 94 39 34 40 93 41 35 42
REMARK SMILES IDX 36 43 37 44 87 45 38 46 92 47 86 48 88 49 39 50 91 51 85 52
REMARK SMILES IDX 84 53 40 55 72 56 52 57 71 58 53 59 56 60 70 61 89 62 54 63
REMARK SMILES IDX 55 64 69 66 90 67 57 68 41 69 42 70 50 71 43 72 45 73 51 74
REMARK SMILES IDX 44 75 46 76 47 77 48 78 49 79 73 80 74 81 82 82 75 83 77 84
REMARK SMILES IDX 83 85 76 86 78 87 79 88 80 89 81 90 58 91 59 92 67 93 60 94
REMARK SMILES IDX 62 95 68 96 61 97 63 98 64 99 65 100 66 101
REMARK H PARENT 88 54 56 65
REMARK Flexibility Score: inf
ROOT
ATOM      1  O   UNL A   1      34.814  21.962  24.928  1.00  0.00    -0.377 OA
ENDROOT
BRANCH   1   2
ATOM      2  C   UNL A   1      33.928  20.870  25.086  1.00  0.00     0.188 C 
BRANCH   2   3
ATOM      3  C   UNL A   1      32.993  20.563  23.900  1.00  0.00     0.188 C 
BRANCH   3   4
ATOM      4  O   UNL A   1      31.830  21.373  23.862  1.00  0.00    -0.376 OA
BRANCH   4   5
ATOM      5  C   UNL A   1      31.958  22.782  23.928  1.00  0.00     0.202 C 
BRANCH   5   6
ATOM      6  C   UNL A   1      32.699  23.565  22.829  1.00  0.00     0.261 C 
BRANCH   6   7
ATOM      7  O   UNL A   1      31.934  24.542  22.118  1.00  0.00    -0.460 OA
BRANCH   7   8
ATOM      8  C   UNL A   1      32.585  25.654  21.720  1.00  0.00     0.338 C 
ATOM      9  O   UNL A   1      33.152  25.829  20.656  1.00  0.00    -0.246 OA
BRANCH   8  10
ATOM     10  C   UNL A   1      32.284  26.733  22.687  1.00  0.00     0.060 A 
ATOM     11  C   UNL A   1      31.834  28.861  24.463  1.00  0.00    -0.027 A 
ATOM     12  C   UNL A   1      33.054  28.740  23.785  1.00  0.00     0.006 A 
ATOM     13  C   UNL A   1      30.823  27.922  24.206  1.00  0.00     0.006 A 
ATOM     14  C   UNL A   1      33.284  27.681  22.913  1.00  0.00     0.016 A 
ATOM     15  C   UNL A   1      31.039  26.867  23.310  1.00  0.00     0.016 A 
BRANCH  11  16
ATOM     16  C   UNL A   1      31.644  29.926  25.521  1.00  0.00     0.177 C 
BRANCH  16  17
ATOM     17  N   UNL A   1      32.900  30.388  26.122  1.00  0.00    -0.288 NA
ATOM     18  C   UNL A   1      32.787  31.298  27.022  1.00  0.00     0.116 C 
BRANCH  18  19
ATOM     19  C   UNL A   1      33.933  31.928  27.722  1.00  0.00     0.024 C 
ATOM     20  C   UNL A   1      37.384  33.986  29.478  1.00  0.00     0.012 C 
ATOM     21  C   UNL A   1      36.130  33.114  29.287  1.00  0.00    -0.025 C 
ATOM     22  C   UNL A   1      35.755  32.499  30.650  1.00  0.00     0.012 C 
ATOM     23  C   UNL A   1      36.450  32.010  28.273  1.00  0.00     0.087 C 
ATOM     24  C   UNL A   1      34.981  33.986  28.746  1.00  0.00     0.026 C 
ATOM     25  C   UNL A   1      35.232  31.206  27.878  1.00  0.00     0.164 C 
ATOM     26  C   UNL A   1      33.841  33.213  28.127  1.00  0.00    -0.120 C 
ATOM     27  O   UNL A   1      35.357  30.018  27.594  1.00  0.00    -0.294 OA
ATOM     28  O   UNL A   1      32.687  33.974  28.039  1.00  0.00    -0.875 OA
ENDBRANCH  18  19
ENDBRANCH  16  17
ENDBRANCH  11  16
ENDBRANCH   8  10
ENDBRANCH   7   8
ENDBRANCH   6   7
ENDBRANCH   5   6
ENDBRANCH   4   5
ENDBRANCH   3   4
ENDBRANCH   2   3
ENDBRANCH   1   2
BRANCH   1  29
ATOM     29  C   UNL A   1      35.786  22.244  25.934  1.00  0.00     0.188 C 
BRANCH  29  30
ATOM     30  C   UNL A   1      37.265  22.579  25.611  1.00  0.00     0.188 C 
BRANCH  30  31
ATOM     31  O   UNL A   1      37.927  21.651  24.766  1.00  0.00    -0.376 OA
BRANCH  31  32
ATOM     32  C   UNL A   1      37.780  20.273  25.064  1.00  0.00     0.202 C 
BRANCH  32  33
ATOM     33  C   UNL A   1      39.048  19.546  25.529  1.00  0.00     0.261 C 
BRANCH  33  34
ATOM     34  O   UNL A   1      40.028  20.362  26.186  1.00  0.00    -0.460 OA
BRANCH  34  35
ATOM     35  C   UNL A   1      41.285  19.865  26.256  1.00  0.00     0.338 C 
ATOM     36  O   UNL A   1      41.631  18.720  26.053  1.00  0.00    -0.246 OA
BRANCH  35  37
ATOM     37  C   UNL A   1      42.210  21.005  26.433  1.00  0.00     0.060 A 
ATOM     38  C   UNL A   1      42.527  21.420  27.733  1.00  0.00     0.016 A 
ATOM     39  C   UNL A   1      42.745  21.664  25.325  1.00  0.00     0.016 A 
ATOM     40  C   UNL A   1      43.331  22.541  27.927  1.00  0.00     0.010 A 
ATOM     41  C   UNL A   1      43.537  22.798  25.521  1.00  0.00     0.010 A 
ATOM     42  C   UNL A   1      43.786  23.270  26.821  1.00  0.00    -0.014 A 
BRANCH  42  43
ATOM     43  C   UNL A   1      44.292  24.649  27.028  1.00  0.00     0.031 A 
ATOM     44  C   UNL A   1      43.353  25.661  27.633  1.00  0.00     0.074 A 
ATOM     45  C   UNL A   1      45.556  24.991  26.725  1.00  0.00     0.049 A 
ATOM     46  N   UNL A   1      43.562  26.918  27.923  1.00  0.00    -0.248 NA
ATOM     47  C   UNL A   1      41.994  25.189  27.950  1.00  0.00     0.031 C 
ATOM     48  C   UNL A   1      46.560  24.102  26.146  1.00  0.00     0.029 A 
ATOM     49  N   UNL A   1      46.202  26.196  26.851  1.00  0.00    -0.354 N 
ATOM     50  C   UNL A   1      42.357  27.393  28.427  1.00  0.00     0.074 A 
ATOM     51  C   UNL A   1      41.416  26.297  28.387  1.00  0.00     0.031 C 
ATOM     52  C   UNL A   1      47.693  24.799  25.944  1.00  0.00     0.029 A 
ATOM     53  C   UNL A   1      47.486  26.184  26.362  1.00  0.00     0.049 A 
ATOM     54  H   UNL A   1      45.785  26.991  27.254  1.00  0.00     0.167 HD
ATOM     55  C   UNL A   1      42.060  28.626  28.900  1.00  0.00     0.034 A 
ATOM     56  C   UNL A   1      48.382  27.186  26.249  1.00  0.00     0.034 A 
ATOM     57  C   UNL A   1      43.000  29.713  28.951  1.00  0.00     0.049 A 
ATOM     58  C   UNL A   1      48.022  28.557  26.765  1.00  0.00     0.074 A 
ATOM     59  C   UNL A   1      42.810  30.991  29.443  1.00  0.00     0.029 A 
ATOM     60  N   UNL A   1      44.301  29.654  28.480  1.00  0.00    -0.354 N 
ATOM     61  N   UNL A   1      46.914  28.964  27.337  1.00  0.00    -0.248 NA
ATOM     62  C   UNL A   1      49.055  29.598  26.657  1.00  0.00     0.031 C 
ATOM     63  C   UNL A   1      43.988  31.718  29.235  1.00  0.00     0.029 A 
ATOM     64  C   UNL A   1      44.926  30.876  28.661  1.00  0.00     0.049 A 
ATOM     65  H   UNL A   1      44.721  28.861  28.075  1.00  0.00     0.167 HD
ATOM     66  C   UNL A   1      47.133  30.289  27.699  1.00  0.00     0.074 A 
ATOM     67  C   UNL A   1      48.487  30.610  27.297  1.00  0.00     0.031 C 
ATOM     68  C   UNL A   1      46.291  31.166  28.302  1.00  0.00     0.034 A 
BRANCH  55  69
ATOM     69  C   UNL A   1      40.661  28.860  29.405  1.00  0.00     0.023 A 
ATOM     70  C   UNL A   1      39.593  28.981  28.492  1.00  0.00     0.012 A 
ATOM     71  C   UNL A   1      40.398  28.927  30.787  1.00  0.00     0.148 A 
ATOM     72  C   UNL A   1      38.293  29.201  28.944  1.00  0.00     0.002 A 
ATOM     73  C   UNL A   1      39.093  29.095  31.232  1.00  0.00     0.091 A 
ATOM     74  F   UNL A   1      41.429  28.835  31.638  1.00  0.00    -0.205 F 
ATOM     75  C   UNL A   1      38.041  29.247  30.313  1.00  0.00     0.022 A 
BRANCH  73  76
ATOM     76  S   UNL A   1      38.655  29.083  32.974  1.00  0.00     0.127 S 
ATOM     77  O   UNL A   1      38.546  30.513  33.260  1.00  0.00    -0.237 OA
ATOM     78  O   UNL A   1      37.381  28.364  32.963  1.00  0.00    -0.237 OA
ATOM     79  O   UNL A   1      39.738  28.392  33.658  1.00  0.00    -0.744 OA
ENDBRANCH  73  76
ENDBRANCH  55  69
BRANCH  56  80
ATOM     80  C   UNL A   1      49.724  26.928  25.656  1.00  0.00     0.023 A 
ATOM     81  C   UNL A   1      50.730  26.324  26.435  1.00  0.00     0.012 A 
ATOM     82  C   UNL A   1      50.010  27.284  24.324  1.00  0.00     0.148 A 
ATOM     83  C   UNL A   1      52.008  26.116  25.912  1.00  0.00     0.002 A 
ATOM     84  C   UNL A   1      51.266  27.022  23.790  1.00  0.00     0.091 A 
ATOM     85  F   UNL A   1      49.044  27.870  23.603  1.00  0.00    -0.205 F 
ATOM     86  C   UNL A   1      52.273  26.457  24.588  1.00  0.00     0.022 A 
BRANCH  84  87
ATOM     87  S   UNL A   1      51.662  27.313  22.063  1.00  0.00     0.127 S 
ATOM     88  O   UNL A   1      50.621  26.546  21.383  1.00  0.00    -0.237 OA
ATOM     89  O   UNL A   1      51.522  28.766  21.966  1.00  0.00    -0.237 OA
ATOM     90  O   UNL A   1      53.023  26.825  21.881  1.00  0.00    -0.744 OA
ENDBRANCH  84  87
ENDBRANCH  56  80
BRANCH  68  91
ATOM     91  C   UNL A   1      46.825  32.538  28.629  1.00  0.00     0.023 A 
ATOM     92  C   UNL A   1      47.385  32.803  29.895  1.00  0.00     0.012 A 
ATOM     93  C   UNL A   1      46.816  33.556  27.654  1.00  0.00     0.148 A 
ATOM     94  C   UNL A   1      47.876  34.072  30.202  1.00  0.00     0.002 A 
ATOM     95  C   UNL A   1      47.359  34.801  27.947  1.00  0.00     0.091 A 
ATOM     96  F   UNL A   1      46.267  33.294  26.459  1.00  0.00    -0.205 F 
ATOM     97  C   UNL A   1      47.872  35.067  29.226  1.00  0.00     0.022 A 
BRANCH  95  98
ATOM     98  S   UNL A   1      47.490  36.104  26.719  1.00  0.00     0.127 S 
ATOM     99  O   UNL A   1      46.115  36.596  26.657  1.00  0.00    -0.237 OA
ATOM    100  O   UNL A   1      48.441  37.026  27.342  1.00  0.00    -0.237 OA
ATOM    101  O   UNL A   1      47.982  35.463  25.507  1.00  0.00    -0.744 OA
ENDBRANCH  95  98
ENDBRANCH  68  91
ENDBRANCH  42  43
ENDBRANCH  35  37
ENDBRANCH  34  35
ENDBRANCH  33  34
ENDBRANCH  32  33
ENDBRANCH  31  32
ENDBRANCH  30  31
ENDBRANCH  29  30
ENDBRANCH   1  29
TORSDOF 26
ENDMDL
MODEL 2
REMARK VINA RESULT:     -10.0      1.429      7.700
REMARK SMILES CC1(C)CC(=O)C(/C=N/Cc2ccc(C(=O)OCCOCCOCCOCCOC(=O)c3ccc(-c4c5nc(c(-c6cccc(S(=O)(=O)[O-])c6F)c6ccc([nH]6)c(-c6cccc(S(=O)(=O)[O-])c6F)c6nc(c(-c7cccc(S(=O)(=O)[O-])c7F)c7ccc4[nH]7)C=C6)C=C5)cc3)cc2)=C([O-])C1
REMARK SMILES IDX 23 1 22 2 21 3 20 4 19 5 18 6 17 7 15 8 16 9 14 10 11 11
REMARK SMILES IDX 12 12 96 13 13 14 95 15 10 16 9 17 8 18 7 19 1 20 2 21 3 22
REMARK SMILES IDX 4 23 99 24 5 25 97 26 6 27 98 28 24 29 25 30 26 31 27 32
REMARK SMILES IDX 28 33 29 34 30 35 31 36 32 37 33 38 94 39 34 40 93 41 35 42
REMARK SMILES IDX 36 43 37 44 87 45 38 46 92 47 86 48 88 49 39 50 91 51 85 52
REMARK SMILES IDX 84 53 40 55 72 56 52 57 71 58 53 59 56 60 70 61 89 62 54 63
REMARK SMILES IDX 55 64 69 66 90 67 57 68 41 69 42 70 50 71 43 72 45 73 51 74
REMARK SMILES IDX 44 75 46 76 47 77 48 78 49 79 73 80 74 81 82 82 75 83 77 84
REMARK SMILES IDX 83 85 76 86 78 87 79 88 80 89 81 90 58 91 59 92 67 93 60 94
REMARK SMILES IDX 62 95 68 96 61 97 63 98 64 99 65 100 66 101
REMARK H PARENT 88 54 56 65
REMARK Flexibility Score: inf
ROOT
ATOM      1  O   UNL A   1      39.624  22.699  26.514  1.00  0.00    -0.377 OA
ENDROOT
BRANCH   1   2
ATOM      2  C   UNL A   1      38.690  23.759  26.606  1.00  0.00     0.188 C 
BRANCH   2   3
ATOM      3  C   UNL A   1      37.452  23.667  25.692  1.00  0.00     0.188 C 
BRANCH   3   4
ATOM      4  O   UNL A   1      36.248  23.386  26.384  1.00  0.00    -0.376 OA
BRANCH   4   5
ATOM      5  C   UNL A   1      35.567  22.169  26.134  1.00  0.00     0.202 C 
BRANCH   5   6
ATOM      6  C   UNL A   1      34.122  21.953  26.620  1.00  0.00     0.261 C 
BRANCH   6   7
ATOM      7  O   UNL A   1      33.292  23.116  26.684  1.00  0.00    -0.460 OA
BRANCH   7   8
ATOM      8  C   UNL A   1      32.425  23.302  25.668  1.00  0.00     0.338 C 
ATOM      9  O   UNL A   1      31.755  22.451  25.111  1.00  0.00    -0.246 OA
BRANCH   8  10
ATOM     10  C   UNL A   1      32.222  24.759  25.501  1.00  0.00     0.060 A 
ATOM     11  C   UNL A   1      31.707  27.510  25.270  1.00  0.00    -0.027 A 
ATOM     12  C   UNL A   1      30.706  26.627  25.697  1.00  0.00     0.006 A 
ATOM     13  C   UNL A   1      32.987  26.999  25.001  1.00  0.00     0.006 A 
ATOM     14  C   UNL A   1      30.954  25.263  25.801  1.00  0.00     0.016 A 
ATOM     15  C   UNL A   1      33.251  25.630  25.129  1.00  0.00     0.016 A 
BRANCH  11  16
ATOM     16  C   UNL A   1      31.390  28.967  25.014  1.00  0.00     0.177 C 
BRANCH  16  17
ATOM     17  N   UNL A   1      32.436  29.886  25.474  1.00  0.00    -0.288 NA
ATOM     18  C   UNL A   1      32.394  30.203  26.719  1.00  0.00     0.116 C 
BRANCH  18  19
ATOM     19  C   UNL A   1      33.332  31.147  27.373  1.00  0.00     0.024 C 
ATOM     20  C   UNL A   1      36.174  34.082  28.967  1.00  0.00     0.012 C 
ATOM     21  C   UNL A   1      35.110  32.975  28.849  1.00  0.00    -0.025 C 
ATOM     22  C   UNL A   1      34.685  32.558  30.271  1.00  0.00     0.012 C 
ATOM     23  C   UNL A   1      35.721  31.784  28.103  1.00  0.00     0.087 C 
ATOM     24  C   UNL A   1      33.904  33.512  28.053  1.00  0.00     0.026 C 
ATOM     25  C   UNL A   1      34.705  30.714  27.775  1.00  0.00     0.164 C 
ATOM     26  C   UNL A   1      32.985  32.445  27.507  1.00  0.00    -0.120 C 
ATOM     27  O   UNL A   1      35.055  29.537  27.743  1.00  0.00    -0.294 OA
ATOM     28  O   UNL A   1      31.741  32.954  27.175  1.00  0.00    -0.875 OA
ENDBRANCH  18  19
ENDBRANCH  16  17
ENDBRANCH  11  16
ENDBRANCH   8  10
ENDBRANCH   7   8
ENDBRANCH   6   7
ENDBRANCH   5   6
ENDBRANCH   4   5
ENDBRANCH   3   4
ENDBRANCH   2   3
ENDBRANCH   1   2
BRANCH   1  29
ATOM     29  C   UNL A   1      39.214  21.427  26.016  1.00  0.00     0.188 C 
BRANCH  29  30
ATOM     30  C   UNL A   1      40.094  20.155  26.117  1.00  0.00     0.188 C 
BRANCH  30  31
ATOM     31  O   UNL A   1      40.822  20.015  27.328  1.00  0.00    -0.376 OA
BRANCH  31  32
ATOM     32  C   UNL A   1      42.029  19.274  27.284  1.00  0.00     0.202 C 
BRANCH  32  33
ATOM     33  C   UNL A   1      42.534  18.892  25.887  1.00  0.00     0.261 C 
BRANCH  33  34
ATOM     34  O   UNL A   1      43.942  19.056  25.668  1.00  0.00    -0.460 OA
BRANCH  34  35
ATOM     35  C   UNL A   1      44.310  19.956  24.726  1.00  0.00     0.338 C 
ATOM     36  O   UNL A   1      44.580  19.731  23.565  1.00  0.00    -0.246 OA
BRANCH  35  37
ATOM     37  C   UNL A   1      44.139  21.307  25.304  1.00  0.00     0.060 A 
ATOM     38  C   UNL A   1      43.811  22.368  24.451  1.00  0.00     0.016 A 
ATOM     39  C   UNL A   1      44.313  21.521  26.672  1.00  0.00     0.016 A 
ATOM     40  C   UNL A   1      43.724  23.663  24.956  1.00  0.00     0.010 A 
ATOM     41  C   UNL A   1      44.241  22.822  27.175  1.00  0.00     0.010 A 
ATOM     42  C   UNL A   1      44.001  23.902  26.308  1.00  0.00    -0.014 A 
BRANCH  42  43
ATOM     43  C   UNL A   1      44.291  25.289  26.747  1.00  0.00     0.031 A 
ATOM     44  C   UNL A   1      45.692  25.810  26.558  1.00  0.00     0.074 A 
ATOM     45  C   UNL A   1      43.336  26.080  27.267  1.00  0.00     0.049 A 
ATOM     46  N   UNL A   1      46.187  26.984  26.848  1.00  0.00    -0.248 NA
ATOM     47  C   UNL A   1      46.665  24.877  25.963  1.00  0.00     0.031 C 
ATOM     48  C   UNL A   1      41.945  25.695  27.491  1.00  0.00     0.029 A 
ATOM     49  N   UNL A   1      43.407  27.375  27.717  1.00  0.00    -0.354 N 
ATOM     50  C   UNL A   1      47.532  26.922  26.499  1.00  0.00     0.074 A 
ATOM     51  C   UNL A   1      47.780  25.591  25.994  1.00  0.00     0.031 C 
ATOM     52  C   UNL A   1      41.295  26.727  28.060  1.00  0.00     0.029 A 
ATOM     53  C   UNL A   1      42.229  27.834  28.256  1.00  0.00     0.049 A 
ATOM     54  H   UNL A   1      44.223  27.921  27.658  1.00  0.00     0.167 HD
ATOM     55  C   UNL A   1      48.475  27.889  26.574  1.00  0.00     0.034 A 
ATOM     56  C   UNL A   1      41.947  29.009  28.854  1.00  0.00     0.034 A 
ATOM     57  C   UNL A   1      48.225  29.217  27.064  1.00  0.00     0.049 A 
ATOM     58  C   UNL A   1      43.020  30.066  28.943  1.00  0.00     0.074 A 
ATOM     59  C   UNL A   1      49.103  30.282  27.149  1.00  0.00     0.029 A 
ATOM     60  N   UNL A   1      47.012  29.657  27.568  1.00  0.00    -0.354 N 
ATOM     61  N   UNL A   1      44.259  30.029  28.512  1.00  0.00    -0.248 NA
ATOM     62  C   UNL A   1      42.642  31.343  29.565  1.00  0.00     0.031 C 
ATOM     63  C   UNL A   1      48.429  31.357  27.739  1.00  0.00     0.029 A 
ATOM     64  C   UNL A   1      47.117  30.976  27.974  1.00  0.00     0.049 A 
ATOM     65  H   UNL A   1      46.194  29.113  27.628  1.00  0.00     0.167 HD
ATOM     66  C   UNL A   1      44.791  31.289  28.767  1.00  0.00     0.074 A 
ATOM     67  C   UNL A   1      43.733  32.071  29.374  1.00  0.00     0.031 C 
ATOM     68  C   UNL A   1      46.042  31.758  28.529  1.00  0.00     0.034 A 
BRANCH  55  69
ATOM     69  C   UNL A   1      49.865  27.545  26.106  1.00  0.00     0.023 A 
ATOM     70  C   UNL A   1      50.798  27.001  27.012  1.00  0.00     0.012 A 
ATOM     71  C   UNL A   1      50.235  27.728  24.760  1.00  0.00     0.148 A 
ATOM     72  C   UNL A   1      52.089  26.680  26.595  1.00  0.00     0.002 A 
ATOM     73  C   UNL A   1      51.507  27.358  24.340  1.00  0.00     0.091 A 
ATOM     74  F   UNL A   1      49.343  28.269  23.919  1.00  0.00    -0.205 F 
ATOM     75  C   UNL A   1      52.440  26.848  25.258  1.00  0.00     0.022 A 
BRANCH  73  76
ATOM     76  S   UNL A   1      52.026  27.456  22.623  1.00  0.00     0.127 S 
ATOM     77  O   UNL A   1      50.915  26.792  21.942  1.00  0.00    -0.237 OA
ATOM     78  O   UNL A   1      52.097  28.901  22.408  1.00  0.00    -0.237 OA
ATOM     79  O   UNL A   1      53.304  26.765  22.548  1.00  0.00    -0.744 OA
ENDBRANCH  73  76
ENDBRANCH  55  69
BRANCH  56  80
ATOM     80  C   UNL A   1      40.580  29.271  29.386  1.00  0.00     0.023 A 
ATOM     81  C   UNL A   1      39.602  29.847  28.552  1.00  0.00     0.012 A 
ATOM     82  C   UNL A   1      40.247  28.956  30.718  1.00  0.00     0.148 A 
ATOM     83  C   UNL A   1      38.330  30.142  29.046  1.00  0.00     0.002 A 
ATOM     84  C   UNL A   1      38.961  29.199  31.187  1.00  0.00     0.091 A 
ATOM     85  F   UNL A   1      41.195  28.421  31.500  1.00  0.00    -0.205 F 
ATOM     86  C   UNL A   1      38.007  29.811  30.359  1.00  0.00     0.022 A 
BRANCH  84  87
ATOM     87  S   UNL A   1      38.418  28.696  32.822  1.00  0.00     0.127 S 
ATOM     88  O   UNL A   1      36.966  28.809  32.703  1.00  0.00    -0.237 OA
ATOM     89  O   UNL A   1      38.926  27.326  32.897  1.00  0.00    -0.237 OA
ATOM     90  O   UNL A   1      39.048  29.623  33.752  1.00  0.00    -0.744 OA
ENDBRANCH  84  87
ENDBRANCH  56  80
BRANCH  68  91
ATOM     91  C   UNL A   1      46.324  33.202  28.860  1.00  0.00     0.023 A 
ATOM     92  C   UNL A   1      46.818  33.560  30.130  1.00  0.00     0.012 A 
ATOM     93  C   UNL A   1      46.142  34.204  27.885  1.00  0.00     0.148 A 
ATOM     94  C   UNL A   1      47.075  34.895  30.442  1.00  0.00     0.002 A 
ATOM     95  C   UNL A   1      46.454  35.525  28.183  1.00  0.00     0.091 A 
ATOM     96  F   UNL A   1      45.656  33.851  26.686  1.00  0.00    -0.205 F 
ATOM     97  C   UNL A   1      46.904  35.875  29.466  1.00  0.00     0.022 A 
BRANCH  95  98
ATOM     98  S   UNL A   1      46.363  36.833  26.956  1.00  0.00     0.127 S 
ATOM     99  O   UNL A   1      46.831  36.146  25.753  1.00  0.00    -0.237 OA
ATOM    100  O   UNL A   1      44.937  37.160  26.955  1.00  0.00    -0.237 OA
ATOM    101  O   UNL A   1      47.224  37.901  27.444  1.00  0.00    -0.744 OA
ENDBRANCH  95  98
ENDBRANCH  68  91
ENDBRANCH  42  43
ENDBRANCH  35  37
ENDBRANCH  34  35
ENDBRANCH  33  34
ENDBRANCH  32  33
ENDBRANCH  31  32
ENDBRANCH  30  31
ENDBRANCH  29  30
ENDBRANCH   1  29
TORSDOF 26
ENDMDL
MODEL 3
REMARK VINA RESULT:      -9.9      1.566      2.431
REMARK SMILES CC1(C)CC(=O)C(/C=N/Cc2ccc(C(=O)OCCOCCOCCOCCOC(=O)c3ccc(-c4c5nc(c(-c6cccc(S(=O)(=O)[O-])c6F)c6ccc([nH]6)c(-c6cccc(S(=O)(=O)[O-])c6F)c6nc(c(-c7cccc(S(=O)(=O)[O-])c7F)c7ccc4[nH]7)C=C6)C=C5)cc3)cc2)=C([O-])C1
REMARK SMILES IDX 23 1 22 2 21 3 20 4 19 5 18 6 17 7 15 8 16 9 14 10 11 11
REMARK SMILES IDX 12 12 96 13 13 14 95 15 10 16 9 17 8 18 7 19 1 20 2 21 3 22
REMARK SMILES IDX 4 23 99 24 5 25 97 26 6 27 98 28 24 29 25 30 26 31 27 32
REMARK SMILES IDX 28 33 29 34 30 35 31 36 32 37 33 38 94 39 34 40 93 41 35 42
REMARK SMILES IDX 36 43 37 44 87 45 38 46 92 47 86 48 88 49 39 50 91 51 85 52
REMARK SMILES IDX 84 53 40 55 72 56 52 57 71 58 53 59 56 60 70 61 89 62 54 63
REMARK SMILES IDX 55 64 69 66 90 67 57 68 41 69 42 70 50 71 43 72 45 73 51 74
REMARK SMILES IDX 44 75 46 76 47 77 48 78 49 79 73 80 74 81 82 82 75 83 77 84
REMARK SMILES IDX 83 85 76 86 78 87 79 88 80 89 81 90 58 91 59 92 67 93 60 94
REMARK SMILES IDX 62 95 68 96 61 97 63 98 64 99 65 100 66 101
REMARK H PARENT 88 54 56 65
REMARK Flexibility Score: inf
ROOT
ATOM      1  O   UNL A   1      39.546  22.754  26.462  1.00  0.00    -0.377 OA
ENDROOT
BRANCH   1   2
ATOM      2  C   UNL A   1      38.580  23.779  26.603  1.00  0.00     0.188 C 
BRANCH   2   3
ATOM      3  C   UNL A   1      37.307  23.650  25.744  1.00  0.00     0.188 C 
BRANCH   3   4
ATOM      4  O   UNL A   1      36.149  23.303  26.483  1.00  0.00    -0.376 OA
BRANCH   4   5
ATOM      5  C   UNL A   1      35.427  22.132  26.143  1.00  0.00     0.202 C 
BRANCH   5   6
ATOM      6  C   UNL A   1      33.992  21.907  26.653  1.00  0.00     0.261 C 
BRANCH   6   7
ATOM      7  O   UNL A   1      33.207  23.080  26.882  1.00  0.00    -0.460 OA
BRANCH   7   8
ATOM      8  C   UNL A   1      32.167  23.289  26.050  1.00  0.00     0.338 C 
ATOM      9  O   UNL A   1      31.333  22.473  25.700  1.00  0.00    -0.246 OA
BRANCH   8  10
ATOM     10  C   UNL A   1      32.045  24.747  25.826  1.00  0.00     0.060 A 
ATOM     11  C   UNL A   1      31.661  27.501  25.433  1.00  0.00    -0.027 A 
ATOM     12  C   UNL A   1      30.570  26.623  25.461  1.00  0.00     0.006 A 
ATOM     13  C   UNL A   1      32.949  26.985  25.648  1.00  0.00     0.006 A 
ATOM     14  C   UNL A   1      30.757  25.257  25.645  1.00  0.00     0.016 A 
ATOM     15  C   UNL A   1      33.142  25.613  25.858  1.00  0.00     0.016 A 
BRANCH  11  16
ATOM     16  C   UNL A   1      31.466  28.960  25.084  1.00  0.00     0.177 C 
BRANCH  16  17
ATOM     17  N   UNL A   1      32.546  29.829  25.562  1.00  0.00    -0.288 NA
ATOM     18  C   UNL A   1      32.411  30.283  26.756  1.00  0.00     0.116 C 
BRANCH  18  19
ATOM     19  C   UNL A   1      33.368  31.208  27.413  1.00  0.00     0.024 C 
ATOM     20  C   UNL A   1      36.266  34.085  29.012  1.00  0.00     0.012 C 
ATOM     21  C   UNL A   1      35.182  32.997  28.891  1.00  0.00    -0.025 C 
ATOM     22  C   UNL A   1      34.756  32.579  30.313  1.00  0.00     0.012 C 
ATOM     23  C   UNL A   1      35.771  31.800  28.137  1.00  0.00     0.087 C 
ATOM     24  C   UNL A   1      33.983  33.558  28.103  1.00  0.00     0.026 C 
ATOM     25  C   UNL A   1      34.735  30.749  27.807  1.00  0.00     0.164 C 
ATOM     26  C   UNL A   1      33.044  32.511  27.555  1.00  0.00    -0.120 C 
ATOM     27  O   UNL A   1      35.064  29.567  27.767  1.00  0.00    -0.294 OA
ATOM     28  O   UNL A   1      31.807  33.042  27.231  1.00  0.00    -0.875 OA
ENDBRANCH  18  19
ENDBRANCH  16  17
ENDBRANCH  11  16
ENDBRANCH   8  10
ENDBRANCH   7   8
ENDBRANCH   6   7
ENDBRANCH   5   6
ENDBRANCH   4   5
ENDBRANCH   3   4
ENDBRANCH   2   3
ENDBRANCH   1   2
BRANCH   1  29
ATOM     29  C   UNL A   1      39.159  21.472  25.970  1.00  0.00     0.188 C 
BRANCH  29  30
ATOM     30  C   UNL A   1      40.059  20.215  26.086  1.00  0.00     0.188 C 
BRANCH  30  31
ATOM     31  O   UNL A   1      40.785  20.098  27.300  1.00  0.00    -0.376 OA
BRANCH  31  32
ATOM     32  C   UNL A   1      42.035  19.433  27.254  1.00  0.00     0.202 C 
BRANCH  32  33
ATOM     33  C   UNL A   1      42.508  18.985  25.865  1.00  0.00     0.261 C 
BRANCH  33  34
ATOM     34  O   UNL A   1      43.924  19.036  25.642  1.00  0.00    -0.460 OA
BRANCH  34  35
ATOM     35  C   UNL A   1      44.354  19.852  24.652  1.00  0.00     0.338 C 
ATOM     36  O   UNL A   1      44.557  19.554  23.494  1.00  0.00    -0.246 OA
BRANCH  35  37
ATOM     37  C   UNL A   1      44.351  21.235  25.176  1.00  0.00     0.060 A 
ATOM     38  C   UNL A   1      44.039  22.285  24.304  1.00  0.00     0.016 A 
ATOM     39  C   UNL A   1      44.665  21.489  26.513  1.00  0.00     0.016 A 
ATOM     40  C   UNL A   1      44.108  23.603  24.752  1.00  0.00     0.010 A 
ATOM     41  C   UNL A   1      44.749  22.811  26.956  1.00  0.00     0.010 A 
ATOM     42  C   UNL A   1      44.525  23.872  26.062  1.00  0.00    -0.014 A 
BRANCH  42  43
ATOM     43  C   UNL A   1      44.970  25.244  26.407  1.00  0.00     0.031 A 
ATOM     44  C   UNL A   1      43.947  26.197  26.966  1.00  0.00     0.074 A 
ATOM     45  C   UNL A   1      46.250  25.628  26.263  1.00  0.00     0.049 A 
ATOM     46  N   UNL A   1      44.091  27.437  27.354  1.00  0.00    -0.248 NA
ATOM     47  C   UNL A   1      42.574  25.680  27.105  1.00  0.00     0.031 C 
ATOM     48  C   UNL A   1      47.332  24.797  25.743  1.00  0.00     0.029 A 
ATOM     49  N   UNL A   1      46.848  26.834  26.532  1.00  0.00    -0.354 N 
ATOM     50  C   UNL A   1      42.826  27.857  27.753  1.00  0.00     0.074 A 
ATOM     51  C   UNL A   1      41.924  26.747  27.544  1.00  0.00     0.031 C 
ATOM     52  C   UNL A   1      48.462  25.526  25.708  1.00  0.00     0.029 A 
ATOM     53  C   UNL A   1      48.177  26.878  26.185  1.00  0.00     0.049 A 
ATOM     54  H   UNL A   1      46.370  27.594  26.936  1.00  0.00     0.167 HD
ATOM     55  C   UNL A   1      42.450  29.051  28.265  1.00  0.00     0.034 A 
ATOM     56  C   UNL A   1      49.054  27.902  26.232  1.00  0.00     0.034 A 
ATOM     57  C   UNL A   1      43.350  30.150  28.484  1.00  0.00     0.049 A 
ATOM     58  C   UNL A   1      48.605  29.230  26.789  1.00  0.00     0.074 A 
ATOM     59  C   UNL A   1      43.076  31.391  29.030  1.00  0.00     0.029 A 
ATOM     60  N   UNL A   1      44.695  30.146  28.154  1.00  0.00    -0.354 N 
ATOM     61  N   UNL A   1      47.432  29.579  27.261  1.00  0.00    -0.248 NA
ATOM     62  C   UNL A   1      49.617  30.295  26.857  1.00  0.00     0.031 C 
ATOM     63  C   UNL A   1      44.251  32.151  28.996  1.00  0.00     0.029 A 
ATOM     64  C   UNL A   1      45.266  31.365  28.476  1.00  0.00     0.049 A 
ATOM     65  H   UNL A   1      45.176  29.388  27.750  1.00  0.00     0.167 HD
ATOM     66  C   UNL A   1      47.578  30.883  27.725  1.00  0.00     0.074 A 
ATOM     67  C   UNL A   1      48.958  31.254  27.492  1.00  0.00     0.031 C 
ATOM     68  C   UNL A   1      46.653  31.703  28.286  1.00  0.00     0.034 A 
BRANCH  55  69
ATOM     69  C   UNL A   1      40.999  29.226  28.629  1.00  0.00     0.023 A 
ATOM     70  C   UNL A   1      40.038  29.434  27.618  1.00  0.00     0.012 A 
ATOM     71  C   UNL A   1      40.582  29.149  29.972  1.00  0.00     0.148 A 
ATOM     72  C   UNL A   1      38.692  29.601  27.939  1.00  0.00     0.002 A 
ATOM     73  C   UNL A   1      39.232  29.265  30.281  1.00  0.00     0.091 A 
ATOM     74  F   UNL A   1      41.511  28.976  30.921  1.00  0.00    -0.205 F 
ATOM     75  C   UNL A   1      38.288  29.506  29.268  1.00  0.00     0.022 A 
BRANCH  73  76
ATOM     76  S   UNL A   1      38.601  29.073  31.951  1.00  0.00     0.127 S 
ATOM     77  O   UNL A   1      37.191  28.774  31.701  1.00  0.00    -0.237 OA
ATOM     78  O   UNL A   1      39.386  27.942  32.445  1.00  0.00    -0.237 OA
ATOM     79  O   UNL A   1      38.859  30.335  32.628  1.00  0.00    -0.744 OA
ENDBRANCH  73  76
ENDBRANCH  55  69
BRANCH  56  80
ATOM     80  C   UNL A   1      50.458  27.707  25.772  1.00  0.00     0.023 A 
ATOM     81  C   UNL A   1      51.482  27.503  26.718  1.00  0.00     0.012 A 
ATOM     82  C   UNL A   1      50.783  27.731  24.403  1.00  0.00     0.148 A 
ATOM     83  C   UNL A   1      52.810  27.365  26.310  1.00  0.00     0.002 A 
ATOM     84  C   UNL A   1      52.099  27.536  23.999  1.00  0.00     0.091 A 
ATOM     85  F   UNL A   1      49.797  27.941  23.520  1.00  0.00    -0.205 F 
ATOM     86  C   UNL A   1      53.117  27.373  24.952  1.00  0.00     0.022 A 
BRANCH  84  87
ATOM     87  S   UNL A   1      52.572  27.408  22.272  1.00  0.00     0.127 S 
ATOM     88  O   UNL A   1      53.205  28.704  22.038  1.00  0.00    -0.237 OA
ATOM     89  O   UNL A   1      53.488  26.268  22.297  1.00  0.00    -0.237 OA
ATOM     90  O   UNL A   1      51.335  27.171  21.540  1.00  0.00    -0.744 OA
ENDBRANCH  84  87
ENDBRANCH  56  80
BRANCH  68  91
ATOM     91  C   UNL A   1      47.114  33.061  28.752  1.00  0.00     0.023 A 
ATOM     92  C   UNL A   1      47.566  33.247  30.074  1.00  0.00     0.012 A 
ATOM     93  C   UNL A   1      47.145  34.148  27.855  1.00  0.00     0.148 A 
ATOM     94  C   UNL A   1      47.988  34.503  30.510  1.00  0.00     0.002 A 
ATOM     95  C   UNL A   1      47.622  35.383  28.280  1.00  0.00     0.091 A 
ATOM     96  F   UNL A   1      46.699  33.961  26.605  1.00  0.00    -0.205 F 
ATOM     97  C   UNL A   1      48.026  35.567  29.611  1.00  0.00     0.022 A 
BRANCH  95  98
ATOM     98  S   UNL A   1      47.804  36.777  27.163  1.00  0.00     0.127 S 
ATOM     99  O   UNL A   1      46.483  36.832  26.538  1.00  0.00    -0.237 OA
ATOM    100  O   UNL A   1      48.089  37.879  28.082  1.00  0.00    -0.237 OA
ATOM    101  O   UNL A   1      48.905  36.436  26.273  1.00  0.00    -0.744 OA
ENDBRANCH  95  98
ENDBRANCH  68  91
ENDBRANCH  42  43
ENDBRANCH  35  37
ENDBRANCH  34  35
ENDBRANCH  33  34
ENDBRANCH  32  33
ENDBRANCH  31  32
ENDBRANCH  30  31
ENDBRANCH  29  30
ENDBRANCH   1  29
TORSDOF 26
ENDMDL
