MODEL 1
REMARK VINA RESULT:     -10.0      0.000      0.000
REMARK SMILES Cc1ccc(C(=O)OCCOCCOCCOCCOC(=O)c2ccc(-c3c4nc(c(-c5cccc(S(=O)(=O)[O-])c5F)c5ccc([nH]5)c(-c5cccc(S(=O)(=O)[O-])c5F)c5nc(c(-c6cccc(S(=O)(=O)[O-])c6F)c6ccc3[nH]6)C=C5)C=C4)cc2)cc1N1C(=O)/C(=C\c2nc3ccccc3n2C)SC1=S
REMARK SMILES IDX 15 1 14 2 13 3 12 4 11 5 10 6 9 7 8 8 6 9 7 10 5 11 1 12
REMARK SMILES IDX 2 13 3 14 87 15 4 16 86 17 88 18 89 19 104 20 90 21 91 22
REMARK SMILES IDX 103 23 105 24 92 25 93 26 94 27 101 28 95 29 100 30 102 31
REMARK SMILES IDX 96 32 99 33 97 34 98 35 16 36 17 37 18 38 19 39 20 40 21 41
REMARK SMILES IDX 22 42 23 43 24 44 85 45 25 46 84 47 26 48 27 49 28 50 78 51
REMARK SMILES IDX 29 52 83 53 77 54 79 55 30 56 82 57 76 58 75 59 31 61 63 62
REMARK SMILES IDX 43 63 62 64 44 65 47 66 61 67 80 68 45 69 46 70 60 72 81 73
REMARK SMILES IDX 48 74 32 75 33 76 41 77 34 78 36 79 42 80 35 81 37 82 38 83
REMARK SMILES IDX 39 84 40 85 64 86 65 87 73 88 66 89 68 90 74 91 67 92 69 93
REMARK SMILES IDX 70 94 71 95 72 96 49 97 50 98 58 99 51 100 53 101 59 102
REMARK SMILES IDX 52 103 54 104 55 105 56 106 57 107
REMARK H PARENT 79 60 47 71
REMARK Flexibility Score: inf
ROOT
ATOM      1  C   UNL A   1      52.060  26.573  34.105  1.00  0.00     0.188 C 
ENDROOT
BRANCH   1   2
ATOM      2  O   UNL A   1      51.750  26.531  35.482  1.00  0.00    -0.377 OA
BRANCH   2   3
ATOM      3  C   UNL A   1      51.277  25.267  35.879  1.00  0.00     0.188 C 
BRANCH   3   4
ATOM      4  C   UNL A   1      51.471  24.112  34.886  1.00  0.00     0.188 C 
BRANCH   4   5
ATOM      5  O   UNL A   1      50.914  22.627  35.173  1.00  0.00    -0.376 OA
BRANCH   5   6
ATOM      6  C   UNL A   1      49.280  21.978  35.096  1.00  0.00     0.202 C 
BRANCH   6   7
ATOM      7  C   UNL A   1      48.389  20.469  35.753  1.00  0.00     0.261 C 
BRANCH   7   8
ATOM      8  O   UNL A   1      47.766  20.120  37.455  1.00  0.00    -0.460 OA
BRANCH   8   9
ATOM      9  C   UNL A   1      47.808  19.133  38.710  1.00  0.00     0.338 C 
ATOM     10  O   UNL A   1      48.915  18.905  39.220  1.00  0.00    -0.246 OA
BRANCH   9  11
ATOM     11  C   UNL A   1      46.646  18.179  39.497  1.00  0.00     0.062 A 
ATOM     12  C   UNL A   1      43.058  16.088  41.086  1.00  0.00     0.046 C 
ATOM     13  C   UNL A   1      44.296  16.771  40.587  1.00  0.00    -0.027 A 
ATOM     14  C   UNL A   1      44.522  16.930  39.205  1.00  0.00     0.006 A 
ATOM     15  C   UNL A   1      45.274  17.245  41.442  1.00  0.00     0.054 A 
ATOM     16  C   UNL A   1      45.636  17.651  38.682  1.00  0.00     0.016 A 
ATOM     17  C   UNL A   1      46.438  17.810  40.866  1.00  0.00     0.042 A 
BRANCH  15  18
ATOM     18  N   UNL A   1      45.053  17.441  42.858  1.00  0.00    -0.261 N 
ATOM     19  C   UNL A   1      45.192  16.340  43.704  1.00  0.00     0.270 C 
ATOM     20  C   UNL A   1      44.697  18.627  43.457  1.00  0.00     0.152 C 
ATOM     21  O   UNL A   1      45.509  15.217  43.309  1.00  0.00    -0.268 OA
ATOM     22  C   UNL A   1      44.925  16.702  45.147  1.00  0.00     0.084 C 
ATOM     23  S   UNL A   1      44.511  18.389  45.203  1.00  0.00    -0.054 SA
ATOM     24  S   UNL A   1      44.431  20.122  42.760  1.00  0.00    -0.051 S 
ATOM     25  C   UNL A   1      44.948  15.952  46.274  1.00  0.00     0.068 C 
BRANCH  25  26
ATOM     26  C   UNL A   1      45.288  14.574  46.266  1.00  0.00     0.134 A 
ATOM     27  N   UNL A   1      46.430  14.025  45.923  1.00  0.00    -0.229 NA
ATOM     28  N   UNL A   1      44.382  13.561  46.540  1.00  0.00    -0.328 N 
ATOM     29  C   UNL A   1      46.100  12.787  45.457  1.00  0.00     0.089 A 
ATOM     30  C   UNL A   1      44.807  12.447  45.842  1.00  0.00     0.068 A 
ATOM     31  C   UNL A   1      43.215  13.618  47.384  1.00  0.00     0.152 C 
ATOM     32  C   UNL A   1      46.846  11.922  44.649  1.00  0.00     0.030 A 
ATOM     33  C   UNL A   1      44.219  11.226  45.489  1.00  0.00     0.028 A 
ATOM     34  C   UNL A   1      46.253  10.730  44.229  1.00  0.00     0.002 A 
ATOM     35  C   UNL A   1      44.967  10.384  44.653  1.00  0.00     0.002 A 
ENDBRANCH  25  26
ENDBRANCH  15  18
ENDBRANCH   9  11
ENDBRANCH   8   9
ENDBRANCH   7   8
ENDBRANCH   6   7
ENDBRANCH   5   6
ENDBRANCH   4   5
ENDBRANCH   3   4
ENDBRANCH   2   3
ENDBRANCH   1   2
BRANCH   1  36
ATOM     36  C   UNL A   1      52.795  27.849  33.633  1.00  0.00     0.188 C 
BRANCH  36  37
ATOM     37  O   UNL A   1      52.473  28.299  32.326  1.00  0.00    -0.376 OA
BRANCH  37  38
ATOM     38  C   UNL A   1      51.132  28.054  31.919  1.00  0.00     0.202 C 
BRANCH  38  39
ATOM     39  C   UNL A   1      50.457  28.929  30.792  1.00  0.00     0.261 C 
BRANCH  39  40
ATOM     40  O   UNL A   1      49.567  28.197  29.889  1.00  0.00    -0.460 OA
BRANCH  40  41
ATOM     41  C   UNL A   1      49.586  28.480  28.541  1.00  0.00     0.338 C 
ATOM     42  O   UNL A   1      50.477  29.138  27.998  1.00  0.00    -0.246 OA
BRANCH  41  43
ATOM     43  C   UNL A   1      48.239  28.157  27.899  1.00  0.00     0.060 A 
ATOM     44  C   UNL A   1      47.815  28.788  26.739  1.00  0.00     0.016 A 
ATOM     45  C   UNL A   1      47.237  27.497  28.605  1.00  0.00     0.016 A 
ATOM     46  C   UNL A   1      46.420  28.957  26.503  1.00  0.00     0.010 A 
ATOM     47  C   UNL A   1      45.881  27.940  28.510  1.00  0.00     0.010 A 
ATOM     48  C   UNL A   1      45.449  28.857  27.535  1.00  0.00    -0.014 A 
BRANCH  48  49
ATOM     49  C   UNL A   1      43.874  29.641  27.640  1.00  0.00     0.031 A 
ATOM     50  C   UNL A   1      44.500  30.890  28.771  1.00  0.00     0.074 A 
ATOM     51  C   UNL A   1      42.258  29.178  27.325  1.00  0.00     0.049 A 
ATOM     52  N   UNL A   1      44.059  31.144  29.992  1.00  0.00    -0.248 NA
ATOM     53  C   UNL A   1      45.709  31.711  28.556  1.00  0.00     0.031 C 
ATOM     54  C   UNL A   1      40.698  29.739  27.685  1.00  0.00     0.029 A 
ATOM     55  N   UNL A   1      41.523  27.844  26.875  1.00  0.00    -0.354 N 
ATOM     56  C   UNL A   1      44.395  32.435  30.287  1.00  0.00     0.074 A 
ATOM     57  C   UNL A   1      45.645  32.581  29.578  1.00  0.00     0.031 C 
ATOM     58  C   UNL A   1      39.683  28.886  27.528  1.00  0.00     0.029 A 
ATOM     59  C   UNL A   1      40.271  27.611  27.496  1.00  0.00     0.049 A 
ATOM     60  H   UNL A   1      41.909  27.224  26.215  1.00  0.00     0.167 HD
ATOM     61  C   UNL A   1      43.465  33.356  30.727  1.00  0.00     0.034 A 
ATOM     62  C   UNL A   1      39.933  26.667  28.439  1.00  0.00     0.034 A 
ATOM     63  C   UNL A   1      42.034  32.849  30.772  1.00  0.00     0.049 A 
ATOM     64  C   UNL A   1      39.471  27.394  29.755  1.00  0.00     0.074 A 
ATOM     65  C   UNL A   1      40.916  33.191  30.009  1.00  0.00     0.029 A 
ATOM     66  N   UNL A   1      41.617  31.710  31.491  1.00  0.00    -0.354 N 
ATOM     67  N   UNL A   1      39.789  28.634  30.053  1.00  0.00    -0.248 NA
ATOM     68  C   UNL A   1      38.590  26.838  30.773  1.00  0.00     0.031 C 
ATOM     69  C   UNL A   1      39.882  32.235  30.202  1.00  0.00     0.029 A 
ATOM     70  C   UNL A   1      40.316  31.297  31.127  1.00  0.00     0.049 A 
ATOM     71  H   UNL A   1      42.169  31.254  32.167  1.00  0.00     0.167 HD
ATOM     72  C   UNL A   1      39.272  29.038  31.250  1.00  0.00     0.074 A 
ATOM     73  C   UNL A   1      38.460  27.879  31.624  1.00  0.00     0.031 C 
ATOM     74  C   UNL A   1      39.560  30.250  31.851  1.00  0.00     0.034 A 
BRANCH  61  75
ATOM     75  C   UNL A   1      43.805  34.867  30.611  1.00  0.00     0.023 A 
ATOM     76  C   UNL A   1      44.273  35.576  31.739  1.00  0.00     0.012 A 
ATOM     77  C   UNL A   1      43.618  35.658  29.449  1.00  0.00     0.148 A 
ATOM     78  C   UNL A   1      44.356  36.977  31.780  1.00  0.00     0.002 A 
ATOM     79  C   UNL A   1      43.619  37.060  29.505  1.00  0.00     0.091 A 
ATOM     80  F   UNL A   1      43.533  35.056  28.254  1.00  0.00    -0.205 F 
ATOM     81  C   UNL A   1      43.971  37.726  30.680  1.00  0.00     0.022 A 
BRANCH  79  82
ATOM     82  S   UNL A   1      43.060  38.077  28.126  1.00  0.00     0.127 S 
ATOM     83  O   UNL A   1      41.906  37.328  27.620  1.00  0.00    -0.237 OA
ATOM     84  O   UNL A   1      42.719  39.338  28.779  1.00  0.00    -0.237 OA
ATOM     85  O   UNL A   1      44.181  38.129  27.194  1.00  0.00    -0.744 OA
ENDBRANCH  79  82
ENDBRANCH  61  75
BRANCH  62  86
ATOM     86  C   UNL A   1      40.655  25.338  28.343  1.00  0.00     0.023 A 
ATOM     87  C   UNL A   1      39.997  24.297  27.633  1.00  0.00     0.012 A 
ATOM     88  C   UNL A   1      42.038  25.187  28.578  1.00  0.00     0.148 A 
ATOM     89  C   UNL A   1      40.709  23.261  27.019  1.00  0.00     0.002 A 
ATOM     90  C   UNL A   1      42.750  24.172  27.922  1.00  0.00     0.091 A 
ATOM     91  F   UNL A   1      42.672  26.127  29.290  1.00  0.00    -0.205 F 
ATOM     92  C   UNL A   1      42.092  23.223  27.127  1.00  0.00     0.022 A 
BRANCH  90  93
ATOM     93  S   UNL A   1      44.556  24.208  27.858  1.00  0.00     0.127 S 
ATOM     94  O   UNL A   1      44.861  22.858  27.391  1.00  0.00    -0.237 OA
ATOM     95  O   UNL A   1      44.834  25.271  26.892  1.00  0.00    -0.237 OA
ATOM     96  O   UNL A   1      44.952  24.530  29.223  1.00  0.00    -0.744 OA
ENDBRANCH  90  93
ENDBRANCH  62  86
BRANCH  74  97
ATOM     97  C   UNL A   1      39.074  30.635  33.238  1.00  0.00     0.023 A 
ATOM     98  C   UNL A   1      39.711  30.160  34.396  1.00  0.00     0.012 A 
ATOM     99  C   UNL A   1      38.073  31.630  33.416  1.00  0.00     0.148 A 
ATOM    100  C   UNL A   1      39.354  30.615  35.669  1.00  0.00     0.002 A 
ATOM    101  C   UNL A   1      37.809  32.167  34.671  1.00  0.00     0.091 A 
ATOM    102  F   UNL A   1      37.339  32.047  32.375  1.00  0.00    -0.205 F 
ATOM    103  C   UNL A   1      38.428  31.642  35.805  1.00  0.00     0.022 A 
BRANCH 101 104
ATOM    104  S   UNL A   1      36.800  33.648  34.841  1.00  0.00     0.127 S 
ATOM    105  O   UNL A   1      36.280  33.509  36.202  1.00  0.00    -0.237 OA
ATOM    106  O   UNL A   1      37.786  34.721  34.679  1.00  0.00    -0.237 OA
ATOM    107  O   UNL A   1      35.825  33.571  33.767  1.00  0.00    -0.744 OA
ENDBRANCH 101 104
ENDBRANCH  74  97
ENDBRANCH  48  49
ENDBRANCH  41  43
ENDBRANCH  40  41
ENDBRANCH  39  40
ENDBRANCH  38  39
ENDBRANCH  37  38
ENDBRANCH  36  37
ENDBRANCH   1  36
TORSDOF 25
ENDMDL
MODEL 2
REMARK VINA RESULT:      -9.8      7.950     11.713
REMARK SMILES Cc1ccc(C(=O)OCCOCCOCCOCCOC(=O)c2ccc(-c3c4nc(c(-c5cccc(S(=O)(=O)[O-])c5F)c5ccc([nH]5)c(-c5cccc(S(=O)(=O)[O-])c5F)c5nc(c(-c6cccc(S(=O)(=O)[O-])c6F)c6ccc3[nH]6)C=C5)C=C4)cc2)cc1N1C(=O)/C(=C\c2nc3ccccc3n2C)SC1=S
REMARK SMILES IDX 15 1 14 2 13 3 12 4 11 5 10 6 9 7 8 8 6 9 7 10 5 11 1 12
REMARK SMILES IDX 2 13 3 14 87 15 4 16 86 17 88 18 89 19 104 20 90 21 91 22
REMARK SMILES IDX 103 23 105 24 92 25 93 26 94 27 101 28 95 29 100 30 102 31
REMARK SMILES IDX 96 32 99 33 97 34 98 35 16 36 17 37 18 38 19 39 20 40 21 41
REMARK SMILES IDX 22 42 23 43 24 44 85 45 25 46 84 47 26 48 27 49 28 50 78 51
REMARK SMILES IDX 29 52 83 53 77 54 79 55 30 56 82 57 76 58 75 59 31 61 63 62
REMARK SMILES IDX 43 63 62 64 44 65 47 66 61 67 80 68 45 69 46 70 60 72 81 73
REMARK SMILES IDX 48 74 32 75 33 76 41 77 34 78 36 79 42 80 35 81 37 82 38 83
REMARK SMILES IDX 39 84 40 85 64 86 65 87 73 88 66 89 68 90 74 91 67 92 69 93
REMARK SMILES IDX 70 94 71 95 72 96 49 97 50 98 58 99 51 100 53 101 59 102
REMARK SMILES IDX 52 103 54 104 55 105 56 106 57 107
REMARK H PARENT 79 60 47 71
REMARK Flexibility Score: inf
ROOT
ATOM      1  C   UNL A   1      53.701  28.173  25.698  1.00  0.00     0.188 C 
ENDROOT
BRANCH   1   2
ATOM      2  O   UNL A   1      54.640  27.682  24.765  1.00  0.00    -0.377 OA
BRANCH   2   3
ATOM      3  C   UNL A   1      54.226  27.894  23.437  1.00  0.00     0.188 C 
BRANCH   3   4
ATOM      4  C   UNL A   1      52.736  28.191  23.216  1.00  0.00     0.188 C 
BRANCH   4   5
ATOM      5  O   UNL A   1      51.846  27.377  22.146  1.00  0.00    -0.376 OA
BRANCH   5   6
ATOM      6  C   UNL A   1      50.390  27.839  21.274  1.00  0.00     0.202 C 
BRANCH   6   7
ATOM      7  C   UNL A   1      48.553  27.882  21.630  1.00  0.00     0.261 C 
BRANCH   7   8
ATOM      8  O   UNL A   1      47.631  27.303  23.121  1.00  0.00    -0.460 OA
BRANCH   8   9
ATOM      9  C   UNL A   1      46.782  27.727  24.405  1.00  0.00     0.338 C 
ATOM     10  O   UNL A   1      46.625  28.940  24.611  1.00  0.00    -0.246 OA
BRANCH   9  11
ATOM     11  C   UNL A   1      46.090  26.868  25.696  1.00  0.00     0.062 A 
ATOM     12  C   UNL A   1      44.798  24.013  28.849  1.00  0.00     0.046 C 
ATOM     13  C   UNL A   1      45.195  25.005  27.798  1.00  0.00    -0.027 A 
ATOM     14  C   UNL A   1      46.554  25.281  27.546  1.00  0.00     0.006 A 
ATOM     15  C   UNL A   1      44.262  25.710  27.058  1.00  0.00     0.054 A 
ATOM     16  C   UNL A   1      46.984  26.147  26.498  1.00  0.00     0.016 A 
ATOM     17  C   UNL A   1      44.742  26.677  26.142  1.00  0.00     0.042 A 
BRANCH  15  18
ATOM     18  N   UNL A   1      42.871  25.324  26.974  1.00  0.00    -0.261 N 
ATOM     19  C   UNL A   1      41.928  26.120  27.624  1.00  0.00     0.270 C 
ATOM     20  C   UNL A   1      42.384  24.219  26.314  1.00  0.00     0.152 C 
ATOM     21  O   UNL A   1      42.217  27.140  28.251  1.00  0.00    -0.268 OA
ATOM     22  C   UNL A   1      40.524  25.585  27.448  1.00  0.00     0.084 C 
ATOM     23  S   UNL A   1      40.624  24.133  26.499  1.00  0.00    -0.054 SA
ATOM     24  S   UNL A   1      43.217  23.055  25.453  1.00  0.00    -0.051 S 
ATOM     25  C   UNL A   1      39.333  26.039  27.904  1.00  0.00     0.068 C 
BRANCH  25  26
ATOM     26  C   UNL A   1      39.214  27.225  28.676  1.00  0.00     0.134 A 
ATOM     27  N   UNL A   1      39.028  27.331  29.971  1.00  0.00    -0.229 NA
ATOM     28  N   UNL A   1      39.178  28.497  28.125  1.00  0.00    -0.328 N 
ATOM     29  C   UNL A   1      38.354  28.503  30.137  1.00  0.00     0.089 A 
ATOM     30  C   UNL A   1      38.438  29.283  28.987  1.00  0.00     0.068 A 
ATOM     31  C   UNL A   1      39.783  28.950  26.898  1.00  0.00     0.152 C 
ATOM     32  C   UNL A   1      37.599  28.940  31.231  1.00  0.00     0.030 A 
ATOM     33  C   UNL A   1      37.825  30.539  28.889  1.00  0.00     0.028 A 
ATOM     34  C   UNL A   1      36.925  30.158  31.129  1.00  0.00     0.002 A 
ATOM     35  C   UNL A   1      37.047  30.947  29.982  1.00  0.00     0.002 A 
ENDBRANCH  25  26
ENDBRANCH  15  18
ENDBRANCH   9  11
ENDBRANCH   8   9
ENDBRANCH   7   8
ENDBRANCH   6   7
ENDBRANCH   5   6
ENDBRANCH   4   5
ENDBRANCH   3   4
ENDBRANCH   2   3
ENDBRANCH   1   2
BRANCH   1  36
ATOM     36  C   UNL A   1      54.157  28.137  27.175  1.00  0.00     0.188 C 
BRANCH  36  37
ATOM     37  O   UNL A   1      53.778  26.983  27.910  1.00  0.00    -0.376 OA
BRANCH  37  38
ATOM     38  C   UNL A   1      52.705  26.237  27.346  1.00  0.00     0.202 C 
BRANCH  38  39
ATOM     39  C   UNL A   1      51.210  26.536  27.757  1.00  0.00     0.261 C 
BRANCH  39  40
ATOM     40  O   UNL A   1      51.047  27.531  28.819  1.00  0.00    -0.460 OA
BRANCH  40  41
ATOM     41  C   UNL A   1      49.937  27.481  29.631  1.00  0.00     0.338 C 
ATOM     42  O   UNL A   1      49.589  26.468  30.244  1.00  0.00    -0.246 OA
BRANCH  41  43
ATOM     43  C   UNL A   1      49.051  28.706  29.420  1.00  0.00     0.060 A 
ATOM     44  C   UNL A   1      48.741  29.569  30.460  1.00  0.00     0.016 A 
ATOM     45  C   UNL A   1      48.241  28.832  28.295  1.00  0.00     0.016 A 
ATOM     46  C   UNL A   1      47.511  30.288  30.432  1.00  0.00     0.010 A 
ATOM     47  C   UNL A   1      46.899  29.309  28.427  1.00  0.00     0.010 A 
ATOM     48  C   UNL A   1      46.419  29.908  29.605  1.00  0.00    -0.014 A 
BRANCH  48  49
ATOM     49  C   UNL A   1      44.697  30.179  29.866  1.00  0.00     0.031 A 
ATOM     50  C   UNL A   1      44.894  31.962  29.744  1.00  0.00     0.074 A 
ATOM     51  C   UNL A   1      43.408  29.276  30.534  1.00  0.00     0.049 A 
ATOM     52  N   UNL A   1      44.582  32.857  30.665  1.00  0.00    -0.248 NA
ATOM     53  C   UNL A   1      45.585  32.674  28.649  1.00  0.00     0.031 C 
ATOM     54  C   UNL A   1      41.835  29.561  31.100  1.00  0.00     0.029 A 
ATOM     55  N   UNL A   1      43.256  27.862  31.244  1.00  0.00    -0.354 N 
ATOM     56  C   UNL A   1      44.373  34.046  30.025  1.00  0.00     0.074 A 
ATOM     57  C   UNL A   1      45.314  33.959  28.933  1.00  0.00     0.031 C 
ATOM     58  C   UNL A   1      41.272  28.622  31.864  1.00  0.00     0.029 A 
ATOM     59  C   UNL A   1      42.337  27.829  32.321  1.00  0.00     0.049 A 
ATOM     60  H   UNL A   1      43.763  27.069  30.956  1.00  0.00     0.167 HD
ATOM     61  C   UNL A   1      43.218  34.783  30.199  1.00  0.00     0.034 A 
ATOM     62  C   UNL A   1      42.586  27.711  33.670  1.00  0.00     0.034 A 
ATOM     63  C   UNL A   1      42.169  34.130  31.081  1.00  0.00     0.049 A 
ATOM     64  C   UNL A   1      42.068  29.001  34.405  1.00  0.00     0.074 A 
ATOM     65  C   UNL A   1      40.909  33.612  30.776  1.00  0.00     0.029 A 
ATOM     66  N   UNL A   1      42.397  33.707  32.407  1.00  0.00    -0.354 N 
ATOM     67  N   UNL A   1      41.864  30.152  33.803  1.00  0.00    -0.248 NA
ATOM     68  C   UNL A   1      41.679  29.087  35.806  1.00  0.00     0.031 C 
ATOM     69  C   UNL A   1      40.428  32.828  31.861  1.00  0.00     0.029 A 
ATOM     70  C   UNL A   1      41.359  32.878  32.888  1.00  0.00     0.049 A 
ATOM     71  H   UNL A   1      43.188  33.960  32.936  1.00  0.00     0.167 HD
ATOM     72  C   UNL A   1      41.416  31.121  34.653  1.00  0.00     0.074 A 
ATOM     73  C   UNL A   1      41.248  30.365  35.895  1.00  0.00     0.031 C 
ATOM     74  C   UNL A   1      41.246  32.447  34.300  1.00  0.00     0.034 A 
BRANCH  61  75
ATOM     75  C   UNL A   1      42.855  35.855  29.135  1.00  0.00     0.023 A 
ATOM     76  C   UNL A   1      42.217  35.473  27.935  1.00  0.00     0.012 A 
ATOM     77  C   UNL A   1      43.177  37.233  29.223  1.00  0.00     0.148 A 
ATOM     78  C   UNL A   1      42.090  36.331  26.831  1.00  0.00     0.002 A 
ATOM     79  C   UNL A   1      43.130  38.073  28.100  1.00  0.00     0.091 A 
ATOM     80  F   UNL A   1      43.442  37.768  30.423  1.00  0.00    -0.205 F 
ATOM     81  C   UNL A   1      42.601  37.617  26.891  1.00  0.00     0.022 A 
BRANCH  79  82
ATOM     82  S   UNL A   1      43.843  39.728  28.107  1.00  0.00     0.127 S 
ATOM     83  O   UNL A   1      45.218  39.484  28.553  1.00  0.00    -0.237 OA
ATOM     84  O   UNL A   1      43.727  40.130  26.707  1.00  0.00    -0.237 OA
ATOM     85  O   UNL A   1      43.046  40.498  29.056  1.00  0.00    -0.744 OA
ENDBRANCH  79  82
ENDBRANCH  61  75
BRANCH  62  86
ATOM     86  C   UNL A   1      43.784  26.867  34.057  1.00  0.00     0.023 A 
ATOM     87  C   UNL A   1      43.774  25.508  33.642  1.00  0.00     0.012 A 
ATOM     88  C   UNL A   1      45.021  27.413  34.458  1.00  0.00     0.148 A 
ATOM     89  C   UNL A   1      44.960  24.789  33.448  1.00  0.00     0.002 A 
ATOM     90  C   UNL A   1      46.208  26.703  34.218  1.00  0.00     0.091 A 
ATOM     91  F   UNL A   1      45.050  28.675  34.904  1.00  0.00    -0.205 F 
ATOM     92  C   UNL A   1      46.179  25.403  33.694  1.00  0.00     0.022 A 
BRANCH  90  93
ATOM     93  S   UNL A   1      47.811  27.529  34.319  1.00  0.00     0.127 S 
ATOM     94  O   UNL A   1      48.677  26.575  33.632  1.00  0.00    -0.237 OA
ATOM     95  O   UNL A   1      47.586  28.784  33.601  1.00  0.00    -0.237 OA
ATOM     96  O   UNL A   1      48.033  27.698  35.749  1.00  0.00    -0.744 OA
ENDBRANCH  90  93
ENDBRANCH  62  86
BRANCH  74  97
ATOM     97  C   UNL A   1      40.863  33.536  35.287  1.00  0.00     0.023 A 
ATOM     98  C   UNL A   1      39.522  33.893  35.501  1.00  0.00     0.012 A 
ATOM     99  C   UNL A   1      41.828  34.107  36.162  1.00  0.00     0.148 A 
ATOM    100  C   UNL A   1      39.154  34.797  36.502  1.00  0.00     0.002 A 
ATOM    101  C   UNL A   1      41.444  34.909  37.231  1.00  0.00     0.091 A 
ATOM    102  F   UNL A   1      43.137  33.910  35.950  1.00  0.00    -0.205 F 
ATOM    103  C   UNL A   1      40.109  35.278  37.388  1.00  0.00     0.022 A 
BRANCH 101 104
ATOM    104  S   UNL A   1      42.621  35.343  38.522  1.00  0.00     0.127 S 
ATOM    105  O   UNL A   1      42.008  36.536  39.106  1.00  0.00    -0.237 OA
ATOM    106  O   UNL A   1      42.589  34.161  39.388  1.00  0.00    -0.237 OA
ATOM    107  O   UNL A   1      43.885  35.539  37.834  1.00  0.00    -0.744 OA
ENDBRANCH 101 104
ENDBRANCH  74  97
ENDBRANCH  48  49
ENDBRANCH  41  43
ENDBRANCH  40  41
ENDBRANCH  39  40
ENDBRANCH  38  39
ENDBRANCH  37  38
ENDBRANCH  36  37
ENDBRANCH   1  36
TORSDOF 25
ENDMDL
MODEL 3
REMARK VINA RESULT:      -9.8      6.442     11.862
REMARK SMILES Cc1ccc(C(=O)OCCOCCOCCOCCOC(=O)c2ccc(-c3c4nc(c(-c5cccc(S(=O)(=O)[O-])c5F)c5ccc([nH]5)c(-c5cccc(S(=O)(=O)[O-])c5F)c5nc(c(-c6cccc(S(=O)(=O)[O-])c6F)c6ccc3[nH]6)C=C5)C=C4)cc2)cc1N1C(=O)/C(=C\c2nc3ccccc3n2C)SC1=S
REMARK SMILES IDX 15 1 14 2 13 3 12 4 11 5 10 6 9 7 8 8 6 9 7 10 5 11 1 12
REMARK SMILES IDX 2 13 3 14 87 15 4 16 86 17 88 18 89 19 104 20 90 21 91 22
REMARK SMILES IDX 103 23 105 24 92 25 93 26 94 27 101 28 95 29 100 30 102 31
REMARK SMILES IDX 96 32 99 33 97 34 98 35 16 36 17 37 18 38 19 39 20 40 21 41
REMARK SMILES IDX 22 42 23 43 24 44 85 45 25 46 84 47 26 48 27 49 28 50 78 51
REMARK SMILES IDX 29 52 83 53 77 54 79 55 30 56 82 57 76 58 75 59 31 61 63 62
REMARK SMILES IDX 43 63 62 64 44 65 47 66 61 67 80 68 45 69 46 70 60 72 81 73
REMARK SMILES IDX 48 74 32 75 33 76 41 77 34 78 36 79 42 80 35 81 37 82 38 83
REMARK SMILES IDX 39 84 40 85 64 86 65 87 73 88 66 89 68 90 74 91 67 92 69 93
REMARK SMILES IDX 70 94 71 95 72 96 49 97 50 98 58 99 51 100 53 101 59 102
REMARK SMILES IDX 52 103 54 104 55 105 56 106 57 107
REMARK H PARENT 79 60 47 71
REMARK Flexibility Score: inf
ROOT
ATOM      1  C   UNL A   1      54.394  28.601  25.898  1.00  0.00     0.188 C 
ENDROOT
BRANCH   1   2
ATOM      2  O   UNL A   1      55.283  28.406  24.819  1.00  0.00    -0.377 OA
BRANCH   2   3
ATOM      3  C   UNL A   1      54.687  28.706  23.582  1.00  0.00     0.188 C 
BRANCH   3   4
ATOM      4  C   UNL A   1      53.152  28.672  23.527  1.00  0.00     0.188 C 
BRANCH   4   5
ATOM      5  O   UNL A   1      52.348  27.658  22.566  1.00  0.00    -0.376 OA
BRANCH   5   6
ATOM      6  C   UNL A   1      50.945  27.919  21.537  1.00  0.00     0.202 C 
BRANCH   6   7
ATOM      7  C   UNL A   1      49.085  27.837  21.734  1.00  0.00     0.261 C 
BRANCH   7   8
ATOM      8  O   UNL A   1      48.080  27.222  23.155  1.00  0.00    -0.460 OA
BRANCH   8   9
ATOM      9  C   UNL A   1      47.056  27.600  24.320  1.00  0.00     0.338 C 
ATOM     10  O   UNL A   1      46.740  28.793  24.438  1.00  0.00    -0.246 OA
BRANCH   9  11
ATOM     11  C   UNL A   1      46.333  26.724  25.582  1.00  0.00     0.062 A 
ATOM     12  C   UNL A   1      44.955  23.825  28.657  1.00  0.00     0.046 C 
ATOM     13  C   UNL A   1      45.381  24.833  27.633  1.00  0.00    -0.027 A 
ATOM     14  C   UNL A   1      46.747  25.095  27.407  1.00  0.00     0.006 A 
ATOM     15  C   UNL A   1      44.469  25.565  26.893  1.00  0.00     0.054 A 
ATOM     16  C   UNL A   1      47.205  25.976  26.383  1.00  0.00     0.016 A 
ATOM     17  C   UNL A   1      44.976  26.544  26.004  1.00  0.00     0.042 A 
BRANCH  15  18
ATOM     18  N   UNL A   1      43.075  25.200  26.780  1.00  0.00    -0.261 N 
ATOM     19  C   UNL A   1      42.137  25.961  27.478  1.00  0.00     0.270 C 
ATOM     20  C   UNL A   1      42.579  24.144  26.049  1.00  0.00     0.152 C 
ATOM     21  O   UNL A   1      42.434  26.936  28.169  1.00  0.00    -0.268 OA
ATOM     22  C   UNL A   1      40.729  25.454  27.263  1.00  0.00     0.084 C 
ATOM     23  S   UNL A   1      40.818  24.065  26.223  1.00  0.00    -0.054 SA
ATOM     24  S   UNL A   1      43.403  23.029  25.118  1.00  0.00    -0.051 S 
ATOM     25  C   UNL A   1      39.541  25.890  27.744  1.00  0.00     0.068 C 
BRANCH  25  26
ATOM     26  C   UNL A   1      39.430  27.024  28.590  1.00  0.00     0.134 A 
ATOM     27  N   UNL A   1      39.256  27.048  29.891  1.00  0.00    -0.229 NA
ATOM     28  N   UNL A   1      39.393  28.328  28.121  1.00  0.00    -0.328 N 
ATOM     29  C   UNL A   1      38.586  28.210  30.135  1.00  0.00     0.089 A 
ATOM     30  C   UNL A   1      38.662  29.060  29.036  1.00  0.00     0.068 A 
ATOM     31  C   UNL A   1      39.989  28.857  26.920  1.00  0.00     0.152 C 
ATOM     32  C   UNL A   1      37.841  28.578  31.261  1.00  0.00     0.030 A 
ATOM     33  C   UNL A   1      38.052  30.320  29.023  1.00  0.00     0.028 A 
ATOM     34  C   UNL A   1      37.169  29.801  31.242  1.00  0.00     0.002 A 
ATOM     35  C   UNL A   1      37.283  30.661  30.146  1.00  0.00     0.002 A 
ENDBRANCH  25  26
ENDBRANCH  15  18
ENDBRANCH   9  11
ENDBRANCH   8   9
ENDBRANCH   7   8
ENDBRANCH   6   7
ENDBRANCH   5   6
ENDBRANCH   4   5
ENDBRANCH   3   4
ENDBRANCH   2   3
ENDBRANCH   1   2
BRANCH   1  36
ATOM     36  C   UNL A   1      55.063  28.924  27.254  1.00  0.00     0.188 C 
BRANCH  36  37
ATOM     37  O   UNL A   1      55.682  27.830  27.913  1.00  0.00    -0.376 OA
BRANCH  37  38
ATOM     38  C   UNL A   1      54.969  26.601  27.839  1.00  0.00     0.202 C 
BRANCH  38  39
ATOM     39  C   UNL A   1      53.739  26.322  28.789  1.00  0.00     0.261 C 
BRANCH  39  40
ATOM     40  O   UNL A   1      53.620  27.231  29.931  1.00  0.00    -0.460 OA
BRANCH  40  41
ATOM     41  C   UNL A   1      52.719  26.948  30.933  1.00  0.00     0.338 C 
ATOM     42  O   UNL A   1      52.737  25.902  31.586  1.00  0.00    -0.246 OA
BRANCH  41  43
ATOM     43  C   UNL A   1      51.546  27.925  30.902  1.00  0.00     0.060 A 
ATOM     44  C   UNL A   1      50.766  28.160  32.023  1.00  0.00     0.016 A 
ATOM     45  C   UNL A   1      50.989  28.354  29.700  1.00  0.00     0.016 A 
ATOM     46  C   UNL A   1      49.402  28.541  31.860  1.00  0.00     0.010 A 
ATOM     47  C   UNL A   1      49.569  28.430  29.555  1.00  0.00     0.010 A 
ATOM     48  C   UNL A   1      48.688  28.340  30.648  1.00  0.00    -0.014 A 
BRANCH  48  49
ATOM     49  C   UNL A   1      46.957  28.098  30.420  1.00  0.00     0.031 A 
ATOM     50  C   UNL A   1      46.675  29.861  30.209  1.00  0.00     0.074 A 
ATOM     51  C   UNL A   1      45.839  26.860  30.793  1.00  0.00     0.049 A 
ATOM     52  N   UNL A   1      45.882  30.628  30.938  1.00  0.00    -0.248 NA
ATOM     53  C   UNL A   1      47.416  30.743  29.283  1.00  0.00     0.031 C 
ATOM     54  C   UNL A   1      44.156  26.676  30.896  1.00  0.00     0.029 A 
ATOM     55  N   UNL A   1      45.896  25.464  31.550  1.00  0.00    -0.354 N 
ATOM     56  C   UNL A   1      45.536  31.704  30.171  1.00  0.00     0.074 A 
ATOM     57  C   UNL A   1      46.729  31.893  29.379  1.00  0.00     0.031 C 
ATOM     58  C   UNL A   1      43.688  25.615  31.557  1.00  0.00     0.029 A 
ATOM     59  C   UNL A   1      44.761  25.166  32.343  1.00  0.00     0.049 A 
ATOM     60  H   UNL A   1      46.663  24.852  31.473  1.00  0.00     0.167 HD
ATOM     61  C   UNL A   1      44.221  32.074  29.971  1.00  0.00     0.034 A 
ATOM     62  C   UNL A   1      44.648  25.127  33.715  1.00  0.00     0.034 A 
ATOM     63  C   UNL A   1      43.193  31.146  30.593  1.00  0.00     0.049 A 
ATOM     64  C   UNL A   1      43.608  26.212  34.178  1.00  0.00     0.074 A 
ATOM     65  C   UNL A   1      42.265  30.283  30.008  1.00  0.00     0.029 A 
ATOM     66  N   UNL A   1      43.152  30.808  31.962  1.00  0.00    -0.354 N 
ATOM     67  N   UNL A   1      43.267  27.253  33.451  1.00  0.00    -0.248 NA
ATOM     68  C   UNL A   1      42.837  26.182  35.413  1.00  0.00     0.031 C 
ATOM     69  C   UNL A   1      41.739  29.394  30.986  1.00  0.00     0.029 A 
ATOM     70  C   UNL A   1      42.296  29.713  32.216  1.00  0.00     0.049 A 
ATOM     71  H   UNL A   1      43.663  31.280  32.659  1.00  0.00     0.167 HD
ATOM     72  C   UNL A   1      42.348  28.050  34.070  1.00  0.00     0.074 A 
ATOM     73  C   UNL A   1      42.060  27.280  35.281  1.00  0.00     0.031 C 
ATOM     74  C   UNL A   1      41.920  29.270  33.577  1.00  0.00     0.034 A 
BRANCH  61  75
ATOM     75  C   UNL A   1      43.884  32.993  28.765  1.00  0.00     0.023 A 
ATOM     76  C   UNL A   1      44.214  32.589  27.453  1.00  0.00     0.012 A 
ATOM     77  C   UNL A   1      43.313  34.287  28.861  1.00  0.00     0.148 A 
ATOM     78  C   UNL A   1      44.177  33.460  26.353  1.00  0.00     0.002 A 
ATOM     79  C   UNL A   1      43.348  35.189  27.786  1.00  0.00     0.091 A 
ATOM     80  F   UNL A   1      42.640  34.626  29.970  1.00  0.00    -0.205 F 
ATOM     81  C   UNL A   1      43.800  34.781  26.529  1.00  0.00     0.022 A 
BRANCH  79  82
ATOM     82  S   UNL A   1      42.936  36.933  27.980  1.00  0.00     0.127 S 
ATOM     83  O   UNL A   1      43.290  37.494  26.674  1.00  0.00    -0.237 OA
ATOM     84  O   UNL A   1      41.500  36.892  28.248  1.00  0.00    -0.237 OA
ATOM     85  O   UNL A   1      43.772  37.417  29.074  1.00  0.00    -0.744 OA
ENDBRANCH  79  82
ENDBRANCH  61  75
BRANCH  62  86
ATOM     86  C   UNL A   1      45.878  24.668  34.474  1.00  0.00     0.023 A 
ATOM     87  C   UNL A   1      46.414  25.569  35.434  1.00  0.00     0.012 A 
ATOM     88  C   UNL A   1      46.282  23.320  34.554  1.00  0.00     0.148 A 
ATOM     89  C   UNL A   1      47.155  25.117  36.533  1.00  0.00     0.002 A 
ATOM     90  C   UNL A   1      46.986  22.868  35.680  1.00  0.00     0.091 A 
ATOM     91  F   UNL A   1      45.833  22.461  33.629  1.00  0.00    -0.205 F 
ATOM     92  C   UNL A   1      47.403  23.759  36.678  1.00  0.00     0.022 A 
BRANCH  90  93
ATOM     93  S   UNL A   1      47.144  21.100  36.019  1.00  0.00     0.127 S 
ATOM     94  O   UNL A   1      45.745  20.691  36.106  1.00  0.00    -0.237 OA
ATOM     95  O   UNL A   1      47.860  20.598  34.846  1.00  0.00    -0.237 OA
ATOM     96  O   UNL A   1      47.918  21.044  37.252  1.00  0.00    -0.744 OA
ENDBRANCH  90  93
ENDBRANCH  62  86
BRANCH  74  97
ATOM     97  C   UNL A   1      40.990  30.201  34.335  1.00  0.00     0.023 A 
ATOM     98  C   UNL A   1      39.595  30.049  34.280  1.00  0.00     0.012 A 
ATOM     99  C   UNL A   1      41.498  31.146  35.270  1.00  0.00     0.148 A 
ATOM    100  C   UNL A   1      38.741  30.816  35.078  1.00  0.00     0.002 A 
ATOM    101  C   UNL A   1      40.651  31.816  36.146  1.00  0.00     0.091 A 
ATOM    102  F   UNL A   1      42.807  31.434  35.300  1.00  0.00    -0.205 F 
ATOM    103  C   UNL A   1      39.269  31.673  36.035  1.00  0.00     0.022 A 
BRANCH 101 104
ATOM    104  S   UNL A   1      41.318  32.739  37.540  1.00  0.00     0.127 S 
ATOM    105  O   UNL A   1      40.132  33.434  38.042  1.00  0.00    -0.237 OA
ATOM    106  O   UNL A   1      41.811  31.673  38.417  1.00  0.00    -0.237 OA
ATOM    107  O   UNL A   1      42.364  33.575  36.978  1.00  0.00    -0.744 OA
ENDBRANCH 101 104
ENDBRANCH  74  97
ENDBRANCH  48  49
ENDBRANCH  41  43
ENDBRANCH  40  41
ENDBRANCH  39  40
ENDBRANCH  38  39
ENDBRANCH  37  38
ENDBRANCH  36  37
ENDBRANCH   1  36
TORSDOF 25
ENDMDL
