MODEL 1
REMARK VINA RESULT:      -9.0      0.000      0.000
REMARK SMILES O=C(Cn1nc(C(=O)OCCOCCOCCOCCOC(=O)c2ccc(-c3c4nc(c(-c5cccc(S(=O)(=O)[O-])c5F)c5ccc([nH]5)c(-c5cccc(S(=O)(=O)[O-])c5F)c5nc(c(-c6cccc(S(=O)(=O)[O-])c6F)c6ccc3[nH]6)C=C5)C=C4)cc2)c2ccccc2c1=O)Nc1ccc2c(c1)C(=O)c1ccccc1C2=O
REMARK SMILES IDX 15 1 14 2 13 3 12 4 11 5 10 6 9 7 7 8 8 9 6 10 4 11 5 12
REMARK SMILES IDX 93 13 92 14 94 15 87 16 91 17 88 18 90 19 89 20 3 21 2 22
REMARK SMILES IDX 1 23 95 24 96 26 97 27 101 28 98 29 100 30 99 31 102 32
REMARK SMILES IDX 110 33 103 34 104 35 109 36 111 37 105 38 108 39 106 40
REMARK SMILES IDX 107 41 16 42 17 43 18 44 19 45 20 46 21 47 22 48 23 49 24 50
REMARK SMILES IDX 25 51 86 52 26 53 85 54 27 55 28 56 29 57 79 58 30 59 84 60
REMARK SMILES IDX 78 61 80 62 31 63 83 64 77 65 76 66 32 68 64 69 44 70 63 71
REMARK SMILES IDX 45 72 48 73 62 74 81 75 46 76 47 77 61 79 82 80 49 81 33 82
REMARK SMILES IDX 34 83 42 84 35 85 37 86 43 87 36 88 38 89 39 90 40 91 41 92
REMARK SMILES IDX 65 93 66 94 74 95 67 96 69 97 75 98 68 99 70 100 71 101
REMARK SMILES IDX 72 102 73 103 50 104 51 105 59 106 52 107 54 108 60 109
REMARK SMILES IDX 53 110 55 111 56 112 57 113 58 114
REMARK H PARENT 95 25 80 67 48 78
REMARK Flexibility Score: inf
ROOT
ATOM      1  O   UNL A   1      40.908  23.451  27.832  1.00  0.00    -0.377 OA
ENDROOT
BRANCH   1   2
ATOM      2  C   UNL A   1      40.432  24.532  27.058  1.00  0.00     0.188 C 
BRANCH   2   3
ATOM      3  C   UNL A   1      39.478  25.538  27.720  1.00  0.00     0.188 C 
BRANCH   3   4
ATOM      4  O   UNL A   1      40.032  26.284  28.799  1.00  0.00    -0.376 OA
BRANCH   4   5
ATOM      5  C   UNL A   1      39.119  26.665  29.825  1.00  0.00     0.202 C 
BRANCH   5   6
ATOM      6  C   UNL A   1      39.184  28.153  30.171  1.00  0.00     0.261 C 
BRANCH   6   7
ATOM      7  O   UNL A   1      38.106  28.900  29.594  1.00  0.00    -0.458 OA
BRANCH   7   8
ATOM      8  C   UNL A   1      38.339  29.528  28.429  1.00  0.00     0.359 C 
ATOM      9  O   UNL A   1      39.076  29.188  27.522  1.00  0.00    -0.244 OA
BRANCH   8  10
ATOM     10  C   UNL A   1      37.408  30.727  28.338  1.00  0.00     0.176 A 
ATOM     11  N   UNL A   1      37.087  32.986  28.667  1.00  0.00    -0.219 N 
ATOM     12  N   UNL A   1      37.902  31.881  28.679  1.00  0.00    -0.161 NA
ATOM     13  C   UNL A   1      35.790  32.987  28.161  1.00  0.00     0.275 A 
ATOM     14  C   UNL A   1      35.208  31.667  27.852  1.00  0.00     0.051 A 
ATOM     15  O   UNL A   1      35.117  34.002  27.996  1.00  0.00    -0.267 OA
ATOM     16  C   UNL A   1      36.005  30.529  27.930  1.00  0.00     0.022 A 
ATOM     17  C   UNL A   1      33.849  31.558  27.521  1.00  0.00     0.014 A 
ATOM     18  C   UNL A   1      35.445  29.274  27.656  1.00  0.00     0.011 A 
ATOM     19  C   UNL A   1      33.290  30.305  27.272  1.00  0.00     0.001 A 
ATOM     20  C   UNL A   1      34.087  29.164  27.339  1.00  0.00     0.001 A 
BRANCH  11  21
ATOM     21  C   UNL A   1      37.660  34.231  29.182  1.00  0.00     0.248 C 
BRANCH  21  22
ATOM     22  C   UNL A   1      38.187  33.969  30.600  1.00  0.00     0.246 C 
ATOM     23  O   UNL A   1      39.383  33.799  30.827  1.00  0.00    -0.273 OA
ATOM     24  N   UNL A   1      37.171  33.813  31.539  1.00  0.00    -0.324 N 
ATOM     25  H   UNL A   1      36.364  34.364  31.425  1.00  0.00     0.169 HD
BRANCH  24  26
ATOM     26  C   UNL A   1      37.204  32.931  32.642  1.00  0.00     0.042 A 
ATOM     27  C   UNL A   1      37.977  31.764  32.504  1.00  0.00     0.027 A 
ATOM     28  C   UNL A   1      36.715  33.288  33.900  1.00  0.00     0.039 A 
ATOM     29  C   UNL A   1      38.401  31.052  33.631  1.00  0.00     0.015 A 
ATOM     30  C   UNL A   1      37.199  32.620  35.023  1.00  0.00     0.036 A 
ATOM     31  C   UNL A   1      38.083  31.549  34.892  1.00  0.00     0.034 A 
ATOM     32  C   UNL A   1      37.036  33.254  36.344  1.00  0.00     0.194 C 
ATOM     33  C   UNL A   1      38.905  31.162  36.059  1.00  0.00     0.194 C 
ATOM     34  O   UNL A   1      36.012  33.822  36.688  1.00  0.00    -0.289 OA
ATOM     35  C   UNL A   1      38.254  33.279  37.170  1.00  0.00     0.034 A 
ATOM     36  C   UNL A   1      39.185  32.251  37.023  1.00  0.00     0.034 A 
ATOM     37  O   UNL A   1      39.443  30.068  36.144  1.00  0.00    -0.289 OA
ATOM     38  C   UNL A   1      38.544  34.404  37.942  1.00  0.00     0.013 A 
ATOM     39  C   UNL A   1      40.430  32.342  37.645  1.00  0.00     0.013 A 
ATOM     40  C   UNL A   1      39.802  34.514  38.531  1.00  0.00     0.001 A 
ATOM     41  C   UNL A   1      40.742  33.488  38.381  1.00  0.00     0.001 A 
ENDBRANCH  24  26
ENDBRANCH  21  22
ENDBRANCH  11  21
ENDBRANCH   8  10
ENDBRANCH   7   8
ENDBRANCH   6   7
ENDBRANCH   5   6
ENDBRANCH   4   5
ENDBRANCH   3   4
ENDBRANCH   2   3
ENDBRANCH   1   2
BRANCH   1  42
ATOM     42  C   UNL A   1      41.488  22.320  27.202  1.00  0.00     0.188 C 
BRANCH  42  43
ATOM     43  C   UNL A   1      42.344  22.469  25.932  1.00  0.00     0.188 C 
BRANCH  43  44
ATOM     44  O   UNL A   1      42.818  21.243  25.377  1.00  0.00    -0.376 OA
BRANCH  44  45
ATOM     45  C   UNL A   1      44.185  21.241  24.978  1.00  0.00     0.202 C 
BRANCH  45  46
ATOM     46  C   UNL A   1      45.132  21.619  26.119  1.00  0.00     0.261 C 
BRANCH  46  47
ATOM     47  O   UNL A   1      46.397  22.133  25.684  1.00  0.00    -0.460 OA
BRANCH  47  48
ATOM     48  C   UNL A   1      46.396  23.344  25.084  1.00  0.00     0.338 C 
ATOM     49  O   UNL A   1      46.554  23.579  23.900  1.00  0.00    -0.246 OA
BRANCH  48  50
ATOM     50  C   UNL A   1      45.989  24.336  26.097  1.00  0.00     0.060 A 
ATOM     51  C   UNL A   1      46.886  24.747  27.088  1.00  0.00     0.016 A 
ATOM     52  C   UNL A   1      44.676  24.824  26.075  1.00  0.00     0.016 A 
ATOM     53  C   UNL A   1      46.479  25.678  28.041  1.00  0.00     0.010 A 
ATOM     54  C   UNL A   1      44.266  25.745  27.040  1.00  0.00     0.010 A 
ATOM     55  C   UNL A   1      45.174  26.195  28.012  1.00  0.00    -0.014 A 
BRANCH  55  56
ATOM     56  C   UNL A   1      44.839  27.360  28.860  1.00  0.00     0.031 A 
ATOM     57  C   UNL A   1      44.889  28.765  28.347  1.00  0.00     0.074 A 
ATOM     58  C   UNL A   1      44.481  27.109  30.133  1.00  0.00     0.049 A 
ATOM     59  N   UNL A   1      44.514  29.862  28.951  1.00  0.00    -0.248 NA
ATOM     60  C   UNL A   1      45.429  28.971  26.996  1.00  0.00     0.031 C 
ATOM     61  C   UNL A   1      44.445  25.778  30.744  1.00  0.00     0.029 A 
ATOM     62  N   UNL A   1      44.085  27.950  31.137  1.00  0.00    -0.354 N 
ATOM     63  C   UNL A   1      44.767  30.894  28.059  1.00  0.00     0.074 A 
ATOM     64  C   UNL A   1      45.347  30.293  26.875  1.00  0.00     0.031 C 
ATOM     65  C   UNL A   1      44.046  25.893  32.019  1.00  0.00     0.029 A 
ATOM     66  C   UNL A   1      43.794  27.301  32.311  1.00  0.00     0.049 A 
ATOM     67  H   UNL A   1      44.016  28.927  31.028  1.00  0.00     0.167 HD
ATOM     68  C   UNL A   1      44.508  32.214  28.212  1.00  0.00     0.034 A 
ATOM     69  C   UNL A   1      43.351  27.778  33.489  1.00  0.00     0.034 A 
ATOM     70  C   UNL A   1      43.908  32.796  29.385  1.00  0.00     0.049 A 
ATOM     71  C   UNL A   1      43.054  29.241  33.620  1.00  0.00     0.074 A 
ATOM     72  C   UNL A   1      43.540  34.114  29.597  1.00  0.00     0.029 A 
ATOM     73  N   UNL A   1      43.596  32.103  30.545  1.00  0.00    -0.354 N 
ATOM     74  N   UNL A   1      43.151  30.180  32.711  1.00  0.00    -0.248 NA
ATOM     75  C   UNL A   1      42.553  29.706  34.920  1.00  0.00     0.031 C 
ATOM     76  C   UNL A   1      43.010  34.219  30.887  1.00  0.00     0.029 A 
ATOM     77  C   UNL A   1      43.050  32.968  31.479  1.00  0.00     0.049 A 
ATOM     78  H   UNL A   1      43.742  31.140  30.684  1.00  0.00     0.167 HD
ATOM     79  C   UNL A   1      42.707  31.345  33.322  1.00  0.00     0.074 A 
ATOM     80  C   UNL A   1      42.325  30.990  34.674  1.00  0.00     0.031 C 
ATOM     81  C   UNL A   1      42.637  32.596  32.808  1.00  0.00     0.034 A 
BRANCH  68  82
ATOM     82  C   UNL A   1      44.790  33.132  27.054  1.00  0.00     0.023 A 
ATOM     83  C   UNL A   1      43.786  33.322  26.086  1.00  0.00     0.012 A 
ATOM     84  C   UNL A   1      45.971  33.895  26.991  1.00  0.00     0.148 A 
ATOM     85  C   UNL A   1      43.950  34.260  25.067  1.00  0.00     0.002 A 
ATOM     86  C   UNL A   1      46.120  34.844  25.985  1.00  0.00     0.091 A 
ATOM     87  F   UNL A   1      46.916  33.689  27.920  1.00  0.00    -0.205 F 
ATOM     88  C   UNL A   1      45.112  35.026  25.023  1.00  0.00     0.022 A 
BRANCH  86  89
ATOM     89  S   UNL A   1      47.554  35.920  25.863  1.00  0.00     0.127 S 
ATOM     90  O   UNL A   1      47.980  36.003  27.259  1.00  0.00    -0.237 OA
ATOM     91  O   UNL A   1      48.446  35.150  24.997  1.00  0.00    -0.237 OA
ATOM     92  O   UNL A   1      47.073  37.169  25.287  1.00  0.00    -0.744 OA
ENDBRANCH  86  89
ENDBRANCH  68  82
BRANCH  69  93
ATOM     93  C   UNL A   1      43.071  26.821  34.589  1.00  0.00     0.023 A 
ATOM     94  C   UNL A   1      41.759  26.339  34.755  1.00  0.00     0.012 A 
ATOM     95  C   UNL A   1      44.108  26.307  35.391  1.00  0.00     0.148 A 
ATOM     96  C   UNL A   1      41.483  25.360  35.710  1.00  0.00     0.002 A 
ATOM     97  C   UNL A   1      43.832  25.306  36.314  1.00  0.00     0.091 A 
ATOM     98  F   UNL A   1      45.346  26.786  35.208  1.00  0.00    -0.205 F 
ATOM     99  C   UNL A   1      42.518  24.837  36.480  1.00  0.00     0.022 A 
BRANCH  97 100
ATOM    100  S   UNL A   1      45.113  24.495  37.275  1.00  0.00     0.127 S 
ATOM    101  O   UNL A   1      44.462  24.344  38.573  1.00  0.00    -0.237 OA
ATOM    102  O   UNL A   1      45.302  23.248  36.532  1.00  0.00    -0.237 OA
ATOM    103  O   UNL A   1      46.259  25.393  37.247  1.00  0.00    -0.744 OA
ENDBRANCH  97 100
ENDBRANCH  69  93
BRANCH  81 104
ATOM    104  C   UNL A   1      42.143  33.693  33.709  1.00  0.00     0.023 A 
ATOM    105  C   UNL A   1      40.767  33.992  33.728  1.00  0.00     0.012 A 
ATOM    106  C   UNL A   1      43.012  34.347  34.603  1.00  0.00     0.148 A 
ATOM    107  C   UNL A   1      40.262  34.937  34.621  1.00  0.00     0.002 A 
ATOM    108  C   UNL A   1      42.497  35.266  35.509  1.00  0.00     0.091 A 
ATOM    109  F   UNL A   1      44.319  34.052  34.555  1.00  0.00    -0.205 F 
ATOM    110  C   UNL A   1      41.123  35.564  35.517  1.00  0.00     0.022 A 
BRANCH 108 111
ATOM    111  S   UNL A   1      43.512  36.080  36.749  1.00  0.00     0.127 S 
ATOM    112  O   UNL A   1      42.511  36.820  37.515  1.00  0.00    -0.237 OA
ATOM    113  O   UNL A   1      44.105  34.945  37.456  1.00  0.00    -0.237 OA
ATOM    114  O   UNL A   1      44.465  36.903  36.015  1.00  0.00    -0.744 OA
ENDBRANCH 108 111
ENDBRANCH  81 104
ENDBRANCH  55  56
ENDBRANCH  48  50
ENDBRANCH  47  48
ENDBRANCH  46  47
ENDBRANCH  45  46
ENDBRANCH  44  45
ENDBRANCH  43  44
ENDBRANCH  42  43
ENDBRANCH   1  42
TORSDOF 26
ENDMDL
MODEL 2
REMARK VINA RESULT:      -7.4      6.935     14.682
REMARK SMILES O=C(Cn1nc(C(=O)OCCOCCOCCOCCOC(=O)c2ccc(-c3c4nc(c(-c5cccc(S(=O)(=O)[O-])c5F)c5ccc([nH]5)c(-c5cccc(S(=O)(=O)[O-])c5F)c5nc(c(-c6cccc(S(=O)(=O)[O-])c6F)c6ccc3[nH]6)C=C5)C=C4)cc2)c2ccccc2c1=O)Nc1ccc2c(c1)C(=O)c1ccccc1C2=O
REMARK SMILES IDX 15 1 14 2 13 3 12 4 11 5 10 6 9 7 7 8 8 9 6 10 4 11 5 12
REMARK SMILES IDX 93 13 92 14 94 15 87 16 91 17 88 18 90 19 89 20 3 21 2 22
REMARK SMILES IDX 1 23 95 24 96 26 97 27 101 28 98 29 100 30 99 31 102 32
REMARK SMILES IDX 110 33 103 34 104 35 109 36 111 37 105 38 108 39 106 40
REMARK SMILES IDX 107 41 16 42 17 43 18 44 19 45 20 46 21 47 22 48 23 49 24 50
REMARK SMILES IDX 25 51 86 52 26 53 85 54 27 55 28 56 29 57 79 58 30 59 84 60
REMARK SMILES IDX 78 61 80 62 31 63 83 64 77 65 76 66 32 68 64 69 44 70 63 71
REMARK SMILES IDX 45 72 48 73 62 74 81 75 46 76 47 77 61 79 82 80 49 81 33 82
REMARK SMILES IDX 34 83 42 84 35 85 37 86 43 87 36 88 38 89 39 90 40 91 41 92
REMARK SMILES IDX 65 93 66 94 74 95 67 96 69 97 75 98 68 99 70 100 71 101
REMARK SMILES IDX 72 102 73 103 50 104 51 105 59 106 52 107 54 108 60 109
REMARK SMILES IDX 53 110 55 111 56 112 57 113 58 114
REMARK H PARENT 95 25 80 67 48 78
REMARK Flexibility Score: inf
ROOT
ATOM      1  O   UNL A   1      48.366  41.548  30.811  1.00  0.00    -0.377 OA
ENDROOT
BRANCH   1   2
ATOM      2  C   UNL A   1      49.312  42.471  30.315  1.00  0.00     0.188 C 
BRANCH   2   3
ATOM      3  C   UNL A   1      50.275  42.006  29.211  1.00  0.00     0.188 C 
BRANCH   3   4
ATOM      4  O   UNL A   1      49.674  41.277  28.145  1.00  0.00    -0.376 OA
BRANCH   4   5
ATOM      5  C   UNL A   1      49.816  39.860  28.203  1.00  0.00     0.202 C 
BRANCH   5   6
ATOM      6  C   UNL A   1      48.665  39.109  27.535  1.00  0.00     0.261 C 
BRANCH   6   7
ATOM      7  O   UNL A   1      48.049  39.866  26.484  1.00  0.00    -0.458 OA
BRANCH   7   8
ATOM      8  C   UNL A   1      47.173  39.228  25.691  1.00  0.00     0.359 C 
ATOM      9  O   UNL A   1      47.187  38.065  25.331  1.00  0.00    -0.244 OA
BRANCH   8  10
ATOM     10  C   UNL A   1      46.023  40.177  25.389  1.00  0.00     0.176 A 
ATOM     11  N   UNL A   1      45.220  41.948  24.151  1.00  0.00    -0.219 N 
ATOM     12  N   UNL A   1      46.207  41.033  24.427  1.00  0.00    -0.161 NA
ATOM     13  C   UNL A   1      43.957  41.926  24.735  1.00  0.00     0.275 A 
ATOM     14  C   UNL A   1      43.781  41.009  25.878  1.00  0.00     0.051 A 
ATOM     15  O   UNL A   1      43.020  42.636  24.375  1.00  0.00    -0.267 OA
ATOM     16  C   UNL A   1      44.801  40.125  26.214  1.00  0.00     0.022 A 
ATOM     17  C   UNL A   1      42.607  41.059  26.644  1.00  0.00     0.014 A 
ATOM     18  C   UNL A   1      44.641  39.270  27.312  1.00  0.00     0.011 A 
ATOM     19  C   UNL A   1      42.460  40.222  27.750  1.00  0.00     0.001 A 
ATOM     20  C   UNL A   1      43.475  39.328  28.083  1.00  0.00     0.001 A 
BRANCH  11  21
ATOM     21  C   UNL A   1      45.532  42.967  23.148  1.00  0.00     0.248 C 
BRANCH  21  22
ATOM     22  C   UNL A   1      45.072  42.454  21.777  1.00  0.00     0.246 C 
ATOM     23  O   UNL A   1      45.673  41.562  21.182  1.00  0.00    -0.273 OA
ATOM     24  N   UNL A   1      44.017  43.191  21.246  1.00  0.00    -0.324 N 
ATOM     25  H   UNL A   1      43.344  43.533  21.876  1.00  0.00     0.169 HD
BRANCH  24  26
ATOM     26  C   UNL A   1      43.832  43.486  19.877  1.00  0.00     0.042 A 
ATOM     27  C   UNL A   1      42.535  43.320  19.356  1.00  0.00     0.027 A 
ATOM     28  C   UNL A   1      44.798  44.147  19.116  1.00  0.00     0.039 A 
ATOM     29  C   UNL A   1      42.157  43.951  18.168  1.00  0.00     0.015 A 
ATOM     30  C   UNL A   1      44.399  44.834  17.972  1.00  0.00     0.036 A 
ATOM     31  C   UNL A   1      43.075  44.786  17.536  1.00  0.00     0.034 A 
ATOM     32  C   UNL A   1      45.295  45.867  17.422  1.00  0.00     0.194 C 
ATOM     33  C   UNL A   1      42.591  45.842  16.619  1.00  0.00     0.194 C 
ATOM     34  O   UNL A   1      46.505  45.724  17.341  1.00  0.00    -0.289 OA
ATOM     35  C   UNL A   1      44.641  47.147  17.109  1.00  0.00     0.034 A 
ATOM     36  C   UNL A   1      43.300  47.139  16.721  1.00  0.00     0.034 A 
ATOM     37  O   UNL A   1      41.585  45.706  15.940  1.00  0.00    -0.289 OA
ATOM     38  C   UNL A   1      45.302  48.346  17.373  1.00  0.00     0.013 A 
ATOM     39  C   UNL A   1      42.600  48.339  16.602  1.00  0.00     0.013 A 
ATOM     40  C   UNL A   1      44.592  49.543  17.293  1.00  0.00     0.001 A 
ATOM     41  C   UNL A   1      43.245  49.539  16.912  1.00  0.00     0.001 A 
ENDBRANCH  24  26
ENDBRANCH  21  22
ENDBRANCH  11  21
ENDBRANCH   8  10
ENDBRANCH   7   8
ENDBRANCH   6   7
ENDBRANCH   5   6
ENDBRANCH   4   5
ENDBRANCH   3   4
ENDBRANCH   2   3
ENDBRANCH   1   2
BRANCH   1  42
ATOM     42  C   UNL A   1      47.024  41.948  31.033  1.00  0.00     0.188 C 
BRANCH  42  43
ATOM     43  C   UNL A   1      46.627  42.741  32.291  1.00  0.00     0.188 C 
BRANCH  43  44
ATOM     44  O   UNL A   1      46.167  41.948  33.384  1.00  0.00    -0.376 OA
BRANCH  44  45
ATOM     45  C   UNL A   1      44.802  42.135  33.743  1.00  0.00     0.202 C 
BRANCH  45  46
ATOM     46  C   UNL A   1      44.388  41.283  34.945  1.00  0.00     0.261 C 
BRANCH  46  47
ATOM     47  O   UNL A   1      43.830  40.010  34.595  1.00  0.00    -0.460 OA
BRANCH  47  48
ATOM     48  C   UNL A   1      44.410  38.915  35.135  1.00  0.00     0.338 C 
ATOM     49  O   UNL A   1      45.007  38.844  36.194  1.00  0.00    -0.246 OA
BRANCH  48  50
ATOM     50  C   UNL A   1      44.039  37.761  34.292  1.00  0.00     0.060 A 
ATOM     51  C   UNL A   1      43.837  37.923  32.918  1.00  0.00     0.016 A 
ATOM     52  C   UNL A   1      43.849  36.515  34.901  1.00  0.00     0.016 A 
ATOM     53  C   UNL A   1      43.478  36.824  32.141  1.00  0.00     0.010 A 
ATOM     54  C   UNL A   1      43.473  35.417  34.123  1.00  0.00     0.010 A 
ATOM     55  C   UNL A   1      43.312  35.563  32.736  1.00  0.00    -0.014 A 
BRANCH  55  56
ATOM     56  C   UNL A   1      43.186  34.367  31.873  1.00  0.00     0.031 A 
ATOM     57  C   UNL A   1      44.374  33.684  31.273  1.00  0.00     0.074 A 
ATOM     58  C   UNL A   1      41.942  33.907  31.642  1.00  0.00     0.049 A 
ATOM     59  N   UNL A   1      44.408  32.568  30.593  1.00  0.00    -0.248 NA
ATOM     60  C   UNL A   1      45.683  34.328  31.449  1.00  0.00     0.031 C 
ATOM     61  C   UNL A   1      40.714  34.529  32.143  1.00  0.00     0.029 A 
ATOM     62  N   UNL A   1      41.504  32.823  30.931  1.00  0.00    -0.354 N 
ATOM     63  C   UNL A   1      45.740  32.368  30.258  1.00  0.00     0.074 A 
ATOM     64  C   UNL A   1      46.482  33.491  30.794  1.00  0.00     0.031 C 
ATOM     65  C   UNL A   1      39.660  33.814  31.725  1.00  0.00     0.029 A 
ATOM     66  C   UNL A   1      40.138  32.684  30.934  1.00  0.00     0.049 A 
ATOM     67  H   UNL A   1      42.109  32.203  30.463  1.00  0.00     0.167 HD
ATOM     68  C   UNL A   1      46.287  31.324  29.589  1.00  0.00     0.034 A 
ATOM     69  C   UNL A   1      39.353  31.740  30.382  1.00  0.00     0.034 A 
ATOM     70  C   UNL A   1      45.540  30.202  29.082  1.00  0.00     0.049 A 
ATOM     71  C   UNL A   1      39.990  30.587  29.666  1.00  0.00     0.074 A 
ATOM     72  C   UNL A   1      46.022  29.063  28.458  1.00  0.00     0.029 A 
ATOM     73  N   UNL A   1      44.160  30.077  29.131  1.00  0.00    -0.354 N 
ATOM     74  N   UNL A   1      41.264  30.332  29.495  1.00  0.00    -0.248 NA
ATOM     75  C   UNL A   1      39.088  29.574  29.100  1.00  0.00     0.031 C 
ATOM     76  C   UNL A   1      44.932  28.252  28.125  1.00  0.00     0.029 A 
ATOM     77  C   UNL A   1      43.772  28.886  28.539  1.00  0.00     0.049 A 
ATOM     78  H   UNL A   1      43.547  30.738  29.526  1.00  0.00     0.167 HD
ATOM     79  C   UNL A   1      41.320  29.121  28.819  1.00  0.00     0.074 A 
ATOM     80  C   UNL A   1      39.951  28.685  28.624  1.00  0.00     0.031 C 
ATOM     81  C   UNL A   1      42.410  28.443  28.386  1.00  0.00     0.034 A 
BRANCH  68  82
ATOM     82  C   UNL A   1      47.781  31.289  29.429  1.00  0.00     0.023 A 
ATOM     83  C   UNL A   1      48.523  30.401  30.232  1.00  0.00     0.012 A 
ATOM     84  C   UNL A   1      48.430  32.018  28.415  1.00  0.00     0.148 A 
ATOM     85  C   UNL A   1      49.893  30.238  30.030  1.00  0.00     0.002 A 
ATOM     86  C   UNL A   1      49.793  31.835  28.205  1.00  0.00     0.091 A 
ATOM     87  F   UNL A   1      47.703  32.864  27.671  1.00  0.00    -0.205 F 
ATOM     88  C   UNL A   1      50.524  30.947  29.011  1.00  0.00     0.022 A 
BRANCH  86  89
ATOM     89  S   UNL A   1      50.698  32.660  26.890  1.00  0.00     0.127 S 
ATOM     90  O   UNL A   1      52.031  32.777  27.479  1.00  0.00    -0.237 OA
ATOM     91  O   UNL A   1      50.597  31.697  25.794  1.00  0.00    -0.237 OA
ATOM     92  O   UNL A   1      50.010  33.922  26.657  1.00  0.00    -0.744 OA
ENDBRANCH  86  89
ENDBRANCH  68  82
BRANCH  69  93
ATOM     93  C   UNL A   1      37.885  31.818  30.591  1.00  0.00     0.023 A 
ATOM     94  C   UNL A   1      37.338  31.292  31.777  1.00  0.00     0.012 A 
ATOM     95  C   UNL A   1      37.054  32.500  29.683  1.00  0.00     0.148 A 
ATOM     96  C   UNL A   1      35.979  31.442  32.053  1.00  0.00     0.002 A 
ATOM     97  C   UNL A   1      35.709  32.678  29.983  1.00  0.00     0.091 A 
ATOM     98  F   UNL A   1      37.606  32.989  28.564  1.00  0.00    -0.205 F 
ATOM     99  C   UNL A   1      35.168  32.143  31.164  1.00  0.00     0.022 A 
BRANCH  97 100
ATOM    100  S   UNL A   1      34.609  33.657  28.955  1.00  0.00     0.127 S 
ATOM    101  O   UNL A   1      35.407  34.858  28.725  1.00  0.00    -0.237 OA
ATOM    102  O   UNL A   1      34.443  32.794  27.784  1.00  0.00    -0.237 OA
ATOM    103  O   UNL A   1      33.397  33.847  29.740  1.00  0.00    -0.744 OA
ENDBRANCH  97 100
ENDBRANCH  69  93
BRANCH  81 104
ATOM    104  C   UNL A   1      42.182  27.158  27.642  1.00  0.00     0.023 A 
ATOM    105  C   UNL A   1      41.900  27.209  26.264  1.00  0.00     0.012 A 
ATOM    106  C   UNL A   1      42.349  25.912  28.275  1.00  0.00     0.148 A 
ATOM    107  C   UNL A   1      41.778  26.034  25.523  1.00  0.00     0.002 A 
ATOM    108  C   UNL A   1      42.254  24.745  27.525  1.00  0.00     0.091 A 
ATOM    109  F   UNL A   1      42.605  25.892  29.590  1.00  0.00    -0.205 F 
ATOM    110  C   UNL A   1      41.966  24.805  26.150  1.00  0.00     0.022 A 
BRANCH 108 111
ATOM    111  S   UNL A   1      42.545  23.116  28.224  1.00  0.00     0.127 S 
ATOM    112  O   UNL A   1      41.239  22.481  28.054  1.00  0.00    -0.237 OA
ATOM    113  O   UNL A   1      43.597  22.589  27.354  1.00  0.00    -0.237 OA
ATOM    114  O   UNL A   1      42.954  23.336  29.605  1.00  0.00    -0.744 OA
ENDBRANCH 108 111
ENDBRANCH  81 104
ENDBRANCH  55  56
ENDBRANCH  48  50
ENDBRANCH  47  48
ENDBRANCH  46  47
ENDBRANCH  45  46
ENDBRANCH  44  45
ENDBRANCH  43  44
ENDBRANCH  42  43
ENDBRANCH   1  42
TORSDOF 26
ENDMDL
MODEL 3
REMARK VINA RESULT:      -7.2      2.775      4.882
REMARK SMILES O=C(Cn1nc(C(=O)OCCOCCOCCOCCOC(=O)c2ccc(-c3c4nc(c(-c5cccc(S(=O)(=O)[O-])c5F)c5ccc([nH]5)c(-c5cccc(S(=O)(=O)[O-])c5F)c5nc(c(-c6cccc(S(=O)(=O)[O-])c6F)c6ccc3[nH]6)C=C5)C=C4)cc2)c2ccccc2c1=O)Nc1ccc2c(c1)C(=O)c1ccccc1C2=O
REMARK SMILES IDX 15 1 14 2 13 3 12 4 11 5 10 6 9 7 7 8 8 9 6 10 4 11 5 12
REMARK SMILES IDX 93 13 92 14 94 15 87 16 91 17 88 18 90 19 89 20 3 21 2 22
REMARK SMILES IDX 1 23 95 24 96 26 97 27 101 28 98 29 100 30 99 31 102 32
REMARK SMILES IDX 110 33 103 34 104 35 109 36 111 37 105 38 108 39 106 40
REMARK SMILES IDX 107 41 16 42 17 43 18 44 19 45 20 46 21 47 22 48 23 49 24 50
REMARK SMILES IDX 25 51 86 52 26 53 85 54 27 55 28 56 29 57 79 58 30 59 84 60
REMARK SMILES IDX 78 61 80 62 31 63 83 64 77 65 76 66 32 68 64 69 44 70 63 71
REMARK SMILES IDX 45 72 48 73 62 74 81 75 46 76 47 77 61 79 82 80 49 81 33 82
REMARK SMILES IDX 34 83 42 84 35 85 37 86 43 87 36 88 38 89 39 90 40 91 41 92
REMARK SMILES IDX 65 93 66 94 74 95 67 96 69 97 75 98 68 99 70 100 71 101
REMARK SMILES IDX 72 102 73 103 50 104 51 105 59 106 52 107 54 108 60 109
REMARK SMILES IDX 53 110 55 111 56 112 57 113 58 114
REMARK H PARENT 95 25 80 67 48 78
REMARK Flexibility Score: inf
ROOT
ATOM      1  O   UNL A   1      39.730  24.193  27.647  1.00  0.00    -0.377 OA
ENDROOT
BRANCH   1   2
ATOM      2  C   UNL A   1      40.120  25.345  26.929  1.00  0.00     0.188 C 
BRANCH   2   3
ATOM      3  C   UNL A   1      40.537  26.592  27.724  1.00  0.00     0.188 C 
BRANCH   3   4
ATOM      4  O   UNL A   1      39.474  27.467  28.087  1.00  0.00    -0.376 OA
BRANCH   4   5
ATOM      5  C   UNL A   1      39.860  28.690  28.709  1.00  0.00     0.202 C 
BRANCH   5   6
ATOM      6  C   UNL A   1      40.150  28.545  30.202  1.00  0.00     0.261 C 
BRANCH   6   7
ATOM      7  O   UNL A   1      40.773  29.710  30.758  1.00  0.00    -0.458 OA
BRANCH   7   8
ATOM      8  C   UNL A   1      42.113  29.713  30.850  1.00  0.00     0.359 C 
ATOM      9  O   UNL A   1      42.856  28.777  31.084  1.00  0.00    -0.244 OA
BRANCH   8  10
ATOM     10  C   UNL A   1      42.615  31.099  30.476  1.00  0.00     0.176 A 
ATOM     11  N   UNL A   1      42.858  33.316  31.058  1.00  0.00    -0.219 N 
ATOM     12  N   UNL A   1      42.471  32.035  31.368  1.00  0.00    -0.161 NA
ATOM     13  C   UNL A   1      43.545  33.660  29.897  1.00  0.00     0.275 A 
ATOM     14  C   UNL A   1      43.635  32.616  28.858  1.00  0.00     0.051 A 
ATOM     15  O   UNL A   1      44.037  34.767  29.691  1.00  0.00    -0.267 OA
ATOM     16  C   UNL A   1      43.180  31.330  29.134  1.00  0.00     0.022 A 
ATOM     17  C   UNL A   1      44.139  32.931  27.587  1.00  0.00     0.014 A 
ATOM     18  C   UNL A   1      43.247  30.346  28.138  1.00  0.00     0.011 A 
ATOM     19  C   UNL A   1      44.182  31.955  26.592  1.00  0.00     0.001 A 
ATOM     20  C   UNL A   1      43.737  30.664  26.868  1.00  0.00     0.001 A 
BRANCH  11  21
ATOM     21  C   UNL A   1      42.554  34.351  32.048  1.00  0.00     0.248 C 
BRANCH  21  22
ATOM     22  C   UNL A   1      41.341  33.894  32.869  1.00  0.00     0.246 C 
ATOM     23  O   UNL A   1      41.426  33.009  33.717  1.00  0.00    -0.273 OA
ATOM     24  N   UNL A   1      40.149  34.481  32.452  1.00  0.00    -0.324 N 
ATOM     25  H   UNL A   1      40.191  35.414  32.142  1.00  0.00     0.169 HD
BRANCH  24  26
ATOM     26  C   UNL A   1      38.886  33.849  32.438  1.00  0.00     0.042 A 
ATOM     27  C   UNL A   1      38.058  34.051  33.558  1.00  0.00     0.027 A 
ATOM     28  C   UNL A   1      38.356  33.260  31.289  1.00  0.00     0.039 A 
ATOM     29  C   UNL A   1      36.680  33.826  33.476  1.00  0.00     0.015 A 
ATOM     30  C   UNL A   1      36.975  33.106  31.188  1.00  0.00     0.036 A 
ATOM     31  C   UNL A   1      36.139  33.444  32.252  1.00  0.00     0.034 A 
ATOM     32  C   UNL A   1      36.385  32.902  29.852  1.00  0.00     0.194 C 
ATOM     33  C   UNL A   1      34.707  33.693  31.977  1.00  0.00     0.194 C 
ATOM     34  O   UNL A   1      36.882  32.173  29.009  1.00  0.00    -0.289 OA
ATOM     35  C   UNL A   1      35.226  33.758  29.554  1.00  0.00     0.034 A 
ATOM     36  C   UNL A   1      34.400  34.159  30.605  1.00  0.00     0.034 A 
ATOM     37  O   UNL A   1      33.859  33.665  32.856  1.00  0.00    -0.289 OA
ATOM     38  C   UNL A   1      35.073  34.298  28.277  1.00  0.00     0.013 A 
ATOM     39  C   UNL A   1      33.410  35.118  30.389  1.00  0.00     0.013 A 
ATOM     40  C   UNL A   1      34.111  35.285  28.070  1.00  0.00     0.001 A 
ATOM     41  C   UNL A   1      33.285  35.696  29.122  1.00  0.00     0.001 A 
ENDBRANCH  24  26
ENDBRANCH  21  22
ENDBRANCH  11  21
ENDBRANCH   8  10
ENDBRANCH   7   8
ENDBRANCH   6   7
ENDBRANCH   5   6
ENDBRANCH   4   5
ENDBRANCH   3   4
ENDBRANCH   2   3
ENDBRANCH   1   2
BRANCH   1  42
ATOM     42  C   UNL A   1      40.009  22.901  27.134  1.00  0.00     0.188 C 
BRANCH  42  43
ATOM     43  C   UNL A   1      41.455  22.394  26.994  1.00  0.00     0.188 C 
BRANCH  43  44
ATOM     44  O   UNL A   1      41.835  22.010  25.674  1.00  0.00    -0.376 OA
BRANCH  44  45
ATOM     45  C   UNL A   1      43.153  22.382  25.284  1.00  0.00     0.202 C 
BRANCH  45  46
ATOM     46  C   UNL A   1      44.084  22.587  26.481  1.00  0.00     0.261 C 
BRANCH  46  47
ATOM     47  O   UNL A   1      45.461  22.769  26.127  1.00  0.00    -0.460 OA
BRANCH  47  48
ATOM     48  C   UNL A   1      45.751  23.787  25.286  1.00  0.00     0.338 C 
ATOM     49  O   UNL A   1      45.712  23.769  24.069  1.00  0.00    -0.246 OA
BRANCH  48  50
ATOM     50  C   UNL A   1      45.953  24.994  26.110  1.00  0.00     0.060 A 
ATOM     51  C   UNL A   1      44.981  25.998  26.146  1.00  0.00     0.016 A 
ATOM     52  C   UNL A   1      47.152  25.134  26.819  1.00  0.00     0.016 A 
ATOM     53  C   UNL A   1      45.194  27.135  26.923  1.00  0.00     0.010 A 
ATOM     54  C   UNL A   1      47.371  26.281  27.585  1.00  0.00     0.010 A 
ATOM     55  C   UNL A   1      46.381  27.273  27.660  1.00  0.00    -0.014 A 
BRANCH  55  56
ATOM     56  C   UNL A   1      46.482  28.349  28.672  1.00  0.00     0.031 A 
ATOM     57  C   UNL A   1      46.929  29.733  28.326  1.00  0.00     0.074 A 
ATOM     58  C   UNL A   1      46.153  28.032  29.938  1.00  0.00     0.049 A 
ATOM     59  N   UNL A   1      46.955  30.792  29.094  1.00  0.00    -0.248 NA
ATOM     60  C   UNL A   1      47.412  29.966  26.958  1.00  0.00     0.031 C 
ATOM     61  C   UNL A   1      45.749  26.697  30.388  1.00  0.00     0.029 A 
ATOM     62  N   UNL A   1      46.108  28.796  31.073  1.00  0.00    -0.354 N 
ATOM     63  C   UNL A   1      47.452  31.821  28.307  1.00  0.00     0.074 A 
ATOM     64  C   UNL A   1      47.735  31.254  27.004  1.00  0.00     0.031 C 
ATOM     65  C   UNL A   1      45.495  26.737  31.704  1.00  0.00     0.029 A 
ATOM     66  C   UNL A   1      45.712  28.098  32.186  1.00  0.00     0.049 A 
ATOM     67  H   UNL A   1      46.337  29.754  31.088  1.00  0.00     0.167 HD
ATOM     68  C   UNL A   1      47.626  33.122  28.643  1.00  0.00     0.034 A 
ATOM     69  C   UNL A   1      45.521  28.507  33.454  1.00  0.00     0.034 A 
ATOM     70  C   UNL A   1      47.318  33.677  29.935  1.00  0.00     0.049 A 
ATOM     71  C   UNL A   1      45.701  29.957  33.789  1.00  0.00     0.074 A 
ATOM     72  C   UNL A   1      47.391  34.999  30.341  1.00  0.00     0.029 A 
ATOM     73  N   UNL A   1      46.888  32.946  31.032  1.00  0.00    -0.354 N 
ATOM     74  N   UNL A   1      46.020  30.948  32.992  1.00  0.00    -0.248 NA
ATOM     75  C   UNL A   1      45.460  30.354  35.182  1.00  0.00     0.031 C 
ATOM     76  C   UNL A   1      47.011  35.067  31.685  1.00  0.00     0.029 A 
ATOM     77  C   UNL A   1      46.702  33.788  32.117  1.00  0.00     0.049 A 
ATOM     78  H   UNL A   1      46.738  31.974  31.040  1.00  0.00     0.167 HD
ATOM     79  C   UNL A   1      46.002  32.089  33.781  1.00  0.00     0.074 A 
ATOM     80  C   UNL A   1      45.624  31.670  35.117  1.00  0.00     0.031 C 
ATOM     81  C   UNL A   1      46.287  33.366  33.430  1.00  0.00     0.034 A 
BRANCH  68  82
ATOM     82  C   UNL A   1      48.097  34.072  27.577  1.00  0.00     0.023 A 
ATOM     83  C   UNL A   1      47.134  34.744  26.801  1.00  0.00     0.012 A 
ATOM     84  C   UNL A   1      49.459  34.399  27.433  1.00  0.00     0.148 A 
ATOM     85  C   UNL A   1      47.517  35.730  25.892  1.00  0.00     0.002 A 
ATOM     86  C   UNL A   1      49.832  35.398  26.540  1.00  0.00     0.091 A 
ATOM     87  F   UNL A   1      50.357  33.738  28.177  1.00  0.00    -0.205 F 
ATOM     88  C   UNL A   1      48.863  36.063  25.770  1.00  0.00     0.022 A 
BRANCH  86  89
ATOM     89  S   UNL A   1      51.533  35.941  26.338  1.00  0.00     0.127 S 
ATOM     90  O   UNL A   1      51.494  36.542  25.005  1.00  0.00    -0.237 OA
ATOM     91  O   UNL A   1      51.685  36.897  27.433  1.00  0.00    -0.237 OA
ATOM     92  O   UNL A   1      52.355  34.744  26.454  1.00  0.00    -0.744 OA
ENDBRANCH  86  89
ENDBRANCH  68  82
BRANCH  69  93
ATOM     93  C   UNL A   1      45.035  27.527  34.457  1.00  0.00     0.023 A 
ATOM     94  C   UNL A   1      45.975  26.753  35.164  1.00  0.00     0.012 A 
ATOM     95  C   UNL A   1      43.670  27.438  34.789  1.00  0.00     0.148 A 
ATOM     96  C   UNL A   1      45.560  25.900  36.187  1.00  0.00     0.002 A 
ATOM     97  C   UNL A   1      43.269  26.614  35.833  1.00  0.00     0.091 A 
ATOM     98  F   UNL A   1      42.801  28.188  34.098  1.00  0.00    -0.205 F 
ATOM     99  C   UNL A   1      44.212  25.838  36.528  1.00  0.00     0.022 A 
BRANCH  97 100
ATOM    100  S   UNL A   1      41.572  26.548  36.418  1.00  0.00     0.127 S 
ATOM    101  O   UNL A   1      41.695  25.689  37.592  1.00  0.00    -0.237 OA
ATOM    102  O   UNL A   1      41.299  27.956  36.710  1.00  0.00    -0.237 OA
ATOM    103  O   UNL A   1      40.794  25.999  35.316  1.00  0.00    -0.744 OA
ENDBRANCH  97 100
ENDBRANCH  69  93
BRANCH  81 104
ATOM    104  C   UNL A   1      46.221  34.416  34.503  1.00  0.00     0.023 A 
ATOM    105  C   UNL A   1      44.992  35.055  34.757  1.00  0.00     0.012 A 
ATOM    106  C   UNL A   1      47.333  34.691  35.321  1.00  0.00     0.148 A 
ATOM    107  C   UNL A   1      44.871  35.963  35.808  1.00  0.00     0.002 A 
ATOM    108  C   UNL A   1      47.198  35.576  36.385  1.00  0.00     0.091 A 
ATOM    109  F   UNL A   1      48.494  34.078  35.051  1.00  0.00    -0.205 F 
ATOM    110  C   UNL A   1      45.969  36.215  36.627  1.00  0.00     0.022 A 
BRANCH 108 111
ATOM    111  S   UNL A   1      48.532  35.918  37.539  1.00  0.00     0.127 S 
ATOM    112  O   UNL A   1      48.182  37.256  38.011  1.00  0.00    -0.237 OA
ATOM    113  O   UNL A   1      48.363  34.856  38.530  1.00  0.00    -0.237 OA
ATOM    114  O   UNL A   1      49.765  35.836  36.766  1.00  0.00    -0.744 OA
ENDBRANCH 108 111
ENDBRANCH  81 104
ENDBRANCH  55  56
ENDBRANCH  48  50
ENDBRANCH  47  48
ENDBRANCH  46  47
ENDBRANCH  45  46
ENDBRANCH  44  45
ENDBRANCH  43  44
ENDBRANCH  42  43
ENDBRANCH   1  42
TORSDOF 26
ENDMDL
