MODEL 1
REMARK VINA RESULT:      -9.3      0.000      0.000
REMARK SMILES C[C@H]1[C@@H](C(=O)OCCOCCOCCOCCOC(=O)c2ccc(-c3c4nc(c(-c5cccc(S(=O)(=O)[O-])c5F)c5ccc([nH]5)c(-c5cccc(S(=O)(=O)[O-])c5F)c5nc(c(-c6cccc(S(=O)(=O)[O-])c6F)c6ccc3[nH]6)C=C5)C=C4)cc2)CCN1C(=O)N[C@@H]1CC[N@H+]2CCCC[C@H]12
REMARK SMILES IDX 13 1 12 2 11 3 10 4 9 5 8 6 7 7 6 8 4 9 5 10 3 11 1 12 2 13
REMARK SMILES IDX 86 14 84 15 85 16 87 17 88 18 89 19 90 21 91 22 98 23 92 24
REMARK SMILES IDX 93 25 97 26 94 27 96 29 95 30 14 31 15 32 16 33 17 34 18 35
REMARK SMILES IDX 19 36 20 37 21 38 22 39 83 40 23 41 82 42 24 43 25 44 26 45
REMARK SMILES IDX 76 46 27 47 81 48 75 49 77 50 28 51 80 52 74 53 73 54 29 56
REMARK SMILES IDX 61 57 41 58 60 59 42 60 45 61 59 62 78 63 43 64 44 65 58 67
REMARK SMILES IDX 79 68 46 69 30 70 31 71 39 72 32 73 34 74 40 75 33 76 35 77
REMARK SMILES IDX 36 78 37 79 38 80 62 81 63 82 71 83 64 84 66 85 72 86 65 87
REMARK SMILES IDX 67 88 68 89 69 90 70 91 47 92 48 93 56 94 49 95 51 96 57 97
REMARK SMILES IDX 50 98 52 99 53 100 54 101 55 102
REMARK H PARENT 89 20 93 28 77 55 45 66
REMARK Flexibility Score: inf
ROOT
ATOM      1  C   UNL A   1      43.513  19.579  25.714  1.00  0.00     0.188 C 
ENDROOT
BRANCH   1   2
ATOM      2  O   UNL A   1      42.219  19.209  25.267  1.00  0.00    -0.377 OA
BRANCH   2   3
ATOM      3  C   UNL A   1      41.127  19.406  26.152  1.00  0.00     0.188 C 
BRANCH   3   4
ATOM      4  C   UNL A   1      40.779  20.814  26.700  1.00  0.00     0.188 C 
BRANCH   4   5
ATOM      5  O   UNL A   1      39.487  21.288  26.362  1.00  0.00    -0.376 OA
BRANCH   5   6
ATOM      6  C   UNL A   1      39.260  22.663  26.620  1.00  0.00     0.202 C 
BRANCH   6   7
ATOM      7  C   UNL A   1      38.280  23.344  25.655  1.00  0.00     0.261 C 
BRANCH   7   8
ATOM      8  O   UNL A   1      36.916  22.882  25.743  1.00  0.00    -0.463 OA
BRANCH   8   9
ATOM      9  C   UNL A   1      36.271  22.448  24.627  1.00  0.00     0.311 C 
ATOM     10  O   UNL A   1      36.720  22.514  23.493  1.00  0.00    -0.252 OA
BRANCH   9  11
ATOM     11  C   UNL A   1      34.921  21.849  25.017  1.00  0.00     0.123 C 
ATOM     12  C   UNL A   1      33.799  23.629  23.430  1.00  0.00     0.032 C 
ATOM     13  C   UNL A   1      33.628  22.490  24.429  1.00  0.00     0.098 C 
ATOM     14  N   UNL A   1      32.867  22.978  25.573  1.00  0.00    -0.321 N 
ATOM     15  C   UNL A   1      34.719  21.893  26.531  1.00  0.00     0.039 C 
ATOM     16  C   UNL A   1      33.743  23.035  26.732  1.00  0.00     0.122 C 
BRANCH  14  17
ATOM     17  C   UNL A   1      31.635  23.559  25.624  1.00  0.00     0.318 C 
ATOM     18  O   UNL A   1      30.609  22.872  25.612  1.00  0.00    -0.249 OA
ATOM     19  N   UNL A   1      31.445  24.892  25.732  1.00  0.00    -0.329 N 
ATOM     20  H   UNL A   1      30.517  25.101  25.985  1.00  0.00     0.165 HD
BRANCH  19  21
ATOM     21  C   UNL A   1      32.241  26.116  25.575  1.00  0.00     0.147 C 
ATOM     22  C   UNL A   1      32.029  27.102  26.747  1.00  0.00     0.092 C 
ATOM     23  C   UNL A   1      31.841  26.969  24.344  1.00  0.00     0.207 C 
ATOM     24  C   UNL A   1      31.671  28.444  26.119  1.00  0.00     0.264 C 
ATOM     25  N   UNL A   1      30.986  28.029  24.905  1.00  0.00    -0.331 N 
ATOM     26  C   UNL A   1      31.108  26.289  23.194  1.00  0.00     0.067 C 
ATOM     27  C   UNL A   1      30.770  29.106  23.942  1.00  0.00     0.262 C 
ATOM     28  H   UNL A   1      30.040  27.713  25.118  1.00  0.00     0.348 HD
ATOM     29  C   UNL A   1      30.791  27.327  22.114  1.00  0.00     0.012 C 
ATOM     30  C   UNL A   1      30.069  28.547  22.698  1.00  0.00     0.062 C 
ENDBRANCH  19  21
ENDBRANCH  14  17
ENDBRANCH   9  11
ENDBRANCH   8   9
ENDBRANCH   7   8
ENDBRANCH   6   7
ENDBRANCH   5   6
ENDBRANCH   4   5
ENDBRANCH   3   4
ENDBRANCH   2   3
ENDBRANCH   1   2
BRANCH   1  31
ATOM     31  C   UNL A   1      44.672  19.292  24.735  1.00  0.00     0.188 C 
BRANCH  31  32
ATOM     32  O   UNL A   1      45.098  20.438  24.004  1.00  0.00    -0.376 OA
BRANCH  32  33
ATOM     33  C   UNL A   1      46.124  21.243  24.556  1.00  0.00     0.202 C 
BRANCH  33  34
ATOM     34  C   UNL A   1      45.741  22.416  25.472  1.00  0.00     0.261 C 
BRANCH  34  35
ATOM     35  O   UNL A   1      45.191  23.578  24.841  1.00  0.00    -0.460 OA
BRANCH  35  36
ATOM     36  C   UNL A   1      43.859  23.773  24.934  1.00  0.00     0.338 C 
ATOM     37  O   UNL A   1      42.981  22.988  24.612  1.00  0.00    -0.246 OA
BRANCH  36  38
ATOM     38  C   UNL A   1      43.648  25.010  25.717  1.00  0.00     0.060 A 
ATOM     39  C   UNL A   1      43.178  26.153  25.054  1.00  0.00     0.016 A 
ATOM     40  C   UNL A   1      43.850  25.023  27.100  1.00  0.00     0.016 A 
ATOM     41  C   UNL A   1      42.953  27.327  25.767  1.00  0.00     0.010 A 
ATOM     42  C   UNL A   1      43.661  26.212  27.808  1.00  0.00     0.010 A 
ATOM     43  C   UNL A   1      43.261  27.378  27.132  1.00  0.00    -0.014 A 
BRANCH  43  44
ATOM     44  C   UNL A   1      43.443  28.707  27.756  1.00  0.00     0.031 A 
ATOM     45  C   UNL A   1      42.265  29.297  28.484  1.00  0.00     0.074 A 
ATOM     46  C   UNL A   1      44.627  29.343  27.739  1.00  0.00     0.049 A 
ATOM     47  N   UNL A   1      42.176  30.416  29.152  1.00  0.00    -0.248 NA
ATOM     48  C   UNL A   1      41.016  28.513  28.455  1.00  0.00     0.031 C 
ATOM     49  C   UNL A   1      45.840  28.861  27.084  1.00  0.00     0.029 A 
ATOM     50  N   UNL A   1      44.991  30.546  28.287  1.00  0.00    -0.354 N 
ATOM     51  C   UNL A   1      40.863  30.482  29.599  1.00  0.00     0.074 A 
ATOM     52  C   UNL A   1      40.184  29.303  29.113  1.00  0.00     0.031 C 
ATOM     53  C   UNL A   1      46.814  29.774  27.249  1.00  0.00     0.029 A 
ATOM     54  C   UNL A   1      46.286  30.909  28.004  1.00  0.00     0.049 A 
ATOM     55  H   UNL A   1      44.383  31.099  28.829  1.00  0.00     0.167 HD
ATOM     56  C   UNL A   1      40.275  31.432  30.363  1.00  0.00     0.034 A 
ATOM     57  C   UNL A   1      46.957  32.038  28.310  1.00  0.00     0.034 A 
ATOM     58  C   UNL A   1      40.954  32.598  30.850  1.00  0.00     0.049 A 
ATOM     59  C   UNL A   1      46.270  33.097  29.136  1.00  0.00     0.074 A 
ATOM     60  C   UNL A   1      40.461  33.607  31.657  1.00  0.00     0.029 A 
ATOM     61  N   UNL A   1      42.271  32.922  30.562  1.00  0.00    -0.354 N 
ATOM     62  N   UNL A   1      45.060  33.098  29.642  1.00  0.00    -0.248 NA
ATOM     63  C   UNL A   1      47.057  34.293  29.467  1.00  0.00     0.031 C 
ATOM     64  C   UNL A   1      41.469  34.561  31.824  1.00  0.00     0.029 A 
ATOM     65  C   UNL A   1      42.606  34.122  31.164  1.00  0.00     0.049 A 
ATOM     66  H   UNL A   1      42.879  32.378  30.010  1.00  0.00     0.167 HD
ATOM     67  C   UNL A   1      44.955  34.270  30.385  1.00  0.00     0.074 A 
ATOM     68  C   UNL A   1      46.234  34.942  30.278  1.00  0.00     0.031 C 
ATOM     69  C   UNL A   1      43.897  34.753  31.085  1.00  0.00     0.034 A 
BRANCH  56  70
ATOM     70  C   UNL A   1      38.823  31.240  30.714  1.00  0.00     0.023 A 
ATOM     71  C   UNL A   1      38.461  30.404  31.789  1.00  0.00     0.012 A 
ATOM     72  C   UNL A   1      37.819  31.916  29.995  1.00  0.00     0.148 A 
ATOM     73  C   UNL A   1      37.120  30.216  32.123  1.00  0.00     0.002 A 
ATOM     74  C   UNL A   1      36.488  31.764  30.364  1.00  0.00     0.091 A 
ATOM     75  F   UNL A   1      38.182  32.683  28.957  1.00  0.00    -0.205 F 
ATOM     76  C   UNL A   1      36.136  30.904  31.418  1.00  0.00     0.022 A 
BRANCH  74  77
ATOM     77  S   UNL A   1      35.154  32.669  29.572  1.00  0.00     0.127 S 
ATOM     78  O   UNL A   1      34.836  31.796  28.443  1.00  0.00    -0.237 OA
ATOM     79  O   UNL A   1      34.139  32.698  30.625  1.00  0.00    -0.237 OA
ATOM     80  O   UNL A   1      35.704  33.969  29.219  1.00  0.00    -0.744 OA
ENDBRANCH  74  77
ENDBRANCH  56  70
BRANCH  57  81
ATOM     81  C   UNL A   1      48.366  32.219  27.860  1.00  0.00     0.023 A 
ATOM     82  C   UNL A   1      48.637  32.902  26.659  1.00  0.00     0.012 A 
ATOM     83  C   UNL A   1      49.439  31.710  28.617  1.00  0.00     0.148 A 
ATOM     84  C   UNL A   1      49.947  33.044  26.201  1.00  0.00     0.002 A 
ATOM     85  C   UNL A   1      50.745  31.906  28.185  1.00  0.00     0.091 A 
ATOM     86  F   UNL A   1      49.160  31.049  29.749  1.00  0.00    -0.205 F 
ATOM     87  C   UNL A   1      51.001  32.555  26.968  1.00  0.00     0.022 A 
BRANCH  85  88
ATOM     88  S   UNL A   1      52.169  31.421  29.169  1.00  0.00     0.127 S 
ATOM     89  O   UNL A   1      53.277  31.827  28.309  1.00  0.00    -0.237 OA
ATOM     90  O   UNL A   1      51.990  32.235  30.372  1.00  0.00    -0.237 OA
ATOM     91  O   UNL A   1      52.030  29.988  29.385  1.00  0.00    -0.744 OA
ENDBRANCH  85  88
ENDBRANCH  57  81
BRANCH  69  92
ATOM     92  C   UNL A   1      44.090  36.044  31.840  1.00  0.00     0.023 A 
ATOM     93  C   UNL A   1      44.459  36.024  33.200  1.00  0.00     0.012 A 
ATOM     94  C   UNL A   1      43.956  37.282  31.180  1.00  0.00     0.148 A 
ATOM     95  C   UNL A   1      44.643  37.215  33.902  1.00  0.00     0.002 A 
ATOM     96  C   UNL A   1      44.198  38.463  31.870  1.00  0.00     0.091 A 
ATOM     97  F   UNL A   1      43.590  37.284  29.889  1.00  0.00    -0.205 F 
ATOM     98  C   UNL A   1      44.523  38.432  33.236  1.00  0.00     0.022 A 
BRANCH  96  99
ATOM     99  S   UNL A   1      44.168  40.069  31.066  1.00  0.00     0.127 S 
ATOM    100  O   UNL A   1      44.443  40.967  32.186  1.00  0.00    -0.237 OA
ATOM    101  O   UNL A   1      45.259  39.950  30.097  1.00  0.00    -0.237 OA
ATOM    102  O   UNL A   1      42.844  40.196  30.473  1.00  0.00    -0.744 OA
ENDBRANCH  96  99
ENDBRANCH  69  92
ENDBRANCH  43  44
ENDBRANCH  36  38
ENDBRANCH  35  36
ENDBRANCH  34  35
ENDBRANCH  33  34
ENDBRANCH  32  33
ENDBRANCH  31  32
ENDBRANCH   1  31
TORSDOF 25
ENDMDL
MODEL 2
REMARK VINA RESULT:      -9.1      1.788      7.775
REMARK SMILES C[C@H]1[C@@H](C(=O)OCCOCCOCCOCCOC(=O)c2ccc(-c3c4nc(c(-c5cccc(S(=O)(=O)[O-])c5F)c5ccc([nH]5)c(-c5cccc(S(=O)(=O)[O-])c5F)c5nc(c(-c6cccc(S(=O)(=O)[O-])c6F)c6ccc3[nH]6)C=C5)C=C4)cc2)CCN1C(=O)N[C@@H]1CC[N@H+]2CCCC[C@H]12
REMARK SMILES IDX 13 1 12 2 11 3 10 4 9 5 8 6 7 7 6 8 4 9 5 10 3 11 1 12 2 13
REMARK SMILES IDX 86 14 84 15 85 16 87 17 88 18 89 19 90 21 91 22 98 23 92 24
REMARK SMILES IDX 93 25 97 26 94 27 96 29 95 30 14 31 15 32 16 33 17 34 18 35
REMARK SMILES IDX 19 36 20 37 21 38 22 39 83 40 23 41 82 42 24 43 25 44 26 45
REMARK SMILES IDX 76 46 27 47 81 48 75 49 77 50 28 51 80 52 74 53 73 54 29 56
REMARK SMILES IDX 61 57 41 58 60 59 42 60 45 61 59 62 78 63 43 64 44 65 58 67
REMARK SMILES IDX 79 68 46 69 30 70 31 71 39 72 32 73 34 74 40 75 33 76 35 77
REMARK SMILES IDX 36 78 37 79 38 80 62 81 63 82 71 83 64 84 66 85 72 86 65 87
REMARK SMILES IDX 67 88 68 89 69 90 70 91 47 92 48 93 56 94 49 95 51 96 57 97
REMARK SMILES IDX 50 98 52 99 53 100 54 101 55 102
REMARK H PARENT 89 20 93 28 77 55 45 66
REMARK Flexibility Score: inf
ROOT
ATOM      1  C   UNL A   1      40.431  21.298  27.174  1.00  0.00     0.188 C 
ENDROOT
BRANCH   1   2
ATOM      2  O   UNL A   1      40.511  22.306  26.179  1.00  0.00    -0.377 OA
BRANCH   2   3
ATOM      3  C   UNL A   1      40.133  23.627  26.537  1.00  0.00     0.188 C 
BRANCH   3   4
ATOM      4  C   UNL A   1      38.677  24.125  26.353  1.00  0.00     0.188 C 
BRANCH   4   5
ATOM      5  O   UNL A   1      37.683  23.118  26.420  1.00  0.00    -0.376 OA
BRANCH   5   6
ATOM      6  C   UNL A   1      37.075  22.783  25.185  1.00  0.00     0.202 C 
BRANCH   6   7
ATOM      7  C   UNL A   1      36.861  21.280  24.961  1.00  0.00     0.261 C 
BRANCH   7   8
ATOM      8  O   UNL A   1      35.719  20.719  25.643  1.00  0.00    -0.463 OA
BRANCH   8   9
ATOM      9  C   UNL A   1      34.487  20.781  25.071  1.00  0.00     0.311 C 
ATOM     10  O   UNL A   1      34.260  20.613  23.883  1.00  0.00    -0.252 OA
BRANCH   9  11
ATOM     11  C   UNL A   1      33.438  21.066  26.146  1.00  0.00     0.123 C 
ATOM     12  C   UNL A   1      31.901  22.025  24.233  1.00  0.00     0.032 C 
ATOM     13  C   UNL A   1      32.107  21.755  25.718  1.00  0.00     0.098 C 
ATOM     14  N   UNL A   1      32.064  23.022  26.438  1.00  0.00    -0.321 N 
ATOM     15  C   UNL A   1      34.007  21.970  27.239  1.00  0.00     0.039 C 
ATOM     16  C   UNL A   1      33.393  23.324  26.943  1.00  0.00     0.122 C 
BRANCH  14  17
ATOM     17  C   UNL A   1      31.089  23.976  26.478  1.00  0.00     0.318 C 
ATOM     18  O   UNL A   1      30.125  23.865  27.241  1.00  0.00    -0.249 OA
ATOM     19  N   UNL A   1      31.123  25.104  25.738  1.00  0.00    -0.329 N 
ATOM     20  H   UNL A   1      30.471  25.766  26.066  1.00  0.00     0.165 HD
BRANCH  19  21
ATOM     21  C   UNL A   1      31.864  25.619  24.578  1.00  0.00     0.147 C 
ATOM     22  C   UNL A   1      33.176  26.323  24.992  1.00  0.00     0.092 C 
ATOM     23  C   UNL A   1      31.116  26.732  23.802  1.00  0.00     0.207 C 
ATOM     24  C   UNL A   1      33.153  27.696  24.330  1.00  0.00     0.264 C 
ATOM     25  N   UNL A   1      31.727  27.981  24.290  1.00  0.00    -0.331 N 
ATOM     26  C   UNL A   1      29.602  26.826  23.943  1.00  0.00     0.067 C 
ATOM     27  C   UNL A   1      31.368  29.116  23.444  1.00  0.00     0.262 C 
ATOM     28  H   UNL A   1      31.392  28.260  25.211  1.00  0.00     0.348 HD
ATOM     29  C   UNL A   1      29.091  28.012  23.118  1.00  0.00     0.012 C 
ATOM     30  C   UNL A   1      29.846  29.303  23.457  1.00  0.00     0.062 C 
ENDBRANCH  19  21
ENDBRANCH  14  17
ENDBRANCH   9  11
ENDBRANCH   8   9
ENDBRANCH   7   8
ENDBRANCH   6   7
ENDBRANCH   5   6
ENDBRANCH   4   5
ENDBRANCH   3   4
ENDBRANCH   2   3
ENDBRANCH   1   2
BRANCH   1  31
ATOM     31  C   UNL A   1      40.843  19.878  26.730  1.00  0.00     0.188 C 
BRANCH  31  32
ATOM     32  O   UNL A   1      42.016  19.396  27.379  1.00  0.00    -0.376 OA
BRANCH  32  33
ATOM     33  C   UNL A   1      43.035  18.820  26.582  1.00  0.00     0.202 C 
BRANCH  33  34
ATOM     34  C   UNL A   1      43.223  19.314  25.138  1.00  0.00     0.261 C 
BRANCH  34  35
ATOM     35  O   UNL A   1      43.413  20.721  24.955  1.00  0.00    -0.460 OA
BRANCH  35  36
ATOM     36  C   UNL A   1      44.536  21.275  25.457  1.00  0.00     0.338 C 
ATOM     37  O   UNL A   1      45.683  20.895  25.278  1.00  0.00    -0.246 OA
BRANCH  36  38
ATOM     38  C   UNL A   1      44.155  22.565  26.070  1.00  0.00     0.060 A 
ATOM     39  C   UNL A   1      43.928  23.668  25.232  1.00  0.00     0.016 A 
ATOM     40  C   UNL A   1      43.961  22.671  27.450  1.00  0.00     0.016 A 
ATOM     41  C   UNL A   1      43.552  24.891  25.779  1.00  0.00     0.010 A 
ATOM     42  C   UNL A   1      43.621  23.908  28.001  1.00  0.00     0.010 A 
ATOM     43  C   UNL A   1      43.466  25.031  27.169  1.00  0.00    -0.014 A 
BRANCH  43  44
ATOM     44  C   UNL A   1      43.510  26.397  27.736  1.00  0.00     0.031 A 
ATOM     45  C   UNL A   1      44.850  27.080  27.792  1.00  0.00     0.074 A 
ATOM     46  C   UNL A   1      42.396  27.039  28.127  1.00  0.00     0.049 A 
ATOM     47  N   UNL A   1      45.153  28.284  28.195  1.00  0.00    -0.248 NA
ATOM     48  C   UNL A   1      46.007  26.293  27.325  1.00  0.00     0.031 C 
ATOM     49  C   UNL A   1      41.045  26.487  28.102  1.00  0.00     0.029 A 
ATOM     50  N   UNL A   1      42.238  28.303  28.637  1.00  0.00    -0.354 N 
ATOM     51  C   UNL A   1      46.531  28.391  28.054  1.00  0.00     0.074 A 
ATOM     52  C   UNL A   1      47.010  27.126  27.548  1.00  0.00     0.031 C 
ATOM     53  C   UNL A   1      40.192  27.403  28.598  1.00  0.00     0.029 A 
ATOM     54  C   UNL A   1      40.943  28.595  28.991  1.00  0.00     0.049 A 
ATOM     55  H   UNL A   1      42.982  28.939  28.741  1.00  0.00     0.167 HD
ATOM     56  C   UNL A   1      47.328  29.455  28.308  1.00  0.00     0.034 A 
ATOM     57  C   UNL A   1      40.432  29.695  29.579  1.00  0.00     0.034 A 
ATOM     58  C   UNL A   1      46.847  30.713  28.804  1.00  0.00     0.049 A 
ATOM     59  C   UNL A   1      41.346  30.856  29.881  1.00  0.00     0.074 A 
ATOM     60  C   UNL A   1      47.565  31.865  29.066  1.00  0.00     0.029 A 
ATOM     61  N   UNL A   1      45.526  30.979  29.131  1.00  0.00    -0.354 N 
ATOM     62  N   UNL A   1      42.630  30.983  29.646  1.00  0.00    -0.248 NA
ATOM     63  C   UNL A   1      40.731  32.041  30.494  1.00  0.00     0.031 C 
ATOM     64  C   UNL A   1      46.683  32.817  29.588  1.00  0.00     0.029 A 
ATOM     65  C   UNL A   1      45.408  32.274  29.604  1.00  0.00     0.049 A 
ATOM     66  H   UNL A   1      44.782  30.341  29.040  1.00  0.00     0.167 HD
ATOM     67  C   UNL A   1      42.966  32.274  30.040  1.00  0.00     0.074 A 
ATOM     68  C   UNL A   1      41.745  32.894  30.511  1.00  0.00     0.031 C 
ATOM     69  C   UNL A   1      44.176  32.889  30.024  1.00  0.00     0.034 A 
BRANCH  56  70
ATOM     70  C   UNL A   1      48.803  29.295  28.050  1.00  0.00     0.023 A 
ATOM     71  C   UNL A   1      49.351  29.701  26.817  1.00  0.00     0.012 A 
ATOM     72  C   UNL A   1      49.649  28.769  29.044  1.00  0.00     0.148 A 
ATOM     73  C   UNL A   1      50.715  29.555  26.564  1.00  0.00     0.002 A 
ATOM     74  C   UNL A   1      51.014  28.674  28.804  1.00  0.00     0.091 A 
ATOM     75  F   UNL A   1      49.103  28.361  30.198  1.00  0.00    -0.205 F 
ATOM     76  C   UNL A   1      51.547  29.053  27.561  1.00  0.00     0.022 A 
BRANCH  74  77
ATOM     77  S   UNL A   1      52.179  28.116  30.052  1.00  0.00     0.127 S 
ATOM     78  O   UNL A   1      53.454  28.539  29.474  1.00  0.00    -0.237 OA
ATOM     79  O   UNL A   1      51.759  28.882  31.226  1.00  0.00    -0.237 OA
ATOM     80  O   UNL A   1      51.992  26.677  30.164  1.00  0.00    -0.744 OA
ENDBRANCH  74  77
ENDBRANCH  56  70
BRANCH  57  81
ATOM     81  C   UNL A   1      38.978  29.767  29.898  1.00  0.00     0.023 A 
ATOM     82  C   UNL A   1      38.510  29.321  31.150  1.00  0.00     0.012 A 
ATOM     83  C   UNL A   1      38.055  30.273  28.963  1.00  0.00     0.148 A 
ATOM     84  C   UNL A   1      37.148  29.343  31.449  1.00  0.00     0.002 A 
ATOM     85  C   UNL A   1      36.707  30.347  29.289  1.00  0.00     0.091 A 
ATOM     86  F   UNL A   1      38.517  30.679  27.771  1.00  0.00    -0.205 F 
ATOM     87  C   UNL A   1      36.248  29.864  30.524  1.00  0.00     0.022 A 
BRANCH  85  88
ATOM     88  S   UNL A   1      35.494  31.118  28.211  1.00  0.00     0.127 S 
ATOM     89  O   UNL A   1      34.405  31.402  29.142  1.00  0.00    -0.237 OA
ATOM     90  O   UNL A   1      36.223  32.293  27.735  1.00  0.00    -0.237 OA
ATOM     91  O   UNL A   1      35.200  30.133  27.179  1.00  0.00    -0.744 OA
ENDBRANCH  85  88
ENDBRANCH  57  81
BRANCH  69  92
ATOM     92  C   UNL A   1      44.234  34.327  30.476  1.00  0.00     0.023 A 
ATOM     93  C   UNL A   1      44.631  34.643  31.792  1.00  0.00     0.012 A 
ATOM     94  C   UNL A   1      43.946  35.371  29.573  1.00  0.00     0.148 A 
ATOM     95  C   UNL A   1      44.691  35.971  32.213  1.00  0.00     0.002 A 
ATOM     96  C   UNL A   1      44.064  36.692  29.983  1.00  0.00     0.091 A 
ATOM     97  F   UNL A   1      43.556  35.051  28.329  1.00  0.00    -0.205 F 
ATOM     98  C   UNL A   1      44.419  36.994  31.308  1.00  0.00     0.022 A 
BRANCH  96  99
ATOM     99  S   UNL A   1      43.835  38.072  28.857  1.00  0.00     0.127 S 
ATOM    100  O   UNL A   1      43.734  39.198  29.783  1.00  0.00    -0.237 OA
ATOM    101  O   UNL A   1      45.068  38.038  28.070  1.00  0.00    -0.237 OA
ATOM    102  O   UNL A   1      42.627  37.774  28.099  1.00  0.00    -0.744 OA
ENDBRANCH  96  99
ENDBRANCH  69  92
ENDBRANCH  43  44
ENDBRANCH  36  38
ENDBRANCH  35  36
ENDBRANCH  34  35
ENDBRANCH  33  34
ENDBRANCH  32  33
ENDBRANCH  31  32
ENDBRANCH   1  31
TORSDOF 25
ENDMDL
MODEL 3
REMARK VINA RESULT:      -8.9      4.176      6.042
REMARK SMILES C[C@H]1[C@@H](C(=O)OCCOCCOCCOCCOC(=O)c2ccc(-c3c4nc(c(-c5cccc(S(=O)(=O)[O-])c5F)c5ccc([nH]5)c(-c5cccc(S(=O)(=O)[O-])c5F)c5nc(c(-c6cccc(S(=O)(=O)[O-])c6F)c6ccc3[nH]6)C=C5)C=C4)cc2)CCN1C(=O)N[C@@H]1CC[N@H+]2CCCC[C@H]12
REMARK SMILES IDX 13 1 12 2 11 3 10 4 9 5 8 6 7 7 6 8 4 9 5 10 3 11 1 12 2 13
REMARK SMILES IDX 86 14 84 15 85 16 87 17 88 18 89 19 90 21 91 22 98 23 92 24
REMARK SMILES IDX 93 25 97 26 94 27 96 29 95 30 14 31 15 32 16 33 17 34 18 35
REMARK SMILES IDX 19 36 20 37 21 38 22 39 83 40 23 41 82 42 24 43 25 44 26 45
REMARK SMILES IDX 76 46 27 47 81 48 75 49 77 50 28 51 80 52 74 53 73 54 29 56
REMARK SMILES IDX 61 57 41 58 60 59 42 60 45 61 59 62 78 63 43 64 44 65 58 67
REMARK SMILES IDX 79 68 46 69 30 70 31 71 39 72 32 73 34 74 40 75 33 76 35 77
REMARK SMILES IDX 36 78 37 79 38 80 62 81 63 82 71 83 64 84 66 85 72 86 65 87
REMARK SMILES IDX 67 88 68 89 69 90 70 91 47 92 48 93 56 94 49 95 51 96 57 97
REMARK SMILES IDX 50 98 52 99 53 100 54 101 55 102
REMARK H PARENT 89 20 93 28 77 55 45 66
REMARK Flexibility Score: inf
ROOT
ATOM      1  C   UNL A   1      42.534  18.714  25.968  1.00  0.00     0.188 C 
ENDROOT
BRANCH   1   2
ATOM      2  O   UNL A   1      42.272  19.280  27.243  1.00  0.00    -0.377 OA
BRANCH   2   3
ATOM      3  C   UNL A   1      41.144  20.131  27.375  1.00  0.00     0.188 C 
BRANCH   3   4
ATOM      4  C   UNL A   1      41.231  21.641  27.037  1.00  0.00     0.188 C 
BRANCH   4   5
ATOM      5  O   UNL A   1      40.031  22.370  27.226  1.00  0.00    -0.376 OA
BRANCH   5   6
ATOM      6  C   UNL A   1      39.045  22.186  26.225  1.00  0.00     0.202 C 
BRANCH   6   7
ATOM      7  C   UNL A   1      37.943  23.254  26.203  1.00  0.00     0.261 C 
BRANCH   7   8
ATOM      8  O   UNL A   1      36.747  22.883  25.486  1.00  0.00    -0.463 OA
BRANCH   8   9
ATOM      9  C   UNL A   1      35.540  22.919  26.112  1.00  0.00     0.311 C 
ATOM     10  O   UNL A   1      35.232  22.232  27.073  1.00  0.00    -0.252 OA
BRANCH   9  11
ATOM     11  C   UNL A   1      34.648  23.963  25.442  1.00  0.00     0.123 C 
ATOM     12  C   UNL A   1      32.621  22.330  25.850  1.00  0.00     0.032 C 
ATOM     13  C   UNL A   1      33.134  23.641  25.264  1.00  0.00     0.098 C 
ATOM     14  N   UNL A   1      32.891  23.642  23.827  1.00  0.00    -0.321 N 
ATOM     15  C   UNL A   1      35.143  24.283  24.032  1.00  0.00     0.039 C 
ATOM     16  C   UNL A   1      34.165  23.553  23.133  1.00  0.00     0.122 C 
BRANCH  14  17
ATOM     17  C   UNL A   1      31.727  23.483  23.133  1.00  0.00     0.318 C 
ATOM     18  O   UNL A   1      31.296  22.357  22.868  1.00  0.00    -0.249 OA
ATOM     19  N   UNL A   1      30.955  24.516  22.732  1.00  0.00    -0.329 N 
ATOM     20  H   UNL A   1      30.060  24.207  22.460  1.00  0.00     0.165 HD
BRANCH  19  21
ATOM     21  C   UNL A   1      31.080  25.971  22.587  1.00  0.00     0.147 C 
ATOM     22  C   UNL A   1      32.370  26.372  21.834  1.00  0.00     0.092 C 
ATOM     23  C   UNL A   1      31.233  26.723  23.934  1.00  0.00     0.207 C 
ATOM     24  C   UNL A   1      33.078  27.399  22.711  1.00  0.00     0.264 C 
ATOM     25  N   UNL A   1      32.681  26.973  24.044  1.00  0.00    -0.331 N 
ATOM     26  C   UNL A   1      30.743  26.043  25.206  1.00  0.00     0.067 C 
ATOM     27  C   UNL A   1      32.977  27.943  25.094  1.00  0.00     0.262 C 
ATOM     28  H   UNL A   1      33.211  26.150  24.329  1.00  0.00     0.348 HD
ATOM     29  C   UNL A   1      31.025  26.954  26.405  1.00  0.00     0.012 C 
ATOM     30  C   UNL A   1      32.491  27.400  26.443  1.00  0.00     0.062 C 
ENDBRANCH  19  21
ENDBRANCH  14  17
ENDBRANCH   9  11
ENDBRANCH   8   9
ENDBRANCH   7   8
ENDBRANCH   6   7
ENDBRANCH   5   6
ENDBRANCH   4   5
ENDBRANCH   3   4
ENDBRANCH   2   3
ENDBRANCH   1   2
BRANCH   1  31
ATOM     31  C   UNL A   1      43.919  19.028  25.364  1.00  0.00     0.188 C 
BRANCH  31  32
ATOM     32  O   UNL A   1      43.933  20.192  24.543  1.00  0.00    -0.376 OA
BRANCH  32  33
ATOM     33  C   UNL A   1      44.582  21.351  25.033  1.00  0.00     0.202 C 
BRANCH  33  34
ATOM     34  C   UNL A   1      44.466  22.663  24.241  1.00  0.00     0.261 C 
BRANCH  34  35
ATOM     35  O   UNL A   1      44.387  23.874  25.003  1.00  0.00    -0.460 OA
BRANCH  35  36
ATOM     36  C   UNL A   1      45.488  24.649  25.067  1.00  0.00     0.338 C 
ATOM     37  O   UNL A   1      46.524  24.504  24.435  1.00  0.00    -0.246 OA
BRANCH  36  38
ATOM     38  C   UNL A   1      45.139  25.847  25.860  1.00  0.00     0.060 A 
ATOM     39  C   UNL A   1      46.175  26.625  26.397  1.00  0.00     0.016 A 
ATOM     40  C   UNL A   1      43.805  26.235  26.017  1.00  0.00     0.016 A 
ATOM     41  C   UNL A   1      45.877  27.768  27.133  1.00  0.00     0.010 A 
ATOM     42  C   UNL A   1      43.506  27.360  26.789  1.00  0.00     0.010 A 
ATOM     43  C   UNL A   1      44.541  28.098  27.389  1.00  0.00    -0.014 A 
BRANCH  43  44
ATOM     44  C   UNL A   1      44.253  29.019  28.511  1.00  0.00     0.031 A 
ATOM     45  C   UNL A   1      44.152  28.422  29.888  1.00  0.00     0.074 A 
ATOM     46  C   UNL A   1      44.150  30.347  28.330  1.00  0.00     0.049 A 
ATOM     47  N   UNL A   1      43.957  29.010  31.037  1.00  0.00    -0.248 NA
ATOM     48  C   UNL A   1      44.295  26.956  29.980  1.00  0.00     0.031 C 
ATOM     49  C   UNL A   1      44.248  31.039  27.048  1.00  0.00     0.029 A 
ATOM     50  N   UNL A   1      43.925  31.348  29.241  1.00  0.00    -0.354 N 
ATOM     51  C   UNL A   1      43.928  27.991  31.981  1.00  0.00     0.074 A 
ATOM     52  C   UNL A   1      44.106  26.745  31.272  1.00  0.00     0.031 C 
ATOM     53  C   UNL A   1      44.062  32.356  27.251  1.00  0.00     0.029 A 
ATOM     54  C   UNL A   1      43.813  32.594  28.672  1.00  0.00     0.049 A 
ATOM     55  H   UNL A   1      43.849  31.188  30.209  1.00  0.00     0.167 HD
ATOM     56  C   UNL A   1      43.784  28.083  33.323  1.00  0.00     0.034 A 
ATOM     57  C   UNL A   1      43.527  33.783  29.239  1.00  0.00     0.034 A 
ATOM     58  C   UNL A   1      43.615  29.323  34.024  1.00  0.00     0.049 A 
ATOM     59  C   UNL A   1      43.340  33.855  30.734  1.00  0.00     0.074 A 
ATOM     60  C   UNL A   1      43.490  29.531  35.386  1.00  0.00     0.029 A 
ATOM     61  N   UNL A   1      43.528  30.567  33.419  1.00  0.00    -0.354 N 
ATOM     62  N   UNL A   1      43.420  32.898  31.627  1.00  0.00    -0.248 NA
ATOM     63  C   UNL A   1      43.060  35.181  31.304  1.00  0.00     0.031 C 
ATOM     64  C   UNL A   1      43.289  30.899  35.599  1.00  0.00     0.029 A 
ATOM     65  C   UNL A   1      43.339  31.548  34.376  1.00  0.00     0.049 A 
ATOM     66  H   UNL A   1      43.591  30.729  32.449  1.00  0.00     0.167 HD
ATOM     67  C   UNL A   1      43.245  33.511  32.864  1.00  0.00     0.074 A 
ATOM     68  C   UNL A   1      43.075  34.926  32.603  1.00  0.00     0.031 C 
ATOM     69  C   UNL A   1      43.218  32.956  34.102  1.00  0.00     0.034 A 
BRANCH  56  70
ATOM     70  C   UNL A   1      43.803  26.801  34.113  1.00  0.00     0.023 A 
ATOM     71  C   UNL A   1      42.593  26.188  34.493  1.00  0.00     0.012 A 
ATOM     72  C   UNL A   1      45.025  26.189  34.452  1.00  0.00     0.148 A 
ATOM     73  C   UNL A   1      42.597  25.002  35.228  1.00  0.00     0.002 A 
ATOM     74  C   UNL A   1      45.022  24.982  35.140  1.00  0.00     0.091 A 
ATOM     75  F   UNL A   1      46.165  26.804  34.107  1.00  0.00    -0.205 F 
ATOM     76  C   UNL A   1      43.810  24.395  35.541  1.00  0.00     0.022 A 
BRANCH  74  77
ATOM     77  S   UNL A   1      46.527  24.080  35.518  1.00  0.00     0.127 S 
ATOM     78  O   UNL A   1      47.089  24.885  36.601  1.00  0.00    -0.237 OA
ATOM     79  O   UNL A   1      46.006  22.777  35.934  1.00  0.00    -0.237 OA
ATOM     80  O   UNL A   1      47.305  24.061  34.288  1.00  0.00    -0.744 OA
ENDBRANCH  74  77
ENDBRANCH  56  70
BRANCH  57  81
ATOM     81  C   UNL A   1      43.428  35.009  28.399  1.00  0.00     0.023 A 
ATOM     82  C   UNL A   1      42.171  35.444  27.936  1.00  0.00     0.012 A 
ATOM     83  C   UNL A   1      44.578  35.745  28.052  1.00  0.00     0.148 A 
ATOM     84  C   UNL A   1      42.064  36.567  27.114  1.00  0.00     0.002 A 
ATOM     85  C   UNL A   1      44.459  36.895  27.281  1.00  0.00     0.091 A 
ATOM     86  F   UNL A   1      45.768  35.306  28.489  1.00  0.00    -0.205 F 
ATOM     87  C   UNL A   1      43.206  37.297  26.795  1.00  0.00     0.022 A 
BRANCH  85  88
ATOM     88  S   UNL A   1      45.856  37.967  26.926  1.00  0.00     0.127 S 
ATOM     89  O   UNL A   1      46.478  38.093  28.241  1.00  0.00    -0.237 OA
ATOM     90  O   UNL A   1      46.609  37.165  25.961  1.00  0.00    -0.237 OA
ATOM     91  O   UNL A   1      45.287  39.189  26.377  1.00  0.00    -0.744 OA
ENDBRANCH  85  88
ENDBRANCH  57  81
BRANCH  69  92
ATOM     92  C   UNL A   1      43.054  33.884  35.280  1.00  0.00     0.023 A 
ATOM     93  C   UNL A   1      44.184  34.336  35.991  1.00  0.00     0.012 A 
ATOM     94  C   UNL A   1      41.776  34.350  35.648  1.00  0.00     0.148 A 
ATOM     95  C   UNL A   1      44.039  35.198  37.078  1.00  0.00     0.002 A 
ATOM     96  C   UNL A   1      41.644  35.254  36.694  1.00  0.00     0.091 A 
ATOM     97  F   UNL A   1      40.710  33.898  34.969  1.00  0.00    -0.205 F 
ATOM     98  C   UNL A   1      42.772  35.665  37.422  1.00  0.00     0.022 A 
BRANCH  96  99
ATOM     99  S   UNL A   1      40.065  35.985  37.138  1.00  0.00     0.127 S 
ATOM    100  O   UNL A   1      40.422  36.767  38.321  1.00  0.00    -0.237 OA
ATOM    101  O   UNL A   1      39.749  36.783  35.952  1.00  0.00    -0.237 OA
ATOM    102  O   UNL A   1      39.159  34.870  37.375  1.00  0.00    -0.744 OA
ENDBRANCH  96  99
ENDBRANCH  69  92
ENDBRANCH  43  44
ENDBRANCH  36  38
ENDBRANCH  35  36
ENDBRANCH  34  35
ENDBRANCH  33  34
ENDBRANCH  32  33
ENDBRANCH  31  32
ENDBRANCH   1  31
TORSDOF 25
ENDMDL
