MODEL 1
REMARK VINA RESULT:     -10.6      0.000      0.000
REMARK SMILES CC[NH+]1CCC2(CC1)OC[C@H](C(=O)OCCOCCOCCOCCOC(=O)c1ccc(-c3c4nc(c(-c5cccc(S(=O)(=O)[O-])c5F)c5ccc([nH]5)c(-c5cccc(S(=O)(=O)[O-])c5F)c5nc(c(-c6cccc(S(=O)(=O)[O-])c6F)c6ccc3[nH]6)C=C5)C=C4)cc1)N2C(=O)c1ccccc1
REMARK SMILES IDX 21 1 20 2 19 3 18 4 17 5 16 6 15 7 14 8 12 9 13 10 11 11
REMARK SMILES IDX 3 12 4 13 8 14 5 16 7 17 6 18 9 19 92 20 10 21 2 22 1 23
REMARK SMILES IDX 93 24 94 25 95 26 96 27 100 28 97 29 99 30 98 31 22 32 23 33
REMARK SMILES IDX 24 34 25 35 26 36 27 37 28 38 29 39 30 40 91 41 31 42 90 43
REMARK SMILES IDX 32 44 33 45 34 46 84 47 35 48 89 49 83 50 85 51 36 52 88 53
REMARK SMILES IDX 82 54 81 55 37 57 69 58 49 59 68 60 50 61 53 62 67 63 86 64
REMARK SMILES IDX 51 65 52 66 66 68 87 69 54 70 38 71 39 72 47 73 40 74 42 75
REMARK SMILES IDX 48 76 41 77 43 78 44 79 45 80 46 81 70 82 71 83 79 84 72 85
REMARK SMILES IDX 74 86 80 87 73 88 75 89 76 90 77 91 78 92 55 93 56 94 64 95
REMARK SMILES IDX 57 96 59 97 65 98 58 99 60 100 61 101 62 102 63 103
REMARK H PARENT 3 15 85 56 53 67
REMARK Flexibility Score: inf
ROOT
ATOM      1  C   UNL A   1      35.145  21.800  25.954  1.00  0.00     0.188 C 
ENDROOT
BRANCH   1   2
ATOM      2  O   UNL A   1      34.090  20.864  25.959  1.00  0.00    -0.377 OA
BRANCH   2   3
ATOM      3  C   UNL A   1      33.867  20.090  24.791  1.00  0.00     0.188 C 
BRANCH   3   4
ATOM      4  C   UNL A   1      32.517  20.071  24.028  1.00  0.00     0.188 C 
BRANCH   4   5
ATOM      5  O   UNL A   1      32.400  20.991  22.956  1.00  0.00    -0.376 OA
BRANCH   5   6
ATOM      6  C   UNL A   1      32.062  22.339  23.237  1.00  0.00     0.202 C 
BRANCH   6   7
ATOM      7  C   UNL A   1      33.188  23.385  23.191  1.00  0.00     0.261 C 
BRANCH   7   8
ATOM      8  O   UNL A   1      33.062  24.463  24.134  1.00  0.00    -0.462 OA
BRANCH   8   9
ATOM      9  C   UNL A   1      32.047  24.377  25.033  1.00  0.00     0.331 C 
ATOM     10  O   UNL A   1      32.026  23.542  25.930  1.00  0.00    -0.250 OA
BRANCH   9  11
ATOM     11  C   UNL A   1      31.014  25.523  24.825  1.00  0.00     0.224 C 
ATOM     12  N   UNL A   1      33.793  29.752  26.159  1.00  0.00    -0.335 N 
ATOM     13  C   UNL A   1      34.253  28.434  25.740  1.00  0.00     0.267 C 
ATOM     14  C   UNL A   1      32.346  29.957  26.127  1.00  0.00     0.267 C 
ATOM     15  H   UNL A   1      34.119  30.370  25.416  1.00  0.00     0.348 HD
ATOM     16  C   UNL A   1      33.436  27.276  26.267  1.00  0.00     0.120 C 
ATOM     17  C   UNL A   1      31.437  28.774  26.424  1.00  0.00     0.120 C 
ATOM     18  C   UNL A   1      31.940  27.411  25.961  1.00  0.00     0.155 C 
ATOM     19  O   UNL A   1      31.254  26.502  26.898  1.00  0.00    -0.352 OA
ATOM     20  N   UNL A   1      31.528  26.900  24.638  1.00  0.00    -0.293 N 
ATOM     21  C   UNL A   1      30.330  25.686  26.152  1.00  0.00     0.200 C 
BRANCH  12  22
ATOM     22  C   UNL A   1      34.441  30.230  27.376  1.00  0.00     0.258 C 
ATOM     23  C   UNL A   1      33.933  31.617  27.763  1.00  0.00     0.071 C 
ENDBRANCH  12  22
BRANCH  20  24
ATOM     24  C   UNL A   1      31.161  27.582  23.469  1.00  0.00     0.256 C 
ATOM     25  O   UNL A   1      31.820  27.484  22.432  1.00  0.00    -0.269 OA
BRANCH  24  26
ATOM     26  C   UNL A   1      29.962  28.441  23.346  1.00  0.00     0.040 A 
ATOM     27  C   UNL A   1      28.703  27.832  23.224  1.00  0.00     0.014 A 
ATOM     28  C   UNL A   1      30.054  29.830  23.217  1.00  0.00     0.014 A 
ATOM     29  C   UNL A   1      27.542  28.614  23.155  1.00  0.00     0.001 A 
ATOM     30  C   UNL A   1      28.892  30.614  23.180  1.00  0.00     0.001 A 
ATOM     31  C   UNL A   1      27.636  30.006  23.177  1.00  0.00     0.000 A 
ENDBRANCH  24  26
ENDBRANCH  20  24
ENDBRANCH   9  11
ENDBRANCH   8   9
ENDBRANCH   7   8
ENDBRANCH   6   7
ENDBRANCH   5   6
ENDBRANCH   4   5
ENDBRANCH   3   4
ENDBRANCH   2   3
ENDBRANCH   1   2
BRANCH   1  32
ATOM     32  C   UNL A   1      36.119  21.617  24.777  1.00  0.00     0.188 C 
BRANCH  32  33
ATOM     33  O   UNL A   1      37.410  21.174  25.171  1.00  0.00    -0.376 OA
BRANCH  33  34
ATOM     34  C   UNL A   1      37.793  19.827  24.943  1.00  0.00     0.202 C 
BRANCH  34  35
ATOM     35  C   UNL A   1      39.088  19.205  25.503  1.00  0.00     0.261 C 
BRANCH  35  36
ATOM     36  O   UNL A   1      39.959  20.030  26.281  1.00  0.00    -0.460 OA
BRANCH  36  37
ATOM     37  C   UNL A   1      41.286  19.826  26.202  1.00  0.00     0.338 C 
ATOM     38  O   UNL A   1      41.856  18.810  25.839  1.00  0.00    -0.246 OA
BRANCH  37  39
ATOM     39  C   UNL A   1      41.929  21.139  26.430  1.00  0.00     0.060 A 
ATOM     40  C   UNL A   1      42.239  21.524  27.743  1.00  0.00     0.016 A 
ATOM     41  C   UNL A   1      42.286  21.952  25.352  1.00  0.00     0.016 A 
ATOM     42  C   UNL A   1      42.892  22.732  27.981  1.00  0.00     0.010 A 
ATOM     43  C   UNL A   1      42.903  23.181  25.593  1.00  0.00     0.010 A 
ATOM     44  C   UNL A   1      43.179  23.589  26.910  1.00  0.00    -0.014 A 
BRANCH  44  45
ATOM     45  C   UNL A   1      43.539  24.996  27.188  1.00  0.00     0.031 A 
ATOM     46  C   UNL A   1      44.968  25.407  26.960  1.00  0.00     0.074 A 
ATOM     47  C   UNL A   1      42.632  25.887  27.626  1.00  0.00     0.049 A 
ATOM     48  N   UNL A   1      45.540  26.564  27.156  1.00  0.00    -0.248 NA
ATOM     49  C   UNL A   1      45.873  24.366  26.442  1.00  0.00     0.031 C 
ATOM     50  C   UNL A   1      41.218  25.609  27.866  1.00  0.00     0.029 A 
ATOM     51  N   UNL A   1      42.782  27.207  27.969  1.00  0.00    -0.354 N 
ATOM     52  C   UNL A   1      46.876  26.382  26.819  1.00  0.00     0.074 A 
ATOM     53  C   UNL A   1      47.032  25.004  26.412  1.00  0.00     0.031 C 
ATOM     54  C   UNL A   1      40.633  26.720  28.347  1.00  0.00     0.029 A 
ATOM     55  C   UNL A   1      41.637  27.776  28.475  1.00  0.00     0.049 A 
ATOM     56  H   UNL A   1      43.627  27.700  27.863  1.00  0.00     0.167 HD
ATOM     57  C   UNL A   1      47.883  27.286  26.840  1.00  0.00     0.034 A 
ATOM     58  C   UNL A   1      41.436  28.999  29.003  1.00  0.00     0.034 A 
ATOM     59  C   UNL A   1      47.721  28.655  27.240  1.00  0.00     0.049 A 
ATOM     60  C   UNL A   1      42.586  29.976  29.052  1.00  0.00     0.074 A 
ATOM     61  C   UNL A   1      48.667  29.664  27.252  1.00  0.00     0.029 A 
ATOM     62  N   UNL A   1      46.542  29.204  27.721  1.00  0.00    -0.354 N 
ATOM     63  N   UNL A   1      43.816  29.829  28.623  1.00  0.00    -0.248 NA
ATOM     64  C   UNL A   1      42.309  31.300  29.630  1.00  0.00     0.031 C 
ATOM     65  C   UNL A   1      48.070  30.812  27.782  1.00  0.00     0.029 A 
ATOM     66  C   UNL A   1      46.741  30.532  28.053  1.00  0.00     0.049 A 
ATOM     67  H   UNL A   1      45.690  28.719  27.813  1.00  0.00     0.167 HD
ATOM     68  C   UNL A   1      44.447  31.051  28.840  1.00  0.00     0.074 A 
ATOM     69  C   UNL A   1      43.457  31.932  29.425  1.00  0.00     0.031 C 
ATOM     70  C   UNL A   1      45.731  31.410  28.587  1.00  0.00     0.034 A 
BRANCH  57  71
ATOM     71  C   UNL A   1      49.248  26.815  26.418  1.00  0.00     0.023 A 
ATOM     72  C   UNL A   1      49.987  25.952  27.252  1.00  0.00     0.012 A 
ATOM     73  C   UNL A   1      49.782  27.200  25.172  1.00  0.00     0.148 A 
ATOM     74  C   UNL A   1      51.252  25.505  26.868  1.00  0.00     0.002 A 
ATOM     75  C   UNL A   1      51.020  26.711  24.775  1.00  0.00     0.091 A 
ATOM     76  F   UNL A   1      49.076  28.043  24.406  1.00  0.00    -0.205 F 
ATOM     77  C   UNL A   1      51.762  25.875  25.627  1.00  0.00     0.022 A 
BRANCH  75  78
ATOM     78  S   UNL A   1      51.727  27.063  23.162  1.00  0.00     0.127 S 
ATOM     79  O   UNL A   1      50.647  26.644  22.269  1.00  0.00    -0.237 OA
ATOM     80  O   UNL A   1      51.935  28.509  23.230  1.00  0.00    -0.237 OA
ATOM     81  O   UNL A   1      52.948  26.275  23.076  1.00  0.00    -0.744 OA
ENDBRANCH  75  78
ENDBRANCH  57  71
BRANCH  58  82
ATOM     82  C   UNL A   1      40.088  29.386  29.510  1.00  0.00     0.023 A 
ATOM     83  C   UNL A   1      39.095  29.799  28.600  1.00  0.00     0.012 A 
ATOM     84  C   UNL A   1      39.785  29.346  30.885  1.00  0.00     0.148 A 
ATOM     85  C   UNL A   1      37.837  30.198  29.053  1.00  0.00     0.002 A 
ATOM     86  C   UNL A   1      38.512  29.691  31.324  1.00  0.00     0.091 A 
ATOM     87  F   UNL A   1      40.748  28.965  31.736  1.00  0.00    -0.205 F 
ATOM     88  C   UNL A   1      37.542  30.135  30.413  1.00  0.00     0.022 A 
BRANCH  86  89
ATOM     89  S   UNL A   1      38.003  29.525  33.039  1.00  0.00     0.127 S 
ATOM     90  O   UNL A   1      37.066  30.637  33.182  1.00  0.00    -0.237 OA
ATOM     91  O   UNL A   1      37.388  28.197  33.039  1.00  0.00    -0.237 OA
ATOM     92  O   UNL A   1      39.224  29.624  33.826  1.00  0.00    -0.744 OA
ENDBRANCH  86  89
ENDBRANCH  58  82
BRANCH  70  93
ATOM     93  C   UNL A   1      46.137  32.831  28.889  1.00  0.00     0.023 A 
ATOM     94  C   UNL A   1      46.625  33.172  30.164  1.00  0.00     0.012 A 
ATOM     95  C   UNL A   1      46.110  33.809  27.874  1.00  0.00     0.148 A 
ATOM     96  C   UNL A   1      47.045  34.474  30.437  1.00  0.00     0.002 A 
ATOM     97  C   UNL A   1      46.580  35.090  28.137  1.00  0.00     0.091 A 
ATOM     98  F   UNL A   1      45.629  33.468  26.670  1.00  0.00    -0.205 F 
ATOM     99  C   UNL A   1      47.035  35.428  29.422  1.00  0.00     0.022 A 
BRANCH  97 100
ATOM    100  S   UNL A   1      46.700  36.353  26.866  1.00  0.00     0.127 S 
ATOM    101  O   UNL A   1      47.696  37.258  27.438  1.00  0.00    -0.237 OA
ATOM    102  O   UNL A   1      47.166  35.586  25.710  1.00  0.00    -0.237 OA
ATOM    103  O   UNL A   1      45.362  36.911  26.723  1.00  0.00    -0.744 OA
ENDBRANCH  97 100
ENDBRANCH  70  93
ENDBRANCH  44  45
ENDBRANCH  37  39
ENDBRANCH  36  37
ENDBRANCH  35  36
ENDBRANCH  34  35
ENDBRANCH  33  34
ENDBRANCH  32  33
ENDBRANCH   1  32
TORSDOF 26
ENDMDL
MODEL 2
REMARK VINA RESULT:     -10.6      0.963      7.745
REMARK SMILES CC[NH+]1CCC2(CC1)OC[C@H](C(=O)OCCOCCOCCOCCOC(=O)c1ccc(-c3c4nc(c(-c5cccc(S(=O)(=O)[O-])c5F)c5ccc([nH]5)c(-c5cccc(S(=O)(=O)[O-])c5F)c5nc(c(-c6cccc(S(=O)(=O)[O-])c6F)c6ccc3[nH]6)C=C5)C=C4)cc1)N2C(=O)c1ccccc1
REMARK SMILES IDX 21 1 20 2 19 3 18 4 17 5 16 6 15 7 14 8 12 9 13 10 11 11
REMARK SMILES IDX 3 12 4 13 8 14 5 16 7 17 6 18 9 19 92 20 10 21 2 22 1 23
REMARK SMILES IDX 93 24 94 25 95 26 96 27 100 28 97 29 99 30 98 31 22 32 23 33
REMARK SMILES IDX 24 34 25 35 26 36 27 37 28 38 29 39 30 40 91 41 31 42 90 43
REMARK SMILES IDX 32 44 33 45 34 46 84 47 35 48 89 49 83 50 85 51 36 52 88 53
REMARK SMILES IDX 82 54 81 55 37 57 69 58 49 59 68 60 50 61 53 62 67 63 86 64
REMARK SMILES IDX 51 65 52 66 66 68 87 69 54 70 38 71 39 72 47 73 40 74 42 75
REMARK SMILES IDX 48 76 41 77 43 78 44 79 45 80 46 81 70 82 71 83 79 84 72 85
REMARK SMILES IDX 74 86 80 87 73 88 75 89 76 90 77 91 78 92 55 93 56 94 64 95
REMARK SMILES IDX 57 96 59 97 65 98 58 99 60 100 61 101 62 102 63 103
REMARK H PARENT 3 15 85 56 53 67
REMARK Flexibility Score: inf
ROOT
ATOM      1  C   UNL A   1      36.029  22.807  26.024  1.00  0.00     0.188 C 
ENDROOT
BRANCH   1   2
ATOM      2  O   UNL A   1      35.149  21.777  26.417  1.00  0.00    -0.377 OA
BRANCH   2   3
ATOM      3  C   UNL A   1      34.411  21.099  25.412  1.00  0.00     0.188 C 
BRANCH   3   4
ATOM      4  C   UNL A   1      33.007  20.487  25.657  1.00  0.00     0.188 C 
BRANCH   4   5
ATOM      5  O   UNL A   1      31.916  21.389  25.572  1.00  0.00    -0.376 OA
BRANCH   5   6
ATOM      6  C   UNL A   1      32.014  22.652  26.210  1.00  0.00     0.202 C 
BRANCH   6   7
ATOM      7  C   UNL A   1      30.892  23.671  25.957  1.00  0.00     0.261 C 
BRANCH   7   8
ATOM      8  O   UNL A   1      30.750  24.101  24.592  1.00  0.00    -0.462 OA
BRANCH   8   9
ATOM      9  C   UNL A   1      31.891  24.415  23.926  1.00  0.00     0.331 C 
ATOM     10  O   UNL A   1      32.304  23.761  22.975  1.00  0.00    -0.250 OA
BRANCH   9  11
ATOM     11  C   UNL A   1      32.509  25.738  24.462  1.00  0.00     0.224 C 
ATOM     12  N   UNL A   1      28.802  29.234  23.267  1.00  0.00    -0.335 N 
ATOM     13  C   UNL A   1      28.701  27.788  23.416  1.00  0.00     0.267 C 
ATOM     14  C   UNL A   1      30.110  29.811  23.574  1.00  0.00     0.267 C 
ATOM     15  H   UNL A   1      28.220  29.597  24.022  1.00  0.00     0.348 HD
ATOM     16  C   UNL A   1      29.880  27.007  22.883  1.00  0.00     0.120 C 
ATOM     17  C   UNL A   1      31.355  28.989  23.277  1.00  0.00     0.120 C 
ATOM     18  C   UNL A   1      31.220  27.481  23.456  1.00  0.00     0.155 C 
ATOM     19  O   UNL A   1      32.254  26.974  22.534  1.00  0.00    -0.352 OA
ATOM     20  N   UNL A   1      31.596  26.870  24.747  1.00  0.00    -0.293 N 
ATOM     21  C   UNL A   1      33.275  26.316  23.307  1.00  0.00     0.200 C 
BRANCH  12  22
ATOM     22  C   UNL A   1      28.200  29.732  22.035  1.00  0.00     0.258 C 
ATOM     23  C   UNL A   1      28.842  31.047  21.599  1.00  0.00     0.071 C 
ENDBRANCH  12  22
BRANCH  20  24
ATOM     24  C   UNL A   1      31.597  27.403  26.044  1.00  0.00     0.256 C 
ATOM     25  O   UNL A   1      30.796  27.021  26.899  1.00  0.00    -0.269 OA
BRANCH  24  26
ATOM     26  C   UNL A   1      32.554  28.427  26.524  1.00  0.00     0.040 A 
ATOM     27  C   UNL A   1      32.083  29.722  26.786  1.00  0.00     0.014 A 
ATOM     28  C   UNL A   1      33.928  28.180  26.598  1.00  0.00     0.014 A 
ATOM     29  C   UNL A   1      32.950  30.702  27.288  1.00  0.00     0.001 A 
ATOM     30  C   UNL A   1      34.790  29.150  27.130  1.00  0.00     0.001 A 
ATOM     31  C   UNL A   1      34.296  30.400  27.501  1.00  0.00     0.000 A 
ENDBRANCH  24  26
ENDBRANCH  20  24
ENDBRANCH   9  11
ENDBRANCH   8   9
ENDBRANCH   7   8
ENDBRANCH   6   7
ENDBRANCH   5   6
ENDBRANCH   4   5
ENDBRANCH   3   4
ENDBRANCH   2   3
ENDBRANCH   1   2
BRANCH   1  32
ATOM     32  C   UNL A   1      36.806  22.489  24.735  1.00  0.00     0.188 C 
BRANCH  32  33
ATOM     33  O   UNL A   1      38.007  21.765  24.959  1.00  0.00    -0.376 OA
BRANCH  33  34
ATOM     34  C   UNL A   1      37.996  20.347  24.906  1.00  0.00     0.202 C 
BRANCH  34  35
ATOM     35  C   UNL A   1      39.088  19.464  25.544  1.00  0.00     0.261 C 
BRANCH  35  36
ATOM     36  O   UNL A   1      40.079  20.090  26.362  1.00  0.00    -0.460 OA
BRANCH  36  37
ATOM     37  C   UNL A   1      41.373  19.780  26.164  1.00  0.00     0.338 C 
ATOM     38  O   UNL A   1      41.820  18.739  25.710  1.00  0.00    -0.246 OA
BRANCH  37  39
ATOM     39  C   UNL A   1      42.144  21.020  26.398  1.00  0.00     0.060 A 
ATOM     40  C   UNL A   1      42.546  21.334  27.705  1.00  0.00     0.016 A 
ATOM     41  C   UNL A   1      42.529  21.830  25.326  1.00  0.00     0.016 A 
ATOM     42  C   UNL A   1      43.318  22.469  27.944  1.00  0.00     0.010 A 
ATOM     43  C   UNL A   1      43.268  22.989  25.571  1.00  0.00     0.010 A 
ATOM     44  C   UNL A   1      43.637  23.328  26.885  1.00  0.00    -0.014 A 
BRANCH  44  45
ATOM     45  C   UNL A   1      44.139  24.687  27.184  1.00  0.00     0.031 A 
ATOM     46  C   UNL A   1      43.157  25.689  27.726  1.00  0.00     0.074 A 
ATOM     47  C   UNL A   1      45.425  25.027  26.986  1.00  0.00     0.049 A 
ATOM     48  N   UNL A   1      43.339  26.944  28.037  1.00  0.00    -0.248 NA
ATOM     49  C   UNL A   1      41.783  25.205  27.944  1.00  0.00     0.031 C 
ATOM     50  C   UNL A   1      46.469  24.138  26.482  1.00  0.00     0.029 A 
ATOM     51  N   UNL A   1      46.061  26.230  27.166  1.00  0.00    -0.354 N 
ATOM     52  C   UNL A   1      42.097  27.408  28.454  1.00  0.00     0.074 A 
ATOM     53  C   UNL A   1      41.169  26.304  28.352  1.00  0.00     0.031 C 
ATOM     54  C   UNL A   1      47.613  24.835  26.365  1.00  0.00     0.029 A 
ATOM     55  C   UNL A   1      47.373  26.223  26.758  1.00  0.00     0.049 A 
ATOM     56  H   UNL A   1      45.619  27.021  27.550  1.00  0.00     0.167 HD
ATOM     57  C   UNL A   1      41.760  28.644  28.891  1.00  0.00     0.034 A 
ATOM     58  C   UNL A   1      48.265  27.231  26.687  1.00  0.00     0.034 A 
ATOM     59  C   UNL A   1      42.687  29.735  28.996  1.00  0.00     0.049 A 
ATOM     60  C   UNL A   1      47.854  28.610  27.143  1.00  0.00     0.074 A 
ATOM     61  C   UNL A   1      42.457  31.014  29.472  1.00  0.00     0.029 A 
ATOM     62  N   UNL A   1      44.014  29.686  28.600  1.00  0.00    -0.354 N 
ATOM     63  N   UNL A   1      46.709  29.009  27.644  1.00  0.00    -0.248 NA
ATOM     64  C   UNL A   1      48.868  29.671  27.053  1.00  0.00     0.031 C 
ATOM     65  C   UNL A   1      43.636  31.750  29.321  1.00  0.00     0.029 A 
ATOM     66  C   UNL A   1      44.613  30.917  28.800  1.00  0.00     0.049 A 
ATOM     67  H   UNL A   1      44.463  28.891  28.231  1.00  0.00     0.167 HD
ATOM     68  C   UNL A   1      46.879  30.352  27.966  1.00  0.00     0.074 A 
ATOM     69  C   UNL A   1      48.243  30.694  27.619  1.00  0.00     0.031 C 
ATOM     70  C   UNL A   1      45.986  31.227  28.494  1.00  0.00     0.034 A 
BRANCH  57  71
ATOM     71  C   UNL A   1      40.326  28.875  29.286  1.00  0.00     0.023 A 
ATOM     72  C   UNL A   1      39.353  29.123  28.297  1.00  0.00     0.012 A 
ATOM     73  C   UNL A   1      39.939  28.807  30.638  1.00  0.00     0.148 A 
ATOM     74  C   UNL A   1      38.020  29.334  28.651  1.00  0.00     0.002 A 
ATOM     75  C   UNL A   1      38.601  28.969  30.978  1.00  0.00     0.091 A 
ATOM     76  F   UNL A   1      40.884  28.598  31.565  1.00  0.00    -0.205 F 
ATOM     77  C   UNL A   1      37.643  29.245  29.989  1.00  0.00     0.022 A 
BRANCH  75  78
ATOM     78  S   UNL A   1      38.004  28.792  32.662  1.00  0.00     0.127 S 
ATOM     79  O   UNL A   1      36.635  29.292  32.544  1.00  0.00    -0.237 OA
ATOM     80  O   UNL A   1      38.108  27.348  32.873  1.00  0.00    -0.237 OA
ATOM     81  O   UNL A   1      38.891  29.594  33.492  1.00  0.00    -0.744 OA
ENDBRANCH  75  78
ENDBRANCH  57  71
BRANCH  58  82
ATOM     82  C   UNL A   1      49.647  26.978  26.186  1.00  0.00     0.023 A 
ATOM     83  C   UNL A   1      50.609  26.421  27.051  1.00  0.00     0.012 A 
ATOM     84  C   UNL A   1      50.011  27.283  24.861  1.00  0.00     0.148 A 
ATOM     85  C   UNL A   1      51.917  26.206  26.616  1.00  0.00     0.002 A 
ATOM     86  C   UNL A   1      51.301  27.013  24.417  1.00  0.00     0.091 A 
ATOM     87  F   UNL A   1      49.086  27.826  24.058  1.00  0.00    -0.205 F 
ATOM     88  C   UNL A   1      52.260  26.492  25.297  1.00  0.00     0.022 A 
BRANCH  86  89
ATOM     89  S   UNL A   1      51.801  27.236  22.706  1.00  0.00     0.127 S 
ATOM     90  O   UNL A   1      50.614  26.779  21.985  1.00  0.00    -0.237 OA
ATOM     91  O   UNL A   1      52.038  28.679  22.651  1.00  0.00    -0.237 OA
ATOM     92  O   UNL A   1      52.996  26.422  22.533  1.00  0.00    -0.744 OA
ENDBRANCH  86  89
ENDBRANCH  58  82
BRANCH  70  93
ATOM     93  C   UNL A   1      46.460  32.630  28.783  1.00  0.00     0.023 A 
ATOM     94  C   UNL A   1      47.003  32.949  30.042  1.00  0.00     0.012 A 
ATOM     95  C   UNL A   1      46.439  33.610  27.769  1.00  0.00     0.148 A 
ATOM     96  C   UNL A   1      47.485  34.232  30.300  1.00  0.00     0.002 A 
ATOM     97  C   UNL A   1      46.970  34.870  28.017  1.00  0.00     0.091 A 
ATOM     98  F   UNL A   1      45.905  33.291  26.581  1.00  0.00    -0.205 F 
ATOM     99  C   UNL A   1      47.480  35.188  29.287  1.00  0.00     0.022 A 
BRANCH  97 100
ATOM    100  S   UNL A   1      47.100  36.129  26.743  1.00  0.00     0.127 S 
ATOM    101  O   UNL A   1      45.919  36.949  27.013  1.00  0.00    -0.237 OA
ATOM    102  O   UNL A   1      48.375  36.769  27.070  1.00  0.00    -0.237 OA
ATOM    103  O   UNL A   1      47.088  35.420  25.471  1.00  0.00    -0.744 OA
ENDBRANCH  97 100
ENDBRANCH  70  93
ENDBRANCH  44  45
ENDBRANCH  37  39
ENDBRANCH  36  37
ENDBRANCH  35  36
ENDBRANCH  34  35
ENDBRANCH  33  34
ENDBRANCH  32  33
ENDBRANCH   1  32
TORSDOF 26
ENDMDL
MODEL 3
REMARK VINA RESULT:     -10.5      2.159      3.447
REMARK SMILES CC[NH+]1CCC2(CC1)OC[C@H](C(=O)OCCOCCOCCOCCOC(=O)c1ccc(-c3c4nc(c(-c5cccc(S(=O)(=O)[O-])c5F)c5ccc([nH]5)c(-c5cccc(S(=O)(=O)[O-])c5F)c5nc(c(-c6cccc(S(=O)(=O)[O-])c6F)c6ccc3[nH]6)C=C5)C=C4)cc1)N2C(=O)c1ccccc1
REMARK SMILES IDX 21 1 20 2 19 3 18 4 17 5 16 6 15 7 14 8 12 9 13 10 11 11
REMARK SMILES IDX 3 12 4 13 8 14 5 16 7 17 6 18 9 19 92 20 10 21 2 22 1 23
REMARK SMILES IDX 93 24 94 25 95 26 96 27 100 28 97 29 99 30 98 31 22 32 23 33
REMARK SMILES IDX 24 34 25 35 26 36 27 37 28 38 29 39 30 40 91 41 31 42 90 43
REMARK SMILES IDX 32 44 33 45 34 46 84 47 35 48 89 49 83 50 85 51 36 52 88 53
REMARK SMILES IDX 82 54 81 55 37 57 69 58 49 59 68 60 50 61 53 62 67 63 86 64
REMARK SMILES IDX 51 65 52 66 66 68 87 69 54 70 38 71 39 72 47 73 40 74 42 75
REMARK SMILES IDX 48 76 41 77 43 78 44 79 45 80 46 81 70 82 71 83 79 84 72 85
REMARK SMILES IDX 74 86 80 87 73 88 75 89 76 90 77 91 78 92 55 93 56 94 64 95
REMARK SMILES IDX 57 96 59 97 65 98 58 99 60 100 61 101 62 102 63 103
REMARK H PARENT 3 15 85 56 53 67
REMARK Flexibility Score: inf
ROOT
ATOM      1  C   UNL A   1      33.375  21.641  27.310  1.00  0.00     0.188 C 
ENDROOT
BRANCH   1   2
ATOM      2  O   UNL A   1      32.474  22.689  27.028  1.00  0.00    -0.377 OA
BRANCH   2   3
ATOM      3  C   UNL A   1      31.289  22.386  26.307  1.00  0.00     0.188 C 
BRANCH   3   4
ATOM      4  C   UNL A   1      29.866  22.649  26.863  1.00  0.00     0.188 C 
BRANCH   4   5
ATOM      5  O   UNL A   1      29.608  23.973  27.300  1.00  0.00    -0.376 OA
BRANCH   5   6
ATOM      6  C   UNL A   1      29.983  25.059  26.470  1.00  0.00     0.202 C 
BRANCH   6   7
ATOM      7  C   UNL A   1      31.268  25.824  26.826  1.00  0.00     0.261 C 
BRANCH   7   8
ATOM      8  O   UNL A   1      31.103  27.238  27.029  1.00  0.00    -0.462 OA
BRANCH   8   9
ATOM      9  C   UNL A   1      32.034  28.052  26.468  1.00  0.00     0.331 C 
ATOM     10  O   UNL A   1      33.119  28.277  26.992  1.00  0.00    -0.250 OA
BRANCH   9  11
ATOM     11  C   UNL A   1      31.576  28.546  25.066  1.00  0.00     0.224 C 
ATOM     12  N   UNL A   1      32.358  24.301  22.106  1.00  0.00    -0.335 N 
ATOM     13  C   UNL A   1      32.192  24.408  23.550  1.00  0.00     0.267 C 
ATOM     14  C   UNL A   1      32.204  25.548  21.357  1.00  0.00     0.267 C 
ATOM     15  H   UNL A   1      31.543  23.764  21.807  1.00  0.00     0.348 HD
ATOM     16  C   UNL A   1      32.853  25.613  24.181  1.00  0.00     0.120 C 
ATOM     17  C   UNL A   1      32.636  26.849  22.016  1.00  0.00     0.120 C 
ATOM     18  C   UNL A   1      32.437  26.934  23.525  1.00  0.00     0.155 C 
ATOM     19  O   UNL A   1      33.469  27.916  23.910  1.00  0.00    -0.352 OA
ATOM     20  N   UNL A   1      31.195  27.529  24.057  1.00  0.00    -0.293 N 
ATOM     21  C   UNL A   1      32.813  29.096  24.415  1.00  0.00     0.200 C 
BRANCH  12  22
ATOM     22  C   UNL A   1      33.516  23.505  21.714  1.00  0.00     0.258 C 
ATOM     23  C   UNL A   1      34.473  23.308  22.887  1.00  0.00     0.071 C 
ENDBRANCH  12  22
BRANCH  20  24
ATOM     24  C   UNL A   1      29.909  27.605  23.505  1.00  0.00     0.256 C 
ATOM     25  O   UNL A   1      29.159  26.628  23.480  1.00  0.00    -0.269 OA
BRANCH  24  26
ATOM     26  C   UNL A   1      29.316  28.839  22.938  1.00  0.00     0.040 A 
ATOM     27  C   UNL A   1      27.981  29.149  23.241  1.00  0.00     0.014 A 
ATOM     28  C   UNL A   1      30.000  29.633  22.013  1.00  0.00     0.014 A 
ATOM     29  C   UNL A   1      27.404  30.333  22.762  1.00  0.00     0.001 A 
ATOM     30  C   UNL A   1      29.434  30.833  21.559  1.00  0.00     0.001 A 
ATOM     31  C   UNL A   1      28.147  31.196  21.957  1.00  0.00     0.000 A 
ENDBRANCH  24  26
ENDBRANCH  20  24
ENDBRANCH   9  11
ENDBRANCH   8   9
ENDBRANCH   7   8
ENDBRANCH   6   7
ENDBRANCH   5   6
ENDBRANCH   4   5
ENDBRANCH   3   4
ENDBRANCH   2   3
ENDBRANCH   1   2
BRANCH   1  32
ATOM     32  C   UNL A   1      34.015  21.030  26.051  1.00  0.00     0.188 C 
BRANCH  32  33
ATOM     33  O   UNL A   1      35.423  21.203  25.988  1.00  0.00    -0.376 OA
BRANCH  33  34
ATOM     34  C   UNL A   1      36.173  20.532  24.987  1.00  0.00     0.202 C 
BRANCH  34  35
ATOM     35  C   UNL A   1      37.670  20.192  25.131  1.00  0.00     0.261 C 
BRANCH  35  36
ATOM     36  O   UNL A   1      38.588  21.255  25.390  1.00  0.00    -0.460 OA
BRANCH  36  37
ATOM     37  C   UNL A   1      39.593  21.047  26.260  1.00  0.00     0.338 C 
ATOM     38  O   UNL A   1      40.201  20.006  26.449  1.00  0.00    -0.246 OA
BRANCH  37  39
ATOM     39  C   UNL A   1      39.970  22.374  26.794  1.00  0.00     0.060 A 
ATOM     40  C   UNL A   1      39.310  23.514  26.310  1.00  0.00     0.016 A 
ATOM     41  C   UNL A   1      40.917  22.486  27.815  1.00  0.00     0.016 A 
ATOM     42  C   UNL A   1      39.609  24.769  26.834  1.00  0.00     0.010 A 
ATOM     43  C   UNL A   1      41.246  23.749  28.311  1.00  0.00     0.010 A 
ATOM     44  C   UNL A   1      40.616  24.897  27.799  1.00  0.00    -0.014 A 
BRANCH  44  45
ATOM     45  C   UNL A   1      41.171  26.236  28.091  1.00  0.00     0.031 A 
ATOM     46  C   UNL A   1      42.579  26.519  27.642  1.00  0.00     0.074 A 
ATOM     47  C   UNL A   1      40.454  27.177  28.729  1.00  0.00     0.049 A 
ATOM     48  N   UNL A   1      43.300  27.597  27.801  1.00  0.00    -0.248 NA
ATOM     49  C   UNL A   1      43.264  25.436  26.915  1.00  0.00     0.031 C 
ATOM     50  C   UNL A   1      39.078  27.024  29.195  1.00  0.00     0.029 A 
ATOM     51  N   UNL A   1      40.804  28.447  29.116  1.00  0.00    -0.354 N 
ATOM     52  C   UNL A   1      44.532  27.309  27.227  1.00  0.00     0.074 A 
ATOM     53  C   UNL A   1      44.465  25.957  26.721  1.00  0.00     0.031 C 
ATOM     54  C   UNL A   1      38.708  28.148  29.833  1.00  0.00     0.029 A 
ATOM     55  C   UNL A   1      39.830  29.086  29.845  1.00  0.00     0.049 A 
ATOM     56  H   UNL A   1      41.669  28.860  28.893  1.00  0.00     0.167 HD
ATOM     57  C   UNL A   1      45.622  28.104  27.124  1.00  0.00     0.034 A 
ATOM     58  C   UNL A   1      39.856  30.281  30.469  1.00  0.00     0.034 A 
ATOM     59  C   UNL A   1      45.682  29.449  27.624  1.00  0.00     0.049 A 
ATOM     60  C   UNL A   1      41.098  31.132  30.373  1.00  0.00     0.074 A 
ATOM     61  C   UNL A   1      46.722  30.355  27.529  1.00  0.00     0.029 A 
ATOM     62  N   UNL A   1      44.667  30.074  28.333  1.00  0.00    -0.354 N 
ATOM     63  N   UNL A   1      42.216  30.897  29.729  1.00  0.00    -0.248 NA
ATOM     64  C   UNL A   1      41.070  32.430  31.065  1.00  0.00     0.031 C 
ATOM     65  C   UNL A   1      46.353  31.513  28.220  1.00  0.00     0.029 A 
ATOM     66  C   UNL A   1      45.064  31.347  28.701  1.00  0.00     0.049 A 
ATOM     67  H   UNL A   1      43.795  29.670  28.543  1.00  0.00     0.167 HD
ATOM     68  C   UNL A   1      43.006  32.030  29.903  1.00  0.00     0.074 A 
ATOM     69  C   UNL A   1      42.230  32.958  30.700  1.00  0.00     0.031 C 
ATOM     70  C   UNL A   1      44.261  32.278  29.452  1.00  0.00     0.034 A 
BRANCH  57  71
ATOM     71  C   UNL A   1      46.838  27.533  26.445  1.00  0.00     0.023 A 
ATOM     72  C   UNL A   1      47.700  26.669  27.149  1.00  0.00     0.012 A 
ATOM     73  C   UNL A   1      47.102  27.825  25.093  1.00  0.00     0.148 A 
ATOM     74  C   UNL A   1      48.827  26.131  26.528  1.00  0.00     0.002 A 
ATOM     75  C   UNL A   1      48.199  27.245  24.466  1.00  0.00     0.091 A 
ATOM     76  F   UNL A   1      46.286  28.671  24.448  1.00  0.00    -0.205 F 
ATOM     77  C   UNL A   1      49.069  26.409  25.186  1.00  0.00     0.022 A 
BRANCH  75  78
ATOM     78  S   UNL A   1      48.549  27.476  22.721  1.00  0.00     0.127 S 
ATOM     79  O   UNL A   1      47.371  28.222  22.279  1.00  0.00    -0.237 OA
ATOM     80  O   UNL A   1      49.785  28.258  22.759  1.00  0.00    -0.237 OA
ATOM     81  O   UNL A   1      48.690  26.142  22.157  1.00  0.00    -0.744 OA
ENDBRANCH  75  78
ENDBRANCH  57  71
BRANCH  58  82
ATOM     82  C   UNL A   1      38.662  30.760  31.224  1.00  0.00     0.023 A 
ATOM     83  C   UNL A   1      38.585  30.542  32.613  1.00  0.00     0.012 A 
ATOM     84  C   UNL A   1      37.607  31.429  30.574  1.00  0.00     0.148 A 
ATOM     85  C   UNL A   1      37.463  30.951  33.335  1.00  0.00     0.002 A 
ATOM     86  C   UNL A   1      36.519  31.884  31.309  1.00  0.00     0.091 A 
ATOM     87  F   UNL A   1      37.693  31.612  29.249  1.00  0.00    -0.205 F 
ATOM     88  C   UNL A   1      36.435  31.630  32.686  1.00  0.00     0.022 A 
BRANCH  86  89
ATOM     89  S   UNL A   1      35.206  32.872  30.582  1.00  0.00     0.127 S 
ATOM     90  O   UNL A   1      34.701  31.980  29.541  1.00  0.00    -0.237 OA
ATOM     91  O   UNL A   1      34.308  33.058  31.723  1.00  0.00    -0.237 OA
ATOM     92  O   UNL A   1      35.843  34.094  30.112  1.00  0.00    -0.744 OA
ENDBRANCH  86  89
ENDBRANCH  58  82
BRANCH  70  93
ATOM     93  C   UNL A   1      44.867  33.625  29.758  1.00  0.00     0.023 A 
ATOM     94  C   UNL A   1      45.683  33.793  30.893  1.00  0.00     0.012 A 
ATOM     95  C   UNL A   1      44.688  34.704  28.869  1.00  0.00     0.148 A 
ATOM     96  C   UNL A   1      46.283  35.024  31.159  1.00  0.00     0.002 A 
ATOM     97  C   UNL A   1      45.332  35.912  29.111  1.00  0.00     0.091 A 
ATOM     98  F   UNL A   1      43.896  34.530  27.801  1.00  0.00    -0.205 F 
ATOM     99  C   UNL A   1      46.118  36.078  30.263  1.00  0.00     0.022 A 
BRANCH  97 100
ATOM    100  S   UNL A   1      45.262  37.290  27.962  1.00  0.00     0.127 S 
ATOM    101  O   UNL A   1      44.170  38.087  28.519  1.00  0.00    -0.237 OA
ATOM    102  O   UNL A   1      46.590  37.885  28.111  1.00  0.00    -0.237 OA
ATOM    103  O   UNL A   1      45.003  36.710  26.651  1.00  0.00    -0.744 OA
ENDBRANCH  97 100
ENDBRANCH  70  93
ENDBRANCH  44  45
ENDBRANCH  37  39
ENDBRANCH  36  37
ENDBRANCH  35  36
ENDBRANCH  34  35
ENDBRANCH  33  34
ENDBRANCH  32  33
ENDBRANCH   1  32
TORSDOF 26
ENDMDL
