MODEL 1
REMARK VINA RESULT:      -9.7      0.000      0.000
REMARK SMILES CCc1nc(C)c(C(=O)OCCOCCOCCOCCOC(=O)c2ccc(-c3c4nc(c(-c5cccc(S(=O)(=O)[O-])c5F)c5ccc([nH]5)c(-c5cccc(S(=O)(=O)[O-])c5F)c5nc(c(-c6cccc(S(=O)(=O)[O-])c6F)c6ccc3[nH]6)C=C5)C=C4)cc2)c(SCc2cnc(Cl)s2)n1
REMARK SMILES IDX 16 1 15 2 14 3 13 4 12 5 11 6 10 7 8 8 9 9 7 10 3 11 4 12
REMARK SMILES IDX 97 13 5 14 88 15 6 16 2 17 1 18 89 19 90 20 91 21 92 22
REMARK SMILES IDX 96 23 93 24 94 25 95 26 17 27 18 28 19 29 20 30 21 31 22 32
REMARK SMILES IDX 23 33 24 34 25 35 26 36 87 37 27 38 86 39 28 40 29 41 30 42
REMARK SMILES IDX 80 43 31 44 85 45 79 46 81 47 32 48 84 49 78 50 77 51 33 53
REMARK SMILES IDX 65 54 45 55 64 56 46 57 49 58 63 59 82 60 47 61 48 62 62 64
REMARK SMILES IDX 83 65 50 66 34 67 35 68 43 69 36 70 38 71 44 72 37 73 39 74
REMARK SMILES IDX 40 75 41 76 42 77 66 78 67 79 75 80 68 81 70 82 76 83 69 84
REMARK SMILES IDX 71 85 72 86 73 87 74 88 51 89 52 90 60 91 53 92 55 93 61 94
REMARK SMILES IDX 54 95 56 96 57 97 58 98 59 99
REMARK H PARENT 81 52 49 63
REMARK Flexibility Score: inf
ROOT
ATOM      1  O   UNL A   1      34.863  24.446  25.581  1.00  0.00    -0.377 OA
ENDROOT
BRANCH   1   2
ATOM      2  C   UNL A   1      34.422  25.698  25.087  1.00  0.00     0.188 C 
BRANCH   2   3
ATOM      3  C   UNL A   1      34.082  26.817  26.093  1.00  0.00     0.188 C 
BRANCH   3   4
ATOM      4  O   UNL A   1      33.370  27.934  25.574  1.00  0.00    -0.376 OA
BRANCH   4   5
ATOM      5  C   UNL A   1      31.972  28.113  25.731  1.00  0.00     0.202 C 
BRANCH   5   6
ATOM      6  C   UNL A   1      31.270  27.536  26.955  1.00  0.00     0.261 C 
BRANCH   6   7
ATOM      7  O   UNL A   1      31.340  26.111  26.929  1.00  0.00    -0.460 OA
BRANCH   7   8
ATOM      8  C   UNL A   1      30.373  25.364  26.387  1.00  0.00     0.342 C 
ATOM      9  O   UNL A   1      29.205  25.315  26.716  1.00  0.00    -0.246 OA
BRANCH   8  10
ATOM     10  C   UNL A   1      31.005  24.620  25.297  1.00  0.00     0.113 A 
ATOM     11  C   UNL A   1      32.098  23.042  23.383  1.00  0.00     0.129 A 
ATOM     12  N   UNL A   1      32.138  22.598  24.639  1.00  0.00    -0.237 NA
ATOM     13  N   UNL A   1      31.614  24.239  23.030  1.00  0.00    -0.226 NA
ATOM     14  C   UNL A   1      31.600  23.384  25.594  1.00  0.00     0.057 A 
ATOM     15  C   UNL A   1      31.061  25.047  23.974  1.00  0.00     0.115 A 
ATOM     16  C   UNL A   1      31.631  22.756  26.963  1.00  0.00     0.068 C 
BRANCH  11  17
ATOM     17  C   UNL A   1      32.437  22.069  22.291  1.00  0.00     0.074 C 
ATOM     18  C   UNL A   1      33.005  22.817  21.092  1.00  0.00     0.012 C 
ENDBRANCH  11  17
BRANCH  15  19
ATOM     19  S   UNL A   1      30.453  26.476  23.095  1.00  0.00    -0.100 SA
BRANCH  19  20
ATOM     20  C   UNL A   1      28.782  26.979  23.624  1.00  0.00     0.125 C 
BRANCH  20  21
ATOM     21  C   UNL A   1      28.452  28.387  23.277  1.00  0.00     0.036 A 
ATOM     22  C   UNL A   1      27.247  28.983  22.941  1.00  0.00     0.129 A 
ATOM     23  S   UNL A   1      29.674  29.599  23.253  1.00  0.00    -0.107 S 
ATOM     24  N   UNL A   1      27.252  30.362  22.871  1.00  0.00    -0.233 NA
ATOM     25  C   UNL A   1      28.460  30.778  23.155  1.00  0.00     0.183 A 
ATOM     26  Cl  UNL A   1      28.847  32.427  23.407  1.00  0.00    -0.051 Cl
ENDBRANCH  20  21
ENDBRANCH  19  20
ENDBRANCH  15  19
ENDBRANCH   8  10
ENDBRANCH   7   8
ENDBRANCH   6   7
ENDBRANCH   5   6
ENDBRANCH   4   5
ENDBRANCH   3   4
ENDBRANCH   2   3
ENDBRANCH   1   2
BRANCH   1  27
ATOM     27  C   UNL A   1      35.941  23.856  24.865  1.00  0.00     0.188 C 
BRANCH  27  28
ATOM     28  C   UNL A   1      36.386  22.526  25.508  1.00  0.00     0.188 C 
BRANCH  28  29
ATOM     29  O   UNL A   1      37.152  21.718  24.619  1.00  0.00    -0.376 OA
BRANCH  29  30
ATOM     30  C   UNL A   1      37.228  20.322  24.885  1.00  0.00     0.202 C 
BRANCH  30  31
ATOM     31  C   UNL A   1      38.585  19.617  25.094  1.00  0.00     0.261 C 
BRANCH  31  32
ATOM     32  O   UNL A   1      39.329  19.919  26.285  1.00  0.00    -0.460 OA
BRANCH  32  33
ATOM     33  C   UNL A   1      40.619  20.292  26.174  1.00  0.00     0.338 C 
ATOM     34  O   UNL A   1      41.485  19.744  25.518  1.00  0.00    -0.246 OA
BRANCH  33  35
ATOM     35  C   UNL A   1      40.740  21.636  26.795  1.00  0.00     0.060 A 
ATOM     36  C   UNL A   1      40.070  22.716  26.197  1.00  0.00     0.016 A 
ATOM     37  C   UNL A   1      41.446  21.824  27.988  1.00  0.00     0.016 A 
ATOM     38  C   UNL A   1      40.162  23.992  26.752  1.00  0.00     0.010 A 
ATOM     39  C   UNL A   1      41.563  23.107  28.528  1.00  0.00     0.010 A 
ATOM     40  C   UNL A   1      40.970  24.204  27.876  1.00  0.00    -0.014 A 
BRANCH  40  41
ATOM     41  C   UNL A   1      41.464  25.576  28.144  1.00  0.00     0.031 A 
ATOM     42  C   UNL A   1      42.863  25.897  27.684  1.00  0.00     0.074 A 
ATOM     43  C   UNL A   1      40.709  26.516  28.736  1.00  0.00     0.049 A 
ATOM     44  N   UNL A   1      43.537  27.011  27.783  1.00  0.00    -0.248 NA
ATOM     45  C   UNL A   1      43.602  24.807  27.020  1.00  0.00     0.031 C 
ATOM     46  C   UNL A   1      39.339  26.334  29.212  1.00  0.00     0.029 A 
ATOM     47  N   UNL A   1      41.007  27.819  29.053  1.00  0.00    -0.354 N 
ATOM     48  C   UNL A   1      44.783  26.746  27.223  1.00  0.00     0.074 A 
ATOM     49  C   UNL A   1      44.780  25.365  26.801  1.00  0.00     0.031 C 
ATOM     50  C   UNL A   1      38.924  27.478  29.787  1.00  0.00     0.029 A 
ATOM     51  C   UNL A   1      40.003  28.465  29.735  1.00  0.00     0.049 A 
ATOM     52  H   UNL A   1      41.859  28.250  28.814  1.00  0.00     0.167 HD
ATOM     53  C   UNL A   1      45.833  27.581  27.056  1.00  0.00     0.034 A 
ATOM     54  C   UNL A   1      39.973  29.704  30.268  1.00  0.00     0.034 A 
ATOM     55  C   UNL A   1      45.833  28.957  27.463  1.00  0.00     0.049 A 
ATOM     56  C   UNL A   1      41.166  30.610  30.090  1.00  0.00     0.074 A 
ATOM     57  C   UNL A   1      46.835  29.897  27.313  1.00  0.00     0.029 A 
ATOM     58  N   UNL A   1      44.783  29.584  28.115  1.00  0.00    -0.354 N 
ATOM     59  N   UNL A   1      42.296  30.381  29.464  1.00  0.00    -0.248 NA
ATOM     60  C   UNL A   1      41.067  31.962  30.662  1.00  0.00     0.031 C 
ATOM     61  C   UNL A   1      46.400  31.089  27.902  1.00  0.00     0.029 A 
ATOM     62  C   UNL A   1      45.113  30.900  28.380  1.00  0.00     0.049 A 
ATOM     63  H   UNL A   1      43.929  29.156  28.354  1.00  0.00     0.167 HD
ATOM     64  C   UNL A   1      43.016  31.570  29.523  1.00  0.00     0.074 A 
ATOM     65  C   UNL A   1      42.191  32.521  30.237  1.00  0.00     0.031 C 
ATOM     66  C   UNL A   1      44.252  31.850  29.035  1.00  0.00     0.034 A 
BRANCH  53  67
ATOM     67  C   UNL A   1      47.064  27.024  26.393  1.00  0.00     0.023 A 
ATOM     68  C   UNL A   1      47.215  27.125  24.994  1.00  0.00     0.012 A 
ATOM     69  C   UNL A   1      48.082  26.424  27.158  1.00  0.00     0.148 A 
ATOM     70  C   UNL A   1      48.348  26.609  24.365  1.00  0.00     0.002 A 
ATOM     71  C   UNL A   1      49.229  25.956  26.529  1.00  0.00     0.091 A 
ATOM     72  F   UNL A   1      47.903  26.309  28.482  1.00  0.00    -0.205 F 
ATOM     73  C   UNL A   1      49.358  26.036  25.134  1.00  0.00     0.022 A 
BRANCH  71  74
ATOM     74  S   UNL A   1      50.619  25.276  27.438  1.00  0.00     0.127 S 
ATOM     75  O   UNL A   1      50.976  26.393  28.312  1.00  0.00    -0.237 OA
ATOM     76  O   UNL A   1      50.008  24.137  28.123  1.00  0.00    -0.237 OA
ATOM     77  O   UNL A   1      51.618  24.920  26.440  1.00  0.00    -0.744 OA
ENDBRANCH  71  74
ENDBRANCH  53  67
BRANCH  54  78
ATOM     78  C   UNL A   1      38.759  30.181  30.992  1.00  0.00     0.023 A 
ATOM     79  C   UNL A   1      38.621  29.927  32.371  1.00  0.00     0.012 A 
ATOM     80  C   UNL A   1      37.738  30.880  30.319  1.00  0.00     0.148 A 
ATOM     81  C   UNL A   1      37.474  30.328  33.057  1.00  0.00     0.002 A 
ATOM     82  C   UNL A   1      36.625  31.326  31.020  1.00  0.00     0.091 A 
ATOM     83  F   UNL A   1      37.879  31.097  29.003  1.00  0.00    -0.205 F 
ATOM     84  C   UNL A   1      36.481  31.036  32.386  1.00  0.00     0.022 A 
BRANCH  82  85
ATOM     85  S   UNL A   1      35.358  32.351  30.266  1.00  0.00     0.127 S 
ATOM     86  O   UNL A   1      36.131  33.511  29.828  1.00  0.00    -0.237 OA
ATOM     87  O   UNL A   1      34.876  31.487  29.188  1.00  0.00    -0.237 OA
ATOM     88  O   UNL A   1      34.379  32.604  31.314  1.00  0.00    -0.744 OA
ENDBRANCH  82  85
ENDBRANCH  54  78
BRANCH  66  89
ATOM     89  C   UNL A   1      44.771  33.256  29.192  1.00  0.00     0.023 A 
ATOM     90  C   UNL A   1      45.423  33.644  30.378  1.00  0.00     0.012 A 
ATOM     91  C   UNL A   1      44.685  34.167  28.119  1.00  0.00     0.148 A 
ATOM     92  C   UNL A   1      45.950  34.931  30.508  1.00  0.00     0.002 A 
ATOM     93  C   UNL A   1      45.259  35.426  28.235  1.00  0.00     0.091 A 
ATOM     94  F   UNL A   1      44.047  33.783  27.004  1.00  0.00    -0.205 F 
ATOM     95  C   UNL A   1      45.879  35.815  29.433  1.00  0.00     0.022 A 
BRANCH  93  96
ATOM     96  S   UNL A   1      45.306  36.590  26.867  1.00  0.00     0.127 S 
ATOM     97  O   UNL A   1      45.801  35.749  25.779  1.00  0.00    -0.237 OA
ATOM     98  O   UNL A   1      43.901  36.983  26.745  1.00  0.00    -0.237 OA
ATOM     99  O   UNL A   1      46.197  37.664  27.284  1.00  0.00    -0.744 OA
ENDBRANCH  93  96
ENDBRANCH  66  89
ENDBRANCH  40  41
ENDBRANCH  33  35
ENDBRANCH  32  33
ENDBRANCH  31  32
ENDBRANCH  30  31
ENDBRANCH  29  30
ENDBRANCH  28  29
ENDBRANCH  27  28
ENDBRANCH   1  27
TORSDOF 27
ENDMDL
MODEL 2
REMARK VINA RESULT:      -9.6      1.928      2.218
REMARK SMILES CCc1nc(C)c(C(=O)OCCOCCOCCOCCOC(=O)c2ccc(-c3c4nc(c(-c5cccc(S(=O)(=O)[O-])c5F)c5ccc([nH]5)c(-c5cccc(S(=O)(=O)[O-])c5F)c5nc(c(-c6cccc(S(=O)(=O)[O-])c6F)c6ccc3[nH]6)C=C5)C=C4)cc2)c(SCc2cnc(Cl)s2)n1
REMARK SMILES IDX 16 1 15 2 14 3 13 4 12 5 11 6 10 7 8 8 9 9 7 10 3 11 4 12
REMARK SMILES IDX 97 13 5 14 88 15 6 16 2 17 1 18 89 19 90 20 91 21 92 22
REMARK SMILES IDX 96 23 93 24 94 25 95 26 17 27 18 28 19 29 20 30 21 31 22 32
REMARK SMILES IDX 23 33 24 34 25 35 26 36 87 37 27 38 86 39 28 40 29 41 30 42
REMARK SMILES IDX 80 43 31 44 85 45 79 46 81 47 32 48 84 49 78 50 77 51 33 53
REMARK SMILES IDX 65 54 45 55 64 56 46 57 49 58 63 59 82 60 47 61 48 62 62 64
REMARK SMILES IDX 83 65 50 66 34 67 35 68 43 69 36 70 38 71 44 72 37 73 39 74
REMARK SMILES IDX 40 75 41 76 42 77 66 78 67 79 75 80 68 81 70 82 76 83 69 84
REMARK SMILES IDX 71 85 72 86 73 87 74 88 51 89 52 90 60 91 53 92 55 93 61 94
REMARK SMILES IDX 54 95 56 96 57 97 58 98 59 99
REMARK H PARENT 81 52 49 63
REMARK Flexibility Score: inf
ROOT
ATOM      1  O   UNL A   1      34.848  24.508  25.524  1.00  0.00    -0.377 OA
ENDROOT
BRANCH   1   2
ATOM      2  C   UNL A   1      34.358  25.723  24.986  1.00  0.00     0.188 C 
BRANCH   2   3
ATOM      3  C   UNL A   1      34.133  26.920  25.932  1.00  0.00     0.188 C 
BRANCH   3   4
ATOM      4  O   UNL A   1      33.329  27.980  25.426  1.00  0.00    -0.376 OA
BRANCH   4   5
ATOM      5  C   UNL A   1      31.939  28.098  25.681  1.00  0.00     0.202 C 
BRANCH   5   6
ATOM      6  C   UNL A   1      31.350  27.487  26.947  1.00  0.00     0.261 C 
BRANCH   6   7
ATOM      7  O   UNL A   1      31.456  26.065  26.896  1.00  0.00    -0.460 OA
BRANCH   7   8
ATOM      8  C   UNL A   1      30.469  25.297  26.423  1.00  0.00     0.342 C 
ATOM      9  O   UNL A   1      29.280  25.405  26.642  1.00  0.00    -0.246 OA
BRANCH   8  10
ATOM     10  C   UNL A   1      31.113  24.301  25.567  1.00  0.00     0.113 A 
ATOM     11  C   UNL A   1      32.214  22.287  24.124  1.00  0.00     0.129 A 
ATOM     12  N   UNL A   1      32.176  22.141  25.448  1.00  0.00    -0.237 NA
ATOM     13  N   UNL A   1      31.805  23.389  23.483  1.00  0.00    -0.226 NA
ATOM     14  C   UNL A   1      31.635  23.145  26.168  1.00  0.00     0.057 A 
ATOM     15  C   UNL A   1      31.249  24.411  24.186  1.00  0.00     0.115 A 
ATOM     16  C   UNL A   1      31.574  22.847  27.645  1.00  0.00     0.068 C 
BRANCH  11  17
ATOM     17  C   UNL A   1      32.555  21.077  23.302  1.00  0.00     0.074 C 
ATOM     18  C   UNL A   1      31.846  21.153  21.956  1.00  0.00     0.012 C 
ENDBRANCH  11  17
BRANCH  15  19
ATOM     19  S   UNL A   1      30.751  25.622  22.973  1.00  0.00    -0.100 SA
BRANCH  19  20
ATOM     20  C   UNL A   1      29.383  26.682  23.547  1.00  0.00     0.125 C 
BRANCH  20  21
ATOM     21  C   UNL A   1      29.385  28.035  22.929  1.00  0.00     0.036 A 
ATOM     22  C   UNL A   1      30.412  28.777  22.366  1.00  0.00     0.129 A 
ATOM     23  S   UNL A   1      27.935  28.954  22.816  1.00  0.00    -0.107 S 
ATOM     24  N   UNL A   1      30.033  29.923  21.697  1.00  0.00    -0.233 NA
ATOM     25  C   UNL A   1      28.730  30.022  21.767  1.00  0.00     0.183 A 
ATOM     26  Cl  UNL A   1      27.829  31.173  20.874  1.00  0.00    -0.051 Cl
ENDBRANCH  20  21
ENDBRANCH  19  20
ENDBRANCH  15  19
ENDBRANCH   8  10
ENDBRANCH   7   8
ENDBRANCH   6   7
ENDBRANCH   5   6
ENDBRANCH   4   5
ENDBRANCH   3   4
ENDBRANCH   2   3
ENDBRANCH   1   2
BRANCH   1  27
ATOM     27  C   UNL A   1      35.944  23.931  24.826  1.00  0.00     0.188 C 
BRANCH  27  28
ATOM     28  C   UNL A   1      36.415  22.624  25.494  1.00  0.00     0.188 C 
BRANCH  28  29
ATOM     29  O   UNL A   1      37.203  21.817  24.623  1.00  0.00    -0.376 OA
BRANCH  29  30
ATOM     30  C   UNL A   1      37.321  20.431  24.922  1.00  0.00     0.202 C 
BRANCH  30  31
ATOM     31  C   UNL A   1      38.693  19.785  25.210  1.00  0.00     0.261 C 
BRANCH  31  32
ATOM     32  O   UNL A   1      39.393  20.183  26.399  1.00  0.00    -0.460 OA
BRANCH  32  33
ATOM     33  C   UNL A   1      40.687  20.548  26.305  1.00  0.00     0.338 C 
ATOM     34  O   UNL A   1      41.562  19.984  25.675  1.00  0.00    -0.246 OA
BRANCH  33  35
ATOM     35  C   UNL A   1      40.804  21.902  26.905  1.00  0.00     0.060 A 
ATOM     36  C   UNL A   1      40.047  22.949  26.355  1.00  0.00     0.016 A 
ATOM     37  C   UNL A   1      41.596  22.129  28.036  1.00  0.00     0.016 A 
ATOM     38  C   UNL A   1      40.132  24.234  26.892  1.00  0.00     0.010 A 
ATOM     39  C   UNL A   1      41.704  23.422  28.556  1.00  0.00     0.010 A 
ATOM     40  C   UNL A   1      41.019  24.488  27.945  1.00  0.00    -0.014 A 
BRANCH  40  41
ATOM     41  C   UNL A   1      41.478  25.881  28.163  1.00  0.00     0.031 A 
ATOM     42  C   UNL A   1      42.840  26.239  27.627  1.00  0.00     0.074 A 
ATOM     43  C   UNL A   1      40.721  26.807  28.776  1.00  0.00     0.049 A 
ATOM     44  N   UNL A   1      43.480  27.377  27.672  1.00  0.00    -0.248 NA
ATOM     45  C   UNL A   1      43.581  25.162  26.947  1.00  0.00     0.031 C 
ATOM     46  C   UNL A   1      39.384  26.588  29.324  1.00  0.00     0.029 A 
ATOM     47  N   UNL A   1      40.990  28.125  29.054  1.00  0.00    -0.354 N 
ATOM     48  C   UNL A   1      44.704  27.144  27.054  1.00  0.00     0.074 A 
ATOM     49  C   UNL A   1      44.727  25.755  26.658  1.00  0.00     0.031 C 
ATOM     50  C   UNL A   1      38.959  27.729  29.898  1.00  0.00     0.029 A 
ATOM     51  C   UNL A   1      40.000  28.750  29.774  1.00  0.00     0.049 A 
ATOM     52  H   UNL A   1      41.814  28.579  28.764  1.00  0.00     0.167 HD
ATOM     53  C   UNL A   1      45.715  28.009  26.818  1.00  0.00     0.034 A 
ATOM     54  C   UNL A   1      39.954  29.997  30.285  1.00  0.00     0.034 A 
ATOM     55  C   UNL A   1      45.688  29.392  27.200  1.00  0.00     0.049 A 
ATOM     56  C   UNL A   1      41.105  30.940  30.031  1.00  0.00     0.074 A 
ATOM     57  C   UNL A   1      46.648  30.363  26.983  1.00  0.00     0.029 A 
ATOM     58  N   UNL A   1      44.651  29.996  27.893  1.00  0.00    -0.354 N 
ATOM     59  N   UNL A   1      42.209  30.736  29.352  1.00  0.00    -0.248 NA
ATOM     60  C   UNL A   1      40.988  32.299  30.583  1.00  0.00     0.031 C 
ATOM     61  C   UNL A   1      46.202  31.550  27.572  1.00  0.00     0.029 A 
ATOM     62  C   UNL A   1      44.948  31.328  28.118  1.00  0.00     0.049 A 
ATOM     63  H   UNL A   1      43.825  29.545  28.183  1.00  0.00     0.167 HD
ATOM     64  C   UNL A   1      42.889  31.950  29.353  1.00  0.00     0.074 A 
ATOM     65  C   UNL A   1      42.069  32.887  30.091  1.00  0.00     0.031 C 
ATOM     66  C   UNL A   1      44.089  32.261  28.798  1.00  0.00     0.034 A 
BRANCH  53  67
ATOM     67  C   UNL A   1      46.929  27.481  26.104  1.00  0.00     0.023 A 
ATOM     68  C   UNL A   1      47.860  26.681  26.800  1.00  0.00     0.012 A 
ATOM     69  C   UNL A   1      47.134  27.754  24.739  1.00  0.00     0.148 A 
ATOM     70  C   UNL A   1      48.994  26.189  26.153  1.00  0.00     0.002 A 
ATOM     71  C   UNL A   1      48.240  27.219  24.090  1.00  0.00     0.091 A 
ATOM     72  F   UNL A   1      46.254  28.542  24.105  1.00  0.00    -0.205 F 
ATOM     73  C   UNL A   1      49.176  26.448  24.797  1.00  0.00     0.022 A 
BRANCH  71  74
ATOM     74  S   UNL A   1      48.522  27.428  22.329  1.00  0.00     0.127 S 
ATOM     75  O   UNL A   1      47.276  28.065  21.905  1.00  0.00    -0.237 OA
ATOM     76  O   UNL A   1      49.693  28.304  22.309  1.00  0.00    -0.237 OA
ATOM     77  O   UNL A   1      48.753  26.092  21.797  1.00  0.00    -0.744 OA
ENDBRANCH  71  74
ENDBRANCH  53  67
BRANCH  54  78
ATOM     78  C   UNL A   1      38.762  30.448  31.061  1.00  0.00     0.023 A 
ATOM     79  C   UNL A   1      38.691  30.194  32.446  1.00  0.00     0.012 A 
ATOM     80  C   UNL A   1      37.697  31.122  30.433  1.00  0.00     0.148 A 
ATOM     81  C   UNL A   1      37.566  30.570  33.181  1.00  0.00     0.002 A 
ATOM     82  C   UNL A   1      36.605  31.544  31.182  1.00  0.00     0.091 A 
ATOM     83  F   UNL A   1      37.775  31.339  29.113  1.00  0.00    -0.205 F 
ATOM     84  C   UNL A   1      36.528  31.253  32.553  1.00  0.00     0.022 A 
BRANCH  82  85
ATOM     85  S   UNL A   1      35.283  32.538  30.483  1.00  0.00     0.127 S 
ATOM     86  O   UNL A   1      34.331  32.591  31.590  1.00  0.00    -0.237 OA
ATOM     87  O   UNL A   1      35.972  33.797  30.200  1.00  0.00    -0.237 OA
ATOM     88  O   UNL A   1      34.834  31.820  29.298  1.00  0.00    -0.744 OA
ENDBRANCH  82  85
ENDBRANCH  54  78
BRANCH  66  89
ATOM     89  C   UNL A   1      44.566  33.687  28.903  1.00  0.00     0.023 A 
ATOM     90  C   UNL A   1      44.215  34.628  27.918  1.00  0.00     0.012 A 
ATOM     91  C   UNL A   1      45.295  34.108  30.035  1.00  0.00     0.148 A 
ATOM     92  C   UNL A   1      44.613  35.961  28.037  1.00  0.00     0.002 A 
ATOM     93  C   UNL A   1      45.641  35.446  30.174  1.00  0.00     0.091 A 
ATOM     94  F   UNL A   1      45.633  33.193  30.955  1.00  0.00    -0.205 F 
ATOM     95  C   UNL A   1      45.314  36.371  29.170  1.00  0.00     0.022 A 
BRANCH  93  96
ATOM     96  S   UNL A   1      46.451  36.080  31.647  1.00  0.00     0.127 S 
ATOM     97  O   UNL A   1      45.609  35.533  32.708  1.00  0.00    -0.237 OA
ATOM     98  O   UNL A   1      47.782  35.479  31.553  1.00  0.00    -0.237 OA
ATOM     99  O   UNL A   1      46.435  37.531  31.520  1.00  0.00    -0.744 OA
ENDBRANCH  93  96
ENDBRANCH  66  89
ENDBRANCH  40  41
ENDBRANCH  33  35
ENDBRANCH  32  33
ENDBRANCH  31  32
ENDBRANCH  30  31
ENDBRANCH  29  30
ENDBRANCH  28  29
ENDBRANCH  27  28
ENDBRANCH   1  27
TORSDOF 27
ENDMDL
MODEL 3
REMARK VINA RESULT:      -9.0      1.849      7.396
REMARK SMILES CCc1nc(C)c(C(=O)OCCOCCOCCOCCOC(=O)c2ccc(-c3c4nc(c(-c5cccc(S(=O)(=O)[O-])c5F)c5ccc([nH]5)c(-c5cccc(S(=O)(=O)[O-])c5F)c5nc(c(-c6cccc(S(=O)(=O)[O-])c6F)c6ccc3[nH]6)C=C5)C=C4)cc2)c(SCc2cnc(Cl)s2)n1
REMARK SMILES IDX 16 1 15 2 14 3 13 4 12 5 11 6 10 7 8 8 9 9 7 10 3 11 4 12
REMARK SMILES IDX 97 13 5 14 88 15 6 16 2 17 1 18 89 19 90 20 91 21 92 22
REMARK SMILES IDX 96 23 93 24 94 25 95 26 17 27 18 28 19 29 20 30 21 31 22 32
REMARK SMILES IDX 23 33 24 34 25 35 26 36 87 37 27 38 86 39 28 40 29 41 30 42
REMARK SMILES IDX 80 43 31 44 85 45 79 46 81 47 32 48 84 49 78 50 77 51 33 53
REMARK SMILES IDX 65 54 45 55 64 56 46 57 49 58 63 59 82 60 47 61 48 62 62 64
REMARK SMILES IDX 83 65 50 66 34 67 35 68 43 69 36 70 38 71 44 72 37 73 39 74
REMARK SMILES IDX 40 75 41 76 42 77 66 78 67 79 75 80 68 81 70 82 76 83 69 84
REMARK SMILES IDX 71 85 72 86 73 87 74 88 51 89 52 90 60 91 53 92 55 93 61 94
REMARK SMILES IDX 54 95 56 96 57 97 58 98 59 99
REMARK H PARENT 81 52 49 63
REMARK Flexibility Score: inf
ROOT
ATOM      1  O   UNL A   1      35.193  23.665  25.366  1.00  0.00    -0.377 OA
ENDROOT
BRANCH   1   2
ATOM      2  C   UNL A   1      35.051  25.075  25.358  1.00  0.00     0.188 C 
BRANCH   2   3
ATOM      3  C   UNL A   1      33.801  25.701  26.007  1.00  0.00     0.188 C 
BRANCH   3   4
ATOM      4  O   UNL A   1      33.880  27.089  26.314  1.00  0.00    -0.376 OA
BRANCH   4   5
ATOM      5  C   UNL A   1      32.756  27.954  26.325  1.00  0.00     0.202 C 
BRANCH   5   6
ATOM      6  C   UNL A   1      31.371  27.387  26.614  1.00  0.00     0.261 C 
BRANCH   6   7
ATOM      7  O   UNL A   1      31.153  26.213  25.832  1.00  0.00    -0.460 OA
BRANCH   7   8
ATOM      8  C   UNL A   1      30.301  26.196  24.802  1.00  0.00     0.342 C 
ATOM      9  O   UNL A   1      29.098  26.362  24.836  1.00  0.00    -0.246 OA
BRANCH   8  10
ATOM     10  C   UNL A   1      31.116  25.950  23.613  1.00  0.00     0.113 A 
ATOM     11  C   UNL A   1      32.485  25.308  21.362  1.00  0.00     0.129 A 
ATOM     12  N   UNL A   1      32.038  24.303  22.115  1.00  0.00    -0.237 NA
ATOM     13  N   UNL A   1      32.355  26.600  21.689  1.00  0.00    -0.226 NA
ATOM     14  C   UNL A   1      31.362  24.620  23.238  1.00  0.00     0.057 A 
ATOM     15  C   UNL A   1      31.671  26.945  22.813  1.00  0.00     0.115 A 
ATOM     16  C   UNL A   1      30.838  23.413  23.973  1.00  0.00     0.068 C 
BRANCH  11  17
ATOM     17  C   UNL A   1      32.990  24.975  19.988  1.00  0.00     0.074 C 
ATOM     18  C   UNL A   1      31.987  25.448  18.943  1.00  0.00     0.012 C 
ENDBRANCH  11  17
BRANCH  15  19
ATOM     19  S   UNL A   1      31.637  28.729  22.832  1.00  0.00    -0.100 SA
BRANCH  19  20
ATOM     20  C   UNL A   1      30.306  29.403  23.880  1.00  0.00     0.125 C 
BRANCH  20  21
ATOM     21  C   UNL A   1      29.225  30.070  23.105  1.00  0.00     0.036 A 
ATOM     22  C   UNL A   1      27.907  30.344  23.431  1.00  0.00     0.129 A 
ATOM     23  S   UNL A   1      29.518  30.663  21.515  1.00  0.00    -0.107 S 
ATOM     24  N   UNL A   1      27.223  31.162  22.554  1.00  0.00    -0.233 NA
ATOM     25  C   UNL A   1      28.039  31.488  21.584  1.00  0.00     0.183 A 
ATOM     26  Cl  UNL A   1      27.666  32.674  20.406  1.00  0.00    -0.051 Cl
ENDBRANCH  20  21
ENDBRANCH  19  20
ENDBRANCH  15  19
ENDBRANCH   8  10
ENDBRANCH   7   8
ENDBRANCH   6   7
ENDBRANCH   5   6
ENDBRANCH   4   5
ENDBRANCH   3   4
ENDBRANCH   2   3
ENDBRANCH   1   2
BRANCH   1  27
ATOM     27  C   UNL A   1      36.325  23.164  24.668  1.00  0.00     0.188 C 
BRANCH  27  28
ATOM     28  C   UNL A   1      37.010  22.023  25.447  1.00  0.00     0.188 C 
BRANCH  28  29
ATOM     29  O   UNL A   1      37.690  21.107  24.592  1.00  0.00    -0.376 OA
BRANCH  29  30
ATOM     30  C   UNL A   1      37.629  19.723  24.915  1.00  0.00     0.202 C 
BRANCH  30  31
ATOM     31  C   UNL A   1      38.844  18.983  25.514  1.00  0.00     0.261 C 
BRANCH  31  32
ATOM     32  O   UNL A   1      39.620  19.656  26.518  1.00  0.00    -0.460 OA
BRANCH  32  33
ATOM     33  C   UNL A   1      40.903  19.971  26.252  1.00  0.00     0.338 C 
ATOM     34  O   UNL A   1      41.692  19.324  25.589  1.00  0.00    -0.246 OA
BRANCH  33  35
ATOM     35  C   UNL A   1      41.112  21.371  26.703  1.00  0.00     0.060 A 
ATOM     36  C   UNL A   1      40.655  22.417  25.885  1.00  0.00     0.016 A 
ATOM     37  C   UNL A   1      41.689  21.654  27.946  1.00  0.00     0.016 A 
ATOM     38  C   UNL A   1      40.836  23.743  26.276  1.00  0.00     0.010 A 
ATOM     39  C   UNL A   1      41.897  22.983  28.325  1.00  0.00     0.010 A 
ATOM     40  C   UNL A   1      41.524  24.030  27.461  1.00  0.00    -0.014 A 
BRANCH  40  41
ATOM     41  C   UNL A   1      42.147  25.367  27.612  1.00  0.00     0.031 A 
ATOM     42  C   UNL A   1      41.348  26.408  28.353  1.00  0.00     0.074 A 
ATOM     43  C   UNL A   1      43.375  25.652  27.150  1.00  0.00     0.049 A 
ATOM     44  N   UNL A   1      41.651  27.647  28.633  1.00  0.00    -0.248 NA
ATOM     45  C   UNL A   1      40.022  25.990  28.846  1.00  0.00     0.031 C 
ATOM     46  C   UNL A   1      44.251  24.729  26.431  1.00  0.00     0.029 A 
ATOM     47  N   UNL A   1      44.091  26.823  27.206  1.00  0.00    -0.354 N 
ATOM     48  C   UNL A   1      40.548  28.161  29.306  1.00  0.00     0.074 A 
ATOM     49  C   UNL A   1      39.561  27.109  29.378  1.00  0.00     0.031 C 
ATOM     50  C   UNL A   1      45.379  25.379  26.088  1.00  0.00     0.029 A 
ATOM     51  C   UNL A   1      45.296  26.765  26.547  1.00  0.00     0.049 A 
ATOM     52  H   UNL A   1      43.771  27.628  27.674  1.00  0.00     0.167 HD
ATOM     53  C   UNL A   1      40.373  29.393  29.834  1.00  0.00     0.034 A 
ATOM     54  C   UNL A   1      46.214  27.730  26.329  1.00  0.00     0.034 A 
ATOM     55  C   UNL A   1      41.357  30.435  29.773  1.00  0.00     0.049 A 
ATOM     56  C   UNL A   1      45.987  29.106  26.907  1.00  0.00     0.074 A 
ATOM     57  C   UNL A   1      41.293  31.710  30.303  1.00  0.00     0.029 A 
ATOM     58  N   UNL A   1      42.580  30.325  29.132  1.00  0.00    -0.354 N 
ATOM     59  N   UNL A   1      44.986  29.545  27.633  1.00  0.00    -0.248 NA
ATOM     60  C   UNL A   1      47.034  30.110  26.668  1.00  0.00     0.031 C 
ATOM     61  C   UNL A   1      42.468  32.383  29.955  1.00  0.00     0.029 A 
ATOM     62  C   UNL A   1      43.280  31.512  29.245  1.00  0.00     0.049 A 
ATOM     63  H   UNL A   1      42.903  29.521  28.664  1.00  0.00     0.167 HD
ATOM     64  C   UNL A   1      45.307  30.855  27.977  1.00  0.00     0.074 A 
ATOM     65  C   UNL A   1      46.600  31.134  27.389  1.00  0.00     0.031 C 
ATOM     66  C   UNL A   1      44.594  31.749  28.708  1.00  0.00     0.034 A 
BRANCH  53  67
ATOM     67  C   UNL A   1      39.069  29.670  30.532  1.00  0.00     0.023 A 
ATOM     68  C   UNL A   1      38.813  29.097  31.795  1.00  0.00     0.012 A 
ATOM     69  C   UNL A   1      38.110  30.520  29.949  1.00  0.00     0.148 A 
ATOM     70  C   UNL A   1      37.606  29.341  32.452  1.00  0.00     0.002 A 
ATOM     71  C   UNL A   1      36.932  30.797  30.632  1.00  0.00     0.091 A 
ATOM     72  F   UNL A   1      38.360  31.029  28.734  1.00  0.00    -0.205 F 
ATOM     73  C   UNL A   1      36.674  30.199  31.876  1.00  0.00     0.022 A 
BRANCH  71  74
ATOM     74  S   UNL A   1      35.704  31.951  30.012  1.00  0.00     0.127 S 
ATOM     75  O   UNL A   1      36.526  33.122  29.710  1.00  0.00    -0.237 OA
ATOM     76  O   UNL A   1      35.190  31.247  28.837  1.00  0.00    -0.237 OA
ATOM     77  O   UNL A   1      34.738  32.127  31.087  1.00  0.00    -0.744 OA
ENDBRANCH  71  74
ENDBRANCH  53  67
BRANCH  54  78
ATOM     78  C   UNL A   1      47.453  27.427  25.556  1.00  0.00     0.023 A 
ATOM     79  C   UNL A   1      48.560  26.848  26.206  1.00  0.00     0.012 A 
ATOM     80  C   UNL A   1      47.541  27.716  24.180  1.00  0.00     0.148 A 
ATOM     81  C   UNL A   1      49.743  26.596  25.509  1.00  0.00     0.002 A 
ATOM     82  C   UNL A   1      48.701  27.411  23.480  1.00  0.00     0.091 A 
ATOM     83  F   UNL A   1      46.483  28.283  23.583  1.00  0.00    -0.205 F 
ATOM     84  C   UNL A   1      49.811  26.867  24.146  1.00  0.00     0.022 A 
BRANCH  82  85
ATOM     85  S   UNL A   1      48.834  27.610  21.700  1.00  0.00     0.127 S 
ATOM     86  O   UNL A   1      49.719  28.767  21.593  1.00  0.00    -0.237 OA
ATOM     87  O   UNL A   1      49.433  26.336  21.300  1.00  0.00    -0.237 OA
ATOM     88  O   UNL A   1      47.473  27.808  21.222  1.00  0.00    -0.744 OA
ENDBRANCH  82  85
ENDBRANCH  54  78
BRANCH  66  89
ATOM     89  C   UNL A   1      45.216  33.095  28.978  1.00  0.00     0.023 A 
ATOM     90  C   UNL A   1      46.031  33.287  30.109  1.00  0.00     0.012 A 
ATOM     91  C   UNL A   1      45.057  34.147  28.053  1.00  0.00     0.148 A 
ATOM     92  C   UNL A   1      46.649  34.519  30.336  1.00  0.00     0.002 A 
ATOM     93  C   UNL A   1      45.719  35.352  28.256  1.00  0.00     0.091 A 
ATOM     94  F   UNL A   1      44.265  33.950  26.989  1.00  0.00    -0.205 F 
ATOM     95  C   UNL A   1      46.503  35.544  29.404  1.00  0.00     0.022 A 
BRANCH  93  96
ATOM     96  S   UNL A   1      45.671  36.688  27.056  1.00  0.00     0.127 S 
ATOM     97  O   UNL A   1      46.256  36.050  25.878  1.00  0.00    -0.237 OA
ATOM     98  O   UNL A   1      44.238  36.963  26.953  1.00  0.00    -0.237 OA
ATOM     99  O   UNL A   1      46.453  37.773  27.633  1.00  0.00    -0.744 OA
ENDBRANCH  93  96
ENDBRANCH  66  89
ENDBRANCH  40  41
ENDBRANCH  33  35
ENDBRANCH  32  33
ENDBRANCH  31  32
ENDBRANCH  30  31
ENDBRANCH  29  30
ENDBRANCH  28  29
ENDBRANCH  27  28
ENDBRANCH   1  27
TORSDOF 27
ENDMDL
