MODEL 1
REMARK VINA RESULT:      -9.9      0.000      0.000
REMARK SMILES Cc1ccccc1C(=O)Nc1cc(C(=O)OCCOCCOCCOCCOC(=O)c2ccc(-c3c4nc(c(-c5cccc(S(=O)(=O)[O-])c5F)c5ccc([nH]5)c(-c5cccc(S(=O)(=O)[O-])c5F)c5nc(c(-c6cccc(S(=O)(=O)[O-])c6F)c6ccc3[nH]6)C=C5)C=C4)cc2)ccc1N1CC[NH+](CC(=O)Nc2ccc(F)cc2)CC1
REMARK SMILES IDX 21 1 20 2 19 3 18 4 17 5 16 6 14 7 15 8 13 9 11 10 12 11
REMARK SMILES IDX 96 12 95 13 94 14 10 15 8 16 9 17 7 19 1 20 2 21 3 22 4 23
REMARK SMILES IDX 6 24 5 25 97 26 98 27 113 28 99 29 112 30 100 31 101 33
REMARK SMILES IDX 102 34 103 35 104 36 105 38 106 39 111 40 107 41 110 42
REMARK SMILES IDX 108 43 109 44 22 45 23 46 24 47 25 48 26 49 27 50 28 51
REMARK SMILES IDX 29 52 30 53 31 54 32 55 93 56 33 57 92 58 34 59 35 60 36 61
REMARK SMILES IDX 86 62 37 63 91 64 85 65 87 66 38 67 90 68 84 69 83 70 39 72
REMARK SMILES IDX 71 73 51 74 70 75 52 76 55 77 69 78 88 79 53 80 54 81 68 83
REMARK SMILES IDX 89 84 56 85 40 86 41 87 49 88 42 89 44 90 50 91 43 92 45 93
REMARK SMILES IDX 46 94 47 95 48 96 72 97 73 98 81 99 74 100 76 101 82 102
REMARK SMILES IDX 75 103 77 104 78 105 79 106 80 107 57 108 58 109 66 110
REMARK SMILES IDX 59 111 61 112 67 113 60 114 62 115 63 116 64 117 65 118
REMARK H PARENT 10 18 100 32 104 37 87 71 55 82
REMARK Flexibility Score: inf
ROOT
ATOM      1  C   UNL A   1      37.081  31.775  31.607  1.00  0.00     0.188 C 
ENDROOT
BRANCH   1   2
ATOM      2  C   UNL A   1      36.076  31.660  30.463  1.00  0.00     0.188 C 
BRANCH   2   3
ATOM      3  O   UNL A   1      35.663  32.801  29.722  1.00  0.00    -0.376 OA
BRANCH   3   4
ATOM      4  C   UNL A   1      34.312  32.684  29.250  1.00  0.00     0.202 C 
BRANCH   4   5
ATOM      5  C   UNL A   1      34.028  32.180  27.826  1.00  0.00     0.261 C 
BRANCH   5   6
ATOM      6  O   UNL A   1      33.539  30.846  27.791  1.00  0.00    -0.460 OA
BRANCH   6   7
ATOM      7  C   UNL A   1      32.426  30.688  27.059  1.00  0.00     0.338 C 
ATOM      8  O   UNL A   1      31.683  31.527  26.610  1.00  0.00    -0.246 OA
BRANCH   7   9
ATOM      9  C   UNL A   1      32.490  29.303  26.563  1.00  0.00     0.062 A 
ATOM     10  C   UNL A   1      31.549  27.249  25.742  1.00  0.00     0.065 A 
ATOM     11  C   UNL A   1      31.369  28.542  26.195  1.00  0.00     0.044 A 
ATOM     12  C   UNL A   1      32.846  26.632  25.862  1.00  0.00     0.061 A 
ATOM     13  C   UNL A   1      33.890  27.381  26.437  1.00  0.00     0.029 A 
ATOM     14  C   UNL A   1      33.743  28.725  26.687  1.00  0.00     0.018 A 
BRANCH  10  15
ATOM     15  N   UNL A   1      30.504  26.536  25.125  1.00  0.00    -0.320 N 
ATOM     16  C   UNL A   1      29.673  26.727  24.031  1.00  0.00     0.255 C 
ATOM     17  O   UNL A   1      29.120  25.684  23.638  1.00  0.00    -0.269 OA
ATOM     18  H   UNL A   1      30.316  25.686  25.585  1.00  0.00     0.170 HD
BRANCH  16  19
ATOM     19  C   UNL A   1      29.365  27.974  23.238  1.00  0.00     0.043 A 
ATOM     20  C   UNL A   1      26.842  28.416  23.686  1.00  0.00     0.045 C 
ATOM     21  C   UNL A   1      28.147  28.630  22.988  1.00  0.00    -0.038 A 
ATOM     22  C   UNL A   1      28.109  29.698  22.058  1.00  0.00     0.004 A 
ATOM     23  C   UNL A   1      29.265  30.268  21.547  1.00  0.00     0.000 A 
ATOM     24  C   UNL A   1      30.531  28.620  22.745  1.00  0.00     0.014 A 
ATOM     25  C   UNL A   1      30.489  29.765  21.941  1.00  0.00     0.001 A 
ENDBRANCH  16  19
ENDBRANCH  10  15
BRANCH  12  26
ATOM     26  N   UNL A   1      33.172  25.384  25.246  1.00  0.00    -0.359 N 
ATOM     27  C   UNL A   1      32.922  24.139  26.047  1.00  0.00     0.178 C 
ATOM     28  C   UNL A   1      34.546  25.415  24.737  1.00  0.00     0.178 C 
ATOM     29  C   UNL A   1      33.581  22.861  25.464  1.00  0.00     0.284 C 
ATOM     30  C   UNL A   1      34.843  24.135  23.954  1.00  0.00     0.284 C 
ATOM     31  N   UNL A   1      34.908  22.996  24.841  1.00  0.00    -0.324 N 
ATOM     32  H   UNL A   1      35.044  22.097  24.380  1.00  0.00     0.348 HD
BRANCH  31  33
ATOM     33  C   UNL A   1      36.160  22.961  25.638  1.00  0.00     0.364 C 
BRANCH  33  34
ATOM     34  C   UNL A   1      37.273  21.921  25.395  1.00  0.00     0.279 C 
ATOM     35  O   UNL A   1      36.986  20.937  24.687  1.00  0.00    -0.268 OA
ATOM     36  N   UNL A   1      38.603  21.988  25.740  1.00  0.00    -0.321 N 
ATOM     37  H   UNL A   1      39.103  21.389  25.141  1.00  0.00     0.170 HD
BRANCH  36  38
ATOM     38  C   UNL A   1      39.531  22.595  26.635  1.00  0.00     0.041 A 
ATOM     39  C   UNL A   1      39.265  23.937  26.972  1.00  0.00     0.029 A 
ATOM     40  C   UNL A   1      40.740  22.096  27.115  1.00  0.00     0.029 A 
ATOM     41  C   UNL A   1      40.144  24.707  27.759  1.00  0.00     0.041 A 
ATOM     42  C   UNL A   1      41.653  22.865  27.861  1.00  0.00     0.041 A 
ATOM     43  C   UNL A   1      41.337  24.162  28.196  1.00  0.00     0.123 A 
ATOM     44  F   UNL A   1      42.185  24.887  28.937  1.00  0.00    -0.207 F 
ENDBRANCH  36  38
ENDBRANCH  33  34
ENDBRANCH  31  33
ENDBRANCH  12  26
ENDBRANCH   7   9
ENDBRANCH   6   7
ENDBRANCH   5   6
ENDBRANCH   4   5
ENDBRANCH   3   4
ENDBRANCH   2   3
ENDBRANCH   1   2
BRANCH   1  45
ATOM     45  O   UNL A   1      36.516  31.724  32.923  1.00  0.00    -0.377 OA
BRANCH  45  46
ATOM     46  C   UNL A   1      35.608  32.782  33.247  1.00  0.00     0.188 C 
BRANCH  46  47
ATOM     47  C   UNL A   1      36.242  33.841  34.136  1.00  0.00     0.188 C 
BRANCH  47  48
ATOM     48  O   UNL A   1      35.642  33.789  35.427  1.00  0.00    -0.376 OA
BRANCH  48  49
ATOM     49  C   UNL A   1      36.478  33.670  36.569  1.00  0.00     0.202 C 
BRANCH  49  50
ATOM     50  C   UNL A   1      37.941  33.345  36.279  1.00  0.00     0.261 C 
BRANCH  50  51
ATOM     51  O   UNL A   1      38.698  33.389  37.502  1.00  0.00    -0.460 OA
BRANCH  51  52
ATOM     52  C   UNL A   1      39.950  33.910  37.367  1.00  0.00     0.338 C 
ATOM     53  O   UNL A   1      40.185  35.107  37.331  1.00  0.00    -0.246 OA
BRANCH  52  54
ATOM     54  C   UNL A   1      40.931  32.825  37.062  1.00  0.00     0.060 A 
ATOM     55  C   UNL A   1      42.285  33.129  36.884  1.00  0.00     0.016 A 
ATOM     56  C   UNL A   1      40.460  31.599  36.615  1.00  0.00     0.016 A 
ATOM     57  C   UNL A   1      43.088  32.334  36.046  1.00  0.00     0.010 A 
ATOM     58  C   UNL A   1      41.220  30.907  35.689  1.00  0.00     0.010 A 
ATOM     59  C   UNL A   1      42.518  31.306  35.318  1.00  0.00    -0.014 A 
BRANCH  59  60
ATOM     60  C   UNL A   1      43.105  30.628  34.127  1.00  0.00     0.031 A 
ATOM     61  C   UNL A   1      43.101  31.436  32.842  1.00  0.00     0.074 A 
ATOM     62  C   UNL A   1      44.017  29.633  34.341  1.00  0.00     0.049 A 
ATOM     63  N   UNL A   1      43.840  31.264  31.796  1.00  0.00    -0.248 NA
ATOM     64  C   UNL A   1      42.206  32.588  32.679  1.00  0.00     0.031 C 
ATOM     65  C   UNL A   1      45.323  29.549  33.684  1.00  0.00     0.029 A 
ATOM     66  N   UNL A   1      44.111  28.577  35.252  1.00  0.00    -0.354 N 
ATOM     67  C   UNL A   1      43.750  32.407  30.994  1.00  0.00     0.074 A 
ATOM     68  C   UNL A   1      42.669  33.162  31.564  1.00  0.00     0.031 C 
ATOM     69  C   UNL A   1      46.045  28.531  34.161  1.00  0.00     0.029 A 
ATOM     70  C   UNL A   1      45.113  27.679  34.828  1.00  0.00     0.049 A 
ATOM     71  H   UNL A   1      43.564  28.477  36.064  1.00  0.00     0.167 HD
ATOM     72  C   UNL A   1      44.682  32.642  30.012  1.00  0.00     0.034 A 
ATOM     73  C   UNL A   1      44.927  26.424  34.313  1.00  0.00     0.034 A 
ATOM     74  C   UNL A   1      45.538  31.443  29.799  1.00  0.00     0.049 A 
ATOM     75  C   UNL A   1      45.136  26.307  32.782  1.00  0.00     0.074 A 
ATOM     76  C   UNL A   1      46.905  31.205  29.760  1.00  0.00     0.029 A 
ATOM     77  N   UNL A   1      44.947  30.179  29.740  1.00  0.00    -0.354 N 
ATOM     78  N   UNL A   1      45.373  27.326  31.977  1.00  0.00    -0.248 NA
ATOM     79  C   UNL A   1      45.115  25.052  32.033  1.00  0.00     0.031 C 
ATOM     80  C   UNL A   1      47.117  29.798  29.852  1.00  0.00     0.029 A 
ATOM     81  C   UNL A   1      45.885  29.166  29.826  1.00  0.00     0.049 A 
ATOM     82  H   UNL A   1      43.979  30.026  29.647  1.00  0.00     0.167 HD
ATOM     83  C   UNL A   1      45.416  26.925  30.664  1.00  0.00     0.074 A 
ATOM     84  C   UNL A   1      45.314  25.477  30.769  1.00  0.00     0.031 C 
ATOM     85  C   UNL A   1      45.484  27.784  29.588  1.00  0.00     0.034 A 
BRANCH  72  86
ATOM     86  C   UNL A   1      45.001  34.004  29.322  1.00  0.00     0.023 A 
ATOM     87  C   UNL A   1      46.345  34.455  29.388  1.00  0.00     0.012 A 
ATOM     88  C   UNL A   1      44.110  34.923  28.694  1.00  0.00     0.148 A 
ATOM     89  C   UNL A   1      46.771  35.718  28.944  1.00  0.00     0.002 A 
ATOM     90  C   UNL A   1      44.551  36.160  28.176  1.00  0.00     0.091 A 
ATOM     91  F   UNL A   1      42.806  34.651  28.625  1.00  0.00    -0.205 F 
ATOM     92  C   UNL A   1      45.876  36.571  28.329  1.00  0.00     0.022 A 
BRANCH  90  93
ATOM     93  S   UNL A   1      43.490  37.307  27.259  1.00  0.00     0.127 S 
ATOM     94  O   UNL A   1      42.864  36.431  26.267  1.00  0.00    -0.237 OA
ATOM     95  O   UNL A   1      42.579  37.787  28.299  1.00  0.00    -0.237 OA
ATOM     96  O   UNL A   1      44.372  38.326  26.705  1.00  0.00    -0.744 OA
ENDBRANCH  90  93
ENDBRANCH  72  86
BRANCH  73  97
ATOM     97  C   UNL A   1      44.326  25.494  35.324  1.00  0.00     0.023 A 
ATOM     98  C   UNL A   1      43.059  24.995  34.916  1.00  0.00     0.012 A 
ATOM     99  C   UNL A   1      45.230  24.603  35.918  1.00  0.00     0.148 A 
ATOM    100  C   UNL A   1      42.868  23.619  34.740  1.00  0.00     0.002 A 
ATOM    101  C   UNL A   1      45.062  23.238  35.689  1.00  0.00     0.091 A 
ATOM    102  F   UNL A   1      46.341  25.106  36.471  1.00  0.00    -0.205 F 
ATOM    103  C   UNL A   1      43.905  22.749  35.055  1.00  0.00     0.022 A 
BRANCH 101 104
ATOM    104  S   UNL A   1      46.490  22.139  35.735  1.00  0.00     0.127 S 
ATOM    105  O   UNL A   1      47.032  22.372  37.066  1.00  0.00    -0.237 OA
ATOM    106  O   UNL A   1      45.858  20.836  35.536  1.00  0.00    -0.237 OA
ATOM    107  O   UNL A   1      47.316  22.568  34.615  1.00  0.00    -0.744 OA
ENDBRANCH 101 104
ENDBRANCH  73  97
BRANCH  85 108
ATOM    108  C   UNL A   1      45.159  27.426  28.128  1.00  0.00     0.023 A 
ATOM    109  C   UNL A   1      43.837  27.377  27.653  1.00  0.00     0.012 A 
ATOM    110  C   UNL A   1      46.182  27.306  27.134  1.00  0.00     0.148 A 
ATOM    111  C   UNL A   1      43.535  27.138  26.308  1.00  0.00     0.002 A 
ATOM    112  C   UNL A   1      45.875  27.197  25.780  1.00  0.00     0.091 A 
ATOM    113  F   UNL A   1      47.473  27.277  27.486  1.00  0.00    -0.205 F 
ATOM    114  C   UNL A   1      44.551  27.069  25.368  1.00  0.00     0.022 A 
BRANCH 112 115
ATOM    115  S   UNL A   1      47.121  27.372  24.490  1.00  0.00     0.127 S 
ATOM    116  O   UNL A   1      46.386  28.111  23.465  1.00  0.00    -0.237 OA
ATOM    117  O   UNL A   1      48.156  28.148  25.175  1.00  0.00    -0.237 OA
ATOM    118  O   UNL A   1      47.522  26.020  24.130  1.00  0.00    -0.744 OA
ENDBRANCH 112 115
ENDBRANCH  85 108
ENDBRANCH  59  60
ENDBRANCH  52  54
ENDBRANCH  51  52
ENDBRANCH  50  51
ENDBRANCH  49  50
ENDBRANCH  48  49
ENDBRANCH  47  48
ENDBRANCH  46  47
ENDBRANCH  45  46
ENDBRANCH   1  45
TORSDOF 29
ENDMDL
MODEL 2
REMARK VINA RESULT:      -9.4      4.031      8.877
REMARK SMILES Cc1ccccc1C(=O)Nc1cc(C(=O)OCCOCCOCCOCCOC(=O)c2ccc(-c3c4nc(c(-c5cccc(S(=O)(=O)[O-])c5F)c5ccc([nH]5)c(-c5cccc(S(=O)(=O)[O-])c5F)c5nc(c(-c6cccc(S(=O)(=O)[O-])c6F)c6ccc3[nH]6)C=C5)C=C4)cc2)ccc1N1CC[NH+](CC(=O)Nc2ccc(F)cc2)CC1
REMARK SMILES IDX 21 1 20 2 19 3 18 4 17 5 16 6 14 7 15 8 13 9 11 10 12 11
REMARK SMILES IDX 96 12 95 13 94 14 10 15 8 16 9 17 7 19 1 20 2 21 3 22 4 23
REMARK SMILES IDX 6 24 5 25 97 26 98 27 113 28 99 29 112 30 100 31 101 33
REMARK SMILES IDX 102 34 103 35 104 36 105 38 106 39 111 40 107 41 110 42
REMARK SMILES IDX 108 43 109 44 22 45 23 46 24 47 25 48 26 49 27 50 28 51
REMARK SMILES IDX 29 52 30 53 31 54 32 55 93 56 33 57 92 58 34 59 35 60 36 61
REMARK SMILES IDX 86 62 37 63 91 64 85 65 87 66 38 67 90 68 84 69 83 70 39 72
REMARK SMILES IDX 71 73 51 74 70 75 52 76 55 77 69 78 88 79 53 80 54 81 68 83
REMARK SMILES IDX 89 84 56 85 40 86 41 87 49 88 42 89 44 90 50 91 43 92 45 93
REMARK SMILES IDX 46 94 47 95 48 96 72 97 73 98 81 99 74 100 76 101 82 102
REMARK SMILES IDX 75 103 77 104 78 105 79 106 80 107 57 108 58 109 66 110
REMARK SMILES IDX 59 111 61 112 67 113 60 114 62 115 63 116 64 117 65 118
REMARK H PARENT 10 18 100 32 104 37 87 71 55 82
REMARK Flexibility Score: inf
ROOT
ATOM      1  C   UNL A   1      37.088  31.000  31.720  1.00  0.00     0.188 C 
ENDROOT
BRANCH   1   2
ATOM      2  C   UNL A   1      35.885  31.154  30.793  1.00  0.00     0.188 C 
BRANCH   2   3
ATOM      3  O   UNL A   1      35.772  32.257  29.903  1.00  0.00    -0.376 OA
BRANCH   3   4
ATOM      4  C   UNL A   1      34.566  32.208  29.125  1.00  0.00     0.202 C 
BRANCH   4   5
ATOM      5  C   UNL A   1      34.587  31.648  27.695  1.00  0.00     0.261 C 
BRANCH   5   6
ATOM      6  O   UNL A   1      34.070  30.328  27.602  1.00  0.00    -0.460 OA
BRANCH   6   7
ATOM      7  C   UNL A   1      32.828  30.259  27.099  1.00  0.00     0.338 C 
ATOM      8  O   UNL A   1      32.053  31.152  26.856  1.00  0.00    -0.246 OA
BRANCH   7   9
ATOM      9  C   UNL A   1      32.725  28.908  26.522  1.00  0.00     0.062 A 
ATOM     10  C   UNL A   1      31.539  26.993  25.684  1.00  0.00     0.065 A 
ATOM     11  C   UNL A   1      31.514  28.264  26.225  1.00  0.00     0.044 A 
ATOM     12  C   UNL A   1      32.783  26.267  25.640  1.00  0.00     0.061 A 
ATOM     13  C   UNL A   1      33.937  26.891  26.149  1.00  0.00     0.029 A 
ATOM     14  C   UNL A   1      33.930  28.224  26.488  1.00  0.00     0.018 A 
BRANCH  10  15
ATOM     15  N   UNL A   1      30.382  26.407  25.134  1.00  0.00    -0.320 N 
ATOM     16  C   UNL A   1      29.524  26.687  24.082  1.00  0.00     0.255 C 
ATOM     17  O   UNL A   1      28.827  25.715  23.737  1.00  0.00    -0.269 OA
ATOM     18  H   UNL A   1      30.116  25.593  25.619  1.00  0.00     0.170 HD
BRANCH  16  19
ATOM     19  C   UNL A   1      29.329  27.952  23.283  1.00  0.00     0.043 A 
ATOM     20  C   UNL A   1      26.813  28.531  23.595  1.00  0.00     0.045 C 
ATOM     21  C   UNL A   1      28.165  28.676  22.972  1.00  0.00    -0.038 A 
ATOM     22  C   UNL A   1      28.236  29.749  22.050  1.00  0.00     0.004 A 
ATOM     23  C   UNL A   1      29.449  30.258  21.609  1.00  0.00     0.000 A 
ATOM     24  C   UNL A   1      30.555  28.536  22.860  1.00  0.00     0.014 A 
ATOM     25  C   UNL A   1      30.619  29.686  22.065  1.00  0.00     0.001 A 
ENDBRANCH  16  19
ENDBRANCH  10  15
BRANCH  12  26
ATOM     26  N   UNL A   1      32.940  25.039  24.925  1.00  0.00    -0.359 N 
ATOM     27  C   UNL A   1      33.060  23.783  25.739  1.00  0.00     0.178 C 
ATOM     28  C   UNL A   1      34.043  25.151  23.966  1.00  0.00     0.178 C 
ATOM     29  C   UNL A   1      33.542  22.545  24.937  1.00  0.00     0.284 C 
ATOM     30  C   UNL A   1      34.117  23.890  23.104  1.00  0.00     0.284 C 
ATOM     31  N   UNL A   1      34.555  22.759  23.891  1.00  0.00    -0.324 N 
ATOM     32  H   UNL A   1      34.570  21.867  23.395  1.00  0.00     0.348 HD
BRANCH  31  33
ATOM     33  C   UNL A   1      36.007  22.800  24.195  1.00  0.00     0.364 C 
BRANCH  33  34
ATOM     34  C   UNL A   1      36.690  21.786  25.135  1.00  0.00     0.279 C 
ATOM     35  O   UNL A   1      36.190  20.647  25.203  1.00  0.00    -0.268 OA
ATOM     36  N   UNL A   1      37.874  21.913  25.823  1.00  0.00    -0.321 N 
ATOM     37  H   UNL A   1      38.217  21.010  26.010  1.00  0.00     0.170 HD
BRANCH  36  38
ATOM     38  C   UNL A   1      38.794  22.857  26.368  1.00  0.00     0.041 A 
ATOM     39  C   UNL A   1      39.914  22.309  27.023  1.00  0.00     0.029 A 
ATOM     40  C   UNL A   1      38.673  24.241  26.467  1.00  0.00     0.029 A 
ATOM     41  C   UNL A   1      40.856  23.106  27.704  1.00  0.00     0.041 A 
ATOM     42  C   UNL A   1      39.576  25.047  27.184  1.00  0.00     0.041 A 
ATOM     43  C   UNL A   1      40.676  24.474  27.781  1.00  0.00     0.123 A 
ATOM     44  F   UNL A   1      41.560  25.241  28.433  1.00  0.00    -0.207 F 
ENDBRANCH  36  38
ENDBRANCH  33  34
ENDBRANCH  31  33
ENDBRANCH  12  26
ENDBRANCH   7   9
ENDBRANCH   6   7
ENDBRANCH   5   6
ENDBRANCH   4   5
ENDBRANCH   3   4
ENDBRANCH   2   3
ENDBRANCH   1   2
BRANCH   1  45
ATOM     45  O   UNL A   1      36.810  31.179  33.116  1.00  0.00    -0.377 OA
BRANCH  45  46
ATOM     46  C   UNL A   1      36.368  32.486  33.494  1.00  0.00     0.188 C 
BRANCH  46  47
ATOM     47  C   UNL A   1      37.524  33.429  33.793  1.00  0.00     0.188 C 
BRANCH  47  48
ATOM     48  O   UNL A   1      37.742  33.472  35.200  1.00  0.00    -0.376 OA
BRANCH  48  49
ATOM     49  C   UNL A   1      39.045  33.212  35.701  1.00  0.00     0.202 C 
BRANCH  49  50
ATOM     50  C   UNL A   1      40.028  32.615  34.696  1.00  0.00     0.261 C 
BRANCH  50  51
ATOM     51  O   UNL A   1      41.368  33.020  35.031  1.00  0.00    -0.460 OA
BRANCH  51  52
ATOM     52  C   UNL A   1      41.515  34.361  35.227  1.00  0.00     0.338 C 
ATOM     53  O   UNL A   1      41.358  34.907  36.307  1.00  0.00    -0.246 OA
BRANCH  52  54
ATOM     54  C   UNL A   1      41.681  35.060  33.917  1.00  0.00     0.060 A 
ATOM     55  C   UNL A   1      41.420  34.383  32.721  1.00  0.00     0.016 A 
ATOM     56  C   UNL A   1      42.414  36.236  33.871  1.00  0.00     0.016 A 
ATOM     57  C   UNL A   1      42.100  34.737  31.541  1.00  0.00     0.010 A 
ATOM     58  C   UNL A   1      43.175  36.485  32.743  1.00  0.00     0.010 A 
ATOM     59  C   UNL A   1      43.100  35.692  31.582  1.00  0.00    -0.014 A 
BRANCH  59  60
ATOM     60  C   UNL A   1      44.158  35.915  30.557  1.00  0.00     0.031 A 
ATOM     61  C   UNL A   1      45.296  34.910  30.557  1.00  0.00     0.074 A 
ATOM     62  C   UNL A   1      43.822  36.612  29.430  1.00  0.00     0.049 A 
ATOM     63  N   UNL A   1      46.117  34.644  29.596  1.00  0.00    -0.248 NA
ATOM     64  C   UNL A   1      45.561  34.072  31.732  1.00  0.00     0.031 C 
ATOM     65  C   UNL A   1      44.110  36.169  28.064  1.00  0.00     0.029 A 
ATOM     66  N   UNL A   1      43.046  37.747  29.181  1.00  0.00    -0.354 N 
ATOM     67  C   UNL A   1      46.779  33.446  29.893  1.00  0.00     0.074 A 
ATOM     68  C   UNL A   1      46.437  33.179  31.263  1.00  0.00     0.031 C 
ATOM     69  C   UNL A   1      43.576  36.995  27.160  1.00  0.00     0.029 A 
ATOM     70  C   UNL A   1      43.286  38.201  27.868  1.00  0.00     0.049 A 
ATOM     71  H   UNL A   1      42.428  38.164  29.823  1.00  0.00     0.167 HD
ATOM     72  C   UNL A   1      47.440  32.755  28.908  1.00  0.00     0.034 A 
ATOM     73  C   UNL A   1      43.971  39.328  27.499  1.00  0.00     0.034 A 
ATOM     74  C   UNL A   1      47.552  33.575  27.671  1.00  0.00     0.049 A 
ATOM     75  C   UNL A   1      45.393  39.074  26.937  1.00  0.00     0.074 A 
ATOM     76  C   UNL A   1      47.248  33.378  26.331  1.00  0.00     0.029 A 
ATOM     77  N   UNL A   1      47.911  34.921  27.768  1.00  0.00    -0.354 N 
ATOM     78  N   UNL A   1      45.982  37.894  26.893  1.00  0.00    -0.248 NA
ATOM     79  C   UNL A   1      46.259  40.105  26.367  1.00  0.00     0.031 C 
ATOM     80  C   UNL A   1      47.265  34.645  25.678  1.00  0.00     0.029 A 
ATOM     81  C   UNL A   1      47.692  35.601  26.584  1.00  0.00     0.049 A 
ATOM     82  H   UNL A   1      48.277  35.336  28.583  1.00  0.00     0.167 HD
ATOM     83  C   UNL A   1      47.273  37.998  26.433  1.00  0.00     0.074 A 
ATOM     84  C   UNL A   1      47.365  39.401  26.056  1.00  0.00     0.031 C 
ATOM     85  C   UNL A   1      48.186  36.965  26.430  1.00  0.00     0.034 A 
BRANCH  72  86
ATOM     86  C   UNL A   1      47.860  31.252  28.931  1.00  0.00     0.023 A 
ATOM     87  C   UNL A   1      47.096  30.364  28.128  1.00  0.00     0.012 A 
ATOM     88  C   UNL A   1      48.861  30.611  29.716  1.00  0.00     0.148 A 
ATOM     89  C   UNL A   1      47.249  28.967  28.142  1.00  0.00     0.002 A 
ATOM     90  C   UNL A   1      49.069  29.215  29.672  1.00  0.00     0.091 A 
ATOM     91  F   UNL A   1      49.605  31.322  30.565  1.00  0.00    -0.205 F 
ATOM     92  C   UNL A   1      48.242  28.390  28.908  1.00  0.00     0.022 A 
BRANCH  90  93
ATOM     93  S   UNL A   1      50.406  28.365  30.550  1.00  0.00     0.127 S 
ATOM     94  O   UNL A   1      50.115  26.957  30.280  1.00  0.00    -0.237 OA
ATOM     95  O   UNL A   1      51.598  28.874  29.869  1.00  0.00    -0.237 OA
ATOM     96  O   UNL A   1      50.291  28.757  31.949  1.00  0.00    -0.744 OA
ENDBRANCH  90  93
ENDBRANCH  72  86
BRANCH  73  97
ATOM     97  C   UNL A   1      43.272  40.574  27.951  1.00  0.00     0.023 A 
ATOM     98  C   UNL A   1      41.865  40.510  27.750  1.00  0.00     0.012 A 
ATOM     99  C   UNL A   1      43.746  41.115  29.154  1.00  0.00     0.148 A 
ATOM    100  C   UNL A   1      40.994  40.601  28.842  1.00  0.00     0.002 A 
ATOM    101  C   UNL A   1      42.885  41.147  30.251  1.00  0.00     0.091 A 
ATOM    102  F   UNL A   1      45.060  41.349  29.267  1.00  0.00    -0.205 F 
ATOM    103  C   UNL A   1      41.519  40.842  30.105  1.00  0.00     0.022 A 
BRANCH 101 104
ATOM    104  S   UNL A   1      43.558  41.088  31.921  1.00  0.00     0.127 S 
ATOM    105  O   UNL A   1      43.926  42.474  32.169  1.00  0.00    -0.237 OA
ATOM    106  O   UNL A   1      42.407  40.600  32.679  1.00  0.00    -0.237 OA
ATOM    107  O   UNL A   1      44.654  40.132  31.839  1.00  0.00    -0.744 OA
ENDBRANCH 101 104
ENDBRANCH  73  97
BRANCH  85 108
ATOM    108  C   UNL A   1      49.710  37.111  26.289  1.00  0.00     0.023 A 
ATOM    109  C   UNL A   1      50.376  36.811  25.089  1.00  0.00     0.012 A 
ATOM    110  C   UNL A   1      50.506  37.731  27.304  1.00  0.00     0.148 A 
ATOM    111  C   UNL A   1      51.750  37.023  24.923  1.00  0.00     0.002 A 
ATOM    112  C   UNL A   1      51.843  38.056  27.086  1.00  0.00     0.091 A 
ATOM    113  F   UNL A   1      49.985  38.000  28.507  1.00  0.00    -0.205 F 
ATOM    114  C   UNL A   1      52.479  37.664  25.911  1.00  0.00     0.022 A 
BRANCH 112 115
ATOM    115  S   UNL A   1      52.773  39.119  28.206  1.00  0.00     0.127 S 
ATOM    116  O   UNL A   1      51.936  40.317  28.243  1.00  0.00    -0.237 OA
ATOM    117  O   UNL A   1      52.767  38.333  29.441  1.00  0.00    -0.237 OA
ATOM    118  O   UNL A   1      54.088  39.285  27.605  1.00  0.00    -0.744 OA
ENDBRANCH 112 115
ENDBRANCH  85 108
ENDBRANCH  59  60
ENDBRANCH  52  54
ENDBRANCH  51  52
ENDBRANCH  50  51
ENDBRANCH  49  50
ENDBRANCH  48  49
ENDBRANCH  47  48
ENDBRANCH  46  47
ENDBRANCH  45  46
ENDBRANCH   1  45
TORSDOF 29
ENDMDL
MODEL 3
REMARK VINA RESULT:      -9.0      3.741      6.974
REMARK SMILES Cc1ccccc1C(=O)Nc1cc(C(=O)OCCOCCOCCOCCOC(=O)c2ccc(-c3c4nc(c(-c5cccc(S(=O)(=O)[O-])c5F)c5ccc([nH]5)c(-c5cccc(S(=O)(=O)[O-])c5F)c5nc(c(-c6cccc(S(=O)(=O)[O-])c6F)c6ccc3[nH]6)C=C5)C=C4)cc2)ccc1N1CC[NH+](CC(=O)Nc2ccc(F)cc2)CC1
REMARK SMILES IDX 21 1 20 2 19 3 18 4 17 5 16 6 14 7 15 8 13 9 11 10 12 11
REMARK SMILES IDX 96 12 95 13 94 14 10 15 8 16 9 17 7 19 1 20 2 21 3 22 4 23
REMARK SMILES IDX 6 24 5 25 97 26 98 27 113 28 99 29 112 30 100 31 101 33
REMARK SMILES IDX 102 34 103 35 104 36 105 38 106 39 111 40 107 41 110 42
REMARK SMILES IDX 108 43 109 44 22 45 23 46 24 47 25 48 26 49 27 50 28 51
REMARK SMILES IDX 29 52 30 53 31 54 32 55 93 56 33 57 92 58 34 59 35 60 36 61
REMARK SMILES IDX 86 62 37 63 91 64 85 65 87 66 38 67 90 68 84 69 83 70 39 72
REMARK SMILES IDX 71 73 51 74 70 75 52 76 55 77 69 78 88 79 53 80 54 81 68 83
REMARK SMILES IDX 89 84 56 85 40 86 41 87 49 88 42 89 44 90 50 91 43 92 45 93
REMARK SMILES IDX 46 94 47 95 48 96 72 97 73 98 81 99 74 100 76 101 82 102
REMARK SMILES IDX 75 103 77 104 78 105 79 106 80 107 57 108 58 109 66 110
REMARK SMILES IDX 59 111 61 112 67 113 60 114 62 115 63 116 64 117 65 118
REMARK H PARENT 10 18 100 32 104 37 87 71 55 82
REMARK Flexibility Score: inf
ROOT
ATOM      1  C   UNL A   1      37.184  30.871  31.876  1.00  0.00     0.188 C 
ENDROOT
BRANCH   1   2
ATOM      2  C   UNL A   1      36.134  30.947  30.770  1.00  0.00     0.188 C 
BRANCH   2   3
ATOM      3  O   UNL A   1      35.998  32.106  29.956  1.00  0.00    -0.376 OA
BRANCH   3   4
ATOM      4  C   UNL A   1      34.833  32.050  29.119  1.00  0.00     0.202 C 
BRANCH   4   5
ATOM      5  C   UNL A   1      34.907  31.404  27.728  1.00  0.00     0.261 C 
BRANCH   5   6
ATOM      6  O   UNL A   1      34.215  30.164  27.649  1.00  0.00    -0.460 OA
BRANCH   6   7
ATOM      7  C   UNL A   1      32.993  30.251  27.104  1.00  0.00     0.338 C 
ATOM      8  O   UNL A   1      32.325  31.232  26.881  1.00  0.00    -0.246 OA
BRANCH   7   9
ATOM      9  C   UNL A   1      32.769  28.947  26.459  1.00  0.00     0.062 A 
ATOM     10  C   UNL A   1      31.415  27.152  25.611  1.00  0.00     0.065 A 
ATOM     11  C   UNL A   1      31.504  28.385  26.227  1.00  0.00     0.044 A 
ATOM     12  C   UNL A   1      32.610  26.368  25.420  1.00  0.00     0.061 A 
ATOM     13  C   UNL A   1      33.833  26.900  25.867  1.00  0.00     0.029 A 
ATOM     14  C   UNL A   1      33.927  28.207  26.283  1.00  0.00     0.018 A 
BRANCH  10  15
ATOM     15  N   UNL A   1      30.187  26.660  25.127  1.00  0.00    -0.320 N 
ATOM     16  C   UNL A   1      29.326  26.973  24.086  1.00  0.00     0.255 C 
ATOM     17  O   UNL A   1      28.524  26.062  23.813  1.00  0.00    -0.269 OA
ATOM     18  H   UNL A   1      29.857  25.903  25.661  1.00  0.00     0.170 HD
BRANCH  16  19
ATOM     19  C   UNL A   1      29.233  28.211  23.227  1.00  0.00     0.043 A 
ATOM     20  C   UNL A   1      31.665  28.606  22.396  1.00  0.00     0.045 C 
ATOM     21  C   UNL A   1      30.232  28.979  22.604  1.00  0.00    -0.038 A 
ATOM     22  C   UNL A   1      29.885  30.207  21.989  1.00  0.00     0.004 A 
ATOM     23  C   UNL A   1      28.565  30.578  21.783  1.00  0.00     0.000 A 
ATOM     24  C   UNL A   1      27.892  28.590  22.945  1.00  0.00     0.014 A 
ATOM     25  C   UNL A   1      27.559  29.734  22.210  1.00  0.00     0.001 A 
ENDBRANCH  16  19
ENDBRANCH  10  15
BRANCH  12  26
ATOM     26  N   UNL A   1      32.641  25.182  24.622  1.00  0.00    -0.359 N 
ATOM     27  C   UNL A   1      32.524  23.870  25.342  1.00  0.00     0.178 C 
ATOM     28  C   UNL A   1      33.812  25.197  23.742  1.00  0.00     0.178 C 
ATOM     29  C   UNL A   1      32.880  22.632  24.477  1.00  0.00     0.284 C 
ATOM     30  C   UNL A   1      33.767  23.999  22.790  1.00  0.00     0.284 C 
ATOM     31  N   UNL A   1      33.983  22.766  23.511  1.00  0.00    -0.324 N 
ATOM     32  H   UNL A   1      33.907  21.918  22.950  1.00  0.00     0.348 HD
BRANCH  31  33
ATOM     33  C   UNL A   1      35.402  22.573  23.903  1.00  0.00     0.364 C 
BRANCH  33  34
ATOM     34  C   UNL A   1      35.822  21.725  25.121  1.00  0.00     0.279 C 
ATOM     35  O   UNL A   1      36.662  22.221  25.896  1.00  0.00    -0.268 OA
ATOM     36  N   UNL A   1      35.296  20.533  25.562  1.00  0.00    -0.321 N 
ATOM     37  H   UNL A   1      35.497  20.448  26.522  1.00  0.00     0.170 HD
BRANCH  36  38
ATOM     38  C   UNL A   1      34.570  19.375  25.157  1.00  0.00     0.041 A 
ATOM     39  C   UNL A   1      35.324  18.378  24.509  1.00  0.00     0.029 A 
ATOM     40  C   UNL A   1      33.196  19.149  25.186  1.00  0.00     0.029 A 
ATOM     41  C   UNL A   1      34.734  17.224  23.956  1.00  0.00     0.041 A 
ATOM     42  C   UNL A   1      32.584  18.027  24.595  1.00  0.00     0.041 A 
ATOM     43  C   UNL A   1      33.363  17.059  24.002  1.00  0.00     0.123 A 
ATOM     44  F   UNL A   1      32.790  15.971  23.472  1.00  0.00    -0.207 F 
ENDBRANCH  36  38
ENDBRANCH  33  34
ENDBRANCH  31  33
ENDBRANCH  12  26
ENDBRANCH   7   9
ENDBRANCH   6   7
ENDBRANCH   5   6
ENDBRANCH   4   5
ENDBRANCH   3   4
ENDBRANCH   2   3
ENDBRANCH   1   2
BRANCH   1  45
ATOM     45  O   UNL A   1      36.886  31.631  33.054  1.00  0.00    -0.377 OA
BRANCH  45  46
ATOM     46  C   UNL A   1      37.097  33.043  32.947  1.00  0.00     0.188 C 
BRANCH  46  47
ATOM     47  C   UNL A   1      37.791  33.622  34.170  1.00  0.00     0.188 C 
BRANCH  47  48
ATOM     48  O   UNL A   1      37.045  33.286  35.336  1.00  0.00    -0.376 OA
BRANCH  48  49
ATOM     49  C   UNL A   1      37.732  33.126  36.569  1.00  0.00     0.202 C 
BRANCH  49  50
ATOM     50  C   UNL A   1      38.336  31.744  36.808  1.00  0.00     0.261 C 
BRANCH  50  51
ATOM     51  O   UNL A   1      39.693  31.720  36.332  1.00  0.00    -0.460 OA
BRANCH  51  52
ATOM     52  C   UNL A   1      40.624  32.032  37.278  1.00  0.00     0.338 C 
ATOM     53  O   UNL A   1      40.352  32.538  38.354  1.00  0.00    -0.246 OA
BRANCH  52  54
ATOM     54  C   UNL A   1      42.001  31.862  36.723  1.00  0.00     0.060 A 
ATOM     55  C   UNL A   1      42.186  31.655  35.351  1.00  0.00     0.016 A 
ATOM     56  C   UNL A   1      43.042  31.563  37.588  1.00  0.00     0.016 A 
ATOM     57  C   UNL A   1      43.293  30.920  34.887  1.00  0.00     0.010 A 
ATOM     58  C   UNL A   1      44.048  30.728  37.134  1.00  0.00     0.010 A 
ATOM     59  C   UNL A   1      44.149  30.318  35.790  1.00  0.00    -0.014 A 
BRANCH  59  60
ATOM     60  C   UNL A   1      45.114  29.219  35.504  1.00  0.00     0.031 A 
ATOM     61  C   UNL A   1      44.576  28.073  34.667  1.00  0.00     0.074 A 
ATOM     62  C   UNL A   1      46.448  29.514  35.536  1.00  0.00     0.049 A 
ATOM     63  N   UNL A   1      45.249  27.209  33.981  1.00  0.00    -0.248 NA
ATOM     64  C   UNL A   1      43.131  27.850  34.534  1.00  0.00     0.031 C 
ATOM     65  C   UNL A   1      47.401  29.164  34.479  1.00  0.00     0.029 A 
ATOM     66  N   UNL A   1      47.255  30.289  36.372  1.00  0.00    -0.354 N 
ATOM     67  C   UNL A   1      44.372  26.550  33.111  1.00  0.00     0.074 A 
ATOM     68  C   UNL A   1      43.064  26.946  33.552  1.00  0.00     0.031 C 
ATOM     69  C   UNL A   1      48.613  29.668  34.728  1.00  0.00     0.029 A 
ATOM     70  C   UNL A   1      48.612  29.999  36.117  1.00  0.00     0.049 A 
ATOM     71  H   UNL A   1      46.928  30.938  37.036  1.00  0.00     0.167 HD
ATOM     72  C   UNL A   1      44.859  25.841  32.040  1.00  0.00     0.034 A 
ATOM     73  C   UNL A   1      49.472  29.309  36.930  1.00  0.00     0.034 A 
ATOM     74  C   UNL A   1      46.336  25.685  32.137  1.00  0.00     0.049 A 
ATOM     75  C   UNL A   1      49.786  27.863  36.471  1.00  0.00     0.074 A 
ATOM     76  C   UNL A   1      47.407  25.930  31.289  1.00  0.00     0.029 A 
ATOM     77  N   UNL A   1      46.912  25.343  33.362  1.00  0.00    -0.354 N 
ATOM     78  N   UNL A   1      49.217  27.261  35.444  1.00  0.00    -0.248 NA
ATOM     79  C   UNL A   1      50.767  26.983  37.105  1.00  0.00     0.031 C 
ATOM     80  C   UNL A   1      48.605  25.898  32.062  1.00  0.00     0.029 A 
ATOM     81  C   UNL A   1      48.284  25.518  33.354  1.00  0.00     0.049 A 
ATOM     82  H   UNL A   1      46.403  25.015  34.138  1.00  0.00     0.167 HD
ATOM     83  C   UNL A   1      49.625  25.952  35.343  1.00  0.00     0.074 A 
ATOM     84  C   UNL A   1      50.649  25.858  36.373  1.00  0.00     0.031 C 
ATOM     85  C   UNL A   1      49.083  25.031  34.473  1.00  0.00     0.034 A 
BRANCH  72  86
ATOM     86  C   UNL A   1      44.075  25.409  30.762  1.00  0.00     0.023 A 
ATOM     87  C   UNL A   1      44.227  24.060  30.345  1.00  0.00     0.012 A 
ATOM     88  C   UNL A   1      43.280  26.202  29.885  1.00  0.00     0.148 A 
ATOM     89  C   UNL A   1      43.707  23.548  29.144  1.00  0.00     0.002 A 
ATOM     90  C   UNL A   1      42.691  25.668  28.717  1.00  0.00     0.091 A 
ATOM     91  F   UNL A   1      43.113  27.504  30.124  1.00  0.00    -0.205 F 
ATOM     92  C   UNL A   1      42.930  24.349  28.331  1.00  0.00     0.022 A 
BRANCH  90  93
ATOM     93  S   UNL A   1      41.571  26.596  27.637  1.00  0.00     0.127 S 
ATOM     94  O   UNL A   1      40.432  26.860  28.517  1.00  0.00    -0.237 OA
ATOM     95  O   UNL A   1      42.365  27.780  27.309  1.00  0.00    -0.237 OA
ATOM     96  O   UNL A   1      41.280  25.725  26.505  1.00  0.00    -0.744 OA
ENDBRANCH  90  93
ENDBRANCH  72  86
BRANCH  73  97
ATOM     97  C   UNL A   1      49.725  30.039  38.215  1.00  0.00     0.023 A 
ATOM     98  C   UNL A   1      50.075  31.401  38.005  1.00  0.00     0.012 A 
ATOM     99  C   UNL A   1      48.834  29.735  39.253  1.00  0.00     0.148 A 
ATOM    100  C   UNL A   1      49.273  32.422  38.530  1.00  0.00     0.002 A 
ATOM    101  C   UNL A   1      48.001  30.747  39.728  1.00  0.00     0.091 A 
ATOM    102  F   UNL A   1      48.652  28.447  39.571  1.00  0.00    -0.205 F 
ATOM    103  C   UNL A   1      48.188  32.083  39.329  1.00  0.00     0.022 A 
BRANCH 101 104
ATOM    104  S   UNL A   1      46.402  30.328  40.445  1.00  0.00     0.127 S 
ATOM    105  O   UNL A   1      46.723  30.119  41.849  1.00  0.00    -0.237 OA
ATOM    106  O   UNL A   1      45.629  31.535  40.153  1.00  0.00    -0.237 OA
ATOM    107  O   UNL A   1      45.963  29.157  39.699  1.00  0.00    -0.744 OA
ENDBRANCH 101 104
ENDBRANCH  73  97
BRANCH  85 108
ATOM    108  C   UNL A   1      49.229  23.504  34.574  1.00  0.00     0.023 A 
ATOM    109  C   UNL A   1      50.131  22.790  33.767  1.00  0.00     0.012 A 
ATOM    110  C   UNL A   1      48.596  22.752  35.614  1.00  0.00     0.148 A 
ATOM    111  C   UNL A   1      50.335  21.413  33.911  1.00  0.00     0.002 A 
ATOM    112  C   UNL A   1      48.900  21.410  35.833  1.00  0.00     0.091 A 
ATOM    113  F   UNL A   1      47.673  23.320  36.399  1.00  0.00    -0.205 F 
ATOM    114  C   UNL A   1      49.737  20.726  34.956  1.00  0.00     0.022 A 
BRANCH 112 115
ATOM    115  S   UNL A   1      48.376  20.532  37.317  1.00  0.00     0.127 S 
ATOM    116  O   UNL A   1      47.054  20.047  36.925  1.00  0.00    -0.237 OA
ATOM    117  O   UNL A   1      49.399  19.490  37.427  1.00  0.00    -0.237 OA
ATOM    118  O   UNL A   1      48.398  21.511  38.395  1.00  0.00    -0.744 OA
ENDBRANCH 112 115
ENDBRANCH  85 108
ENDBRANCH  59  60
ENDBRANCH  52  54
ENDBRANCH  51  52
ENDBRANCH  50  51
ENDBRANCH  49  50
ENDBRANCH  48  49
ENDBRANCH  47  48
ENDBRANCH  46  47
ENDBRANCH  45  46
ENDBRANCH   1  45
TORSDOF 29
ENDMDL
