MODEL 1
REMARK VINA RESULT:      -9.6      0.000      0.000
REMARK SMILES CC(C)[C@H](C)CNC(=O)N1CC(n2cc(C(=O)OCCOCCOCCOCCOC(=O)c3ccc(-c4c5nc(c(-c6cccc(S(=O)(=O)[O-])c6F)c6ccc([nH]6)c(-c6cccc(S(=O)(=O)[O-])c6F)c6nc(c(-c7cccc(S(=O)(=O)[O-])c7F)c7ccc4[nH]7)C=C6)C=C5)cc3)nn2)C1
REMARK SMILES IDX 23 1 22 2 21 3 20 4 19 5 18 6 16 7 17 8 15 9 13 10 14 11
REMARK SMILES IDX 97 12 96 13 12 14 7 15 8 16 9 18 10 19 11 20 98 21 6 22 4 23
REMARK SMILES IDX 5 24 2 25 1 26 3 27 24 28 25 29 26 30 27 31 28 32 29 33
REMARK SMILES IDX 30 34 31 35 32 36 33 37 34 38 95 39 35 40 94 41 36 42 37 43
REMARK SMILES IDX 38 44 88 45 39 46 93 47 87 48 89 49 40 50 92 51 86 52 85 53
REMARK SMILES IDX 41 55 73 56 53 57 72 58 54 59 57 60 71 61 90 62 55 63 56 64
REMARK SMILES IDX 70 66 91 67 58 68 42 69 43 70 51 71 44 72 46 73 52 74 45 75
REMARK SMILES IDX 47 76 48 77 49 78 50 79 74 80 75 81 83 82 76 83 78 84 84 85
REMARK SMILES IDX 77 86 79 87 80 88 81 89 82 90 59 91 60 92 68 93 61 94 63 95
REMARK SMILES IDX 69 96 62 97 64 98 65 99 66 100 67 101
REMARK H PARENT 7 17 89 54 57 65
REMARK Flexibility Score: inf
ROOT
ATOM      1  C   UNL A   1      33.384  35.158  28.867  1.00  0.00     0.188 C 
ENDROOT
BRANCH   1   2
ATOM      2  C   UNL A   1      33.454  33.888  27.987  1.00  0.00     0.188 C 
BRANCH   2   3
ATOM      3  O   UNL A   1      34.686  33.264  27.628  1.00  0.00    -0.376 OA
BRANCH   3   4
ATOM      4  C   UNL A   1      34.899  31.868  27.750  1.00  0.00     0.202 C 
BRANCH   4   5
ATOM      5  C   UNL A   1      33.731  30.876  27.670  1.00  0.00     0.261 C 
BRANCH   5   6
ATOM      6  O   UNL A   1      33.401  30.413  26.361  1.00  0.00    -0.458 OA
BRANCH   6   7
ATOM      7  C   UNL A   1      32.081  30.503  26.038  1.00  0.00     0.360 C 
ATOM      8  O   UNL A   1      31.387  31.496  26.223  1.00  0.00    -0.244 OA
BRANCH   7   9
ATOM      9  C   UNL A   1      31.603  29.311  25.356  1.00  0.00     0.190 A 
ATOM     10  N   UNL A   1      31.054  27.311  24.732  1.00  0.00    -0.245 N 
ATOM     11  C   UNL A   1      31.662  27.987  25.754  1.00  0.00     0.147 A 
ATOM     12  N   UNL A   1      30.714  28.142  23.735  1.00  0.00    -0.066 NA
ATOM     13  N   UNL A   1      31.041  29.370  24.105  1.00  0.00    -0.123 NA
BRANCH  10  14
ATOM     14  C   UNL A   1      30.609  25.954  24.830  1.00  0.00     0.148 C 
ATOM     15  N   UNL A   1      31.937  22.522  26.939  1.00  0.00    -0.338 N 
ATOM     16  C   UNL A   1      30.832  23.303  26.843  1.00  0.00     0.317 C 
ATOM     17  H   UNL A   1      31.757  21.559  27.037  1.00  0.00     0.165 HD
ATOM     18  O   UNL A   1      29.767  22.863  27.274  1.00  0.00    -0.249 OA
ATOM     19  N   UNL A   1      30.936  24.529  26.281  1.00  0.00    -0.320 N 
ATOM     20  C   UNL A   1      29.914  25.558  26.140  1.00  0.00     0.150 C 
ATOM     21  C   UNL A   1      31.797  25.074  25.256  1.00  0.00     0.150 C 
BRANCH  15  22
ATOM     22  C   UNL A   1      33.343  22.886  26.920  1.00  0.00     0.121 C 
BRANCH  22  23
ATOM     23  C   UNL A   1      34.181  21.989  25.979  1.00  0.00     0.008 C 
ATOM     24  C   UNL A   1      33.315  21.514  24.803  1.00  0.00     0.010 C 
BRANCH  23  25
ATOM     25  C   UNL A   1      35.548  22.642  25.555  1.00  0.00    -0.013 C 
ATOM     26  C   UNL A   1      36.186  22.017  24.308  1.00  0.00     0.008 C 
ATOM     27  C   UNL A   1      35.520  24.165  25.377  1.00  0.00     0.008 C 
ENDBRANCH  23  25
ENDBRANCH  22  23
ENDBRANCH  15  22
ENDBRANCH  10  14
ENDBRANCH   7   9
ENDBRANCH   6   7
ENDBRANCH   5   6
ENDBRANCH   4   5
ENDBRANCH   3   4
ENDBRANCH   2   3
ENDBRANCH   1   2
BRANCH   1  28
ATOM     28  O   UNL A   1      32.551  35.036  30.008  1.00  0.00    -0.377 OA
BRANCH  28  29
ATOM     29  C   UNL A   1      33.053  35.656  31.192  1.00  0.00     0.188 C 
BRANCH  29  30
ATOM     30  C   UNL A   1      34.224  34.952  31.930  1.00  0.00     0.188 C 
BRANCH  30  31
ATOM     31  O   UNL A   1      34.076  33.540  32.044  1.00  0.00    -0.376 OA
BRANCH  31  32
ATOM     32  C   UNL A   1      34.865  32.643  31.278  1.00  0.00     0.202 C 
BRANCH  32  33
ATOM     33  C   UNL A   1      36.187  32.181  31.879  1.00  0.00     0.261 C 
BRANCH  33  34
ATOM     34  O   UNL A   1      36.996  31.485  30.956  1.00  0.00    -0.460 OA
BRANCH  34  35
ATOM     35  C   UNL A   1      37.082  30.159  31.143  1.00  0.00     0.338 C 
ATOM     36  O   UNL A   1      36.514  29.491  32.003  1.00  0.00    -0.246 OA
BRANCH  35  37
ATOM     37  C   UNL A   1      38.067  29.645  30.196  1.00  0.00     0.060 A 
ATOM     38  C   UNL A   1      38.224  28.259  30.181  1.00  0.00     0.016 A 
ATOM     39  C   UNL A   1      39.068  30.534  29.776  1.00  0.00     0.016 A 
ATOM     40  C   UNL A   1      39.504  27.781  30.092  1.00  0.00     0.010 A 
ATOM     41  C   UNL A   1      40.345  30.065  29.747  1.00  0.00     0.010 A 
ATOM     42  C   UNL A   1      40.541  28.714  30.014  1.00  0.00    -0.014 A 
BRANCH  42  43
ATOM     43  C   UNL A   1      41.889  28.244  30.171  1.00  0.00     0.031 A 
ATOM     44  C   UNL A   1      42.300  27.413  29.030  1.00  0.00     0.074 A 
ATOM     45  C   UNL A   1      42.658  28.654  31.194  1.00  0.00     0.049 A 
ATOM     46  N   UNL A   1      42.391  26.127  28.993  1.00  0.00    -0.248 NA
ATOM     47  C   UNL A   1      42.347  28.063  27.709  1.00  0.00     0.031 C 
ATOM     48  C   UNL A   1      42.392  29.727  32.158  1.00  0.00     0.029 A 
ATOM     49  N   UNL A   1      43.929  28.287  31.484  1.00  0.00    -0.354 N 
ATOM     50  C   UNL A   1      42.786  25.853  27.690  1.00  0.00     0.074 A 
ATOM     51  C   UNL A   1      42.425  27.001  26.909  1.00  0.00     0.031 C 
ATOM     52  C   UNL A   1      43.559  30.089  32.741  1.00  0.00     0.029 A 
ATOM     53  C   UNL A   1      44.612  29.201  32.278  1.00  0.00     0.049 A 
ATOM     54  H   UNL A   1      44.333  27.449  31.162  1.00  0.00     0.167 HD
ATOM     55  C   UNL A   1      43.705  24.886  27.432  1.00  0.00     0.034 A 
ATOM     56  C   UNL A   1      45.959  29.266  32.423  1.00  0.00     0.034 A 
ATOM     57  C   UNL A   1      43.863  24.004  28.565  1.00  0.00     0.049 A 
ATOM     58  C   UNL A   1      46.514  27.966  31.962  1.00  0.00     0.074 A 
ATOM     59  C   UNL A   1      43.014  23.201  29.300  1.00  0.00     0.029 A 
ATOM     60  N   UNL A   1      44.980  24.196  29.342  1.00  0.00    -0.354 N 
ATOM     61  N   UNL A   1      46.306  26.835  32.576  1.00  0.00    -0.248 NA
ATOM     62  C   UNL A   1      46.917  27.854  30.569  1.00  0.00     0.031 C 
ATOM     63  C   UNL A   1      43.470  23.314  30.645  1.00  0.00     0.029 A 
ATOM     64  C   UNL A   1      44.605  24.127  30.657  1.00  0.00     0.049 A 
ATOM     65  H   UNL A   1      45.893  24.356  29.011  1.00  0.00     0.167 HD
ATOM     66  C   UNL A   1      46.099  25.918  31.552  1.00  0.00     0.074 A 
ATOM     67  C   UNL A   1      46.601  26.575  30.346  1.00  0.00     0.031 C 
ATOM     68  C   UNL A   1      45.265  24.849  31.724  1.00  0.00     0.034 A 
BRANCH  55  69
ATOM     69  C   UNL A   1      44.753  24.980  26.346  1.00  0.00     0.023 A 
ATOM     70  C   UNL A   1      44.941  23.832  25.549  1.00  0.00     0.012 A 
ATOM     71  C   UNL A   1      45.726  26.003  26.227  1.00  0.00     0.148 A 
ATOM     72  C   UNL A   1      46.064  23.685  24.728  1.00  0.00     0.002 A 
ATOM     73  C   UNL A   1      46.792  25.892  25.345  1.00  0.00     0.091 A 
ATOM     74  F   UNL A   1      45.729  27.042  27.062  1.00  0.00    -0.205 F 
ATOM     75  C   UNL A   1      46.986  24.719  24.619  1.00  0.00     0.022 A 
BRANCH  73  76
ATOM     76  S   UNL A   1      47.978  27.228  25.137  1.00  0.00     0.127 S 
ATOM     77  O   UNL A   1      47.184  28.211  24.408  1.00  0.00    -0.237 OA
ATOM     78  O   UNL A   1      48.280  27.576  26.525  1.00  0.00    -0.237 OA
ATOM     79  O   UNL A   1      49.102  26.647  24.413  1.00  0.00    -0.744 OA
ENDBRANCH  73  76
ENDBRANCH  55  69
BRANCH  56  80
ATOM     80  C   UNL A   1      46.822  30.452  32.625  1.00  0.00     0.023 A 
ATOM     81  C   UNL A   1      47.704  30.492  33.724  1.00  0.00     0.012 A 
ATOM     82  C   UNL A   1      46.991  31.415  31.604  1.00  0.00     0.148 A 
ATOM     83  C   UNL A   1      48.735  31.436  33.791  1.00  0.00     0.002 A 
ATOM     84  C   UNL A   1      48.010  32.359  31.679  1.00  0.00     0.091 A 
ATOM     85  F   UNL A   1      46.216  31.345  30.515  1.00  0.00    -0.205 F 
ATOM     86  C   UNL A   1      48.893  32.365  32.766  1.00  0.00     0.022 A 
BRANCH  84  87
ATOM     87  S   UNL A   1      48.289  33.572  30.380  1.00  0.00     0.127 S 
ATOM     88  O   UNL A   1      49.344  34.402  30.963  1.00  0.00    -0.237 OA
ATOM     89  O   UNL A   1      48.717  32.729  29.268  1.00  0.00    -0.237 OA
ATOM     90  O   UNL A   1      47.017  34.260  30.200  1.00  0.00    -0.744 OA
ENDBRANCH  84  87
ENDBRANCH  56  80
BRANCH  68  91
ATOM     91  C   UNL A   1      44.790  24.543  33.124  1.00  0.00     0.023 A 
ATOM     92  C   UNL A   1      45.436  23.608  33.959  1.00  0.00     0.012 A 
ATOM     93  C   UNL A   1      43.778  25.351  33.668  1.00  0.00     0.148 A 
ATOM     94  C   UNL A   1      45.067  23.468  35.300  1.00  0.00     0.002 A 
ATOM     95  C   UNL A   1      43.447  25.244  35.013  1.00  0.00     0.091 A 
ATOM     96  F   UNL A   1      43.175  26.238  32.863  1.00  0.00    -0.205 F 
ATOM     97  C   UNL A   1      44.083  24.296  35.831  1.00  0.00     0.022 A 
BRANCH  95  98
ATOM     98  S   UNL A   1      42.286  26.374  35.781  1.00  0.00     0.127 S 
ATOM     99  O   UNL A   1      41.030  26.011  35.128  1.00  0.00    -0.237 OA
ATOM    100  O   UNL A   1      42.373  26.002  37.194  1.00  0.00    -0.237 OA
ATOM    101  O   UNL A   1      42.781  27.714  35.491  1.00  0.00    -0.744 OA
ENDBRANCH  95  98
ENDBRANCH  68  91
ENDBRANCH  42  43
ENDBRANCH  35  37
ENDBRANCH  34  35
ENDBRANCH  33  34
ENDBRANCH  32  33
ENDBRANCH  31  32
ENDBRANCH  30  31
ENDBRANCH  29  30
ENDBRANCH  28  29
ENDBRANCH   1  28
TORSDOF 27
ENDMDL
MODEL 2
REMARK VINA RESULT:      -9.0      1.859      2.146
REMARK SMILES CC(C)[C@H](C)CNC(=O)N1CC(n2cc(C(=O)OCCOCCOCCOCCOC(=O)c3ccc(-c4c5nc(c(-c6cccc(S(=O)(=O)[O-])c6F)c6ccc([nH]6)c(-c6cccc(S(=O)(=O)[O-])c6F)c6nc(c(-c7cccc(S(=O)(=O)[O-])c7F)c7ccc4[nH]7)C=C6)C=C5)cc3)nn2)C1
REMARK SMILES IDX 23 1 22 2 21 3 20 4 19 5 18 6 16 7 17 8 15 9 13 10 14 11
REMARK SMILES IDX 97 12 96 13 12 14 7 15 8 16 9 18 10 19 11 20 98 21 6 22 4 23
REMARK SMILES IDX 5 24 2 25 1 26 3 27 24 28 25 29 26 30 27 31 28 32 29 33
REMARK SMILES IDX 30 34 31 35 32 36 33 37 34 38 95 39 35 40 94 41 36 42 37 43
REMARK SMILES IDX 38 44 88 45 39 46 93 47 87 48 89 49 40 50 92 51 86 52 85 53
REMARK SMILES IDX 41 55 73 56 53 57 72 58 54 59 57 60 71 61 90 62 55 63 56 64
REMARK SMILES IDX 70 66 91 67 58 68 42 69 43 70 51 71 44 72 46 73 52 74 45 75
REMARK SMILES IDX 47 76 48 77 49 78 50 79 74 80 75 81 83 82 76 83 78 84 84 85
REMARK SMILES IDX 77 86 79 87 80 88 81 89 82 90 59 91 60 92 68 93 61 94 63 95
REMARK SMILES IDX 69 96 62 97 64 98 65 99 66 100 67 101
REMARK H PARENT 7 17 89 54 57 65
REMARK Flexibility Score: inf
ROOT
ATOM      1  C   UNL A   1      33.407  35.187  28.917  1.00  0.00     0.188 C 
ENDROOT
BRANCH   1   2
ATOM      2  C   UNL A   1      33.334  33.866  28.117  1.00  0.00     0.188 C 
BRANCH   2   3
ATOM      3  O   UNL A   1      34.478  33.264  27.512  1.00  0.00    -0.376 OA
BRANCH   3   4
ATOM      4  C   UNL A   1      34.816  31.902  27.706  1.00  0.00     0.202 C 
BRANCH   4   5
ATOM      5  C   UNL A   1      33.746  30.803  27.665  1.00  0.00     0.261 C 
BRANCH   5   6
ATOM      6  O   UNL A   1      33.360  30.364  26.363  1.00  0.00    -0.458 OA
BRANCH   6   7
ATOM      7  C   UNL A   1      32.030  30.479  26.091  1.00  0.00     0.360 C 
ATOM      8  O   UNL A   1      31.359  31.478  26.320  1.00  0.00    -0.244 OA
BRANCH   7   9
ATOM      9  C   UNL A   1      31.510  29.306  25.407  1.00  0.00     0.190 A 
ATOM     10  N   UNL A   1      30.909  27.326  24.768  1.00  0.00    -0.245 N 
ATOM     11  C   UNL A   1      31.567  27.975  25.777  1.00  0.00     0.147 A 
ATOM     12  N   UNL A   1      30.540  28.181  23.802  1.00  0.00    -0.066 NA
ATOM     13  N   UNL A   1      30.897  29.397  24.181  1.00  0.00    -0.123 NA
BRANCH  10  14
ATOM     14  C   UNL A   1      30.452  25.973  24.858  1.00  0.00     0.148 C 
ATOM     15  N   UNL A   1      31.942  22.431  26.653  1.00  0.00    -0.338 N 
ATOM     16  C   UNL A   1      30.849  23.232  26.718  1.00  0.00     0.317 C 
ATOM     17  H   UNL A   1      31.755  21.467  26.730  1.00  0.00     0.165 HD
ATOM     18  O   UNL A   1      29.831  22.789  27.248  1.00  0.00    -0.249 OA
ATOM     19  N   UNL A   1      30.913  24.480  26.200  1.00  0.00    -0.320 N 
ATOM     20  C   UNL A   1      29.902  25.529  26.220  1.00  0.00     0.150 C 
ATOM     21  C   UNL A   1      31.663  25.058  25.108  1.00  0.00     0.150 C 
BRANCH  15  22
ATOM     22  C   UNL A   1      33.344  22.774  26.490  1.00  0.00     0.121 C 
BRANCH  22  23
ATOM     23  C   UNL A   1      34.056  21.897  25.433  1.00  0.00     0.008 C 
ATOM     24  C   UNL A   1      33.020  21.285  24.479  1.00  0.00     0.010 C 
BRANCH  23  25
ATOM     25  C   UNL A   1      35.243  22.634  24.713  1.00  0.00    -0.013 C 
ATOM     26  C   UNL A   1      34.905  23.161  23.313  1.00  0.00     0.008 C 
ATOM     27  C   UNL A   1      35.895  23.767  25.517  1.00  0.00     0.008 C 
ENDBRANCH  23  25
ENDBRANCH  22  23
ENDBRANCH  15  22
ENDBRANCH  10  14
ENDBRANCH   7   9
ENDBRANCH   6   7
ENDBRANCH   5   6
ENDBRANCH   4   5
ENDBRANCH   3   4
ENDBRANCH   2   3
ENDBRANCH   1   2
BRANCH   1  28
ATOM     28  O   UNL A   1      32.650  35.190  30.116  1.00  0.00    -0.377 OA
BRANCH  28  29
ATOM     29  C   UNL A   1      33.323  35.729  31.255  1.00  0.00     0.188 C 
BRANCH  29  30
ATOM     30  C   UNL A   1      34.297  34.794  32.022  1.00  0.00     0.188 C 
BRANCH  30  31
ATOM     31  O   UNL A   1      33.956  33.413  31.951  1.00  0.00    -0.376 OA
BRANCH  31  32
ATOM     32  C   UNL A   1      34.643  32.519  31.089  1.00  0.00     0.202 C 
BRANCH  32  33
ATOM     33  C   UNL A   1      35.742  31.659  31.700  1.00  0.00     0.261 C 
BRANCH  33  34
ATOM     34  O   UNL A   1      36.188  30.640  30.832  1.00  0.00    -0.460 OA
BRANCH  34  35
ATOM     35  C   UNL A   1      36.899  29.658  31.405  1.00  0.00     0.338 C 
ATOM     36  O   UNL A   1      36.793  29.236  32.554  1.00  0.00    -0.246 OA
BRANCH  35  37
ATOM     37  C   UNL A   1      37.916  29.234  30.446  1.00  0.00     0.060 A 
ATOM     38  C   UNL A   1      38.256  27.882  30.486  1.00  0.00     0.016 A 
ATOM     39  C   UNL A   1      38.776  30.226  29.954  1.00  0.00     0.016 A 
ATOM     40  C   UNL A   1      39.585  27.574  30.372  1.00  0.00     0.010 A 
ATOM     41  C   UNL A   1      40.103  29.929  29.899  1.00  0.00     0.010 A 
ATOM     42  C   UNL A   1      40.485  28.630  30.216  1.00  0.00    -0.014 A 
BRANCH  42  43
ATOM     43  C   UNL A   1      41.888  28.351  30.345  1.00  0.00     0.031 A 
ATOM     44  C   UNL A   1      42.374  27.535  29.223  1.00  0.00     0.074 A 
ATOM     45  C   UNL A   1      42.625  28.902  31.325  1.00  0.00     0.049 A 
ATOM     46  N   UNL A   1      42.636  26.272  29.232  1.00  0.00    -0.248 NA
ATOM     47  C   UNL A   1      42.296  28.130  27.877  1.00  0.00     0.031 C 
ATOM     48  C   UNL A   1      42.244  29.969  32.257  1.00  0.00     0.029 A 
ATOM     49  N   UNL A   1      43.941  28.720  31.586  1.00  0.00    -0.354 N 
ATOM     50  C   UNL A   1      43.027  25.998  27.927  1.00  0.00     0.074 A 
ATOM     51  C   UNL A   1      42.492  27.055  27.116  1.00  0.00     0.031 C 
ATOM     52  C   UNL A   1      43.369  30.507  32.786  1.00  0.00     0.029 A 
ATOM     53  C   UNL A   1      44.517  29.748  32.320  1.00  0.00     0.049 A 
ATOM     54  H   UNL A   1      44.444  27.930  31.282  1.00  0.00     0.167 HD
ATOM     55  C   UNL A   1      44.059  25.152  27.675  1.00  0.00     0.034 A 
ATOM     56  C   UNL A   1      45.847  29.998  32.417  1.00  0.00     0.034 A 
ATOM     57  C   UNL A   1      44.366  24.348  28.833  1.00  0.00     0.049 A 
ATOM     58  C   UNL A   1      46.558  28.766  31.987  1.00  0.00     0.074 A 
ATOM     59  C   UNL A   1      43.654  23.470  29.627  1.00  0.00     0.029 A 
ATOM     60  N   UNL A   1      45.469  24.719  29.565  1.00  0.00    -0.354 N 
ATOM     61  N   UNL A   1      46.521  27.644  32.650  1.00  0.00    -0.248 NA
ATOM     62  C   UNL A   1      46.932  28.650  30.586  1.00  0.00     0.031 C 
ATOM     63  C   UNL A   1      44.129  23.699  30.951  1.00  0.00     0.029 A 
ATOM     64  C   UNL A   1      45.145  24.656  30.893  1.00  0.00     0.049 A 
ATOM     65  H   UNL A   1      46.343  24.985  29.197  1.00  0.00     0.167 HD
ATOM     66  C   UNL A   1      46.410  26.665  31.669  1.00  0.00     0.074 A 
ATOM     67  C   UNL A   1      46.785  27.332  30.423  1.00  0.00     0.031 C 
ATOM     68  C   UNL A   1      45.733  25.503  31.909  1.00  0.00     0.034 A 
BRANCH  55  69
ATOM     69  C   UNL A   1      45.054  25.339  26.551  1.00  0.00     0.023 A 
ATOM     70  C   UNL A   1      45.419  24.182  25.832  1.00  0.00     0.012 A 
ATOM     71  C   UNL A   1      45.835  26.500  26.327  1.00  0.00     0.148 A 
ATOM     72  C   UNL A   1      46.534  24.166  24.988  1.00  0.00     0.002 A 
ATOM     73  C   UNL A   1      46.886  26.504  25.421  1.00  0.00     0.091 A 
ATOM     74  F   UNL A   1      45.677  27.586  27.085  1.00  0.00    -0.205 F 
ATOM     75  C   UNL A   1      47.263  25.329  24.774  1.00  0.00     0.022 A 
BRANCH  73  76
ATOM     76  S   UNL A   1      47.821  28.002  25.078  1.00  0.00     0.127 S 
ATOM     77  O   UNL A   1      48.727  27.546  24.029  1.00  0.00    -0.237 OA
ATOM     78  O   UNL A   1      46.767  28.916  24.639  1.00  0.00    -0.237 OA
ATOM     79  O   UNL A   1      48.441  28.376  26.344  1.00  0.00    -0.744 OA
ENDBRANCH  73  76
ENDBRANCH  55  69
BRANCH  56  80
ATOM     80  C   UNL A   1      46.549  31.296  32.545  1.00  0.00     0.023 A 
ATOM     81  C   UNL A   1      46.964  31.979  31.383  1.00  0.00     0.012 A 
ATOM     82  C   UNL A   1      46.567  32.000  33.770  1.00  0.00     0.148 A 
ATOM     83  C   UNL A   1      47.354  33.322  31.434  1.00  0.00     0.002 A 
ATOM     84  C   UNL A   1      46.967  33.332  33.819  1.00  0.00     0.091 A 
ATOM     85  F   UNL A   1      46.103  31.394  34.870  1.00  0.00    -0.205 F 
ATOM     86  C   UNL A   1      47.349  34.001  32.650  1.00  0.00     0.022 A 
BRANCH  84  87
ATOM     87  S   UNL A   1      46.960  34.277  35.349  1.00  0.00     0.127 S 
ATOM     88  O   UNL A   1      48.089  35.187  35.147  1.00  0.00    -0.237 OA
ATOM     89  O   UNL A   1      45.646  34.910  35.306  1.00  0.00    -0.237 OA
ATOM     90  O   UNL A   1      47.160  33.305  36.417  1.00  0.00    -0.744 OA
ENDBRANCH  84  87
ENDBRANCH  56  80
BRANCH  68  91
ATOM     91  C   UNL A   1      45.343  25.196  33.335  1.00  0.00     0.023 A 
ATOM     92  C   UNL A   1      44.075  25.518  33.863  1.00  0.00     0.012 A 
ATOM     93  C   UNL A   1      46.214  24.402  34.100  1.00  0.00     0.148 A 
ATOM     94  C   UNL A   1      43.694  25.076  35.134  1.00  0.00     0.002 A 
ATOM     95  C   UNL A   1      45.813  23.925  35.341  1.00  0.00     0.091 A 
ATOM     96  F   UNL A   1      47.415  24.102  33.583  1.00  0.00    -0.205 F 
ATOM     97  C   UNL A   1      44.557  24.267  35.867  1.00  0.00     0.022 A 
BRANCH  95  98
ATOM     98  S   UNL A   1      46.826  22.770  36.268  1.00  0.00     0.127 S 
ATOM     99  O   UNL A   1      47.113  21.745  35.267  1.00  0.00    -0.237 OA
ATOM    100  O   UNL A   1      47.974  23.594  36.649  1.00  0.00    -0.237 OA
ATOM    101  O   UNL A   1      46.009  22.337  37.395  1.00  0.00    -0.744 OA
ENDBRANCH  95  98
ENDBRANCH  68  91
ENDBRANCH  42  43
ENDBRANCH  35  37
ENDBRANCH  34  35
ENDBRANCH  33  34
ENDBRANCH  32  33
ENDBRANCH  31  32
ENDBRANCH  30  31
ENDBRANCH  29  30
ENDBRANCH  28  29
ENDBRANCH   1  28
TORSDOF 27
ENDMDL
MODEL 3
REMARK VINA RESULT:      -8.3      3.842      6.988
REMARK SMILES CC(C)[C@H](C)CNC(=O)N1CC(n2cc(C(=O)OCCOCCOCCOCCOC(=O)c3ccc(-c4c5nc(c(-c6cccc(S(=O)(=O)[O-])c6F)c6ccc([nH]6)c(-c6cccc(S(=O)(=O)[O-])c6F)c6nc(c(-c7cccc(S(=O)(=O)[O-])c7F)c7ccc4[nH]7)C=C6)C=C5)cc3)nn2)C1
REMARK SMILES IDX 23 1 22 2 21 3 20 4 19 5 18 6 16 7 17 8 15 9 13 10 14 11
REMARK SMILES IDX 97 12 96 13 12 14 7 15 8 16 9 18 10 19 11 20 98 21 6 22 4 23
REMARK SMILES IDX 5 24 2 25 1 26 3 27 24 28 25 29 26 30 27 31 28 32 29 33
REMARK SMILES IDX 30 34 31 35 32 36 33 37 34 38 95 39 35 40 94 41 36 42 37 43
REMARK SMILES IDX 38 44 88 45 39 46 93 47 87 48 89 49 40 50 92 51 86 52 85 53
REMARK SMILES IDX 41 55 73 56 53 57 72 58 54 59 57 60 71 61 90 62 55 63 56 64
REMARK SMILES IDX 70 66 91 67 58 68 42 69 43 70 51 71 44 72 46 73 52 74 45 75
REMARK SMILES IDX 47 76 48 77 49 78 50 79 74 80 75 81 83 82 76 83 78 84 84 85
REMARK SMILES IDX 77 86 79 87 80 88 81 89 82 90 59 91 60 92 68 93 61 94 63 95
REMARK SMILES IDX 69 96 62 97 64 98 65 99 66 100 67 101
REMARK H PARENT 7 17 89 54 57 65
REMARK Flexibility Score: inf
ROOT
ATOM      1  C   UNL A   1      37.757  34.502  33.265  1.00  0.00     0.188 C 
ENDROOT
BRANCH   1   2
ATOM      2  C   UNL A   1      36.241  34.267  33.067  1.00  0.00     0.188 C 
BRANCH   2   3
ATOM      3  O   UNL A   1      35.659  32.965  33.023  1.00  0.00    -0.376 OA
BRANCH   3   4
ATOM      4  C   UNL A   1      35.454  32.260  31.812  1.00  0.00     0.202 C 
BRANCH   4   5
ATOM      5  C   UNL A   1      35.471  32.983  30.459  1.00  0.00     0.261 C 
BRANCH   5   6
ATOM      6  O   UNL A   1      36.093  32.275  29.386  1.00  0.00    -0.458 OA
BRANCH   6   7
ATOM      7  C   UNL A   1      35.493  32.431  28.173  1.00  0.00     0.360 C 
ATOM      8  O   UNL A   1      35.591  33.434  27.475  1.00  0.00    -0.244 OA
BRANCH   7   9
ATOM      9  C   UNL A   1      34.793  31.229  27.752  1.00  0.00     0.190 A 
ATOM     10  N   UNL A   1      33.358  29.705  27.194  1.00  0.00    -0.245 N 
ATOM     11  C   UNL A   1      33.434  30.995  27.644  1.00  0.00     0.147 A 
ATOM     12  N   UNL A   1      34.577  29.151  27.105  1.00  0.00    -0.066 NA
ATOM     13  N   UNL A   1      35.465  30.073  27.439  1.00  0.00    -0.123 NA
BRANCH  10  14
ATOM     14  C   UNL A   1      32.172  29.122  26.648  1.00  0.00     0.148 C 
ATOM     15  N   UNL A   1      31.309  25.572  24.493  1.00  0.00    -0.338 N 
ATOM     16  C   UNL A   1      30.964  26.173  25.659  1.00  0.00     0.317 C 
ATOM     17  H   UNL A   1      30.573  25.109  24.031  1.00  0.00     0.165 HD
ATOM     18  O   UNL A   1      29.951  25.784  26.238  1.00  0.00    -0.249 OA
ATOM     19  N   UNL A   1      31.737  27.173  26.141  1.00  0.00    -0.320 N 
ATOM     20  C   UNL A   1      31.605  27.905  27.394  1.00  0.00     0.150 C 
ATOM     21  C   UNL A   1      32.569  28.170  25.506  1.00  0.00     0.150 C 
BRANCH  15  22
ATOM     22  C   UNL A   1      32.595  25.504  23.821  1.00  0.00     0.121 C 
BRANCH  22  23
ATOM     23  C   UNL A   1      33.205  24.083  23.835  1.00  0.00     0.008 C 
ATOM     24  C   UNL A   1      32.733  23.300  22.601  1.00  0.00     0.010 C 
BRANCH  23  25
ATOM     25  C   UNL A   1      34.762  24.078  24.050  1.00  0.00    -0.013 C 
ATOM     26  C   UNL A   1      35.206  24.457  25.468  1.00  0.00     0.008 C 
ATOM     27  C   UNL A   1      35.475  22.781  23.644  1.00  0.00     0.008 C 
ENDBRANCH  23  25
ENDBRANCH  22  23
ENDBRANCH  15  22
ENDBRANCH  10  14
ENDBRANCH   7   9
ENDBRANCH   6   7
ENDBRANCH   5   6
ENDBRANCH   4   5
ENDBRANCH   3   4
ENDBRANCH   2   3
ENDBRANCH   1   2
BRANCH   1  28
ATOM     28  O   UNL A   1      38.521  33.316  33.411  1.00  0.00    -0.377 OA
BRANCH  28  29
ATOM     29  C   UNL A   1      39.066  32.795  32.198  1.00  0.00     0.188 C 
BRANCH  29  30
ATOM     30  C   UNL A   1      39.462  33.812  31.094  1.00  0.00     0.188 C 
BRANCH  30  31
ATOM     31  O   UNL A   1      40.773  34.348  31.237  1.00  0.00    -0.376 OA
BRANCH  31  32
ATOM     32  C   UNL A   1      41.877  33.817  30.521  1.00  0.00     0.202 C 
BRANCH  32  33
ATOM     33  C   UNL A   1      42.291  34.530  29.238  1.00  0.00     0.261 C 
BRANCH  33  34
ATOM     34  O   UNL A   1      43.262  33.818  28.504  1.00  0.00    -0.460 OA
BRANCH  34  35
ATOM     35  C   UNL A   1      43.952  34.535  27.605  1.00  0.00     0.338 C 
ATOM     36  O   UNL A   1      43.599  35.575  27.055  1.00  0.00    -0.246 OA
BRANCH  35  37
ATOM     37  C   UNL A   1      45.178  33.801  27.303  1.00  0.00     0.060 A 
ATOM     38  C   UNL A   1      45.104  32.920  26.224  1.00  0.00     0.016 A 
ATOM     39  C   UNL A   1      46.105  33.659  28.346  1.00  0.00     0.016 A 
ATOM     40  C   UNL A   1      45.710  31.702  26.377  1.00  0.00     0.010 A 
ATOM     41  C   UNL A   1      46.658  32.428  28.525  1.00  0.00     0.010 A 
ATOM     42  C   UNL A   1      46.357  31.445  27.588  1.00  0.00    -0.014 A 
BRANCH  42  43
ATOM     43  C   UNL A   1      46.777  30.100  27.861  1.00  0.00     0.031 A 
ATOM     44  C   UNL A   1      48.166  29.878  27.432  1.00  0.00     0.074 A 
ATOM     45  C   UNL A   1      45.992  29.245  28.539  1.00  0.00     0.049 A 
ATOM     46  N   UNL A   1      48.566  29.253  26.377  1.00  0.00    -0.248 NA
ATOM     47  C   UNL A   1      49.210  30.673  28.100  1.00  0.00     0.031 C 
ATOM     48  C   UNL A   1      44.747  29.531  29.260  1.00  0.00     0.029 A 
ATOM     49  N   UNL A   1      46.239  27.951  28.852  1.00  0.00    -0.354 N 
ATOM     50  C   UNL A   1      49.951  29.356  26.428  1.00  0.00     0.074 A 
ATOM     51  C   UNL A   1      50.241  30.474  27.280  1.00  0.00     0.031 C 
ATOM     52  C   UNL A   1      44.504  28.520  30.127  1.00  0.00     0.029 A 
ATOM     53  C   UNL A   1      45.501  27.482  29.931  1.00  0.00     0.049 A 
ATOM     54  H   UNL A   1      46.883  27.392  28.359  1.00  0.00     0.167 HD
ATOM     55  C   UNL A   1      50.738  28.305  26.083  1.00  0.00     0.034 A 
ATOM     56  C   UNL A   1      45.792  26.378  30.664  1.00  0.00     0.034 A 
ATOM     57  C   UNL A   1      49.993  27.321  25.333  1.00  0.00     0.049 A 
ATOM     58  C   UNL A   1      46.732  25.553  29.862  1.00  0.00     0.074 A 
ATOM     59  C   UNL A   1      49.260  27.339  24.163  1.00  0.00     0.029 A 
ATOM     60  N   UNL A   1      49.601  26.195  26.016  1.00  0.00    -0.354 N 
ATOM     61  N   UNL A   1      46.404  24.966  28.745  1.00  0.00    -0.248 NA
ATOM     62  C   UNL A   1      48.159  25.759  30.062  1.00  0.00     0.031 C 
ATOM     63  C   UNL A   1      48.157  26.469  24.405  1.00  0.00     0.029 A 
ATOM     64  C   UNL A   1      48.304  25.919  25.680  1.00  0.00     0.049 A 
ATOM     65  H   UNL A   1      50.158  25.676  26.640  1.00  0.00     0.167 HD
ATOM     66  C   UNL A   1      47.507  25.149  27.919  1.00  0.00     0.074 A 
ATOM     67  C   UNL A   1      48.594  25.538  28.818  1.00  0.00     0.031 C 
ATOM     68  C   UNL A   1      47.360  25.270  26.566  1.00  0.00     0.034 A 
BRANCH  55  69
ATOM     69  C   UNL A   1      52.043  27.960  26.768  1.00  0.00     0.023 A 
ATOM     70  C   UNL A   1      53.157  27.743  25.932  1.00  0.00     0.012 A 
ATOM     71  C   UNL A   1      52.184  27.587  28.128  1.00  0.00     0.148 A 
ATOM     72  C   UNL A   1      54.322  27.132  26.409  1.00  0.00     0.002 A 
ATOM     73  C   UNL A   1      53.373  27.063  28.616  1.00  0.00     0.091 A 
ATOM     74  F   UNL A   1      51.135  27.591  28.950  1.00  0.00    -0.205 F 
ATOM     75  C   UNL A   1      54.435  26.800  27.753  1.00  0.00     0.022 A 
BRANCH  73  76
ATOM     76  S   UNL A   1      53.576  26.669  30.359  1.00  0.00     0.127 S 
ATOM     77  O   UNL A   1      52.438  25.786  30.593  1.00  0.00    -0.237 OA
ATOM     78  O   UNL A   1      54.885  26.015  30.365  1.00  0.00    -0.237 OA
ATOM     79  O   UNL A   1      53.549  27.948  31.058  1.00  0.00    -0.744 OA
ENDBRANCH  73  76
ENDBRANCH  55  69
BRANCH  56  80
ATOM     80  C   UNL A   1      45.579  26.130  32.109  1.00  0.00     0.023 A 
ATOM     81  C   UNL A   1      45.861  27.152  33.038  1.00  0.00     0.012 A 
ATOM     82  C   UNL A   1      44.843  25.010  32.558  1.00  0.00     0.148 A 
ATOM     83  C   UNL A   1      45.403  27.076  34.358  1.00  0.00     0.002 A 
ATOM     84  C   UNL A   1      44.399  24.932  33.874  1.00  0.00     0.091 A 
ATOM     85  F   UNL A   1      44.497  24.067  31.672  1.00  0.00    -0.205 F 
ATOM     86  C   UNL A   1      44.666  25.970  34.775  1.00  0.00     0.022 A 
BRANCH  84  87
ATOM     87  S   UNL A   1      43.421  23.547  34.473  1.00  0.00     0.127 S 
ATOM     88  O   UNL A   1      44.335  22.925  35.432  1.00  0.00    -0.237 OA
ATOM     89  O   UNL A   1      42.274  24.224  35.070  1.00  0.00    -0.237 OA
ATOM     90  O   UNL A   1      43.134  22.728  33.302  1.00  0.00    -0.744 OA
ENDBRANCH  84  87
ENDBRANCH  56  80
BRANCH  68  91
ATOM     91  C   UNL A   1      46.014  24.935  25.971  1.00  0.00     0.023 A 
ATOM     92  C   UNL A   1      45.627  23.614  25.663  1.00  0.00     0.012 A 
ATOM     93  C   UNL A   1      45.055  25.958  25.890  1.00  0.00     0.148 A 
ATOM     94  C   UNL A   1      44.319  23.324  25.264  1.00  0.00     0.002 A 
ATOM     95  C   UNL A   1      43.745  25.659  25.540  1.00  0.00     0.091 A 
ATOM     96  F   UNL A   1      45.437  27.208  26.188  1.00  0.00    -0.205 F 
ATOM     97  C   UNL A   1      43.374  24.345  25.217  1.00  0.00     0.022 A 
BRANCH  95  98
ATOM     98  S   UNL A   1      42.457  26.907  25.595  1.00  0.00     0.127 S 
ATOM     99  O   UNL A   1      42.630  27.465  26.934  1.00  0.00    -0.237 OA
ATOM    100  O   UNL A   1      42.840  27.803  24.503  1.00  0.00    -0.237 OA
ATOM    101  O   UNL A   1      41.204  26.198  25.366  1.00  0.00    -0.744 OA
ENDBRANCH  95  98
ENDBRANCH  68  91
ENDBRANCH  42  43
ENDBRANCH  35  37
ENDBRANCH  34  35
ENDBRANCH  33  34
ENDBRANCH  32  33
ENDBRANCH  31  32
ENDBRANCH  30  31
ENDBRANCH  29  30
ENDBRANCH  28  29
ENDBRANCH   1  28
TORSDOF 27
ENDMDL
