MODEL 1
REMARK VINA RESULT:      -9.4      0.000      0.000
REMARK SMILES O=C(OCCOCCOCCOCCOC(=O)[C@@H]1CN(c2ncccn2)CCN1C(=O)C1CCOCC1)c1ccc(-c2c3nc(c(-c4cccc(S(=O)(=O)[O-])c4F)c4ccc([nH]4)c(-c4cccc(S(=O)(=O)[O-])c4F)c4nc(c(-c5cccc(S(=O)(=O)[O-])c5F)c5ccc2[nH]5)C=C4)C=C3)cc1
REMARK SMILES IDX 8 1 7 2 6 3 5 4 4 5 3 6 2 7 1 8 38 9 39 10 100 11 40 12
REMARK SMILES IDX 99 13 41 14 42 15 43 16 93 17 44 18 98 19 92 20 94 21 45 22
REMARK SMILES IDX 97 23 91 24 90 25 46 27 78 28 58 29 77 30 59 31 62 32 76 33
REMARK SMILES IDX 95 34 60 35 61 36 75 38 96 39 63 40 47 41 48 42 56 43 49 44
REMARK SMILES IDX 51 45 57 46 50 47 52 48 53 49 54 50 55 51 79 52 80 53 88 54
REMARK SMILES IDX 81 55 83 56 89 57 82 58 84 59 85 60 86 61 87 62 64 63 65 64
REMARK SMILES IDX 73 65 66 66 68 67 74 68 67 69 69 70 70 71 71 72 72 73 9 74
REMARK SMILES IDX 10 75 11 76 12 77 13 78 14 79 15 80 16 81 17 82 18 83 19 84
REMARK SMILES IDX 29 85 20 86 28 87 27 88 30 89 31 90 32 91 33 92 37 93 34 94
REMARK SMILES IDX 36 95 35 96 21 97 22 98 26 99 23 100 25 101 24 102
REMARK H PARENT 94 26 62 37
REMARK Flexibility Score: inf
ROOT
ATOM      1  C   UNL A   1      43.591  18.492  25.466  1.00  0.00     0.188 C 
ENDROOT
BRANCH   1   2
ATOM      2  C   UNL A   1      45.091  18.780  25.619  1.00  0.00     0.188 C 
BRANCH   2   3
ATOM      3  O   UNL A   1      45.632  19.416  24.464  1.00  0.00    -0.376 OA
BRANCH   3   4
ATOM      4  C   UNL A   1      45.943  20.806  24.478  1.00  0.00     0.202 C 
BRANCH   4   5
ATOM      5  C   UNL A   1      45.655  21.554  25.764  1.00  0.00     0.261 C 
BRANCH   5   6
ATOM      6  O   UNL A   1      44.312  22.013  25.978  1.00  0.00    -0.460 OA
BRANCH   6   7
ATOM      7  C   UNL A   1      43.728  23.228  25.938  1.00  0.00     0.338 C 
ATOM      8  O   UNL A   1      42.503  23.271  25.823  1.00  0.00    -0.246 OA
BRANCH   7   9
ATOM      9  C   UNL A   1      44.447  24.517  26.118  1.00  0.00     0.060 A 
ATOM     10  C   UNL A   1      44.934  25.335  25.104  1.00  0.00     0.016 A 
ATOM     11  C   UNL A   1      44.552  24.981  27.437  1.00  0.00     0.016 A 
ATOM     12  C   UNL A   1      45.615  26.504  25.364  1.00  0.00     0.010 A 
ATOM     13  C   UNL A   1      45.199  26.182  27.719  1.00  0.00     0.010 A 
ATOM     14  C   UNL A   1      45.770  26.915  26.674  1.00  0.00    -0.014 A 
BRANCH  14  15
ATOM     15  C   UNL A   1      46.740  27.983  26.904  1.00  0.00     0.031 A 
ATOM     16  C   UNL A   1      46.204  29.375  26.927  1.00  0.00     0.074 A 
ATOM     17  C   UNL A   1      48.004  27.676  27.240  1.00  0.00     0.049 A 
ATOM     18  N   UNL A   1      46.847  30.503  26.968  1.00  0.00    -0.248 NA
ATOM     19  C   UNL A   1      44.733  29.518  26.913  1.00  0.00     0.031 C 
ATOM     20  C   UNL A   1      48.527  26.318  27.421  1.00  0.00     0.029 A 
ATOM     21  N   UNL A   1      49.073  28.484  27.495  1.00  0.00    -0.354 N 
ATOM     22  C   UNL A   1      45.869  31.485  26.882  1.00  0.00     0.074 A 
ATOM     23  C   UNL A   1      44.586  30.830  26.844  1.00  0.00     0.031 C 
ATOM     24  C   UNL A   1      49.831  26.389  27.732  1.00  0.00     0.029 A 
ATOM     25  C   UNL A   1      50.242  27.783  27.672  1.00  0.00     0.049 A 
ATOM     26  H   UNL A   1      49.013  29.465  27.547  1.00  0.00     0.167 HD
ATOM     27  C   UNL A   1      46.057  32.818  26.804  1.00  0.00     0.034 A 
ATOM     28  C   UNL A   1      51.507  28.238  27.690  1.00  0.00     0.034 A 
ATOM     29  C   UNL A   1      47.362  33.407  26.861  1.00  0.00     0.049 A 
ATOM     30  C   UNL A   1      51.696  29.722  27.524  1.00  0.00     0.074 A 
ATOM     31  C   UNL A   1      47.720  34.734  26.759  1.00  0.00     0.029 A 
ATOM     32  N   UNL A   1      48.534  32.676  27.027  1.00  0.00    -0.354 N 
ATOM     33  N   UNL A   1      50.782  30.661  27.419  1.00  0.00    -0.248 NA
ATOM     34  C   UNL A   1      53.076  30.213  27.476  1.00  0.00     0.031 C 
ATOM     35  C   UNL A   1      49.115  34.802  26.822  1.00  0.00     0.029 A 
ATOM     36  C   UNL A   1      49.622  33.521  27.008  1.00  0.00     0.049 A 
ATOM     37  H   UNL A   1      48.579  31.700  27.139  1.00  0.00     0.167 HD
ATOM     38  C   UNL A   1      51.473  31.858  27.312  1.00  0.00     0.074 A 
ATOM     39  C   UNL A   1      52.884  31.524  27.393  1.00  0.00     0.031 C 
ATOM     40  C   UNL A   1      51.001  33.119  27.145  1.00  0.00     0.034 A 
BRANCH  27  41
ATOM     41  C   UNL A   1      44.847  33.671  26.557  1.00  0.00     0.023 A 
ATOM     42  C   UNL A   1      44.296  33.787  25.265  1.00  0.00     0.012 A 
ATOM     43  C   UNL A   1      44.276  34.395  27.622  1.00  0.00     0.148 A 
ATOM     44  C   UNL A   1      43.215  34.640  25.031  1.00  0.00     0.002 A 
ATOM     45  C   UNL A   1      43.174  35.207  27.390  1.00  0.00     0.091 A 
ATOM     46  F   UNL A   1      44.843  34.302  28.832  1.00  0.00    -0.205 F 
ATOM     47  C   UNL A   1      42.650  35.342  26.094  1.00  0.00     0.022 A 
BRANCH  45  48
ATOM     48  S   UNL A   1      42.342  36.107  28.703  1.00  0.00     0.127 S 
ATOM     49  O   UNL A   1      43.445  36.369  29.626  1.00  0.00    -0.237 OA
ATOM     50  O   UNL A   1      41.847  37.286  27.993  1.00  0.00    -0.237 OA
ATOM     51  O   UNL A   1      41.307  35.218  29.212  1.00  0.00    -0.744 OA
ENDBRANCH  45  48
ENDBRANCH  27  41
BRANCH  28  52
ATOM     52  C   UNL A   1      52.654  27.292  27.798  1.00  0.00     0.023 A 
ATOM     53  C   UNL A   1      53.310  27.124  29.032  1.00  0.00     0.012 A 
ATOM     54  C   UNL A   1      53.093  26.545  26.684  1.00  0.00     0.148 A 
ATOM     55  C   UNL A   1      54.397  26.255  29.148  1.00  0.00     0.002 A 
ATOM     56  C   UNL A   1      54.140  25.640  26.820  1.00  0.00     0.091 A 
ATOM     57  F   UNL A   1      52.474  26.729  25.510  1.00  0.00    -0.205 F 
ATOM     58  C   UNL A   1      54.806  25.506  28.046  1.00  0.00     0.022 A 
BRANCH  56  59
ATOM     59  S   UNL A   1      54.648  24.550  25.484  1.00  0.00     0.127 S 
ATOM     60  O   UNL A   1      53.491  23.667  25.363  1.00  0.00    -0.237 OA
ATOM     61  O   UNL A   1      54.824  25.489  24.375  1.00  0.00    -0.237 OA
ATOM     62  O   UNL A   1      55.882  23.922  25.936  1.00  0.00    -0.744 OA
ENDBRANCH  56  59
ENDBRANCH  28  52
BRANCH  40  63
ATOM     63  C   UNL A   1      52.017  34.220  27.081  1.00  0.00     0.023 A 
ATOM     64  C   UNL A   1      52.492  34.803  28.270  1.00  0.00     0.012 A 
ATOM     65  C   UNL A   1      52.583  34.580  25.845  1.00  0.00     0.148 A 
ATOM     66  C   UNL A   1      53.509  35.753  28.226  1.00  0.00     0.002 A 
ATOM     67  C   UNL A   1      53.635  35.480  25.814  1.00  0.00     0.091 A 
ATOM     68  F   UNL A   1      52.094  34.016  24.731  1.00  0.00    -0.205 F 
ATOM     69  C   UNL A   1      54.091  36.077  27.001  1.00  0.00     0.022 A 
BRANCH  67  70
ATOM     70  S   UNL A   1      54.521  35.862  24.301  1.00  0.00     0.127 S 
ATOM     71  O   UNL A   1      55.270  37.055  24.689  1.00  0.00    -0.237 OA
ATOM     72  O   UNL A   1      55.336  34.661  24.112  1.00  0.00    -0.237 OA
ATOM     73  O   UNL A   1      53.504  36.070  23.278  1.00  0.00    -0.744 OA
ENDBRANCH  67  70
ENDBRANCH  40  63
ENDBRANCH  14  15
ENDBRANCH   7   9
ENDBRANCH   6   7
ENDBRANCH   5   6
ENDBRANCH   4   5
ENDBRANCH   3   4
ENDBRANCH   2   3
ENDBRANCH   1   2
BRANCH   1  74
ATOM     74  O   UNL A   1      42.734  19.200  26.361  1.00  0.00    -0.377 OA
BRANCH  74  75
ATOM     75  C   UNL A   1      41.502  19.602  25.785  1.00  0.00     0.188 C 
BRANCH  75  76
ATOM     76  C   UNL A   1      40.406  20.164  26.725  1.00  0.00     0.188 C 
BRANCH  76  77
ATOM     77  O   UNL A   1      40.234  21.568  26.633  1.00  0.00    -0.376 OA
BRANCH  77  78
ATOM     78  C   UNL A   1      38.995  22.069  26.129  1.00  0.00     0.202 C 
BRANCH  78  79
ATOM     79  C   UNL A   1      38.033  21.116  25.398  1.00  0.00     0.261 C 
BRANCH  79  80
ATOM     80  O   UNL A   1      37.135  21.829  24.521  1.00  0.00    -0.462 OA
BRANCH  80  81
ATOM     81  C   UNL A   1      36.273  22.781  24.966  1.00  0.00     0.330 C 
ATOM     82  O   UNL A   1      36.507  23.536  25.882  1.00  0.00    -0.250 OA
BRANCH  81  83
ATOM     83  C   UNL A   1      34.912  22.702  24.192  1.00  0.00     0.214 C 
ATOM     84  C   UNL A   1      34.187  24.068  24.287  1.00  0.00     0.157 C 
ATOM     85  N   UNL A   1      33.880  21.592  24.216  1.00  0.00    -0.325 N 
ATOM     86  N   UNL A   1      33.085  24.254  23.337  1.00  0.00    -0.336 N 
ATOM     87  C   UNL A   1      32.809  21.843  23.200  1.00  0.00     0.142 C 
ATOM     88  C   UNL A   1      32.083  23.200  23.390  1.00  0.00     0.141 C 
BRANCH  85  89
ATOM     89  C   UNL A   1      33.695  20.462  24.996  1.00  0.00     0.226 C 
ATOM     90  O   UNL A   1      33.900  20.551  26.221  1.00  0.00    -0.275 OA
BRANCH  89  91
ATOM     91  C   UNL A   1      33.318  19.050  24.529  1.00  0.00     0.083 C 
ATOM     92  C   UNL A   1      34.515  18.103  24.538  1.00  0.00     0.042 C 
ATOM     93  C   UNL A   1      32.317  18.949  23.382  1.00  0.00     0.042 C 
ATOM     94  C   UNL A   1      34.260  16.858  23.717  1.00  0.00     0.161 C 
ATOM     95  C   UNL A   1      32.504  17.768  22.435  1.00  0.00     0.161 C 
ATOM     96  O   UNL A   1      33.828  17.273  22.433  1.00  0.00    -0.381 OA
ENDBRANCH  89  91
ENDBRANCH  85  89
BRANCH  86  97
ATOM     97  C   UNL A   1      32.695  25.568  23.138  1.00  0.00     0.225 A 
ATOM     98  N   UNL A   1      31.430  25.948  23.386  1.00  0.00    -0.221 NA
ATOM     99  N   UNL A   1      33.623  26.428  22.679  1.00  0.00    -0.221 NA
ATOM    100  C   UNL A   1      31.115  27.247  23.172  1.00  0.00     0.117 A 
ATOM    101  C   UNL A   1      33.259  27.705  22.455  1.00  0.00     0.117 A 
ATOM    102  C   UNL A   1      31.997  28.180  22.690  1.00  0.00     0.040 A 
ENDBRANCH  86  97
ENDBRANCH  81  83
ENDBRANCH  80  81
ENDBRANCH  79  80
ENDBRANCH  78  79
ENDBRANCH  77  78
ENDBRANCH  76  77
ENDBRANCH  75  76
ENDBRANCH  74  75
ENDBRANCH   1  74
TORSDOF 26
ENDMDL
MODEL 2
REMARK VINA RESULT:      -9.3      6.335      7.964
REMARK SMILES O=C(OCCOCCOCCOCCOC(=O)[C@@H]1CN(c2ncccn2)CCN1C(=O)C1CCOCC1)c1ccc(-c2c3nc(c(-c4cccc(S(=O)(=O)[O-])c4F)c4ccc([nH]4)c(-c4cccc(S(=O)(=O)[O-])c4F)c4nc(c(-c5cccc(S(=O)(=O)[O-])c5F)c5ccc2[nH]5)C=C4)C=C3)cc1
REMARK SMILES IDX 8 1 7 2 6 3 5 4 4 5 3 6 2 7 1 8 38 9 39 10 100 11 40 12
REMARK SMILES IDX 99 13 41 14 42 15 43 16 93 17 44 18 98 19 92 20 94 21 45 22
REMARK SMILES IDX 97 23 91 24 90 25 46 27 78 28 58 29 77 30 59 31 62 32 76 33
REMARK SMILES IDX 95 34 60 35 61 36 75 38 96 39 63 40 47 41 48 42 56 43 49 44
REMARK SMILES IDX 51 45 57 46 50 47 52 48 53 49 54 50 55 51 79 52 80 53 88 54
REMARK SMILES IDX 81 55 83 56 89 57 82 58 84 59 85 60 86 61 87 62 64 63 65 64
REMARK SMILES IDX 73 65 66 66 68 67 74 68 67 69 69 70 70 71 71 72 72 73 9 74
REMARK SMILES IDX 10 75 11 76 12 77 13 78 14 79 15 80 16 81 17 82 18 83 19 84
REMARK SMILES IDX 29 85 20 86 28 87 27 88 30 89 31 90 32 91 33 92 37 93 34 94
REMARK SMILES IDX 36 95 35 96 21 97 22 98 26 99 23 100 25 101 24 102
REMARK H PARENT 94 26 62 37
REMARK Flexibility Score: inf
ROOT
ATOM      1  C   UNL A   1      43.801  18.423  25.406  1.00  0.00     0.188 C 
ENDROOT
BRANCH   1   2
ATOM      2  C   UNL A   1      45.318  18.571  25.600  1.00  0.00     0.188 C 
BRANCH   2   3
ATOM      3  O   UNL A   1      45.950  19.123  24.448  1.00  0.00    -0.376 OA
BRANCH   3   4
ATOM      4  C   UNL A   1      46.299  20.504  24.403  1.00  0.00     0.202 C 
BRANCH   4   5
ATOM      5  C   UNL A   1      45.689  21.395  25.466  1.00  0.00     0.261 C 
BRANCH   5   6
ATOM      6  O   UNL A   1      44.327  21.809  25.282  1.00  0.00    -0.460 OA
BRANCH   6   7
ATOM      7  C   UNL A   1      43.694  22.996  25.390  1.00  0.00     0.338 C 
ATOM      8  O   UNL A   1      42.927  23.320  24.484  1.00  0.00    -0.246 OA
BRANCH   7   9
ATOM      9  C   UNL A   1      43.784  23.897  26.570  1.00  0.00     0.060 A 
ATOM     10  C   UNL A   1      44.819  24.784  26.850  1.00  0.00     0.016 A 
ATOM     11  C   UNL A   1      42.669  23.906  27.420  1.00  0.00     0.016 A 
ATOM     12  C   UNL A   1      44.833  25.565  27.984  1.00  0.00     0.010 A 
ATOM     13  C   UNL A   1      42.644  24.720  28.551  1.00  0.00     0.010 A 
ATOM     14  C   UNL A   1      43.757  25.513  28.849  1.00  0.00    -0.014 A 
BRANCH  14  15
ATOM     15  C   UNL A   1      43.955  26.123  30.162  1.00  0.00     0.031 A 
ATOM     16  C   UNL A   1      43.555  27.554  30.299  1.00  0.00     0.074 A 
ATOM     17  C   UNL A   1      44.320  25.359  31.205  1.00  0.00     0.049 A 
ATOM     18  N   UNL A   1      43.749  28.370  31.291  1.00  0.00    -0.248 NA
ATOM     19  C   UNL A   1      42.822  28.147  29.161  1.00  0.00     0.031 C 
ATOM     20  C   UNL A   1      44.535  23.908  31.159  1.00  0.00     0.029 A 
ATOM     21  N   UNL A   1      44.568  25.693  32.504  1.00  0.00    -0.354 N 
ATOM     22  C   UNL A   1      43.257  29.594  30.858  1.00  0.00     0.074 A 
ATOM     23  C   UNL A   1      42.702  29.408  29.540  1.00  0.00     0.031 C 
ATOM     24  C   UNL A   1      44.910  23.483  32.375  1.00  0.00     0.029 A 
ATOM     25  C   UNL A   1      45.054  24.642  33.243  1.00  0.00     0.049 A 
ATOM     26  H   UNL A   1      44.414  26.593  32.873  1.00  0.00     0.167 HD
ATOM     27  C   UNL A   1      43.309  30.772  31.512  1.00  0.00     0.034 A 
ATOM     28  C   UNL A   1      45.632  24.656  34.457  1.00  0.00     0.034 A 
ATOM     29  C   UNL A   1      43.863  30.886  32.829  1.00  0.00     0.049 A 
ATOM     30  C   UNL A   1      45.749  25.995  35.136  1.00  0.00     0.074 A 
ATOM     31  C   UNL A   1      44.022  32.012  33.609  1.00  0.00     0.029 A 
ATOM     32  N   UNL A   1      44.363  29.809  33.554  1.00  0.00    -0.354 N 
ATOM     33  N   UNL A   1      45.309  27.164  34.729  1.00  0.00    -0.248 NA
ATOM     34  C   UNL A   1      46.439  26.025  36.428  1.00  0.00     0.031 C 
ATOM     35  C   UNL A   1      44.657  31.620  34.791  1.00  0.00     0.029 A 
ATOM     36  C   UNL A   1      44.853  30.244  34.766  1.00  0.00     0.049 A 
ATOM     37  H   UNL A   1      44.368  28.875  33.246  1.00  0.00     0.167 HD
ATOM     38  C   UNL A   1      45.648  28.069  35.724  1.00  0.00     0.074 A 
ATOM     39  C   UNL A   1      46.309  27.302  36.765  1.00  0.00     0.031 C 
ATOM     40  C   UNL A   1      45.455  29.411  35.777  1.00  0.00     0.034 A 
BRANCH  27  41
ATOM     41  C   UNL A   1      42.850  31.994  30.771  1.00  0.00     0.023 A 
ATOM     42  C   UNL A   1      43.757  32.765  30.017  1.00  0.00     0.012 A 
ATOM     43  C   UNL A   1      41.504  32.397  30.860  1.00  0.00     0.148 A 
ATOM     44  C   UNL A   1      43.336  33.940  29.391  1.00  0.00     0.002 A 
ATOM     45  C   UNL A   1      41.082  33.543  30.198  1.00  0.00     0.091 A 
ATOM     46  F   UNL A   1      40.670  31.672  31.617  1.00  0.00    -0.205 F 
ATOM     47  C   UNL A   1      41.998  34.323  29.475  1.00  0.00     0.022 A 
BRANCH  45  48
ATOM     48  S   UNL A   1      39.372  34.088  30.200  1.00  0.00     0.127 S 
ATOM     49  O   UNL A   1      39.219  34.579  31.569  1.00  0.00    -0.237 OA
ATOM     50  O   UNL A   1      39.387  35.132  29.176  1.00  0.00    -0.237 OA
ATOM     51  O   UNL A   1      38.572  32.917  29.870  1.00  0.00    -0.744 OA
ENDBRANCH  45  48
ENDBRANCH  27  41
BRANCH  28  52
ATOM     52  C   UNL A   1      46.188  23.407  35.051  1.00  0.00     0.023 A 
ATOM     53  C   UNL A   1      45.380  22.606  35.879  1.00  0.00     0.012 A 
ATOM     54  C   UNL A   1      47.512  22.998  34.787  1.00  0.00     0.148 A 
ATOM     55  C   UNL A   1      45.889  21.441  36.457  1.00  0.00     0.002 A 
ATOM     56  C   UNL A   1      47.995  21.808  35.320  1.00  0.00     0.091 A 
ATOM     57  F   UNL A   1      48.278  23.779  34.012  1.00  0.00    -0.205 F 
ATOM     58  C   UNL A   1      47.191  21.036  36.171  1.00  0.00     0.022 A 
BRANCH  56  59
ATOM     59  S   UNL A   1      49.616  21.154  34.903  1.00  0.00     0.127 S 
ATOM     60  O   UNL A   1      49.443  20.804  33.495  1.00  0.00    -0.237 OA
ATOM     61  O   UNL A   1      50.482  22.309  35.147  1.00  0.00    -0.237 OA
ATOM     62  O   UNL A   1      49.837  20.040  35.813  1.00  0.00    -0.744 OA
ENDBRANCH  56  59
ENDBRANCH  28  52
BRANCH  40  63
ATOM     63  C   UNL A   1      45.927  30.114  37.015  1.00  0.00     0.023 A 
ATOM     64  C   UNL A   1      47.162  30.789  37.009  1.00  0.00     0.012 A 
ATOM     65  C   UNL A   1      45.082  30.201  38.136  1.00  0.00     0.148 A 
ATOM     66  C   UNL A   1      47.560  31.529  38.119  1.00  0.00     0.002 A 
ATOM     67  C   UNL A   1      45.458  30.989  39.212  1.00  0.00     0.091 A 
ATOM     68  F   UNL A   1      43.921  29.531  38.114  1.00  0.00    -0.205 F 
ATOM     69  C   UNL A   1      46.700  31.643  39.211  1.00  0.00     0.022 A 
BRANCH  67  70
ATOM     70  S   UNL A   1      44.364  31.288  40.603  1.00  0.00     0.127 S 
ATOM     71  O   UNL A   1      44.316  29.970  41.231  1.00  0.00    -0.237 OA
ATOM     72  O   UNL A   1      45.101  32.302  41.359  1.00  0.00    -0.237 OA
ATOM     73  O   UNL A   1      43.106  31.755  40.035  1.00  0.00    -0.744 OA
ENDBRANCH  67  70
ENDBRANCH  40  63
ENDBRANCH  14  15
ENDBRANCH   7   9
ENDBRANCH   6   7
ENDBRANCH   5   6
ENDBRANCH   4   5
ENDBRANCH   3   4
ENDBRANCH   2   3
ENDBRANCH   1   2
BRANCH   1  74
ATOM     74  O   UNL A   1      42.989  19.183  26.299  1.00  0.00    -0.377 OA
BRANCH  74  75
ATOM     75  C   UNL A   1      41.738  19.569  25.756  1.00  0.00     0.188 C 
BRANCH  75  76
ATOM     76  C   UNL A   1      40.642  20.069  26.730  1.00  0.00     0.188 C 
BRANCH  76  77
ATOM     77  O   UNL A   1      40.382  21.459  26.640  1.00  0.00    -0.376 OA
BRANCH  77  78
ATOM     78  C   UNL A   1      39.147  21.884  26.064  1.00  0.00     0.202 C 
BRANCH  78  79
ATOM     79  C   UNL A   1      38.302  20.882  25.257  1.00  0.00     0.261 C 
BRANCH  79  80
ATOM     80  O   UNL A   1      37.382  21.549  24.366  1.00  0.00    -0.462 OA
BRANCH  80  81
ATOM     81  C   UNL A   1      36.714  22.681  24.712  1.00  0.00     0.330 C 
ATOM     82  O   UNL A   1      37.141  23.515  25.478  1.00  0.00    -0.250 OA
BRANCH  81  83
ATOM     83  C   UNL A   1      35.292  22.708  24.055  1.00  0.00     0.214 C 
ATOM     84  C   UNL A   1      34.695  24.132  24.180  1.00  0.00     0.157 C 
ATOM     85  N   UNL A   1      34.175  21.691  24.187  1.00  0.00    -0.325 N 
ATOM     86  N   UNL A   1      33.536  24.399  23.320  1.00  0.00    -0.336 N 
ATOM     87  C   UNL A   1      33.048  22.018  23.257  1.00  0.00     0.142 C 
ATOM     88  C   UNL A   1      32.458  23.435  23.478  1.00  0.00     0.141 C 
BRANCH  85  89
ATOM     89  C   UNL A   1      33.962  20.592  25.003  1.00  0.00     0.226 C 
ATOM     90  O   UNL A   1      34.051  20.747  26.235  1.00  0.00    -0.275 OA
BRANCH  89  91
ATOM     91  C   UNL A   1      33.682  19.145  24.576  1.00  0.00     0.083 C 
ATOM     92  C   UNL A   1      32.447  18.572  25.266  1.00  0.00     0.042 C 
ATOM     93  C   UNL A   1      34.894  18.240  24.378  1.00  0.00     0.042 C 
ATOM     94  C   UNL A   1      32.396  17.063  25.174  1.00  0.00     0.161 C 
ATOM     95  C   UNL A   1      34.690  16.768  24.723  1.00  0.00     0.161 C 
ATOM     96  O   UNL A   1      33.636  16.563  25.643  1.00  0.00    -0.381 OA
ENDBRANCH  89  91
ENDBRANCH  85  89
BRANCH  86  97
ATOM     97  C   UNL A   1      33.243  25.739  23.127  1.00  0.00     0.225 A 
ATOM     98  N   UNL A   1      32.222  26.315  23.784  1.00  0.00    -0.221 NA
ATOM     99  N   UNL A   1      34.006  26.420  22.252  1.00  0.00    -0.221 NA
ATOM    100  C   UNL A   1      31.990  27.627  23.550  1.00  0.00     0.117 A 
ATOM    101  C   UNL A   1      33.722  27.718  22.030  1.00  0.00     0.117 A 
ATOM    102  C   UNL A   1      32.710  28.387  22.663  1.00  0.00     0.040 A 
ENDBRANCH  86  97
ENDBRANCH  81  83
ENDBRANCH  80  81
ENDBRANCH  79  80
ENDBRANCH  78  79
ENDBRANCH  77  78
ENDBRANCH  76  77
ENDBRANCH  75  76
ENDBRANCH  74  75
ENDBRANCH   1  74
TORSDOF 26
ENDMDL
MODEL 3
REMARK VINA RESULT:      -9.3      5.732     10.210
REMARK SMILES O=C(OCCOCCOCCOCCOC(=O)[C@@H]1CN(c2ncccn2)CCN1C(=O)C1CCOCC1)c1ccc(-c2c3nc(c(-c4cccc(S(=O)(=O)[O-])c4F)c4ccc([nH]4)c(-c4cccc(S(=O)(=O)[O-])c4F)c4nc(c(-c5cccc(S(=O)(=O)[O-])c5F)c5ccc2[nH]5)C=C4)C=C3)cc1
REMARK SMILES IDX 8 1 7 2 6 3 5 4 4 5 3 6 2 7 1 8 38 9 39 10 100 11 40 12
REMARK SMILES IDX 99 13 41 14 42 15 43 16 93 17 44 18 98 19 92 20 94 21 45 22
REMARK SMILES IDX 97 23 91 24 90 25 46 27 78 28 58 29 77 30 59 31 62 32 76 33
REMARK SMILES IDX 95 34 60 35 61 36 75 38 96 39 63 40 47 41 48 42 56 43 49 44
REMARK SMILES IDX 51 45 57 46 50 47 52 48 53 49 54 50 55 51 79 52 80 53 88 54
REMARK SMILES IDX 81 55 83 56 89 57 82 58 84 59 85 60 86 61 87 62 64 63 65 64
REMARK SMILES IDX 73 65 66 66 68 67 74 68 67 69 69 70 70 71 71 72 72 73 9 74
REMARK SMILES IDX 10 75 11 76 12 77 13 78 14 79 15 80 16 81 17 82 18 83 19 84
REMARK SMILES IDX 29 85 20 86 28 87 27 88 30 89 31 90 32 91 33 92 37 93 34 94
REMARK SMILES IDX 36 95 35 96 21 97 22 98 26 99 23 100 25 101 24 102
REMARK H PARENT 94 26 62 37
REMARK Flexibility Score: inf
ROOT
ATOM      1  C   UNL A   1      43.785  18.488  25.225  1.00  0.00     0.188 C 
ENDROOT
BRANCH   1   2
ATOM      2  C   UNL A   1      45.283  18.760  25.425  1.00  0.00     0.188 C 
BRANCH   2   3
ATOM      3  O   UNL A   1      45.840  19.497  24.341  1.00  0.00    -0.376 OA
BRANCH   3   4
ATOM      4  C   UNL A   1      46.284  20.837  24.526  1.00  0.00     0.202 C 
BRANCH   4   5
ATOM      5  C   UNL A   1      45.709  21.588  25.710  1.00  0.00     0.261 C 
BRANCH   5   6
ATOM      6  O   UNL A   1      44.290  21.797  25.737  1.00  0.00    -0.460 OA
BRANCH   6   7
ATOM      7  C   UNL A   1      43.509  22.889  25.594  1.00  0.00     0.338 C 
ATOM      8  O   UNL A   1      42.703  22.897  24.664  1.00  0.00    -0.246 OA
BRANCH   7   9
ATOM      9  C   UNL A   1      43.487  24.040  26.534  1.00  0.00     0.060 A 
ATOM     10  C   UNL A   1      43.843  25.352  26.235  1.00  0.00     0.016 A 
ATOM     11  C   UNL A   1      42.967  23.780  27.809  1.00  0.00     0.016 A 
ATOM     12  C   UNL A   1      43.817  26.355  27.179  1.00  0.00     0.010 A 
ATOM     13  C   UNL A   1      42.891  24.790  28.766  1.00  0.00     0.010 A 
ATOM     14  C   UNL A   1      43.366  26.067  28.453  1.00  0.00    -0.014 A 
BRANCH  14  15
ATOM     15  C   UNL A   1      43.637  27.075  29.476  1.00  0.00     0.031 A 
ATOM     16  C   UNL A   1      44.916  26.929  30.231  1.00  0.00     0.074 A 
ATOM     17  C   UNL A   1      42.840  28.150  29.583  1.00  0.00     0.049 A 
ATOM     18  N   UNL A   1      45.336  27.584  31.270  1.00  0.00    -0.248 NA
ATOM     19  C   UNL A   1      45.862  25.906  29.738  1.00  0.00     0.031 C 
ATOM     20  C   UNL A   1      41.681  28.434  28.730  1.00  0.00     0.029 A 
ATOM     21  N   UNL A   1      42.885  29.204  30.447  1.00  0.00    -0.354 N 
ATOM     22  C   UNL A   1      46.541  26.988  31.617  1.00  0.00     0.074 A 
ATOM     23  C   UNL A   1      46.819  25.957  30.648  1.00  0.00     0.031 C 
ATOM     24  C   UNL A   1      41.108  29.578  29.135  1.00  0.00     0.029 A 
ATOM     25  C   UNL A   1      41.803  30.041  30.327  1.00  0.00     0.049 A 
ATOM     26  H   UNL A   1      43.617  29.350  31.089  1.00  0.00     0.167 HD
ATOM     27  C   UNL A   1      47.316  27.272  32.684  1.00  0.00     0.034 A 
ATOM     28  C   UNL A   1      41.389  31.015  31.157  1.00  0.00     0.034 A 
ATOM     29  C   UNL A   1      46.988  28.322  33.602  1.00  0.00     0.049 A 
ATOM     30  C   UNL A   1      42.227  31.262  32.382  1.00  0.00     0.074 A 
ATOM     31  C   UNL A   1      47.648  28.708  34.749  1.00  0.00     0.029 A 
ATOM     32  N   UNL A   1      45.877  29.148  33.469  1.00  0.00    -0.354 N 
ATOM     33  N   UNL A   1      43.357  30.691  32.734  1.00  0.00    -0.248 NA
ATOM     34  C   UNL A   1      41.743  32.276  33.323  1.00  0.00     0.031 C 
ATOM     35  C   UNL A   1      46.912  29.744  35.332  1.00  0.00     0.029 A 
ATOM     36  C   UNL A   1      45.818  30.032  34.524  1.00  0.00     0.049 A 
ATOM     37  H   UNL A   1      45.229  29.107  32.730  1.00  0.00     0.167 HD
ATOM     38  C   UNL A   1      43.734  31.288  33.928  1.00  0.00     0.074 A 
ATOM     39  C   UNL A   1      42.719  32.286  34.222  1.00  0.00     0.031 C 
ATOM     40  C   UNL A   1      44.801  31.035  34.725  1.00  0.00     0.034 A 
BRANCH  27  41
ATOM     41  C   UNL A   1      48.497  26.381  32.935  1.00  0.00     0.023 A 
ATOM     42  C   UNL A   1      48.381  25.241  33.757  1.00  0.00     0.012 A 
ATOM     43  C   UNL A   1      49.747  26.707  32.375  1.00  0.00     0.148 A 
ATOM     44  C   UNL A   1      49.502  24.460  34.044  1.00  0.00     0.002 A 
ATOM     45  C   UNL A   1      50.848  25.900  32.629  1.00  0.00     0.091 A 
ATOM     46  F   UNL A   1      49.842  27.818  31.632  1.00  0.00    -0.205 F 
ATOM     47  C   UNL A   1      50.731  24.784  33.473  1.00  0.00     0.022 A 
BRANCH  45  48
ATOM     48  S   UNL A   1      52.459  26.202  31.897  1.00  0.00     0.127 S 
ATOM     49  O   UNL A   1      52.115  26.380  30.487  1.00  0.00    -0.237 OA
ATOM     50  O   UNL A   1      52.877  27.425  32.582  1.00  0.00    -0.237 OA
ATOM     51  O   UNL A   1      53.267  25.028  32.193  1.00  0.00    -0.744 OA
ENDBRANCH  45  48
ENDBRANCH  27  41
BRANCH  28  52
ATOM     52  C   UNL A   1      40.120  31.751  30.894  1.00  0.00     0.023 A 
ATOM     53  C   UNL A   1      40.129  32.893  30.071  1.00  0.00     0.012 A 
ATOM     54  C   UNL A   1      38.895  31.318  31.445  1.00  0.00     0.148 A 
ATOM     55  C   UNL A   1      38.953  33.604  29.826  1.00  0.00     0.002 A 
ATOM     56  C   UNL A   1      37.718  31.998  31.153  1.00  0.00     0.091 A 
ATOM     57  F   UNL A   1      38.901  30.241  32.244  1.00  0.00    -0.205 F 
ATOM     58  C   UNL A   1      37.746  33.153  30.359  1.00  0.00     0.022 A 
BRANCH  56  59
ATOM     59  S   UNL A   1      36.108  31.413  31.697  1.00  0.00     0.127 S 
ATOM     60  O   UNL A   1      35.225  31.984  30.683  1.00  0.00    -0.237 OA
ATOM     61  O   UNL A   1      36.272  29.960  31.623  1.00  0.00    -0.237 OA
ATOM     62  O   UNL A   1      35.940  31.927  33.049  1.00  0.00    -0.744 OA
ENDBRANCH  56  59
ENDBRANCH  28  52
BRANCH  40  63
ATOM     63  C   UNL A   1      44.941  31.877  35.958  1.00  0.00     0.023 A 
ATOM     64  C   UNL A   1      45.641  33.096  35.898  1.00  0.00     0.012 A 
ATOM     65  C   UNL A   1      44.268  31.507  37.138  1.00  0.00     0.148 A 
ATOM     66  C   UNL A   1      45.687  33.931  37.011  1.00  0.00     0.002 A 
ATOM     67  C   UNL A   1      44.268  32.372  38.220  1.00  0.00     0.091 A 
ATOM     68  F   UNL A   1      43.625  30.331  37.164  1.00  0.00    -0.205 F 
ATOM     69  C   UNL A   1      44.987  33.577  38.164  1.00  0.00     0.022 A 
BRANCH  67  70
ATOM     70  S   UNL A   1      43.297  32.054  39.695  1.00  0.00     0.127 S 
ATOM     71  O   UNL A   1      44.031  30.944  40.300  1.00  0.00    -0.237 OA
ATOM     72  O   UNL A   1      43.406  33.325  40.413  1.00  0.00    -0.237 OA
ATOM     73  O   UNL A   1      41.953  31.734  39.233  1.00  0.00    -0.744 OA
ENDBRANCH  67  70
ENDBRANCH  40  63
ENDBRANCH  14  15
ENDBRANCH   7   9
ENDBRANCH   6   7
ENDBRANCH   5   6
ENDBRANCH   4   5
ENDBRANCH   3   4
ENDBRANCH   2   3
ENDBRANCH   1   2
BRANCH   1  74
ATOM     74  O   UNL A   1      42.920  19.048  26.212  1.00  0.00    -0.377 OA
BRANCH  74  75
ATOM     75  C   UNL A   1      41.625  19.370  25.732  1.00  0.00     0.188 C 
BRANCH  75  76
ATOM     76  C   UNL A   1      40.636  20.059  26.705  1.00  0.00     0.188 C 
BRANCH  76  77
ATOM     77  O   UNL A   1      40.465  21.445  26.465  1.00  0.00    -0.376 OA
BRANCH  77  78
ATOM     78  C   UNL A   1      39.220  21.893  25.928  1.00  0.00     0.202 C 
BRANCH  78  79
ATOM     79  C   UNL A   1      38.148  20.861  25.535  1.00  0.00     0.261 C 
BRANCH  79  80
ATOM     80  O   UNL A   1      37.115  21.445  24.714  1.00  0.00    -0.462 OA
BRANCH  80  81
ATOM     81  C   UNL A   1      36.162  22.277  25.212  1.00  0.00     0.330 C 
ATOM     82  O   UNL A   1      36.285  22.921  26.229  1.00  0.00    -0.250 OA
BRANCH  81  83
ATOM     83  C   UNL A   1      34.862  22.217  24.338  1.00  0.00     0.214 C 
ATOM     84  C   UNL A   1      34.163  23.599  24.361  1.00  0.00     0.157 C 
ATOM     85  N   UNL A   1      33.806  21.130  24.297  1.00  0.00    -0.325 N 
ATOM     86  N   UNL A   1      33.140  23.796  23.328  1.00  0.00    -0.336 N 
ATOM     87  C   UNL A   1      32.821  21.389  23.200  1.00  0.00     0.142 C 
ATOM     88  C   UNL A   1      32.114  22.764  23.318  1.00  0.00     0.141 C 
BRANCH  85  89
ATOM     89  C   UNL A   1      33.538  20.015  25.074  1.00  0.00     0.226 C 
ATOM     90  O   UNL A   1      33.299  20.184  26.285  1.00  0.00    -0.275 OA
BRANCH  89  91
ATOM     91  C   UNL A   1      33.557  18.542  24.643  1.00  0.00     0.083 C 
ATOM     92  C   UNL A   1      32.412  17.747  25.266  1.00  0.00     0.042 C 
ATOM     93  C   UNL A   1      34.925  17.878  24.522  1.00  0.00     0.042 C 
ATOM     94  C   UNL A   1      32.647  16.255  25.183  1.00  0.00     0.161 C 
ATOM     95  C   UNL A   1      34.979  16.393  24.866  1.00  0.00     0.161 C 
ATOM     96  O   UNL A   1      33.930  15.993  25.725  1.00  0.00    -0.381 OA
ENDBRANCH  89  91
ENDBRANCH  85  89
BRANCH  86  97
ATOM     97  C   UNL A   1      32.795  25.115  23.085  1.00  0.00     0.225 A 
ATOM     98  N   UNL A   1      33.718  26.088  23.170  1.00  0.00    -0.221 NA
ATOM     99  N   UNL A   1      31.509  25.373  22.779  1.00  0.00    -0.221 NA
ATOM    100  C   UNL A   1      33.314  27.355  22.920  1.00  0.00     0.117 A 
ATOM    101  C   UNL A   1      31.146  26.652  22.563  1.00  0.00     0.117 A 
ATOM    102  C   UNL A   1      32.022  27.703  22.618  1.00  0.00     0.040 A 
ENDBRANCH  86  97
ENDBRANCH  81  83
ENDBRANCH  80  81
ENDBRANCH  79  80
ENDBRANCH  78  79
ENDBRANCH  77  78
ENDBRANCH  76  77
ENDBRANCH  75  76
ENDBRANCH  74  75
ENDBRANCH   1  74
TORSDOF 26
ENDMDL
