MODEL 1
REMARK VINA RESULT:      -6.0      0.000      0.000
REMARK SMILES C[C@H](C(=O)OCCOCCOCCOCCOC(=O)c1ccc(-c2c3nc(c(-c4cccc(S(=O)(=O)[O-])c4F)c4ccc([nH]4)c(-c4cccc(S(=O)(=O)[O-])c4F)c4nc(c(-c5cccc(S(=O)(=O)[O-])c5F)c5ccc2[nH]5)C=C4)C=C3)cc1)c1ccc2c3cc(Cl)ccc3n(C(=O)c3ccc(Cl)cc3)c2c1
REMARK SMILES IDX 11 1 10 2 9 3 8 4 7 5 6 6 5 7 3 8 4 9 2 10 1 11 83 12 84 13
REMARK SMILES IDX 105 14 85 15 104 16 86 17 94 18 87 19 93 20 88 21 92 22
REMARK SMILES IDX 89 23 91 24 90 25 95 26 96 27 97 28 98 29 103 30 99 31
REMARK SMILES IDX 102 32 100 33 101 34 12 35 13 36 14 37 15 38 16 39 17 40
REMARK SMILES IDX 18 41 19 42 20 43 21 44 82 45 22 46 81 47 23 48 24 49 25 50
REMARK SMILES IDX 75 51 26 52 80 53 74 54 76 55 27 56 79 57 73 58 72 59 28 61
REMARK SMILES IDX 60 62 40 63 59 64 41 65 44 66 58 67 77 68 42 69 43 70 57 72
REMARK SMILES IDX 78 73 45 74 29 75 30 76 38 77 31 78 33 79 39 80 32 81 34 82
REMARK SMILES IDX 35 83 36 84 37 85 61 86 62 87 70 88 63 89 65 90 71 91 64 92
REMARK SMILES IDX 66 93 67 94 68 95 69 96 46 97 47 98 55 99 48 100 50 101
REMARK SMILES IDX 56 102 49 103 51 104 52 105 53 106 54 107
REMARK H PARENT 76 60 44 71
REMARK Flexibility Score: inf
ROOT
ATOM      1  O   UNL A   1      50.786  35.674  29.428  1.00  0.00    -0.377 OA
ENDROOT
BRANCH   1   2
ATOM      2  C   UNL A   1      51.953  34.887  29.253  1.00  0.00     0.188 C 
BRANCH   2   3
ATOM      3  C   UNL A   1      52.618  34.923  27.858  1.00  0.00     0.188 C 
BRANCH   3   4
ATOM      4  O   UNL A   1      53.122  33.648  27.473  1.00  0.00    -0.376 OA
BRANCH   4   5
ATOM      5  C   UNL A   1      52.165  32.660  27.111  1.00  0.00     0.202 C 
BRANCH   5   6
ATOM      6  C   UNL A   1      52.485  31.792  25.889  1.00  0.00     0.261 C 
BRANCH   6   7
ATOM      7  O   UNL A   1      52.878  30.435  26.192  1.00  0.00    -0.463 OA
BRANCH   7   8
ATOM      8  C   UNL A   1      53.730  29.755  25.391  1.00  0.00     0.313 C 
ATOM      9  O   UNL A   1      54.837  30.175  25.073  1.00  0.00    -0.252 OA
BRANCH   8  10
ATOM     10  C   UNL A   1      53.223  28.342  25.037  1.00  0.00     0.126 C 
ATOM     11  C   UNL A   1      54.264  27.258  25.354  1.00  0.00     0.025 C 
BRANCH  10  12
ATOM     12  C   UNL A   1      51.845  27.904  25.541  1.00  0.00    -0.032 A 
ATOM     13  C   UNL A   1      51.736  27.271  26.787  1.00  0.00     0.005 A 
ATOM     14  C   UNL A   1      50.687  28.035  24.771  1.00  0.00     0.032 A 
ATOM     15  C   UNL A   1      50.508  26.822  27.280  1.00  0.00     0.011 A 
ATOM     16  C   UNL A   1      49.476  27.453  25.197  1.00  0.00     0.057 A 
ATOM     17  C   UNL A   1      49.366  26.898  26.461  1.00  0.00     0.008 A 
ATOM     18  N   UNL A   1      48.255  27.280  24.514  1.00  0.00    -0.276 N 
ATOM     19  C   UNL A   1      48.043  26.414  26.600  1.00  0.00     0.009 A 
ATOM     20  C   UNL A   1      47.425  26.503  25.342  1.00  0.00     0.057 A 
ATOM     21  C   UNL A   1      47.396  25.768  27.674  1.00  0.00     0.031 A 
ATOM     22  C   UNL A   1      46.246  25.770  25.101  1.00  0.00     0.029 A 
ATOM     23  C   UNL A   1      46.204  25.096  27.439  1.00  0.00     0.041 A 
ATOM     24  C   UNL A   1      45.657  25.063  26.163  1.00  0.00     0.023 A 
ATOM     25  Cl  UNL A   1      45.463  24.225  28.726  1.00  0.00    -0.084 Cl
BRANCH  18  26
ATOM     26  C   UNL A   1      48.073  27.701  23.161  1.00  0.00     0.262 C 
ATOM     27  O   UNL A   1      46.993  28.254  22.925  1.00  0.00    -0.268 OA
BRANCH  26  28
ATOM     28  C   UNL A   1      48.980  27.627  21.983  1.00  0.00     0.040 A 
ATOM     29  C   UNL A   1      49.172  26.343  21.424  1.00  0.00     0.015 A 
ATOM     30  C   UNL A   1      49.685  28.699  21.436  1.00  0.00     0.015 A 
ATOM     31  C   UNL A   1      49.931  26.156  20.271  1.00  0.00     0.021 A 
ATOM     32  C   UNL A   1      50.427  28.514  20.257  1.00  0.00     0.021 A 
ATOM     33  C   UNL A   1      50.503  27.258  19.654  1.00  0.00     0.041 A 
ATOM     34  Cl  UNL A   1      51.209  27.085  18.095  1.00  0.00    -0.084 Cl
ENDBRANCH  26  28
ENDBRANCH  18  26
ENDBRANCH  10  12
ENDBRANCH   8  10
ENDBRANCH   7   8
ENDBRANCH   6   7
ENDBRANCH   5   6
ENDBRANCH   4   5
ENDBRANCH   3   4
ENDBRANCH   2   3
ENDBRANCH   1   2
BRANCH   1  35
ATOM     35  C   UNL A   1      50.280  36.253  28.244  1.00  0.00     0.188 C 
BRANCH  35  36
ATOM     36  C   UNL A   1      48.738  36.310  28.195  1.00  0.00     0.188 C 
BRANCH  36  37
ATOM     37  O   UNL A   1      48.004  36.605  27.008  1.00  0.00    -0.376 OA
BRANCH  37  38
ATOM     38  C   UNL A   1      48.018  35.766  25.866  1.00  0.00     0.202 C 
BRANCH  38  39
ATOM     39  C   UNL A   1      48.140  34.241  25.982  1.00  0.00     0.261 C 
BRANCH  39  40
ATOM     40  O   UNL A   1      46.963  33.488  25.695  1.00  0.00    -0.460 OA
BRANCH  40  41
ATOM     41  C   UNL A   1      46.059  33.428  26.699  1.00  0.00     0.338 C 
ATOM     42  O   UNL A   1      45.037  34.087  26.815  1.00  0.00    -0.246 OA
BRANCH  41  43
ATOM     43  C   UNL A   1      46.404  32.283  27.560  1.00  0.00     0.060 A 
ATOM     44  C   UNL A   1      46.567  32.511  28.933  1.00  0.00     0.016 A 
ATOM     45  C   UNL A   1      46.531  30.995  27.031  1.00  0.00     0.016 A 
ATOM     46  C   UNL A   1      46.860  31.456  29.786  1.00  0.00     0.010 A 
ATOM     47  C   UNL A   1      46.884  29.946  27.878  1.00  0.00     0.010 A 
ATOM     48  C   UNL A   1      47.080  30.184  29.250  1.00  0.00    -0.014 A 
BRANCH  48  49
ATOM     49  C   UNL A   1      47.769  29.186  30.089  1.00  0.00     0.031 A 
ATOM     50  C   UNL A   1      49.270  29.153  30.041  1.00  0.00     0.074 A 
ATOM     51  C   UNL A   1      47.090  28.363  30.903  1.00  0.00     0.049 A 
ATOM     52  N   UNL A   1      50.099  28.355  30.656  1.00  0.00    -0.248 NA
ATOM     53  C   UNL A   1      49.920  30.158  29.181  1.00  0.00     0.031 C 
ATOM     54  C   UNL A   1      45.637  28.329  31.056  1.00  0.00     0.029 A 
ATOM     55  N   UNL A   1      47.547  27.378  31.737  1.00  0.00    -0.354 N 
ATOM     56  C   UNL A   1      51.366  28.743  30.240  1.00  0.00     0.074 A 
ATOM     57  C   UNL A   1      51.197  29.838  29.312  1.00  0.00     0.031 C 
ATOM     58  C   UNL A   1      45.318  27.340  31.910  1.00  0.00     0.029 A 
ATOM     59  C   UNL A   1      46.541  26.657  32.332  1.00  0.00     0.049 A 
ATOM     60  H   UNL A   1      48.502  27.203  31.895  1.00  0.00     0.167 HD
ATOM     61  C   UNL A   1      52.565  28.239  30.608  1.00  0.00     0.034 A 
ATOM     62  C   UNL A   1      46.607  25.549  33.094  1.00  0.00     0.034 A 
ATOM     63  C   UNL A   1      52.730  27.152  31.531  1.00  0.00     0.049 A 
ATOM     64  C   UNL A   1      47.951  24.962  33.434  1.00  0.00     0.074 A 
ATOM     65  C   UNL A   1      53.904  26.584  31.990  1.00  0.00     0.029 A 
ATOM     66  N   UNL A   1      51.689  26.453  32.120  1.00  0.00    -0.354 N 
ATOM     67  N   UNL A   1      49.146  25.388  33.106  1.00  0.00    -0.248 NA
ATOM     68  C   UNL A   1      47.952  23.754  34.273  1.00  0.00     0.031 C 
ATOM     69  C   UNL A   1      53.574  25.515  32.827  1.00  0.00     0.029 A 
ATOM     70  C   UNL A   1      52.193  25.448  32.926  1.00  0.00     0.049 A 
ATOM     71  H   UNL A   1      50.732  26.642  31.984  1.00  0.00     0.167 HD
ATOM     72  C   UNL A   1      50.040  24.528  33.732  1.00  0.00     0.074 A 
ATOM     73  C   UNL A   1      49.249  23.567  34.471  1.00  0.00     0.031 C 
ATOM     74  C   UNL A   1      51.395  24.529  33.694  1.00  0.00     0.034 A 
BRANCH  61  75
ATOM     75  C   UNL A   1      53.793  28.864  30.006  1.00  0.00     0.023 A 
ATOM     76  C   UNL A   1      54.413  28.265  28.891  1.00  0.00     0.012 A 
ATOM     77  C   UNL A   1      54.308  30.067  30.523  1.00  0.00     0.148 A 
ATOM     78  C   UNL A   1      55.547  28.838  28.319  1.00  0.00     0.002 A 
ATOM     79  C   UNL A   1      55.408  30.659  29.917  1.00  0.00     0.091 A 
ATOM     80  F   UNL A   1      53.721  30.603  31.602  1.00  0.00    -0.205 F 
ATOM     81  C   UNL A   1      56.037  30.040  28.824  1.00  0.00     0.022 A 
BRANCH  79  82
ATOM     82  S   UNL A   1      56.062  32.246  30.440  1.00  0.00     0.127 S 
ATOM     83  O   UNL A   1      54.929  33.133  30.180  1.00  0.00    -0.237 OA
ATOM     84  O   UNL A   1      56.338  32.010  31.857  1.00  0.00    -0.237 OA
ATOM     85  O   UNL A   1      57.241  32.488  29.621  1.00  0.00    -0.744 OA
ENDBRANCH  79  82
ENDBRANCH  61  75
BRANCH  62  86
ATOM     86  C   UNL A   1      45.360  24.902  33.574  1.00  0.00     0.023 A 
ATOM     87  C   UNL A   1      44.883  23.734  32.946  1.00  0.00     0.012 A 
ATOM     88  C   UNL A   1      44.646  25.449  34.654  1.00  0.00     0.148 A 
ATOM     89  C   UNL A   1      43.689  23.147  33.360  1.00  0.00     0.002 A 
ATOM     90  C   UNL A   1      43.503  24.813  35.110  1.00  0.00     0.091 A 
ATOM     91  F   UNL A   1      45.116  26.563  35.232  1.00  0.00    -0.205 F 
ATOM     92  C   UNL A   1      43.003  23.681  34.445  1.00  0.00     0.022 A 
BRANCH  90  93
ATOM     93  S   UNL A   1      42.690  25.283  36.632  1.00  0.00     0.127 S 
ATOM     94  O   UNL A   1      41.574  24.340  36.682  1.00  0.00    -0.237 OA
ATOM     95  O   UNL A   1      43.765  25.039  37.593  1.00  0.00    -0.237 OA
ATOM     96  O   UNL A   1      42.311  26.682  36.482  1.00  0.00    -0.744 OA
ENDBRANCH  90  93
ENDBRANCH  62  86
BRANCH  74  97
ATOM     97  C   UNL A   1      52.116  23.498  34.521  1.00  0.00     0.023 A 
ATOM     98  C   UNL A   1      52.572  23.816  35.815  1.00  0.00     0.012 A 
ATOM     99  C   UNL A   1      52.284  22.188  34.030  1.00  0.00     0.148 A 
ATOM    100  C   UNL A   1      53.219  22.857  36.593  1.00  0.00     0.002 A 
ATOM    101  C   UNL A   1      52.878  21.223  34.832  1.00  0.00     0.091 A 
ATOM    102  F   UNL A   1      51.859  21.912  32.789  1.00  0.00    -0.205 F 
ATOM    103  C   UNL A   1      53.360  21.559  36.107  1.00  0.00     0.022 A 
BRANCH 101 104
ATOM    104  S   UNL A   1      53.014  19.504  34.330  1.00  0.00     0.127 S 
ATOM    105  O   UNL A   1      53.742  18.922  35.457  1.00  0.00    -0.237 OA
ATOM    106  O   UNL A   1      51.611  19.099  34.234  1.00  0.00    -0.237 OA
ATOM    107  O   UNL A   1      53.731  19.509  33.062  1.00  0.00    -0.744 OA
ENDBRANCH 101 104
ENDBRANCH  74  97
ENDBRANCH  48  49
ENDBRANCH  41  43
ENDBRANCH  40  41
ENDBRANCH  39  40
ENDBRANCH  38  39
ENDBRANCH  37  38
ENDBRANCH  36  37
ENDBRANCH  35  36
ENDBRANCH   1  35
TORSDOF 26
ENDMDL
MODEL 2
REMARK VINA RESULT:      -5.9      8.320     13.596
REMARK SMILES C[C@H](C(=O)OCCOCCOCCOCCOC(=O)c1ccc(-c2c3nc(c(-c4cccc(S(=O)(=O)[O-])c4F)c4ccc([nH]4)c(-c4cccc(S(=O)(=O)[O-])c4F)c4nc(c(-c5cccc(S(=O)(=O)[O-])c5F)c5ccc2[nH]5)C=C4)C=C3)cc1)c1ccc2c3cc(Cl)ccc3n(C(=O)c3ccc(Cl)cc3)c2c1
REMARK SMILES IDX 11 1 10 2 9 3 8 4 7 5 6 6 5 7 3 8 4 9 2 10 1 11 83 12 84 13
REMARK SMILES IDX 105 14 85 15 104 16 86 17 94 18 87 19 93 20 88 21 92 22
REMARK SMILES IDX 89 23 91 24 90 25 95 26 96 27 97 28 98 29 103 30 99 31
REMARK SMILES IDX 102 32 100 33 101 34 12 35 13 36 14 37 15 38 16 39 17 40
REMARK SMILES IDX 18 41 19 42 20 43 21 44 82 45 22 46 81 47 23 48 24 49 25 50
REMARK SMILES IDX 75 51 26 52 80 53 74 54 76 55 27 56 79 57 73 58 72 59 28 61
REMARK SMILES IDX 60 62 40 63 59 64 41 65 44 66 58 67 77 68 42 69 43 70 57 72
REMARK SMILES IDX 78 73 45 74 29 75 30 76 38 77 31 78 33 79 39 80 32 81 34 82
REMARK SMILES IDX 35 83 36 84 37 85 61 86 62 87 70 88 63 89 65 90 71 91 64 92
REMARK SMILES IDX 66 93 67 94 68 95 69 96 46 97 47 98 55 99 48 100 50 101
REMARK SMILES IDX 56 102 49 103 51 104 52 105 53 106 54 107
REMARK H PARENT 76 60 44 71
REMARK Flexibility Score: inf
ROOT
ATOM      1  O   UNL A   1      51.068  32.131  27.174  1.00  0.00    -0.377 OA
ENDROOT
BRANCH   1   2
ATOM      2  C   UNL A   1      50.918  31.700  28.518  1.00  0.00     0.188 C 
BRANCH   2   3
ATOM      3  C   UNL A   1      49.487  31.723  29.103  1.00  0.00     0.188 C 
BRANCH   3   4
ATOM      4  O   UNL A   1      48.546  31.097  28.237  1.00  0.00    -0.376 OA
BRANCH   4   5
ATOM      5  C   UNL A   1      48.759  29.722  27.940  1.00  0.00     0.202 C 
BRANCH   5   6
ATOM      6  C   UNL A   1      47.600  28.958  27.291  1.00  0.00     0.261 C 
BRANCH   6   7
ATOM      7  O   UNL A   1      46.313  29.608  27.390  1.00  0.00    -0.463 OA
BRANCH   7   8
ATOM      8  C   UNL A   1      45.971  30.620  26.559  1.00  0.00     0.313 C 
ATOM      9  O   UNL A   1      46.090  30.560  25.341  1.00  0.00    -0.252 OA
BRANCH   8  10
ATOM     10  C   UNL A   1      45.287  31.793  27.291  1.00  0.00     0.126 C 
ATOM     11  C   UNL A   1      44.377  32.605  26.358  1.00  0.00     0.025 C 
BRANCH  10  12
ATOM     12  C   UNL A   1      44.567  31.519  28.613  1.00  0.00    -0.032 A 
ATOM     13  C   UNL A   1      45.271  31.642  29.820  1.00  0.00     0.005 A 
ATOM     14  C   UNL A   1      43.245  31.069  28.671  1.00  0.00     0.032 A 
ATOM     15  C   UNL A   1      44.671  31.373  31.053  1.00  0.00     0.011 A 
ATOM     16  C   UNL A   1      42.684  30.656  29.896  1.00  0.00     0.057 A 
ATOM     17  C   UNL A   1      43.364  30.853  31.086  1.00  0.00     0.008 A 
ATOM     18  N   UNL A   1      41.471  29.991  30.167  1.00  0.00    -0.276 N 
ATOM     19  C   UNL A   1      42.548  30.354  32.130  1.00  0.00     0.009 A 
ATOM     20  C   UNL A   1      41.469  29.677  31.538  1.00  0.00     0.057 A 
ATOM     21  C   UNL A   1      42.748  30.305  33.525  1.00  0.00     0.031 A 
ATOM     22  C   UNL A   1      40.705  28.786  32.317  1.00  0.00     0.029 A 
ATOM     23  C   UNL A   1      41.952  29.466  34.293  1.00  0.00     0.041 A 
ATOM     24  C   UNL A   1      40.971  28.687  33.693  1.00  0.00     0.023 A 
ATOM     25  Cl  UNL A   1      42.258  29.331  35.982  1.00  0.00    -0.084 Cl
BRANCH  18  26
ATOM     26  C   UNL A   1      40.571  29.597  29.130  1.00  0.00     0.262 C 
ATOM     27  O   UNL A   1      40.941  28.629  28.454  1.00  0.00    -0.268 OA
BRANCH  26  28
ATOM     28  C   UNL A   1      39.234  30.125  28.741  1.00  0.00     0.040 A 
ATOM     29  C   UNL A   1      38.610  29.491  27.643  1.00  0.00     0.015 A 
ATOM     30  C   UNL A   1      38.592  31.212  29.331  1.00  0.00     0.015 A 
ATOM     31  C   UNL A   1      37.324  29.839  27.236  1.00  0.00     0.021 A 
ATOM     32  C   UNL A   1      37.284  31.544  28.939  1.00  0.00     0.021 A 
ATOM     33  C   UNL A   1      36.639  30.824  27.932  1.00  0.00     0.041 A 
ATOM     34  Cl  UNL A   1      34.967  31.076  27.620  1.00  0.00    -0.084 Cl
ENDBRANCH  26  28
ENDBRANCH  18  26
ENDBRANCH  10  12
ENDBRANCH   8  10
ENDBRANCH   7   8
ENDBRANCH   6   7
ENDBRANCH   5   6
ENDBRANCH   4   5
ENDBRANCH   3   4
ENDBRANCH   2   3
ENDBRANCH   1   2
BRANCH   1  35
ATOM     35  C   UNL A   1      50.199  33.172  26.787  1.00  0.00     0.188 C 
BRANCH  35  36
ATOM     36  C   UNL A   1      50.246  34.396  27.726  1.00  0.00     0.188 C 
BRANCH  36  37
ATOM     37  O   UNL A   1      50.078  35.739  27.272  1.00  0.00    -0.376 OA
BRANCH  37  38
ATOM     38  C   UNL A   1      48.812  36.287  26.943  1.00  0.00     0.202 C 
BRANCH  38  39
ATOM     39  C   UNL A   1      47.863  35.598  25.953  1.00  0.00     0.261 C 
BRANCH  39  40
ATOM     40  O   UNL A   1      46.501  35.479  26.360  1.00  0.00    -0.460 OA
BRANCH  40  41
ATOM     41  C   UNL A   1      45.930  36.622  26.801  1.00  0.00     0.338 C 
ATOM     42  O   UNL A   1      45.836  37.682  26.202  1.00  0.00    -0.246 OA
BRANCH  41  43
ATOM     43  C   UNL A   1      45.252  36.334  28.077  1.00  0.00     0.060 A 
ATOM     44  C   UNL A   1      44.199  37.170  28.473  1.00  0.00     0.016 A 
ATOM     45  C   UNL A   1      45.623  35.235  28.858  1.00  0.00     0.016 A 
ATOM     46  C   UNL A   1      43.511  36.916  29.651  1.00  0.00     0.010 A 
ATOM     47  C   UNL A   1      44.971  35.015  30.072  1.00  0.00     0.010 A 
ATOM     48  C   UNL A   1      43.938  35.875  30.481  1.00  0.00    -0.014 A 
BRANCH  48  49
ATOM     49  C   UNL A   1      43.474  35.869  31.882  1.00  0.00     0.031 A 
ATOM     50  C   UNL A   1      42.226  35.096  32.199  1.00  0.00     0.074 A 
ATOM     51  C   UNL A   1      44.160  36.493  32.851  1.00  0.00     0.049 A 
ATOM     52  N   UNL A   1      41.603  34.963  33.337  1.00  0.00    -0.248 NA
ATOM     53  C   UNL A   1      41.599  34.376  31.076  1.00  0.00     0.031 C 
ATOM     54  C   UNL A   1      45.400  37.244  32.666  1.00  0.00     0.029 A 
ATOM     55  N   UNL A   1      43.886  36.606  34.189  1.00  0.00    -0.354 N 
ATOM     56  C   UNL A   1      40.498  34.168  33.066  1.00  0.00     0.074 A 
ATOM     57  C   UNL A   1      40.528  33.857  31.654  1.00  0.00     0.031 C 
ATOM     58  C   UNL A   1      45.762  37.775  33.847  1.00  0.00     0.029 A 
ATOM     59  C   UNL A   1      44.761  37.426  34.857  1.00  0.00     0.049 A 
ATOM     60  H   UNL A   1      43.136  36.145  34.628  1.00  0.00     0.167 HD
ATOM     61  C   UNL A   1      39.548  33.724  33.920  1.00  0.00     0.034 A 
ATOM     62  C   UNL A   1      44.729  37.871  36.127  1.00  0.00     0.034 A 
ATOM     63  C   UNL A   1      39.521  34.033  35.321  1.00  0.00     0.049 A 
ATOM     64  C   UNL A   1      43.621  37.422  37.042  1.00  0.00     0.074 A 
ATOM     65  C   UNL A   1      38.615  33.611  36.277  1.00  0.00     0.029 A 
ATOM     66  N   UNL A   1      40.428  34.859  35.964  1.00  0.00    -0.354 N 
ATOM     67  N   UNL A   1      42.630  36.601  36.799  1.00  0.00    -0.248 NA
ATOM     68  C   UNL A   1      43.646  37.943  38.417  1.00  0.00     0.031 C 
ATOM     69  C   UNL A   1      38.953  34.214  37.492  1.00  0.00     0.029 A 
ATOM     70  C   UNL A   1      40.097  34.973  37.302  1.00  0.00     0.049 A 
ATOM     71  H   UNL A   1      41.196  35.300  35.533  1.00  0.00     0.167 HD
ATOM     72  C   UNL A   1      41.939  36.473  37.998  1.00  0.00     0.074 A 
ATOM     73  C   UNL A   1      42.635  37.289  38.970  1.00  0.00     0.031 C 
ATOM     74  C   UNL A   1      40.826  35.750  38.269  1.00  0.00     0.034 A 
BRANCH  61  75
ATOM     75  C   UNL A   1      38.458  32.856  33.353  1.00  0.00     0.023 A 
ATOM     76  C   UNL A   1      38.599  31.454  33.364  1.00  0.00     0.012 A 
ATOM     77  C   UNL A   1      37.279  33.432  32.845  1.00  0.00     0.148 A 
ATOM     78  C   UNL A   1      37.593  30.637  32.849  1.00  0.00     0.002 A 
ATOM     79  C   UNL A   1      36.260  32.611  32.379  1.00  0.00     0.091 A 
ATOM     80  F   UNL A   1      37.181  34.768  32.816  1.00  0.00    -0.205 F 
ATOM     81  C   UNL A   1      36.421  31.215  32.368  1.00  0.00     0.022 A 
BRANCH  79  82
ATOM     82  S   UNL A   1      34.682  33.254  31.817  1.00  0.00     0.127 S 
ATOM     83  O   UNL A   1      33.889  33.203  33.045  1.00  0.00    -0.237 OA
ATOM     84  O   UNL A   1      35.041  34.603  31.379  1.00  0.00    -0.237 OA
ATOM     85  O   UNL A   1      34.239  32.365  30.753  1.00  0.00    -0.744 OA
ENDBRANCH  79  82
ENDBRANCH  61  75
BRANCH  62  86
ATOM     86  C   UNL A   1      45.766  38.818  36.609  1.00  0.00     0.023 A 
ATOM     87  C   UNL A   1      46.960  38.330  37.174  1.00  0.00     0.012 A 
ATOM     88  C   UNL A   1      45.564  40.205  36.508  1.00  0.00     0.148 A 
ATOM     89  C   UNL A   1      47.919  39.211  37.672  1.00  0.00     0.002 A 
ATOM     90  C   UNL A   1      46.557  41.073  36.931  1.00  0.00     0.091 A 
ATOM     91  F   UNL A   1      44.418  40.647  35.971  1.00  0.00    -0.205 F 
ATOM     92  C   UNL A   1      47.721  40.581  37.544  1.00  0.00     0.022 A 
BRANCH  90  93
ATOM     93  S   UNL A   1      46.498  42.829  36.596  1.00  0.00     0.127 S 
ATOM     94  O   UNL A   1      47.805  43.272  37.076  1.00  0.00    -0.237 OA
ATOM     95  O   UNL A   1      46.331  42.816  35.143  1.00  0.00    -0.237 OA
ATOM     96  O   UNL A   1      45.357  43.353  37.336  1.00  0.00    -0.744 OA
ENDBRANCH  90  93
ENDBRANCH  62  86
BRANCH  74  97
ATOM     97  C   UNL A   1      40.320  35.755  39.688  1.00  0.00     0.023 A 
ATOM     98  C   UNL A   1      39.395  36.729  40.110  1.00  0.00     0.012 A 
ATOM     99  C   UNL A   1      40.722  34.746  40.586  1.00  0.00     0.148 A 
ATOM    100  C   UNL A   1      38.906  36.722  41.416  1.00  0.00     0.002 A 
ATOM    101  C   UNL A   1      40.189  34.712  41.866  1.00  0.00     0.091 A 
ATOM    102  F   UNL A   1      41.617  33.839  40.168  1.00  0.00    -0.205 F 
ATOM    103  C   UNL A   1      39.293  35.708  42.288  1.00  0.00     0.022 A 
BRANCH 101 104
ATOM    104  S   UNL A   1      40.551  33.390  43.026  1.00  0.00     0.127 S 
ATOM    105  O   UNL A   1      42.010  33.317  42.947  1.00  0.00    -0.237 OA
ATOM    106  O   UNL A   1      40.035  33.931  44.283  1.00  0.00    -0.237 OA
ATOM    107  O   UNL A   1      39.842  32.216  42.535  1.00  0.00    -0.744 OA
ENDBRANCH 101 104
ENDBRANCH  74  97
ENDBRANCH  48  49
ENDBRANCH  41  43
ENDBRANCH  40  41
ENDBRANCH  39  40
ENDBRANCH  38  39
ENDBRANCH  37  38
ENDBRANCH  36  37
ENDBRANCH  35  36
ENDBRANCH   1  35
TORSDOF 26
ENDMDL
MODEL 3
REMARK VINA RESULT:      -5.7      7.647     12.267
REMARK SMILES C[C@H](C(=O)OCCOCCOCCOCCOC(=O)c1ccc(-c2c3nc(c(-c4cccc(S(=O)(=O)[O-])c4F)c4ccc([nH]4)c(-c4cccc(S(=O)(=O)[O-])c4F)c4nc(c(-c5cccc(S(=O)(=O)[O-])c5F)c5ccc2[nH]5)C=C4)C=C3)cc1)c1ccc2c3cc(Cl)ccc3n(C(=O)c3ccc(Cl)cc3)c2c1
REMARK SMILES IDX 11 1 10 2 9 3 8 4 7 5 6 6 5 7 3 8 4 9 2 10 1 11 83 12 84 13
REMARK SMILES IDX 105 14 85 15 104 16 86 17 94 18 87 19 93 20 88 21 92 22
REMARK SMILES IDX 89 23 91 24 90 25 95 26 96 27 97 28 98 29 103 30 99 31
REMARK SMILES IDX 102 32 100 33 101 34 12 35 13 36 14 37 15 38 16 39 17 40
REMARK SMILES IDX 18 41 19 42 20 43 21 44 82 45 22 46 81 47 23 48 24 49 25 50
REMARK SMILES IDX 75 51 26 52 80 53 74 54 76 55 27 56 79 57 73 58 72 59 28 61
REMARK SMILES IDX 60 62 40 63 59 64 41 65 44 66 58 67 77 68 42 69 43 70 57 72
REMARK SMILES IDX 78 73 45 74 29 75 30 76 38 77 31 78 33 79 39 80 32 81 34 82
REMARK SMILES IDX 35 83 36 84 37 85 61 86 62 87 70 88 63 89 65 90 71 91 64 92
REMARK SMILES IDX 66 93 67 94 68 95 69 96 46 97 47 98 55 99 48 100 50 101
REMARK SMILES IDX 56 102 49 103 51 104 52 105 53 106 54 107
REMARK H PARENT 76 60 44 71
REMARK Flexibility Score: inf
ROOT
ATOM      1  O   UNL A   1      49.778  39.627  31.260  1.00  0.00    -0.377 OA
ENDROOT
BRANCH   1   2
ATOM      2  C   UNL A   1      49.481  39.365  29.897  1.00  0.00     0.188 C 
BRANCH   2   3
ATOM      3  C   UNL A   1      50.443  39.963  28.845  1.00  0.00     0.188 C 
BRANCH   3   4
ATOM      4  O   UNL A   1      49.795  40.915  28.008  1.00  0.00    -0.376 OA
BRANCH   4   5
ATOM      5  C   UNL A   1      48.524  41.390  28.437  1.00  0.00     0.202 C 
BRANCH   5   6
ATOM      6  C   UNL A   1      47.642  42.073  27.386  1.00  0.00     0.261 C 
BRANCH   6   7
ATOM      7  O   UNL A   1      46.564  42.872  27.923  1.00  0.00    -0.463 OA
BRANCH   7   8
ATOM      8  C   UNL A   1      45.441  43.109  27.206  1.00  0.00     0.313 C 
ATOM      9  O   UNL A   1      44.417  42.444  27.317  1.00  0.00    -0.252 OA
BRANCH   8  10
ATOM     10  C   UNL A   1      45.539  44.383  26.342  1.00  0.00     0.126 C 
ATOM     11  C   UNL A   1      45.790  45.639  27.190  1.00  0.00     0.025 C 
BRANCH  10  12
ATOM     12  C   UNL A   1      46.469  44.382  25.126  1.00  0.00    -0.032 A 
ATOM     13  C   UNL A   1      47.611  45.195  25.131  1.00  0.00     0.005 A 
ATOM     14  C   UNL A   1      46.185  43.661  23.963  1.00  0.00     0.032 A 
ATOM     15  C   UNL A   1      48.476  45.256  24.036  1.00  0.00     0.011 A 
ATOM     16  C   UNL A   1      46.971  43.834  22.806  1.00  0.00     0.057 A 
ATOM     17  C   UNL A   1      48.137  44.580  22.849  1.00  0.00     0.008 A 
ATOM     18  N   UNL A   1      46.765  43.383  21.486  1.00  0.00    -0.276 N 
ATOM     19  C   UNL A   1      48.705  44.557  21.553  1.00  0.00     0.009 A 
ATOM     20  C   UNL A   1      47.769  43.964  20.691  1.00  0.00     0.057 A 
ATOM     21  C   UNL A   1      49.881  45.144  21.042  1.00  0.00     0.031 A 
ATOM     22  C   UNL A   1      47.911  44.133  19.299  1.00  0.00     0.029 A 
ATOM     23  C   UNL A   1      50.039  45.255  19.667  1.00  0.00     0.041 A 
ATOM     24  C   UNL A   1      49.050  44.792  18.808  1.00  0.00     0.023 A 
ATOM     25  Cl  UNL A   1      51.429  46.057  19.043  1.00  0.00    -0.084 Cl
BRANCH  18  26
ATOM     26  C   UNL A   1      45.611  42.630  21.111  1.00  0.00     0.262 C 
ATOM     27  O   UNL A   1      45.730  41.403  21.212  1.00  0.00    -0.268 OA
BRANCH  26  28
ATOM     28  C   UNL A   1      44.264  43.067  20.652  1.00  0.00     0.040 A 
ATOM     29  C   UNL A   1      44.232  43.871  19.490  1.00  0.00     0.015 A 
ATOM     30  C   UNL A   1      43.061  42.795  21.302  1.00  0.00     0.015 A 
ATOM     31  C   UNL A   1      43.028  44.274  18.916  1.00  0.00     0.021 A 
ATOM     32  C   UNL A   1      41.847  43.177  20.706  1.00  0.00     0.021 A 
ATOM     33  C   UNL A   1      41.835  43.867  19.494  1.00  0.00     0.041 A 
ATOM     34  Cl  UNL A   1      40.356  44.123  18.655  1.00  0.00    -0.084 Cl
ENDBRANCH  26  28
ENDBRANCH  18  26
ENDBRANCH  10  12
ENDBRANCH   8  10
ENDBRANCH   7   8
ENDBRANCH   6   7
ENDBRANCH   5   6
ENDBRANCH   4   5
ENDBRANCH   3   4
ENDBRANCH   2   3
ENDBRANCH   1   2
BRANCH   1  35
ATOM     35  C   UNL A   1      50.659  40.708  31.476  1.00  0.00     0.188 C 
BRANCH  35  36
ATOM     36  C   UNL A   1      49.950  41.997  31.945  1.00  0.00     0.188 C 
BRANCH  36  37
ATOM     37  O   UNL A   1      48.531  42.141  31.980  1.00  0.00    -0.376 OA
BRANCH  37  38
ATOM     38  C   UNL A   1      47.802  42.284  33.187  1.00  0.00     0.202 C 
BRANCH  38  39
ATOM     39  C   UNL A   1      46.646  41.344  33.553  1.00  0.00     0.261 C 
BRANCH  39  40
ATOM     40  O   UNL A   1      46.293  40.364  32.578  1.00  0.00    -0.460 OA
BRANCH  40  41
ATOM     41  C   UNL A   1      45.003  40.391  32.175  1.00  0.00     0.338 C 
ATOM     42  O   UNL A   1      44.321  41.377  31.940  1.00  0.00    -0.246 OA
BRANCH  41  43
ATOM     43  C   UNL A   1      44.588  39.010  31.870  1.00  0.00     0.060 A 
ATOM     44  C   UNL A   1      44.682  38.050  32.886  1.00  0.00     0.016 A 
ATOM     45  C   UNL A   1      44.080  38.672  30.613  1.00  0.00     0.016 A 
ATOM     46  C   UNL A   1      44.271  36.746  32.653  1.00  0.00     0.010 A 
ATOM     47  C   UNL A   1      43.723  37.348  30.360  1.00  0.00     0.010 A 
ATOM     48  C   UNL A   1      43.850  36.380  31.372  1.00  0.00    -0.014 A 
BRANCH  48  49
ATOM     49  C   UNL A   1      43.804  34.943  31.039  1.00  0.00     0.031 A 
ATOM     50  C   UNL A   1      45.050  34.318  30.479  1.00  0.00     0.074 A 
ATOM     51  C   UNL A   1      42.708  34.204  31.266  1.00  0.00     0.049 A 
ATOM     52  N   UNL A   1      45.253  33.092  30.082  1.00  0.00    -0.248 NA
ATOM     53  C   UNL A   1      46.225  35.199  30.351  1.00  0.00     0.031 C 
ATOM     54  C   UNL A   1      41.456  34.695  31.836  1.00  0.00     0.029 A 
ATOM     55  N   UNL A   1      42.475  32.877  31.017  1.00  0.00    -0.354 N 
ATOM     56  C   UNL A   1      46.566  33.059  29.634  1.00  0.00     0.074 A 
ATOM     57  C   UNL A   1      47.110  34.389  29.796  1.00  0.00     0.031 C 
ATOM     58  C   UNL A   1      40.567  33.686  31.859  1.00  0.00     0.029 A 
ATOM     59  C   UNL A   1      41.183  32.493  31.275  1.00  0.00     0.049 A 
ATOM     60  H   UNL A   1      43.166  32.260  30.685  1.00  0.00     0.167 HD
ATOM     61  C   UNL A   1      47.263  32.010  29.142  1.00  0.00     0.034 A 
ATOM     62  C   UNL A   1      40.564  31.322  31.029  1.00  0.00     0.034 A 
ATOM     63  C   UNL A   1      46.722  30.690  28.982  1.00  0.00     0.049 A 
ATOM     64  C   UNL A   1      41.340  30.189  30.413  1.00  0.00     0.074 A 
ATOM     65  C   UNL A   1      47.354  29.552  28.517  1.00  0.00     0.029 A 
ATOM     66  N   UNL A   1      45.412  30.336  29.263  1.00  0.00    -0.354 N 
ATOM     67  N   UNL A   1      42.605  30.142  30.074  1.00  0.00    -0.248 NA
ATOM     68  C   UNL A   1      40.606  28.938  30.173  1.00  0.00     0.031 C 
ATOM     69  C   UNL A   1      46.416  28.517  28.480  1.00  0.00     0.029 A 
ATOM     70  C   UNL A   1      45.211  29.000  28.967  1.00  0.00     0.049 A 
ATOM     71  H   UNL A   1      44.726  30.945  29.621  1.00  0.00     0.167 HD
ATOM     72  C   UNL A   1      42.828  28.847  29.621  1.00  0.00     0.074 A 
ATOM     73  C   UNL A   1      41.572  28.138  29.745  1.00  0.00     0.031 C 
ATOM     74  C   UNL A   1      43.969  28.295  29.140  1.00  0.00     0.034 A 
BRANCH  61  75
ATOM     75  C   UNL A   1      48.692  32.255  28.740  1.00  0.00     0.023 A 
ATOM     76  C   UNL A   1      49.742  31.820  29.572  1.00  0.00     0.012 A 
ATOM     77  C   UNL A   1      48.990  32.884  27.516  1.00  0.00     0.148 A 
ATOM     78  C   UNL A   1      51.070  32.034  29.208  1.00  0.00     0.002 A 
ATOM     79  C   UNL A   1      50.316  33.049  27.136  1.00  0.00     0.091 A 
ATOM     80  F   UNL A   1      47.976  33.316  26.755  1.00  0.00    -0.205 F 
ATOM     81  C   UNL A   1      51.356  32.637  27.986  1.00  0.00     0.022 A 
BRANCH  79  82
ATOM     82  S   UNL A   1      50.786  33.738  25.547  1.00  0.00     0.127 S 
ATOM     83  O   UNL A   1      51.946  34.551  25.910  1.00  0.00    -0.237 OA
ATOM     84  O   UNL A   1      51.103  32.536  24.775  1.00  0.00    -0.237 OA
ATOM     85  O   UNL A   1      49.629  34.482  25.071  1.00  0.00    -0.744 OA
ENDBRANCH  79  82
ENDBRANCH  61  75
BRANCH  62  86
ATOM     86  C   UNL A   1      39.121  31.164  31.340  1.00  0.00     0.023 A 
ATOM     87  C   UNL A   1      38.721  30.533  32.534  1.00  0.00     0.012 A 
ATOM     88  C   UNL A   1      38.145  31.640  30.448  1.00  0.00     0.148 A 
ATOM     89  C   UNL A   1      37.369  30.339  32.813  1.00  0.00     0.002 A 
ATOM     90  C   UNL A   1      36.804  31.515  30.771  1.00  0.00     0.091 A 
ATOM     91  F   UNL A   1      38.550  32.233  29.316  1.00  0.00    -0.205 F 
ATOM     92  C   UNL A   1      36.411  30.837  31.936  1.00  0.00     0.022 A 
BRANCH  90  93
ATOM     93  S   UNL A   1      35.515  32.325  29.831  1.00  0.00     0.127 S 
ATOM     94  O   UNL A   1      36.151  33.591  29.475  1.00  0.00    -0.237 OA
ATOM     95  O   UNL A   1      35.348  31.372  28.735  1.00  0.00    -0.237 OA
ATOM     96  O   UNL A   1      34.366  32.438  30.721  1.00  0.00    -0.744 OA
ENDBRANCH  90  93
ENDBRANCH  62  86
BRANCH  74  97
ATOM     97  C   UNL A   1      43.934  26.837  28.766  1.00  0.00     0.023 A 
ATOM     98  C   UNL A   1      44.199  25.848  29.733  1.00  0.00     0.012 A 
ATOM     99  C   UNL A   1      43.574  26.449  27.460  1.00  0.00     0.148 A 
ATOM    100  C   UNL A   1      44.143  24.496  29.397  1.00  0.00     0.002 A 
ATOM    101  C   UNL A   1      43.465  25.101  27.147  1.00  0.00     0.091 A 
ATOM    102  F   UNL A   1      43.343  27.407  26.551  1.00  0.00    -0.205 F 
ATOM    103  C   UNL A   1      43.765  24.124  28.109  1.00  0.00     0.022 A 
BRANCH 101 104
ATOM    104  S   UNL A   1      42.890  24.528  25.546  1.00  0.00     0.127 S 
ATOM    105  O   UNL A   1      44.138  24.094  24.920  1.00  0.00    -0.237 OA
ATOM    106  O   UNL A   1      41.982  23.442  25.915  1.00  0.00    -0.237 OA
ATOM    107  O   UNL A   1      42.243  25.671  24.916  1.00  0.00    -0.744 OA
ENDBRANCH 101 104
ENDBRANCH  74  97
ENDBRANCH  48  49
ENDBRANCH  41  43
ENDBRANCH  40  41
ENDBRANCH  39  40
ENDBRANCH  38  39
ENDBRANCH  37  38
ENDBRANCH  36  37
ENDBRANCH  35  36
ENDBRANCH   1  35
TORSDOF 26
ENDMDL
