MODEL 1
REMARK VINA RESULT:      -9.8      0.000      0.000
REMARK SMILES O=C(OCCOCCOCCOCCOC(=O)c1ccc(-c2ccc(OCc3ccccc3)cc2)nc1)c1ccc(-c2c3nc(c(-c4cccc(S(=O)(=O)[O-])c4F)c4ccc([nH]4)c(-c4cccc(S(=O)(=O)[O-])c4F)c4nc(c(-c5cccc(S(=O)(=O)[O-])c5F)c5ccc2[nH]5)C=C4)C=C3)cc1
REMARK SMILES IDX 10 1 9 2 8 3 7 4 6 5 5 6 4 7 3 8 2 9 1 10 38 11 39 12 100 13
REMARK SMILES IDX 40 14 99 15 41 16 42 17 43 18 93 19 44 20 98 21 92 22 94 23
REMARK SMILES IDX 45 24 97 25 91 26 90 27 46 29 78 30 58 31 77 32 59 33 62 34
REMARK SMILES IDX 76 35 95 36 60 37 61 38 75 40 96 41 63 42 47 43 48 44 56 45
REMARK SMILES IDX 49 46 51 47 57 48 50 49 52 50 53 51 54 52 55 53 79 54 80 55
REMARK SMILES IDX 88 56 81 57 83 58 89 59 82 60 84 61 85 62 86 63 87 64 64 65
REMARK SMILES IDX 65 66 73 67 66 68 68 69 74 70 67 71 69 72 70 73 71 74 72 75
REMARK SMILES IDX 11 76 12 77 13 78 14 79 15 80 16 81 17 82 18 83 19 84 37 85
REMARK SMILES IDX 20 86 36 87 21 88 22 89 23 90 35 91 24 92 34 93 25 94 26 95
REMARK SMILES IDX 27 96 28 97 29 98 33 99 30 100 32 101 31 102
REMARK H PARENT 94 28 62 39
REMARK Flexibility Score: inf
ROOT
ATOM      1  C   UNL A   1      33.518  28.394  23.698  1.00  0.00     0.188 C 
ENDROOT
BRANCH   1   2
ATOM      2  O   UNL A   1      32.290  29.119  23.724  1.00  0.00    -0.377 OA
BRANCH   2   3
ATOM      3  C   UNL A   1      31.836  29.522  25.018  1.00  0.00     0.188 C 
BRANCH   3   4
ATOM      4  C   UNL A   1      32.902  29.497  26.115  1.00  0.00     0.188 C 
BRANCH   4   5
ATOM      5  O   UNL A   1      32.493  30.286  27.226  1.00  0.00    -0.376 OA
BRANCH   5   6
ATOM      6  C   UNL A   1      31.970  31.585  26.987  1.00  0.00     0.202 C 
BRANCH   6   7
ATOM      7  C   UNL A   1      32.935  32.763  27.138  1.00  0.00     0.261 C 
BRANCH   7   8
ATOM      8  O   UNL A   1      32.414  33.890  27.864  1.00  0.00    -0.460 OA
BRANCH   8   9
ATOM      9  C   UNL A   1      33.050  34.715  28.731  1.00  0.00     0.338 C 
ATOM     10  O   UNL A   1      32.610  35.850  28.903  1.00  0.00    -0.246 OA
BRANCH   9  11
ATOM     11  C   UNL A   1      34.245  34.297  29.511  1.00  0.00     0.060 A 
ATOM     12  C   UNL A   1      35.556  34.541  29.117  1.00  0.00     0.016 A 
ATOM     13  C   UNL A   1      34.037  33.705  30.762  1.00  0.00     0.016 A 
ATOM     14  C   UNL A   1      36.634  34.026  29.811  1.00  0.00     0.010 A 
ATOM     15  C   UNL A   1      35.124  33.280  31.531  1.00  0.00     0.010 A 
ATOM     16  C   UNL A   1      36.425  33.371  31.015  1.00  0.00    -0.014 A 
BRANCH  16  17
ATOM     17  C   UNL A   1      37.559  32.638  31.609  1.00  0.00     0.031 A 
ATOM     18  C   UNL A   1      37.942  32.978  33.020  1.00  0.00     0.074 A 
ATOM     19  C   UNL A   1      38.129  31.612  30.949  1.00  0.00     0.049 A 
ATOM     20  N   UNL A   1      38.942  32.546  33.734  1.00  0.00    -0.248 NA
ATOM     21  C   UNL A   1      37.076  33.943  33.725  1.00  0.00     0.031 C 
ATOM     22  C   UNL A   1      37.735  31.133  29.621  1.00  0.00     0.029 A 
ATOM     23  N   UNL A   1      39.142  30.767  31.315  1.00  0.00    -0.354 N 
ATOM     24  C   UNL A   1      38.883  33.256  34.927  1.00  0.00     0.074 A 
ATOM     25  C   UNL A   1      37.736  34.130  34.855  1.00  0.00     0.031 C 
ATOM     26  C   UNL A   1      38.474  30.061  29.300  1.00  0.00     0.029 A 
ATOM     27  C   UNL A   1      39.453  29.833  30.355  1.00  0.00     0.049 A 
ATOM     28  H   UNL A   1      39.604  30.823  32.183  1.00  0.00     0.167 HD
ATOM     29  C   UNL A   1      39.723  33.186  35.983  1.00  0.00     0.034 A 
ATOM     30  C   UNL A   1      40.446  28.926  30.324  1.00  0.00     0.034 A 
ATOM     31  C   UNL A   1      40.820  32.264  36.040  1.00  0.00     0.049 A 
ATOM     32  C   UNL A   1      41.383  28.884  31.502  1.00  0.00     0.074 A 
ATOM     33  C   UNL A   1      41.762  32.100  37.036  1.00  0.00     0.029 A 
ATOM     34  N   UNL A   1      41.115  31.341  35.044  1.00  0.00    -0.354 N 
ATOM     35  N   UNL A   1      41.333  29.573  32.619  1.00  0.00    -0.248 NA
ATOM     36  C   UNL A   1      42.506  27.944  31.422  1.00  0.00     0.031 C 
ATOM     37  C   UNL A   1      42.643  31.093  36.628  1.00  0.00     0.029 A 
ATOM     38  C   UNL A   1      42.229  30.606  35.396  1.00  0.00     0.049 A 
ATOM     39  H   UNL A   1      40.605  31.229  34.210  1.00  0.00     0.167 HD
ATOM     40  C   UNL A   1      42.402  29.133  33.388  1.00  0.00     0.074 A 
ATOM     41  C   UNL A   1      43.065  28.098  32.615  1.00  0.00     0.031 C 
ATOM     42  C   UNL A   1      42.817  29.550  34.609  1.00  0.00     0.034 A 
BRANCH  29  43
ATOM     43  C   UNL A   1      39.502  34.165  37.104  1.00  0.00     0.023 A 
ATOM     44  C   UNL A   1      39.871  35.517  36.961  1.00  0.00     0.012 A 
ATOM     45  C   UNL A   1      38.963  33.722  38.328  1.00  0.00     0.148 A 
ATOM     46  C   UNL A   1      39.752  36.403  38.034  1.00  0.00     0.002 A 
ATOM     47  C   UNL A   1      38.804  34.619  39.376  1.00  0.00     0.091 A 
ATOM     48  F   UNL A   1      38.649  32.425  38.455  1.00  0.00    -0.205 F 
ATOM     49  C   UNL A   1      39.214  35.954  39.238  1.00  0.00     0.022 A 
BRANCH  47  50
ATOM     50  S   UNL A   1      38.065  34.151  40.945  1.00  0.00     0.127 S 
ATOM     51  O   UNL A   1      37.804  35.455  41.550  1.00  0.00    -0.237 OA
ATOM     52  O   UNL A   1      36.868  33.427  40.514  1.00  0.00    -0.237 OA
ATOM     53  O   UNL A   1      39.057  33.331  41.628  1.00  0.00    -0.744 OA
ENDBRANCH  47  50
ENDBRANCH  29  43
BRANCH  30  54
ATOM     54  C   UNL A   1      40.604  28.005  29.160  1.00  0.00     0.023 A 
ATOM     55  C   UNL A   1      39.832  26.829  29.090  1.00  0.00     0.012 A 
ATOM     56  C   UNL A   1      41.497  28.296  28.108  1.00  0.00     0.148 A 
ATOM     57  C   UNL A   1      39.963  25.952  28.012  1.00  0.00     0.002 A 
ATOM     58  C   UNL A   1      41.580  27.448  27.009  1.00  0.00     0.091 A 
ATOM     59  F   UNL A   1      42.244  29.406  28.196  1.00  0.00    -0.205 F 
ATOM     60  C   UNL A   1      40.828  26.265  26.967  1.00  0.00     0.022 A 
BRANCH  58  61
ATOM     61  S   UNL A   1      42.568  27.844  25.561  1.00  0.00     0.127 S 
ATOM     62  O   UNL A   1      41.961  29.097  25.118  1.00  0.00    -0.237 OA
ATOM     63  O   UNL A   1      43.908  27.977  26.134  1.00  0.00    -0.237 OA
ATOM     64  O   UNL A   1      42.414  26.711  24.659  1.00  0.00    -0.744 OA
ENDBRANCH  58  61
ENDBRANCH  30  54
BRANCH  42  65
ATOM     65  C   UNL A   1      44.010  28.855  35.199  1.00  0.00     0.023 A 
ATOM     66  C   UNL A   1      43.834  27.698  35.982  1.00  0.00     0.012 A 
ATOM     67  C   UNL A   1      45.309  29.308  34.901  1.00  0.00     0.148 A 
ATOM     68  C   UNL A   1      44.939  27.016  36.487  1.00  0.00     0.002 A 
ATOM     69  C   UNL A   1      46.405  28.591  35.361  1.00  0.00     0.091 A 
ATOM     70  F   UNL A   1      45.448  30.425  34.173  1.00  0.00    -0.205 F 
ATOM     71  C   UNL A   1      46.223  27.454  36.165  1.00  0.00     0.022 A 
BRANCH  69  72
ATOM     72  S   UNL A   1      48.085  29.022  34.896  1.00  0.00     0.127 S 
ATOM     73  O   UNL A   1      47.976  29.109  33.441  1.00  0.00    -0.237 OA
ATOM     74  O   UNL A   1      48.275  30.305  35.572  1.00  0.00    -0.237 OA
ATOM     75  O   UNL A   1      48.926  27.945  35.400  1.00  0.00    -0.744 OA
ENDBRANCH  69  72
ENDBRANCH  42  65
ENDBRANCH  16  17
ENDBRANCH   9  11
ENDBRANCH   8   9
ENDBRANCH   7   8
ENDBRANCH   6   7
ENDBRANCH   5   6
ENDBRANCH   4   5
ENDBRANCH   3   4
ENDBRANCH   2   3
ENDBRANCH   1   2
BRANCH   1  76
ATOM     76  C   UNL A   1      33.466  26.848  23.683  1.00  0.00     0.188 C 
BRANCH  76  77
ATOM     77  O   UNL A   1      33.367  26.280  22.385  1.00  0.00    -0.376 OA
BRANCH  77  78
ATOM     78  C   UNL A   1      32.046  25.996  21.935  1.00  0.00     0.202 C 
BRANCH  78  79
ATOM     79  C   UNL A   1      31.020  25.667  23.035  1.00  0.00     0.261 C 
BRANCH  79  80
ATOM     80  O   UNL A   1      31.491  24.794  24.077  1.00  0.00    -0.460 OA
BRANCH  80  81
ATOM     81  C   UNL A   1      31.728  23.501  23.774  1.00  0.00     0.339 C 
ATOM     82  O   UNL A   1      31.076  22.781  23.038  1.00  0.00    -0.246 OA
BRANCH  81  83
ATOM     83  C   UNL A   1      33.067  23.166  24.297  1.00  0.00     0.078 A 
ATOM     84  C   UNL A   1      33.408  23.287  25.645  1.00  0.00     0.019 A 
ATOM     85  C   UNL A   1      34.077  22.887  23.387  1.00  0.00     0.127 A 
ATOM     86  C   UNL A   1      34.744  23.138  26.024  1.00  0.00     0.030 A 
ATOM     87  N   UNL A   1      35.380  22.741  23.731  1.00  0.00    -0.255 NA
ATOM     88  C   UNL A   1      35.702  22.873  25.044  1.00  0.00     0.070 A 
BRANCH  88  89
ATOM     89  C   UNL A   1      37.083  22.532  25.392  1.00  0.00     0.000 A 
ATOM     90  C   UNL A   1      37.957  23.400  26.063  1.00  0.00     0.014 A 
ATOM     91  C   UNL A   1      37.540  21.244  25.084  1.00  0.00     0.014 A 
ATOM     92  C   UNL A   1      39.211  22.945  26.500  1.00  0.00     0.047 A 
ATOM     93  C   UNL A   1      38.791  20.800  25.503  1.00  0.00     0.047 A 
ATOM     94  C   UNL A   1      39.601  21.622  26.278  1.00  0.00     0.119 A 
BRANCH  94  95
ATOM     95  O   UNL A   1      40.764  21.226  26.887  1.00  0.00    -0.489 OA
BRANCH  95  96
ATOM     96  C   UNL A   1      41.939  21.134  26.060  1.00  0.00     0.265 C 
BRANCH  96  97
ATOM     97  C   UNL A   1      42.806  22.379  26.073  1.00  0.00    -0.011 A 
ATOM     98  C   UNL A   1      43.487  22.790  24.915  1.00  0.00     0.007 A 
ATOM     99  C   UNL A   1      42.990  23.106  27.257  1.00  0.00     0.007 A 
ATOM    100  C   UNL A   1      44.376  23.865  24.955  1.00  0.00     0.000 A 
ATOM    101  C   UNL A   1      43.866  24.193  27.290  1.00  0.00     0.000 A 
ATOM    102  C   UNL A   1      44.568  24.564  26.144  1.00  0.00     0.000 A 
ENDBRANCH  96  97
ENDBRANCH  95  96
ENDBRANCH  94  95
ENDBRANCH  88  89
ENDBRANCH  81  83
ENDBRANCH  80  81
ENDBRANCH  79  80
ENDBRANCH  78  79
ENDBRANCH  77  78
ENDBRANCH  76  77
ENDBRANCH   1  76
TORSDOF 27
ENDMDL
MODEL 2
REMARK VINA RESULT:      -8.9      2.011      7.475
REMARK SMILES O=C(OCCOCCOCCOCCOC(=O)c1ccc(-c2ccc(OCc3ccccc3)cc2)nc1)c1ccc(-c2c3nc(c(-c4cccc(S(=O)(=O)[O-])c4F)c4ccc([nH]4)c(-c4cccc(S(=O)(=O)[O-])c4F)c4nc(c(-c5cccc(S(=O)(=O)[O-])c5F)c5ccc2[nH]5)C=C4)C=C3)cc1
REMARK SMILES IDX 10 1 9 2 8 3 7 4 6 5 5 6 4 7 3 8 2 9 1 10 38 11 39 12 100 13
REMARK SMILES IDX 40 14 99 15 41 16 42 17 43 18 93 19 44 20 98 21 92 22 94 23
REMARK SMILES IDX 45 24 97 25 91 26 90 27 46 29 78 30 58 31 77 32 59 33 62 34
REMARK SMILES IDX 76 35 95 36 60 37 61 38 75 40 96 41 63 42 47 43 48 44 56 45
REMARK SMILES IDX 49 46 51 47 57 48 50 49 52 50 53 51 54 52 55 53 79 54 80 55
REMARK SMILES IDX 88 56 81 57 83 58 89 59 82 60 84 61 85 62 86 63 87 64 64 65
REMARK SMILES IDX 65 66 73 67 66 68 68 69 74 70 67 71 69 72 70 73 71 74 72 75
REMARK SMILES IDX 11 76 12 77 13 78 14 79 15 80 16 81 17 82 18 83 19 84 37 85
REMARK SMILES IDX 20 86 36 87 21 88 22 89 23 90 35 91 24 92 34 93 25 94 26 95
REMARK SMILES IDX 27 96 28 97 29 98 33 99 30 100 32 101 31 102
REMARK H PARENT 94 28 62 39
REMARK Flexibility Score: inf
ROOT
ATOM      1  C   UNL A   1      33.923  27.749  24.943  1.00  0.00     0.188 C 
ENDROOT
BRANCH   1   2
ATOM      2  O   UNL A   1      33.019  28.614  24.257  1.00  0.00    -0.377 OA
BRANCH   2   3
ATOM      3  C   UNL A   1      32.496  29.700  25.026  1.00  0.00     0.188 C 
BRANCH   3   4
ATOM      4  C   UNL A   1      31.801  29.295  26.328  1.00  0.00     0.188 C 
BRANCH   4   5
ATOM      5  O   UNL A   1      31.276  30.439  26.990  1.00  0.00    -0.376 OA
BRANCH   5   6
ATOM      6  C   UNL A   1      31.838  31.712  26.705  1.00  0.00     0.202 C 
BRANCH   6   7
ATOM      7  C   UNL A   1      33.080  32.120  27.501  1.00  0.00     0.261 C 
BRANCH   7   8
ATOM      8  O   UNL A   1      33.203  33.529  27.761  1.00  0.00    -0.460 OA
BRANCH   8   9
ATOM      9  C   UNL A   1      33.461  34.162  28.932  1.00  0.00     0.338 C 
ATOM     10  O   UNL A   1      32.709  35.063  29.298  1.00  0.00    -0.246 OA
BRANCH   9  11
ATOM     11  C   UNL A   1      34.601  33.793  29.812  1.00  0.00     0.060 A 
ATOM     12  C   UNL A   1      35.863  34.372  29.736  1.00  0.00     0.016 A 
ATOM     13  C   UNL A   1      34.363  32.875  30.842  1.00  0.00     0.016 A 
ATOM     14  C   UNL A   1      36.925  33.910  30.491  1.00  0.00     0.010 A 
ATOM     15  C   UNL A   1      35.403  32.482  31.690  1.00  0.00     0.010 A 
ATOM     16  C   UNL A   1      36.707  32.944  31.461  1.00  0.00    -0.014 A 
BRANCH  16  17
ATOM     17  C   UNL A   1      37.886  32.312  32.083  1.00  0.00     0.031 A 
ATOM     18  C   UNL A   1      38.628  31.287  31.277  1.00  0.00     0.074 A 
ATOM     19  C   UNL A   1      38.347  32.748  33.270  1.00  0.00     0.049 A 
ATOM     20  N   UNL A   1      39.633  30.532  31.621  1.00  0.00    -0.248 NA
ATOM     21  C   UNL A   1      38.173  31.080  29.889  1.00  0.00     0.031 C 
ATOM     22  C   UNL A   1      37.756  33.829  34.065  1.00  0.00     0.029 A 
ATOM     23  N   UNL A   1      39.434  32.357  34.004  1.00  0.00    -0.354 N 
ATOM     24  C   UNL A   1      39.863  29.698  30.533  1.00  0.00     0.074 A 
ATOM     25  C   UNL A   1      38.912  30.053  29.506  1.00  0.00     0.031 C 
ATOM     26  C   UNL A   1      38.507  34.036  35.157  1.00  0.00     0.029 A 
ATOM     27  C   UNL A   1      39.576  33.046  35.186  1.00  0.00     0.049 A 
ATOM     28  H   UNL A   1      40.055  31.651  33.713  1.00  0.00     0.167 HD
ATOM     29  C   UNL A   1      40.784  28.718  30.412  1.00  0.00     0.034 A 
ATOM     30  C   UNL A   1      40.450  32.862  36.192  1.00  0.00     0.034 A 
ATOM     31  C   UNL A   1      41.749  28.432  31.434  1.00  0.00     0.049 A 
ATOM     32  C   UNL A   1      41.451  31.747  36.044  1.00  0.00     0.074 A 
ATOM     33  C   UNL A   1      42.725  27.455  31.455  1.00  0.00     0.029 A 
ATOM     34  N   UNL A   1      41.856  29.140  32.625  1.00  0.00    -0.354 N 
ATOM     35  N   UNL A   1      41.650  30.949  35.020  1.00  0.00    -0.248 NA
ATOM     36  C   UNL A   1      42.348  31.508  37.180  1.00  0.00     0.031 C 
ATOM     37  C   UNL A   1      43.406  27.557  32.672  1.00  0.00     0.029 A 
ATOM     38  C   UNL A   1      42.878  28.619  33.394  1.00  0.00     0.049 A 
ATOM     39  H   UNL A   1      41.287  29.900  32.882  1.00  0.00     0.167 HD
ATOM     40  C   UNL A   1      42.712  30.128  35.376  1.00  0.00     0.074 A 
ATOM     41  C   UNL A   1      43.128  30.547  36.702  1.00  0.00     0.031 C 
ATOM     42  C   UNL A   1      43.284  29.109  34.688  1.00  0.00     0.034 A 
BRANCH  29  43
ATOM     43  C   UNL A   1      40.734  27.876  29.166  1.00  0.00     0.023 A 
ATOM     44  C   UNL A   1      39.853  26.779  29.075  1.00  0.00     0.012 A 
ATOM     45  C   UNL A   1      41.605  28.153  28.095  1.00  0.00     0.148 A 
ATOM     46  C   UNL A   1      39.875  25.943  27.957  1.00  0.00     0.002 A 
ATOM     47  C   UNL A   1      41.588  27.345  26.965  1.00  0.00     0.091 A 
ATOM     48  F   UNL A   1      42.457  29.180  28.214  1.00  0.00    -0.205 F 
ATOM     49  C   UNL A   1      40.737  26.230  26.901  1.00  0.00     0.022 A 
BRANCH  47  50
ATOM     50  S   UNL A   1      42.618  27.668  25.530  1.00  0.00     0.127 S 
ATOM     51  O   UNL A   1      42.064  28.931  25.046  1.00  0.00    -0.237 OA
ATOM     52  O   UNL A   1      43.949  27.776  26.128  1.00  0.00    -0.237 OA
ATOM     53  O   UNL A   1      42.442  26.527  24.643  1.00  0.00    -0.744 OA
ENDBRANCH  47  50
ENDBRANCH  29  43
BRANCH  30  54
ATOM     54  C   UNL A   1      40.416  33.733  37.403  1.00  0.00     0.023 A 
ATOM     55  C   UNL A   1      39.462  33.490  38.411  1.00  0.00     0.012 A 
ATOM     56  C   UNL A   1      41.336  34.788  37.578  1.00  0.00     0.148 A 
ATOM     57  C   UNL A   1      39.409  34.293  39.553  1.00  0.00     0.002 A 
ATOM     58  C   UNL A   1      41.315  35.546  38.743  1.00  0.00     0.091 A 
ATOM     59  F   UNL A   1      42.223  35.025  36.601  1.00  0.00    -0.205 F 
ATOM     60  C   UNL A   1      40.341  35.312  39.725  1.00  0.00     0.022 A 
BRANCH  58  61
ATOM     61  S   UNL A   1      42.561  36.790  39.104  1.00  0.00     0.127 S 
ATOM     62  O   UNL A   1      43.067  36.340  40.398  1.00  0.00    -0.237 OA
ATOM     63  O   UNL A   1      43.491  36.621  37.987  1.00  0.00    -0.237 OA
ATOM     64  O   UNL A   1      41.855  38.063  39.107  1.00  0.00    -0.744 OA
ENDBRANCH  58  61
ENDBRANCH  30  54
BRANCH  42  65
ATOM     65  C   UNL A   1      44.447  28.415  35.337  1.00  0.00     0.023 A 
ATOM     66  C   UNL A   1      45.763  28.761  34.976  1.00  0.00     0.012 A 
ATOM     67  C   UNL A   1      44.225  27.481  36.366  1.00  0.00     0.148 A 
ATOM     68  C   UNL A   1      46.846  28.160  35.612  1.00  0.00     0.002 A 
ATOM     69  C   UNL A   1      45.309  26.930  37.034  1.00  0.00     0.091 A 
ATOM     70  F   UNL A   1      42.962  27.154  36.674  1.00  0.00    -0.205 F 
ATOM     71  C   UNL A   1      46.620  27.257  36.650  1.00  0.00     0.022 A 
BRANCH  69  72
ATOM     72  S   UNL A   1      45.102  25.850  38.453  1.00  0.00     0.127 S 
ATOM     73  O   UNL A   1      46.490  25.566  38.814  1.00  0.00    -0.237 OA
ATOM     74  O   UNL A   1      44.390  26.711  39.397  1.00  0.00    -0.237 OA
ATOM     75  O   UNL A   1      44.330  24.710  37.978  1.00  0.00    -0.744 OA
ENDBRANCH  69  72
ENDBRANCH  42  65
ENDBRANCH  16  17
ENDBRANCH   9  11
ENDBRANCH   8   9
ENDBRANCH   7   8
ENDBRANCH   6   7
ENDBRANCH   5   6
ENDBRANCH   4   5
ENDBRANCH   3   4
ENDBRANCH   2   3
ENDBRANCH   1   2
BRANCH   1  76
ATOM     76  C   UNL A   1      33.357  26.495  25.650  1.00  0.00     0.188 C 
BRANCH  76  77
ATOM     77  O   UNL A   1      32.770  25.546  24.770  1.00  0.00    -0.376 OA
BRANCH  77  78
ATOM     78  C   UNL A   1      31.348  25.466  24.809  1.00  0.00     0.202 C 
BRANCH  78  79
ATOM     79  C   UNL A   1      30.763  24.397  25.749  1.00  0.00     0.261 C 
BRANCH  79  80
ATOM     80  O   UNL A   1      31.680  23.366  26.158  1.00  0.00    -0.460 OA
BRANCH  80  81
ATOM     81  C   UNL A   1      32.170  22.531  25.218  1.00  0.00     0.339 C 
ATOM     82  O   UNL A   1      31.610  22.146  24.206  1.00  0.00    -0.246 OA
BRANCH  81  83
ATOM     83  C   UNL A   1      33.607  22.350  25.497  1.00  0.00     0.078 A 
ATOM     84  C   UNL A   1      34.307  23.132  26.418  1.00  0.00     0.019 A 
ATOM     85  C   UNL A   1      34.332  21.489  24.685  1.00  0.00     0.127 A 
ATOM     86  C   UNL A   1      35.699  23.028  26.479  1.00  0.00     0.030 A 
ATOM     87  N   UNL A   1      35.681  21.373  24.724  1.00  0.00    -0.255 NA
ATOM     88  C   UNL A   1      36.352  22.147  25.616  1.00  0.00     0.070 A 
BRANCH  88  89
ATOM     89  C   UNL A   1      37.783  21.860  25.748  1.00  0.00     0.000 A 
ATOM     90  C   UNL A   1      38.719  22.776  26.251  1.00  0.00     0.014 A 
ATOM     91  C   UNL A   1      38.231  20.578  25.404  1.00  0.00     0.014 A 
ATOM     92  C   UNL A   1      40.042  22.375  26.494  1.00  0.00     0.047 A 
ATOM     93  C   UNL A   1      39.548  20.187  25.631  1.00  0.00     0.047 A 
ATOM     94  C   UNL A   1      40.440  21.059  26.247  1.00  0.00     0.119 A 
BRANCH  94  95
ATOM     95  O   UNL A   1      41.698  20.718  26.673  1.00  0.00    -0.489 OA
BRANCH  95  96
ATOM     96  C   UNL A   1      42.450  21.728  27.372  1.00  0.00     0.265 C 
BRANCH  96  97
ATOM     97  C   UNL A   1      43.512  22.406  26.527  1.00  0.00    -0.011 A 
ATOM     98  C   UNL A   1      43.898  23.731  26.790  1.00  0.00     0.007 A 
ATOM     99  C   UNL A   1      44.084  21.742  25.434  1.00  0.00     0.007 A 
ATOM    100  C   UNL A   1      44.787  24.395  25.945  1.00  0.00     0.000 A 
ATOM    101  C   UNL A   1      44.988  22.403  24.599  1.00  0.00     0.000 A 
ATOM    102  C   UNL A   1      45.329  23.731  24.846  1.00  0.00     0.000 A 
ENDBRANCH  96  97
ENDBRANCH  95  96
ENDBRANCH  94  95
ENDBRANCH  88  89
ENDBRANCH  81  83
ENDBRANCH  80  81
ENDBRANCH  79  80
ENDBRANCH  78  79
ENDBRANCH  77  78
ENDBRANCH  76  77
ENDBRANCH   1  76
TORSDOF 27
ENDMDL
MODEL 3
REMARK VINA RESULT:      -8.8      5.353     11.294
REMARK SMILES O=C(OCCOCCOCCOCCOC(=O)c1ccc(-c2ccc(OCc3ccccc3)cc2)nc1)c1ccc(-c2c3nc(c(-c4cccc(S(=O)(=O)[O-])c4F)c4ccc([nH]4)c(-c4cccc(S(=O)(=O)[O-])c4F)c4nc(c(-c5cccc(S(=O)(=O)[O-])c5F)c5ccc2[nH]5)C=C4)C=C3)cc1
REMARK SMILES IDX 10 1 9 2 8 3 7 4 6 5 5 6 4 7 3 8 2 9 1 10 38 11 39 12 100 13
REMARK SMILES IDX 40 14 99 15 41 16 42 17 43 18 93 19 44 20 98 21 92 22 94 23
REMARK SMILES IDX 45 24 97 25 91 26 90 27 46 29 78 30 58 31 77 32 59 33 62 34
REMARK SMILES IDX 76 35 95 36 60 37 61 38 75 40 96 41 63 42 47 43 48 44 56 45
REMARK SMILES IDX 49 46 51 47 57 48 50 49 52 50 53 51 54 52 55 53 79 54 80 55
REMARK SMILES IDX 88 56 81 57 83 58 89 59 82 60 84 61 85 62 86 63 87 64 64 65
REMARK SMILES IDX 65 66 73 67 66 68 68 69 74 70 67 71 69 72 70 73 71 74 72 75
REMARK SMILES IDX 11 76 12 77 13 78 14 79 15 80 16 81 17 82 18 83 19 84 37 85
REMARK SMILES IDX 20 86 36 87 21 88 22 89 23 90 35 91 24 92 34 93 25 94 26 95
REMARK SMILES IDX 27 96 28 97 29 98 33 99 30 100 32 101 31 102
REMARK H PARENT 94 28 62 39
REMARK Flexibility Score: inf
ROOT
ATOM      1  C   UNL A   1      44.195  24.972  29.188  1.00  0.00     0.188 C 
ENDROOT
BRANCH   1   2
ATOM      2  O   UNL A   1      43.807  26.196  29.810  1.00  0.00    -0.377 OA
BRANCH   2   3
ATOM      3  C   UNL A   1      43.286  27.198  28.934  1.00  0.00     0.188 C 
BRANCH   3   4
ATOM      4  C   UNL A   1      41.910  27.743  29.320  1.00  0.00     0.188 C 
BRANCH   4   5
ATOM      5  O   UNL A   1      40.976  27.530  28.269  1.00  0.00    -0.376 OA
BRANCH   5   6
ATOM      6  C   UNL A   1      39.616  27.288  28.599  1.00  0.00     0.202 C 
BRANCH   6   7
ATOM      7  C   UNL A   1      39.026  28.096  29.757  1.00  0.00     0.261 C 
BRANCH   7   8
ATOM      8  O   UNL A   1      38.845  27.365  30.982  1.00  0.00    -0.460 OA
BRANCH   8   9
ATOM      9  C   UNL A   1      38.671  27.837  32.241  1.00  0.00     0.338 C 
ATOM     10  O   UNL A   1      37.984  27.192  33.029  1.00  0.00    -0.246 OA
BRANCH   9  11
ATOM     11  C   UNL A   1      39.304  29.094  32.722  1.00  0.00     0.060 A 
ATOM     12  C   UNL A   1      38.600  30.253  33.029  1.00  0.00     0.016 A 
ATOM     13  C   UNL A   1      40.681  29.079  32.973  1.00  0.00     0.016 A 
ATOM     14  C   UNL A   1      39.242  31.433  33.355  1.00  0.00     0.010 A 
ATOM     15  C   UNL A   1      41.330  30.237  33.414  1.00  0.00     0.010 A 
ATOM     16  C   UNL A   1      40.617  31.439  33.529  1.00  0.00    -0.014 A 
BRANCH  16  17
ATOM     17  C   UNL A   1      41.292  32.745  33.646  1.00  0.00     0.031 A 
ATOM     18  C   UNL A   1      41.683  33.440  32.374  1.00  0.00     0.074 A 
ATOM     19  C   UNL A   1      41.421  33.342  34.846  1.00  0.00     0.049 A 
ATOM     20  N   UNL A   1      42.355  34.543  32.206  1.00  0.00    -0.248 NA
ATOM     21  C   UNL A   1      41.259  32.800  31.114  1.00  0.00     0.031 C 
ATOM     22  C   UNL A   1      40.954  32.790  36.122  1.00  0.00     0.029 A 
ATOM     23  N   UNL A   1      41.954  34.555  35.188  1.00  0.00    -0.354 N 
ATOM     24  C   UNL A   1      42.519  34.675  30.832  1.00  0.00     0.074 A 
ATOM     25  C   UNL A   1      41.855  33.555  30.208  1.00  0.00     0.031 C 
ATOM     26  C   UNL A   1      41.193  33.677  37.100  1.00  0.00     0.029 A 
ATOM     27  C   UNL A   1      41.908  34.815  36.537  1.00  0.00     0.049 A 
ATOM     28  H   UNL A   1      42.335  35.181  34.530  1.00  0.00     0.167 HD
ATOM     29  C   UNL A   1      43.175  35.644  30.158  1.00  0.00     0.034 A 
ATOM     30  C   UNL A   1      42.425  35.843  37.236  1.00  0.00     0.034 A 
ATOM     31  C   UNL A   1      43.774  36.772  30.812  1.00  0.00     0.049 A 
ATOM     32  C   UNL A   1      43.172  36.897  36.464  1.00  0.00     0.074 A 
ATOM     33  C   UNL A   1      44.487  37.816  30.257  1.00  0.00     0.029 A 
ATOM     34  N   UNL A   1      43.721  36.998  32.182  1.00  0.00    -0.354 N 
ATOM     35  N   UNL A   1      43.340  37.006  35.167  1.00  0.00    -0.248 NA
ATOM     36  C   UNL A   1      43.797  37.971  37.246  1.00  0.00     0.031 C 
ATOM     37  C   UNL A   1      44.887  38.661  31.298  1.00  0.00     0.029 A 
ATOM     38  C   UNL A   1      44.393  38.162  32.496  1.00  0.00     0.049 A 
ATOM     39  H   UNL A   1      43.270  36.413  32.832  1.00  0.00     0.167 HD
ATOM     40  C   UNL A   1      44.068  38.172  34.971  1.00  0.00     0.074 A 
ATOM     41  C   UNL A   1      44.284  38.747  36.287  1.00  0.00     0.031 C 
ATOM     42  C   UNL A   1      44.534  38.716  33.819  1.00  0.00     0.034 A 
BRANCH  29  43
ATOM     43  C   UNL A   1      43.310  35.477  28.669  1.00  0.00     0.023 A 
ATOM     44  C   UNL A   1      42.375  36.062  27.792  1.00  0.00     0.012 A 
ATOM     45  C   UNL A   1      44.353  34.690  28.142  1.00  0.00     0.148 A 
ATOM     46  C   UNL A   1      42.448  35.827  26.418  1.00  0.00     0.002 A 
ATOM     47  C   UNL A   1      44.447  34.499  26.770  1.00  0.00     0.091 A 
ATOM     48  F   UNL A   1      45.212  34.115  28.995  1.00  0.00    -0.205 F 
ATOM     49  C   UNL A   1      43.487  35.052  25.908  1.00  0.00     0.022 A 
BRANCH  47  50
ATOM     50  S   UNL A   1      45.782  33.566  26.013  1.00  0.00     0.127 S 
ATOM     51  O   UNL A   1      45.098  32.336  25.620  1.00  0.00    -0.237 OA
ATOM     52  O   UNL A   1      46.166  34.434  24.899  1.00  0.00    -0.237 OA
ATOM     53  O   UNL A   1      46.800  33.414  27.043  1.00  0.00    -0.744 OA
ENDBRANCH  47  50
ENDBRANCH  29  43
BRANCH  30  54
ATOM     54  C   UNL A   1      42.261  35.919  38.717  1.00  0.00     0.023 A 
ATOM     55  C   UNL A   1      43.187  35.270  39.557  1.00  0.00     0.012 A 
ATOM     56  C   UNL A   1      41.206  36.649  39.304  1.00  0.00     0.148 A 
ATOM     57  C   UNL A   1      43.053  35.326  40.946  1.00  0.00     0.002 A 
ATOM     58  C   UNL A   1      41.112  36.749  40.688  1.00  0.00     0.091 A 
ATOM     59  F   UNL A   1      40.317  37.243  38.495  1.00  0.00    -0.205 F 
ATOM     60  C   UNL A   1      42.024  36.073  41.511  1.00  0.00     0.022 A 
BRANCH  58  61
ATOM     61  S   UNL A   1      39.898  37.799  41.496  1.00  0.00     0.127 S 
ATOM     62  O   UNL A   1      40.508  39.119  41.364  1.00  0.00    -0.237 OA
ATOM     63  O   UNL A   1      38.711  37.584  40.668  1.00  0.00    -0.237 OA
ATOM     64  O   UNL A   1      39.780  37.287  42.855  1.00  0.00    -0.744 OA
ENDBRANCH  58  61
ENDBRANCH  30  54
BRANCH  42  65
ATOM     65  C   UNL A   1      45.278  40.015  33.931  1.00  0.00     0.023 A 
ATOM     66  C   UNL A   1      46.683  40.016  34.022  1.00  0.00     0.012 A 
ATOM     67  C   UNL A   1      44.580  41.235  33.859  1.00  0.00     0.148 A 
ATOM     68  C   UNL A   1      47.383  41.220  34.072  1.00  0.00     0.002 A 
ATOM     69  C   UNL A   1      45.288  42.429  33.851  1.00  0.00     0.091 A 
ATOM     70  F   UNL A   1      43.241  41.206  33.795  1.00  0.00    -0.205 F 
ATOM     71  C   UNL A   1      46.688  42.424  33.971  1.00  0.00     0.022 A 
BRANCH  69  72
ATOM     72  S   UNL A   1      44.479  44.013  33.610  1.00  0.00     0.127 S 
ATOM     73  O   UNL A   1      43.965  43.879  32.249  1.00  0.00    -0.237 OA
ATOM     74  O   UNL A   1      43.455  44.001  34.654  1.00  0.00    -0.237 OA
ATOM     75  O   UNL A   1      45.514  45.021  33.794  1.00  0.00    -0.744 OA
ENDBRANCH  69  72
ENDBRANCH  42  65
ENDBRANCH  16  17
ENDBRANCH   9  11
ENDBRANCH   8   9
ENDBRANCH   7   8
ENDBRANCH   6   7
ENDBRANCH   5   6
ENDBRANCH   4   5
ENDBRANCH   3   4
ENDBRANCH   2   3
ENDBRANCH   1   2
BRANCH   1  76
ATOM     76  C   UNL A   1      43.168  24.237  28.294  1.00  0.00     0.188 C 
BRANCH  76  77
ATOM     77  O   UNL A   1      43.738  23.586  27.168  1.00  0.00    -0.376 OA
BRANCH  77  78
ATOM     78  C   UNL A   1      42.810  23.109  26.198  1.00  0.00     0.202 C 
BRANCH  78  79
ATOM     79  C   UNL A   1      42.588  21.586  26.176  1.00  0.00     0.261 C 
BRANCH  79  80
ATOM     80  O   UNL A   1      41.333  21.138  26.717  1.00  0.00    -0.460 OA
BRANCH  80  81
ATOM     81  C   UNL A   1      40.643  20.195  26.043  1.00  0.00     0.339 C 
ATOM     82  O   UNL A   1      40.979  19.044  25.826  1.00  0.00    -0.246 OA
BRANCH  81  83
ATOM     83  C   UNL A   1      39.283  20.724  25.818  1.00  0.00     0.078 A 
ATOM     84  C   UNL A   1      38.299  20.018  25.124  1.00  0.00     0.019 A 
ATOM     85  C   UNL A   1      39.028  22.046  26.154  1.00  0.00     0.127 A 
ATOM     86  C   UNL A   1      37.108  20.667  24.786  1.00  0.00     0.030 A 
ATOM     87  N   UNL A   1      37.882  22.696  25.834  1.00  0.00    -0.255 NA
ATOM     88  C   UNL A   1      36.937  22.003  25.149  1.00  0.00     0.070 A 
BRANCH  88  89
ATOM     89  C   UNL A   1      35.651  22.686  24.983  1.00  0.00     0.000 A 
ATOM     90  C   UNL A   1      34.412  22.029  24.994  1.00  0.00     0.014 A 
ATOM     91  C   UNL A   1      35.658  24.081  24.862  1.00  0.00     0.014 A 
ATOM     92  C   UNL A   1      33.218  22.768  24.987  1.00  0.00     0.047 A 
ATOM     93  C   UNL A   1      34.473  24.811  24.839  1.00  0.00     0.047 A 
ATOM     94  C   UNL A   1      33.250  24.164  24.977  1.00  0.00     0.119 A 
BRANCH  94  95
ATOM     95  O   UNL A   1      32.045  24.796  25.143  1.00  0.00    -0.489 OA
BRANCH  95  96
ATOM     96  C   UNL A   1      31.844  25.512  26.376  1.00  0.00     0.265 C 
BRANCH  96  97
ATOM     97  C   UNL A   1      31.735  27.016  26.210  1.00  0.00    -0.011 A 
ATOM     98  C   UNL A   1      31.646  27.591  24.930  1.00  0.00     0.007 A 
ATOM     99  C   UNL A   1      31.781  27.862  27.326  1.00  0.00     0.007 A 
ATOM    100  C   UNL A   1      31.665  28.976  24.769  1.00  0.00     0.000 A 
ATOM    101  C   UNL A   1      31.781  29.249  27.163  1.00  0.00     0.000 A 
ATOM    102  C   UNL A   1      31.736  29.805  25.886  1.00  0.00     0.000 A 
ENDBRANCH  96  97
ENDBRANCH  95  96
ENDBRANCH  94  95
ENDBRANCH  88  89
ENDBRANCH  81  83
ENDBRANCH  80  81
ENDBRANCH  79  80
ENDBRANCH  78  79
ENDBRANCH  77  78
ENDBRANCH  76  77
ENDBRANCH   1  76
TORSDOF 27
ENDMDL
