MODEL 1
REMARK VINA RESULT:      -9.7      0.000      0.000
REMARK SMILES C[N@H+]1[C@H]2CC[C@@H]1c1sc(=O)n(CCCC(=O)OCCOCCOCCOCCOC(=O)c3ccc(-c4c5nc(c(-c6cccc(S(=O)(=O)[O-])c6F)c6ccc([nH]6)c(-c6cccc(S(=O)(=O)[O-])c6F)c6nc(c(-c7cccc(S(=O)(=O)[O-])c7F)c7ccc4[nH]7)C=C6)C=C5)cc3)c1C2
REMARK SMILES IDX 23 1 22 2 21 3 20 4 19 5 18 6 17 7 15 8 16 9 14 10 13 11
REMARK SMILES IDX 12 12 11 13 1 14 2 15 3 16 6 17 4 19 96 20 5 21 7 22 95 23
REMARK SMILES IDX 8 24 9 25 10 26 24 27 25 28 26 29 27 30 28 31 29 32 30 33
REMARK SMILES IDX 31 34 32 35 33 36 94 37 34 38 93 39 35 40 36 41 37 42 87 43
REMARK SMILES IDX 38 44 92 45 86 46 88 47 39 48 91 49 85 50 84 51 40 53 72 54
REMARK SMILES IDX 52 55 71 56 53 57 56 58 70 59 89 60 54 61 55 62 69 64 90 65
REMARK SMILES IDX 57 66 41 67 42 68 50 69 43 70 45 71 51 72 44 73 46 74 47 75
REMARK SMILES IDX 48 76 49 77 73 78 74 79 82 80 75 81 77 82 83 83 76 84 78 85
REMARK SMILES IDX 79 86 80 87 81 88 58 89 59 90 67 91 60 92 62 93 68 94 61 95
REMARK SMILES IDX 63 96 64 97 65 98 66 99
REMARK H PARENT 2 18 88 52 56 63
REMARK Flexibility Score: inf
ROOT
ATOM      1  O   UNL A   1      37.753  22.427  25.239  1.00  0.00    -0.377 OA
ENDROOT
BRANCH   1   2
ATOM      2  C   UNL A   1      36.826  21.796  24.378  1.00  0.00     0.188 C 
BRANCH   2   3
ATOM      3  C   UNL A   1      35.552  21.245  25.052  1.00  0.00     0.188 C 
BRANCH   3   4
ATOM      4  O   UNL A   1      35.309  21.449  26.438  1.00  0.00    -0.376 OA
BRANCH   4   5
ATOM      5  C   UNL A   1      33.987  21.428  26.954  1.00  0.00     0.202 C 
BRANCH   5   6
ATOM      6  C   UNL A   1      32.826  22.154  26.256  1.00  0.00     0.261 C 
BRANCH   6   7
ATOM      7  O   UNL A   1      31.935  21.326  25.499  1.00  0.00    -0.463 OA
BRANCH   7   8
ATOM      8  C   UNL A   1      32.181  21.201  24.180  1.00  0.00     0.305 C 
ATOM      9  O   UNL A   1      32.283  20.128  23.592  1.00  0.00    -0.252 OA
BRANCH   8  10
ATOM     10  C   UNL A   1      32.214  22.524  23.427  1.00  0.00     0.124 C 
BRANCH  10  11
ATOM     11  C   UNL A   1      33.424  23.060  22.646  1.00  0.00     0.034 C 
BRANCH  11  12
ATOM     12  C   UNL A   1      34.206  24.277  23.140  1.00  0.00     0.127 C 
BRANCH  12  13
ATOM     13  N   UNL A   1      33.457  25.515  23.102  1.00  0.00    -0.302 N 
ATOM     14  C   UNL A   1      34.004  29.605  26.586  1.00  0.00     0.333 C 
ATOM     15  N   UNL A   1      33.717  28.410  25.809  1.00  0.00    -0.328 N 
ATOM     16  C   UNL A   1      33.471  27.190  26.607  1.00  0.00     0.190 C 
ATOM     17  C   UNL A   1      32.481  28.516  24.993  1.00  0.00     0.227 C 
ATOM     18  H   UNL A   1      34.568  28.338  25.251  1.00  0.00     0.348 HD
ATOM     19  C   UNL A   1      32.035  27.391  27.095  1.00  0.00     0.072 C 
ATOM     20  C   UNL A   1      33.616  25.959  25.642  1.00  0.00     0.120 C 
ATOM     21  C   UNL A   1      31.336  28.099  25.934  1.00  0.00     0.077 C 
ATOM     22  C   UNL A   1      32.631  27.467  23.935  1.00  0.00     0.087 A 
ATOM     23  C   UNL A   1      33.191  26.281  24.222  1.00  0.00     0.047 A 
ATOM     24  S   UNL A   1      32.365  27.694  22.250  1.00  0.00    -0.073 S 
ATOM     25  C   UNL A   1      33.133  26.136  21.895  1.00  0.00     0.307 A 
ATOM     26  O   UNL A   1      33.315  25.745  20.760  1.00  0.00    -0.257 OA
ENDBRANCH  12  13
ENDBRANCH  11  12
ENDBRANCH  10  11
ENDBRANCH   8  10
ENDBRANCH   7   8
ENDBRANCH   6   7
ENDBRANCH   5   6
ENDBRANCH   4   5
ENDBRANCH   3   4
ENDBRANCH   2   3
ENDBRANCH   1   2
BRANCH   1  27
ATOM     27  C   UNL A   1      38.812  21.627  25.754  1.00  0.00     0.188 C 
BRANCH  27  28
ATOM     28  C   UNL A   1      38.921  20.142  25.329  1.00  0.00     0.188 C 
BRANCH  28  29
ATOM     29  O   UNL A   1      39.975  19.404  25.939  1.00  0.00    -0.376 OA
BRANCH  29  30
ATOM     30  C   UNL A   1      41.062  20.052  26.580  1.00  0.00     0.202 C 
BRANCH  30  31
ATOM     31  C   UNL A   1      42.478  19.716  26.113  1.00  0.00     0.261 C 
BRANCH  31  32
ATOM     32  O   UNL A   1      42.919  20.483  25.011  1.00  0.00    -0.460 OA
BRANCH  32  33
ATOM     33  C   UNL A   1      44.253  20.460  24.821  1.00  0.00     0.338 C 
ATOM     34  O   UNL A   1      44.955  19.490  24.618  1.00  0.00    -0.246 OA
BRANCH  33  35
ATOM     35  C   UNL A   1      44.756  21.819  25.004  1.00  0.00     0.060 A 
ATOM     36  C   UNL A   1      45.710  21.988  26.004  1.00  0.00     0.016 A 
ATOM     37  C   UNL A   1      44.039  22.887  24.443  1.00  0.00     0.016 A 
ATOM     38  C   UNL A   1      45.742  23.199  26.642  1.00  0.00     0.010 A 
ATOM     39  C   UNL A   1      44.073  24.097  25.081  1.00  0.00     0.010 A 
ATOM     40  C   UNL A   1      44.836  24.188  26.238  1.00  0.00    -0.014 A 
BRANCH  40  41
ATOM     41  C   UNL A   1      44.728  25.361  27.068  1.00  0.00     0.031 A 
ATOM     42  C   UNL A   1      45.822  26.315  26.817  1.00  0.00     0.074 A 
ATOM     43  C   UNL A   1      43.714  25.530  27.935  1.00  0.00     0.049 A 
ATOM     44  N   UNL A   1      46.829  26.561  27.583  1.00  0.00    -0.248 NA
ATOM     45  C   UNL A   1      45.924  26.890  25.467  1.00  0.00     0.031 C 
ATOM     46  C   UNL A   1      42.475  24.754  28.051  1.00  0.00     0.029 A 
ATOM     47  N   UNL A   1      43.525  26.540  28.822  1.00  0.00    -0.354 N 
ATOM     48  C   UNL A   1      47.547  27.541  26.914  1.00  0.00     0.074 A 
ATOM     49  C   UNL A   1      47.089  27.531  25.549  1.00  0.00     0.031 C 
ATOM     50  C   UNL A   1      41.570  25.474  28.754  1.00  0.00     0.029 A 
ATOM     51  C   UNL A   1      42.210  26.680  29.247  1.00  0.00     0.049 A 
ATOM     52  H   UNL A   1      44.255  27.122  29.136  1.00  0.00     0.167 HD
ATOM     53  C   UNL A   1      48.217  28.499  27.604  1.00  0.00     0.034 A 
ATOM     54  C   UNL A   1      41.686  27.766  29.867  1.00  0.00     0.034 A 
ATOM     55  C   UNL A   1      48.445  28.117  28.972  1.00  0.00     0.049 A 
ATOM     56  C   UNL A   1      42.818  28.526  30.452  1.00  0.00     0.074 A 
ATOM     57  C   UNL A   1      49.073  27.054  29.592  1.00  0.00     0.029 A 
ATOM     58  N   UNL A   1      47.625  28.679  29.921  1.00  0.00    -0.354 N 
ATOM     59  N   UNL A   1      43.560  28.070  31.422  1.00  0.00    -0.248 NA
ATOM     60  C   UNL A   1      43.413  29.585  29.651  1.00  0.00     0.031 C 
ATOM     61  C   UNL A   1      48.250  26.748  30.717  1.00  0.00     0.029 A 
ATOM     62  C   UNL A   1      47.211  27.679  30.760  1.00  0.00     0.049 A 
ATOM     63  H   UNL A   1      47.380  29.630  29.984  1.00  0.00     0.167 HD
ATOM     64  C   UNL A   1      44.853  28.433  31.064  1.00  0.00     0.074 A 
ATOM     65  C   UNL A   1      44.689  29.451  30.027  1.00  0.00     0.031 C 
ATOM     66  C   UNL A   1      45.924  27.664  31.422  1.00  0.00     0.034 A 
BRANCH  53  67
ATOM     67  C   UNL A   1      48.288  29.929  27.144  1.00  0.00     0.023 A 
ATOM     68  C   UNL A   1      49.544  30.565  27.164  1.00  0.00     0.012 A 
ATOM     69  C   UNL A   1      47.150  30.747  26.945  1.00  0.00     0.148 A 
ATOM     70  C   UNL A   1      49.657  31.950  27.008  1.00  0.00     0.002 A 
ATOM     71  C   UNL A   1      47.275  32.104  26.691  1.00  0.00     0.091 A 
ATOM     72  F   UNL A   1      45.925  30.253  27.146  1.00  0.00    -0.205 F 
ATOM     73  C   UNL A   1      48.525  32.719  26.752  1.00  0.00     0.022 A 
BRANCH  71  74
ATOM     74  S   UNL A   1      45.843  33.112  26.293  1.00  0.00     0.127 S 
ATOM     75  O   UNL A   1      46.471  34.306  25.736  1.00  0.00    -0.237 OA
ATOM     76  O   UNL A   1      45.144  32.266  25.324  1.00  0.00    -0.237 OA
ATOM     77  O   UNL A   1      45.129  33.284  27.552  1.00  0.00    -0.744 OA
ENDBRANCH  71  74
ENDBRANCH  53  67
BRANCH  54  78
ATOM     78  C   UNL A   1      40.343  28.371  29.704  1.00  0.00     0.023 A 
ATOM     79  C   UNL A   1      39.648  28.211  28.489  1.00  0.00     0.012 A 
ATOM     80  C   UNL A   1      39.626  28.848  30.824  1.00  0.00     0.148 A 
ATOM     81  C   UNL A   1      38.277  28.487  28.401  1.00  0.00     0.002 A 
ATOM     82  C   UNL A   1      38.266  29.127  30.731  1.00  0.00     0.091 A 
ATOM     83  F   UNL A   1      40.255  28.937  32.004  1.00  0.00    -0.205 F 
ATOM     84  C   UNL A   1      37.584  28.936  29.523  1.00  0.00     0.022 A 
BRANCH  82  85
ATOM     85  S   UNL A   1      37.303  29.685  32.144  1.00  0.00     0.127 S 
ATOM     86  O   UNL A   1      36.013  29.991  31.527  1.00  0.00    -0.237 OA
ATOM     87  O   UNL A   1      37.307  28.501  33.000  1.00  0.00    -0.237 OA
ATOM     88  O   UNL A   1      38.005  30.847  32.674  1.00  0.00    -0.744 OA
ENDBRANCH  82  85
ENDBRANCH  54  78
BRANCH  66  89
ATOM     89  C   UNL A   1      45.693  26.554  32.418  1.00  0.00     0.023 A 
ATOM     90  C   UNL A   1      45.336  25.243  32.031  1.00  0.00     0.012 A 
ATOM     91  C   UNL A   1      46.000  26.800  33.766  1.00  0.00     0.148 A 
ATOM     92  C   UNL A   1      45.261  24.212  32.971  1.00  0.00     0.002 A 
ATOM     93  C   UNL A   1      45.968  25.763  34.691  1.00  0.00     0.091 A 
ATOM     94  F   UNL A   1      46.345  28.047  34.118  1.00  0.00    -0.205 F 
ATOM     95  C   UNL A   1      45.588  24.469  34.300  1.00  0.00     0.022 A 
BRANCH  93  96
ATOM     96  S   UNL A   1      46.493  26.006  36.388  1.00  0.00     0.127 S 
ATOM     97  O   UNL A   1      47.774  26.687  36.216  1.00  0.00    -0.237 OA
ATOM     98  O   UNL A   1      45.422  26.845  36.930  1.00  0.00    -0.237 OA
ATOM     99  O   UNL A   1      46.564  24.677  36.981  1.00  0.00    -0.744 OA
ENDBRANCH  93  96
ENDBRANCH  66  89
ENDBRANCH  40  41
ENDBRANCH  33  35
ENDBRANCH  32  33
ENDBRANCH  31  32
ENDBRANCH  30  31
ENDBRANCH  29  30
ENDBRANCH  28  29
ENDBRANCH  27  28
ENDBRANCH   1  27
TORSDOF 26
ENDMDL
MODEL 2
REMARK VINA RESULT:      -9.6      1.655      2.099
REMARK SMILES C[N@H+]1[C@H]2CC[C@@H]1c1sc(=O)n(CCCC(=O)OCCOCCOCCOCCOC(=O)c3ccc(-c4c5nc(c(-c6cccc(S(=O)(=O)[O-])c6F)c6ccc([nH]6)c(-c6cccc(S(=O)(=O)[O-])c6F)c6nc(c(-c7cccc(S(=O)(=O)[O-])c7F)c7ccc4[nH]7)C=C6)C=C5)cc3)c1C2
REMARK SMILES IDX 23 1 22 2 21 3 20 4 19 5 18 6 17 7 15 8 16 9 14 10 13 11
REMARK SMILES IDX 12 12 11 13 1 14 2 15 3 16 6 17 4 19 96 20 5 21 7 22 95 23
REMARK SMILES IDX 8 24 9 25 10 26 24 27 25 28 26 29 27 30 28 31 29 32 30 33
REMARK SMILES IDX 31 34 32 35 33 36 94 37 34 38 93 39 35 40 36 41 37 42 87 43
REMARK SMILES IDX 38 44 92 45 86 46 88 47 39 48 91 49 85 50 84 51 40 53 72 54
REMARK SMILES IDX 52 55 71 56 53 57 56 58 70 59 89 60 54 61 55 62 69 64 90 65
REMARK SMILES IDX 57 66 41 67 42 68 50 69 43 70 45 71 51 72 44 73 46 74 47 75
REMARK SMILES IDX 48 76 49 77 73 78 74 79 82 80 75 81 77 82 83 83 76 84 78 85
REMARK SMILES IDX 79 86 80 87 81 88 58 89 59 90 67 91 60 92 62 93 68 94 61 95
REMARK SMILES IDX 63 96 64 97 65 98 66 99
REMARK H PARENT 2 18 88 52 56 63
REMARK Flexibility Score: inf
ROOT
ATOM      1  O   UNL A   1      35.888  22.814  26.169  1.00  0.00    -0.377 OA
ENDROOT
BRANCH   1   2
ATOM      2  C   UNL A   1      35.219  21.569  26.143  1.00  0.00     0.188 C 
BRANCH   2   3
ATOM      3  C   UNL A   1      33.855  21.525  26.864  1.00  0.00     0.188 C 
BRANCH   3   4
ATOM      4  O   UNL A   1      33.272  22.705  27.401  1.00  0.00    -0.376 OA
BRANCH   4   5
ATOM      5  C   UNL A   1      32.616  23.640  26.558  1.00  0.00     0.202 C 
BRANCH   5   6
ATOM      6  C   UNL A   1      32.449  23.402  25.049  1.00  0.00     0.261 C 
BRANCH   6   7
ATOM      7  O   UNL A   1      33.516  23.874  24.219  1.00  0.00    -0.463 OA
BRANCH   7   8
ATOM      8  C   UNL A   1      33.238  24.081  22.916  1.00  0.00     0.305 C 
ATOM      9  O   UNL A   1      33.743  23.452  21.990  1.00  0.00    -0.252 OA
BRANCH   8  10
ATOM     10  C   UNL A   1      32.138  25.104  22.672  1.00  0.00     0.124 C 
BRANCH  10  11
ATOM     11  C   UNL A   1      32.195  26.220  21.618  1.00  0.00     0.034 C 
BRANCH  11  12
ATOM     12  C   UNL A   1      32.714  27.614  21.970  1.00  0.00     0.127 C 
BRANCH  12  13
ATOM     13  N   UNL A   1      31.910  28.312  22.951  1.00  0.00    -0.302 N 
ATOM     14  C   UNL A   1      33.838  31.127  27.137  1.00  0.00     0.333 C 
ATOM     15  N   UNL A   1      33.346  30.183  26.147  1.00  0.00    -0.328 N 
ATOM     16  C   UNL A   1      33.948  28.834  26.217  1.00  0.00     0.190 C 
ATOM     17  C   UNL A   1      31.894  29.895  26.272  1.00  0.00     0.227 C 
ATOM     18  H   UNL A   1      33.592  30.667  25.284  1.00  0.00     0.348 HD
ATOM     19  C   UNL A   1      33.212  28.198  27.399  1.00  0.00     0.072 C 
ATOM     20  C   UNL A   1      33.645  28.112  24.855  1.00  0.00     0.120 C 
ATOM     21  C   UNL A   1      31.793  28.761  27.308  1.00  0.00     0.077 C 
ATOM     22  C   UNL A   1      31.497  29.353  24.934  1.00  0.00     0.087 A 
ATOM     23  C   UNL A   1      32.323  28.545  24.250  1.00  0.00     0.047 A 
ATOM     24  S   UNL A   1      30.129  29.849  24.015  1.00  0.00    -0.073 S 
ATOM     25  C   UNL A   1      30.745  28.991  22.591  1.00  0.00     0.307 A 
ATOM     26  O   UNL A   1      30.189  29.038  21.513  1.00  0.00    -0.257 OA
ENDBRANCH  12  13
ENDBRANCH  11  12
ENDBRANCH  10  11
ENDBRANCH   8  10
ENDBRANCH   7   8
ENDBRANCH   6   7
ENDBRANCH   5   6
ENDBRANCH   4   5
ENDBRANCH   3   4
ENDBRANCH   2   3
ENDBRANCH   1   2
BRANCH   1  27
ATOM     27  C   UNL A   1      37.255  22.827  25.774  1.00  0.00     0.188 C 
BRANCH  27  28
ATOM     28  C   UNL A   1      37.859  21.582  25.079  1.00  0.00     0.188 C 
BRANCH  28  29
ATOM     29  O   UNL A   1      38.940  20.958  25.765  1.00  0.00    -0.376 OA
BRANCH  29  30
ATOM     30  C   UNL A   1      39.874  21.711  26.521  1.00  0.00     0.202 C 
BRANCH  30  31
ATOM     31  C   UNL A   1      41.310  21.196  26.614  1.00  0.00     0.261 C 
BRANCH  31  32
ATOM     32  O   UNL A   1      42.029  21.268  25.400  1.00  0.00    -0.460 OA
BRANCH  32  33
ATOM     33  C   UNL A   1      43.364  21.156  25.542  1.00  0.00     0.338 C 
ATOM     34  O   UNL A   1      44.014  20.134  25.638  1.00  0.00    -0.246 OA
BRANCH  33  35
ATOM     35  C   UNL A   1      43.918  22.501  25.668  1.00  0.00     0.060 A 
ATOM     36  C   UNL A   1      44.737  22.724  26.772  1.00  0.00     0.016 A 
ATOM     37  C   UNL A   1      43.348  23.540  24.916  1.00  0.00     0.016 A 
ATOM     38  C   UNL A   1      44.753  23.989  27.294  1.00  0.00     0.010 A 
ATOM     39  C   UNL A   1      43.368  24.805  25.439  1.00  0.00     0.010 A 
ATOM     40  C   UNL A   1      43.971  24.975  26.678  1.00  0.00    -0.014 A 
BRANCH  40  41
ATOM     41  C   UNL A   1      43.823  26.228  27.374  1.00  0.00     0.031 A 
ATOM     42  C   UNL A   1      44.948  27.140  27.110  1.00  0.00     0.074 A 
ATOM     43  C   UNL A   1      42.750  26.495  28.140  1.00  0.00     0.049 A 
ATOM     44  N   UNL A   1      45.899  27.454  27.922  1.00  0.00    -0.248 NA
ATOM     45  C   UNL A   1      45.160  27.572  25.720  1.00  0.00     0.031 C 
ATOM     46  C   UNL A   1      41.492  25.747  28.239  1.00  0.00     0.029 A 
ATOM     47  N   UNL A   1      42.513  27.592  28.902  1.00  0.00    -0.354 N 
ATOM     48  C   UNL A   1      46.682  28.354  27.211  1.00  0.00     0.074 A 
ATOM     49  C   UNL A   1      46.327  28.207  25.824  1.00  0.00     0.031 C 
ATOM     50  C   UNL A   1      40.549  26.544  28.795  1.00  0.00     0.029 A 
ATOM     51  C   UNL A   1      41.172  27.788  29.210  1.00  0.00     0.049 A 
ATOM     52  H   UNL A   1      43.227  28.197  29.209  1.00  0.00     0.167 HD
ATOM     53  C   UNL A   1      47.315  29.371  27.850  1.00  0.00     0.034 A 
ATOM     54  C   UNL A   1      40.622  28.938  29.674  1.00  0.00     0.034 A 
ATOM     55  C   UNL A   1      47.435  29.130  29.263  1.00  0.00     0.049 A 
ATOM     56  C   UNL A   1      41.721  29.742  30.262  1.00  0.00     0.074 A 
ATOM     57  C   UNL A   1      47.996  28.130  30.033  1.00  0.00     0.029 A 
ATOM     58  N   UNL A   1      46.556  29.795  30.084  1.00  0.00    -0.354 N 
ATOM     59  N   UNL A   1      42.380  29.382  31.327  1.00  0.00    -0.248 NA
ATOM     60  C   UNL A   1      42.392  30.708  29.405  1.00  0.00     0.031 C 
ATOM     61  C   UNL A   1      47.087  27.950  31.118  1.00  0.00     0.029 A 
ATOM     62  C   UNL A   1      46.063  28.890  30.988  1.00  0.00     0.049 A 
ATOM     63  H   UNL A   1      46.323  30.749  30.031  1.00  0.00     0.167 HD
ATOM     64  C   UNL A   1      43.703  29.694  31.033  1.00  0.00     0.074 A 
ATOM     65  C   UNL A   1      43.633  30.601  29.888  1.00  0.00     0.031 C 
ATOM     66  C   UNL A   1      44.730  28.956  31.548  1.00  0.00     0.034 A 
BRANCH  53  67
ATOM     67  C   UNL A   1      47.445  30.745  27.252  1.00  0.00     0.023 A 
ATOM     68  C   UNL A   1      48.706  31.368  27.302  1.00  0.00     0.012 A 
ATOM     69  C   UNL A   1      46.339  31.550  26.886  1.00  0.00     0.148 A 
ATOM     70  C   UNL A   1      48.855  32.728  27.015  1.00  0.00     0.002 A 
ATOM     71  C   UNL A   1      46.506  32.872  26.505  1.00  0.00     0.091 A 
ATOM     72  F   UNL A   1      45.094  31.090  27.043  1.00  0.00    -0.205 F 
ATOM     73  C   UNL A   1      47.759  33.477  26.597  1.00  0.00     0.022 A 
BRANCH  71  74
ATOM     74  S   UNL A   1      45.125  33.847  25.899  1.00  0.00     0.127 S 
ATOM     75  O   UNL A   1      45.804  35.042  25.407  1.00  0.00    -0.237 OA
ATOM     76  O   UNL A   1      44.576  32.972  24.862  1.00  0.00    -0.237 OA
ATOM     77  O   UNL A   1      44.246  34.029  27.047  1.00  0.00    -0.744 OA
ENDBRANCH  71  74
ENDBRANCH  53  67
BRANCH  54  78
ATOM     78  C   UNL A   1      39.306  29.535  29.349  1.00  0.00     0.023 A 
ATOM     79  C   UNL A   1      38.615  29.116  28.194  1.00  0.00     0.012 A 
ATOM     80  C   UNL A   1      38.599  30.291  30.311  1.00  0.00     0.148 A 
ATOM     81  C   UNL A   1      37.257  29.414  28.019  1.00  0.00     0.002 A 
ATOM     82  C   UNL A   1      37.252  30.589  30.130  1.00  0.00     0.091 A 
ATOM     83  F   UNL A   1      39.221  30.635  31.446  1.00  0.00    -0.205 F 
ATOM     84  C   UNL A   1      36.573  30.142  28.990  1.00  0.00     0.022 A 
BRANCH  82  85
ATOM     85  S   UNL A   1      36.300  31.501  31.353  1.00  0.00     0.127 S 
ATOM     86  O   UNL A   1      36.130  30.503  32.409  1.00  0.00    -0.237 OA
ATOM     87  O   UNL A   1      37.207  32.598  31.687  1.00  0.00    -0.237 OA
ATOM     88  O   UNL A   1      35.061  31.889  30.690  1.00  0.00    -0.744 OA
ENDBRANCH  82  85
ENDBRANCH  54  78
BRANCH  66  89
ATOM     89  C   UNL A   1      44.407  27.956  32.632  1.00  0.00     0.023 A 
ATOM     90  C   UNL A   1      44.226  26.580  32.371  1.00  0.00     0.012 A 
ATOM     91  C   UNL A   1      44.445  28.392  33.966  1.00  0.00     0.148 A 
ATOM     92  C   UNL A   1      44.059  25.667  33.416  1.00  0.00     0.002 A 
ATOM     93  C   UNL A   1      44.323  27.476  35.004  1.00  0.00     0.091 A 
ATOM     94  F   UNL A   1      44.626  29.700  34.198  1.00  0.00    -0.205 F 
ATOM     95  C   UNL A   1      44.119  26.113  34.734  1.00  0.00     0.022 A 
BRANCH  93  96
ATOM     96  S   UNL A   1      44.512  27.973  36.717  1.00  0.00     0.127 S 
ATOM     97  O   UNL A   1      45.824  28.614  36.706  1.00  0.00    -0.237 OA
ATOM     98  O   UNL A   1      43.385  28.888  36.903  1.00  0.00    -0.237 OA
ATOM     99  O   UNL A   1      44.419  26.748  37.503  1.00  0.00    -0.744 OA
ENDBRANCH  93  96
ENDBRANCH  66  89
ENDBRANCH  40  41
ENDBRANCH  33  35
ENDBRANCH  32  33
ENDBRANCH  31  32
ENDBRANCH  30  31
ENDBRANCH  29  30
ENDBRANCH  28  29
ENDBRANCH  27  28
ENDBRANCH   1  27
TORSDOF 26
ENDMDL
MODEL 3
REMARK VINA RESULT:      -9.1      2.427      6.578
REMARK SMILES C[N@H+]1[C@H]2CC[C@@H]1c1sc(=O)n(CCCC(=O)OCCOCCOCCOCCOC(=O)c3ccc(-c4c5nc(c(-c6cccc(S(=O)(=O)[O-])c6F)c6ccc([nH]6)c(-c6cccc(S(=O)(=O)[O-])c6F)c6nc(c(-c7cccc(S(=O)(=O)[O-])c7F)c7ccc4[nH]7)C=C6)C=C5)cc3)c1C2
REMARK SMILES IDX 23 1 22 2 21 3 20 4 19 5 18 6 17 7 15 8 16 9 14 10 13 11
REMARK SMILES IDX 12 12 11 13 1 14 2 15 3 16 6 17 4 19 96 20 5 21 7 22 95 23
REMARK SMILES IDX 8 24 9 25 10 26 24 27 25 28 26 29 27 30 28 31 29 32 30 33
REMARK SMILES IDX 31 34 32 35 33 36 94 37 34 38 93 39 35 40 36 41 37 42 87 43
REMARK SMILES IDX 38 44 92 45 86 46 88 47 39 48 91 49 85 50 84 51 40 53 72 54
REMARK SMILES IDX 52 55 71 56 53 57 56 58 70 59 89 60 54 61 55 62 69 64 90 65
REMARK SMILES IDX 57 66 41 67 42 68 50 69 43 70 45 71 51 72 44 73 46 74 47 75
REMARK SMILES IDX 48 76 49 77 73 78 74 79 82 80 75 81 77 82 83 83 76 84 78 85
REMARK SMILES IDX 79 86 80 87 81 88 58 89 59 90 67 91 60 92 62 93 68 94 61 95
REMARK SMILES IDX 63 96 64 97 65 98 66 99
REMARK H PARENT 2 18 88 52 56 63
REMARK Flexibility Score: inf
ROOT
ATOM      1  O   UNL A   1      35.011  23.524  26.370  1.00  0.00    -0.377 OA
ENDROOT
BRANCH   1   2
ATOM      2  C   UNL A   1      34.776  22.421  27.222  1.00  0.00     0.188 C 
BRANCH   2   3
ATOM      3  C   UNL A   1      33.319  22.239  27.697  1.00  0.00     0.188 C 
BRANCH   3   4
ATOM      4  O   UNL A   1      32.373  23.293  27.579  1.00  0.00    -0.376 OA
BRANCH   4   5
ATOM      5  C   UNL A   1      31.503  23.366  26.460  1.00  0.00     0.202 C 
BRANCH   5   6
ATOM      6  C   UNL A   1      31.245  22.157  25.546  1.00  0.00     0.261 C 
BRANCH   6   7
ATOM      7  O   UNL A   1      31.646  22.309  24.180  1.00  0.00    -0.463 OA
BRANCH   7   8
ATOM      8  C   UNL A   1      32.953  22.140  23.899  1.00  0.00     0.305 C 
ATOM      9  O   UNL A   1      33.600  21.136  24.186  1.00  0.00    -0.252 OA
BRANCH   8  10
ATOM     10  C   UNL A   1      33.562  23.266  23.077  1.00  0.00     0.124 C 
BRANCH  10  11
ATOM     11  C   UNL A   1      32.910  24.639  22.850  1.00  0.00     0.034 C 
BRANCH  11  12
ATOM     12  C   UNL A   1      33.630  25.930  23.242  1.00  0.00     0.127 C 
BRANCH  12  13
ATOM     13  N   UNL A   1      32.849  26.806  24.090  1.00  0.00    -0.302 N 
ATOM     14  C   UNL A   1      27.712  28.229  23.224  1.00  0.00     0.333 C 
ATOM     15  N   UNL A   1      29.148  28.017  23.308  1.00  0.00    -0.328 N 
ATOM     16  C   UNL A   1      29.899  28.332  22.075  1.00  0.00     0.190 C 
ATOM     17  C   UNL A   1      29.816  28.874  24.321  1.00  0.00     0.227 C 
ATOM     18  H   UNL A   1      29.180  27.023  23.533  1.00  0.00     0.348 HD
ATOM     19  C   UNL A   1      29.979  29.860  22.111  1.00  0.00     0.072 C 
ATOM     20  C   UNL A   1      31.309  27.650  22.195  1.00  0.00     0.120 C 
ATOM     21  C   UNL A   1      30.120  30.197  23.595  1.00  0.00     0.077 C 
ATOM     22  C   UNL A   1      31.112  28.183  24.610  1.00  0.00     0.087 A 
ATOM     23  C   UNL A   1      31.800  27.579  23.629  1.00  0.00     0.047 A 
ATOM     24  S   UNL A   1      31.748  27.855  26.176  1.00  0.00    -0.073 S 
ATOM     25  C   UNL A   1      32.963  26.768  25.480  1.00  0.00     0.307 A 
ATOM     26  O   UNL A   1      33.730  26.127  26.168  1.00  0.00    -0.257 OA
ENDBRANCH  12  13
ENDBRANCH  11  12
ENDBRANCH  10  11
ENDBRANCH   8  10
ENDBRANCH   7   8
ENDBRANCH   6   7
ENDBRANCH   5   6
ENDBRANCH   4   5
ENDBRANCH   3   4
ENDBRANCH   2   3
ENDBRANCH   1   2
BRANCH   1  27
ATOM     27  C   UNL A   1      36.303  23.629  25.782  1.00  0.00     0.188 C 
BRANCH  27  28
ATOM     28  C   UNL A   1      36.799  22.514  24.829  1.00  0.00     0.188 C 
BRANCH  28  29
ATOM     29  O   UNL A   1      37.566  21.480  25.439  1.00  0.00    -0.376 OA
BRANCH  29  30
ATOM     30  C   UNL A   1      38.640  21.772  26.318  1.00  0.00     0.202 C 
BRANCH  30  31
ATOM     31  C   UNL A   1      40.066  21.554  25.812  1.00  0.00     0.261 C 
BRANCH  31  32
ATOM     32  O   UNL A   1      40.650  20.338  26.235  1.00  0.00    -0.460 OA
BRANCH  32  33
ATOM     33  C   UNL A   1      41.941  20.193  25.881  1.00  0.00     0.338 C 
ATOM     34  O   UNL A   1      42.415  19.358  25.137  1.00  0.00    -0.246 OA
BRANCH  33  35
ATOM     35  C   UNL A   1      42.726  21.167  26.635  1.00  0.00     0.060 A 
ATOM     36  C   UNL A   1      42.545  21.160  28.016  1.00  0.00     0.016 A 
ATOM     37  C   UNL A   1      43.318  22.238  25.947  1.00  0.00     0.016 A 
ATOM     38  C   UNL A   1      42.701  22.350  28.675  1.00  0.00     0.010 A 
ATOM     39  C   UNL A   1      43.475  23.426  26.608  1.00  0.00     0.010 A 
ATOM     40  C   UNL A   1      43.050  23.483  27.929  1.00  0.00    -0.014 A 
BRANCH  40  41
ATOM     41  C   UNL A   1      42.981  24.758  28.597  1.00  0.00     0.031 A 
ATOM     42  C   UNL A   1      41.702  25.443  28.345  1.00  0.00     0.074 A 
ATOM     43  C   UNL A   1      43.982  25.211  29.373  1.00  0.00     0.049 A 
ATOM     44  N   UNL A   1      41.508  26.470  27.590  1.00  0.00    -0.248 NA
ATOM     45  C   UNL A   1      40.474  24.777  28.804  1.00  0.00     0.031 C 
ATOM     46  C   UNL A   1      45.155  24.480  29.866  1.00  0.00     0.029 A 
ATOM     47  N   UNL A   1      44.084  26.410  30.000  1.00  0.00    -0.354 N 
ATOM     48  C   UNL A   1      40.152  26.739  27.709  1.00  0.00     0.074 A 
ATOM     49  C   UNL A   1      39.541  25.557  28.259  1.00  0.00     0.031 C 
ATOM     50  C   UNL A   1      45.688  25.159  30.909  1.00  0.00     0.029 A 
ATOM     51  C   UNL A   1      44.985  26.420  31.058  1.00  0.00     0.049 A 
ATOM     52  H   UNL A   1      43.566  27.202  29.730  1.00  0.00     0.167 HD
ATOM     53  C   UNL A   1      39.695  28.017  27.657  1.00  0.00     0.034 A 
ATOM     54  C   UNL A   1      45.055  27.360  32.033  1.00  0.00     0.034 A 
ATOM     55  C   UNL A   1      40.650  28.907  27.052  1.00  0.00     0.049 A 
ATOM     56  C   UNL A   1      44.392  28.581  31.513  1.00  0.00     0.074 A 
ATOM     57  C   UNL A   1      41.295  28.954  25.831  1.00  0.00     0.029 A 
ATOM     58  N   UNL A   1      41.380  29.706  27.898  1.00  0.00    -0.354 N 
ATOM     59  N   UNL A   1      44.860  29.279  30.517  1.00  0.00    -0.248 NA
ATOM     60  C   UNL A   1      42.976  28.759  31.796  1.00  0.00     0.031 C 
ATOM     61  C   UNL A   1      42.620  29.388  26.133  1.00  0.00     0.029 A 
ATOM     62  C   UNL A   1      42.691  29.645  27.504  1.00  0.00     0.049 A 
ATOM     63  H   UNL A   1      41.024  30.228  28.653  1.00  0.00     0.167 HD
ATOM     64  C   UNL A   1      43.734  29.603  29.768  1.00  0.00     0.074 A 
ATOM     65  C   UNL A   1      42.601  29.351  30.657  1.00  0.00     0.031 C 
ATOM     66  C   UNL A   1      43.811  29.755  28.413  1.00  0.00     0.034 A 
BRANCH  53  67
ATOM     67  C   UNL A   1      38.571  28.511  28.525  1.00  0.00     0.023 A 
ATOM     68  C   UNL A   1      37.470  29.119  27.892  1.00  0.00     0.012 A 
ATOM     69  C   UNL A   1      38.664  28.641  29.932  1.00  0.00     0.148 A 
ATOM     70  C   UNL A   1      36.517  29.834  28.625  1.00  0.00     0.002 A 
ATOM     71  C   UNL A   1      37.665  29.264  30.664  1.00  0.00     0.091 A 
ATOM     72  F   UNL A   1      39.789  28.295  30.564  1.00  0.00    -0.205 F 
ATOM     73  C   UNL A   1      36.603  29.890  30.013  1.00  0.00     0.022 A 
BRANCH  71  74
ATOM     74  S   UNL A   1      37.711  29.297  32.458  1.00  0.00     0.127 S 
ATOM     75  O   UNL A   1      36.477  30.012  32.770  1.00  0.00    -0.237 OA
ATOM     76  O   UNL A   1      37.703  27.870  32.783  1.00  0.00    -0.237 OA
ATOM     77  O   UNL A   1      38.955  29.975  32.801  1.00  0.00    -0.744 OA
ENDBRANCH  71  74
ENDBRANCH  53  67
BRANCH  54  78
ATOM     78  C   UNL A   1      45.340  27.181  33.476  1.00  0.00     0.023 A 
ATOM     79  C   UNL A   1      46.169  28.104  34.144  1.00  0.00     0.012 A 
ATOM     80  C   UNL A   1      44.574  26.286  34.258  1.00  0.00     0.148 A 
ATOM     81  C   UNL A   1      46.211  28.154  35.544  1.00  0.00     0.002 A 
ATOM     82  C   UNL A   1      44.623  26.336  35.647  1.00  0.00     0.091 A 
ATOM     83  F   UNL A   1      43.727  25.452  33.640  1.00  0.00    -0.205 F 
ATOM     84  C   UNL A   1      45.431  27.278  36.295  1.00  0.00     0.022 A 
BRANCH  82  85
ATOM     85  S   UNL A   1      43.625  25.253  36.680  1.00  0.00     0.127 S 
ATOM     86  O   UNL A   1      43.986  25.703  38.024  1.00  0.00    -0.237 OA
ATOM     87  O   UNL A   1      42.269  25.599  36.261  1.00  0.00    -0.237 OA
ATOM     88  O   UNL A   1      44.053  23.895  36.368  1.00  0.00    -0.744 OA
ENDBRANCH  82  85
ENDBRANCH  54  78
BRANCH  66  89
ATOM     89  C   UNL A   1      45.183  29.804  27.785  1.00  0.00     0.023 A 
ATOM     90  C   UNL A   1      45.962  30.982  27.746  1.00  0.00     0.012 A 
ATOM     91  C   UNL A   1      45.764  28.596  27.368  1.00  0.00     0.148 A 
ATOM     92  C   UNL A   1      47.278  30.956  27.275  1.00  0.00     0.002 A 
ATOM     93  C   UNL A   1      47.086  28.566  26.943  1.00  0.00     0.091 A 
ATOM     94  F   UNL A   1      45.014  27.485  27.419  1.00  0.00    -0.205 F 
ATOM     95  C   UNL A   1      47.845  29.746  26.885  1.00  0.00     0.022 A 
BRANCH  93  96
ATOM     96  S   UNL A   1      47.905  27.021  26.542  1.00  0.00     0.127 S 
ATOM     97  O   UNL A   1      47.084  26.046  27.256  1.00  0.00    -0.237 OA
ATOM     98  O   UNL A   1      47.784  26.972  25.084  1.00  0.00    -0.237 OA
ATOM     99  O   UNL A   1      49.276  27.157  27.020  1.00  0.00    -0.744 OA
ENDBRANCH  93  96
ENDBRANCH  66  89
ENDBRANCH  40  41
ENDBRANCH  33  35
ENDBRANCH  32  33
ENDBRANCH  31  32
ENDBRANCH  30  31
ENDBRANCH  29  30
ENDBRANCH  28  29
ENDBRANCH  27  28
ENDBRANCH   1  27
TORSDOF 26
ENDMDL
