MODEL 1
REMARK VINA RESULT:      -8.7      0.000      0.000
REMARK SMILES O=C(OCCOCCOCCOCCOC(=O)c1ccccc1/C=N/n1cnnc1SCc1ccccc1)c1ccc(-c2c3nc(c(-c4cccc(S(=O)(=O)[O-])c4F)c4ccc([nH]4)c(-c4cccc(S(=O)(=O)[O-])c4F)c4nc(c(-c5cccc(S(=O)(=O)[O-])c5F)c5ccc2[nH]5)C=C4)C=C3)cc1
REMARK SMILES IDX 10 1 9 2 8 3 7 4 6 5 5 6 4 7 3 8 2 9 1 10 39 11 40 12 101 13
REMARK SMILES IDX 41 14 100 15 42 16 43 17 44 18 94 19 45 20 99 21 93 22 95 23
REMARK SMILES IDX 46 24 98 25 92 26 91 27 47 29 79 30 59 31 78 32 60 33 63 34
REMARK SMILES IDX 77 35 96 36 61 37 62 38 76 40 97 41 64 42 48 43 49 44 57 45
REMARK SMILES IDX 50 46 52 47 58 48 51 49 53 50 54 51 55 52 56 53 80 54 81 55
REMARK SMILES IDX 89 56 82 57 84 58 90 59 83 60 85 61 86 62 87 63 88 64 65 65
REMARK SMILES IDX 66 66 74 67 67 68 69 69 75 70 68 71 70 72 71 73 72 74 73 75
REMARK SMILES IDX 11 76 12 77 13 78 14 79 15 80 16 81 17 82 18 83 19 84 23 85
REMARK SMILES IDX 20 86 22 87 21 88 24 89 25 90 26 91 27 92 30 93 28 94 29 95
REMARK SMILES IDX 31 96 32 97 33 98 34 99 38 100 35 101 37 102 36 103
REMARK H PARENT 95 28 63 39
REMARK Flexibility Score: inf
ROOT
ATOM      1  C   UNL A   1      34.031  35.103  32.188  1.00  0.00     0.188 C 
ENDROOT
BRANCH   1   2
ATOM      2  O   UNL A   1      33.308  34.696  31.052  1.00  0.00    -0.377 OA
BRANCH   2   3
ATOM      3  C   UNL A   1      33.826  35.229  29.844  1.00  0.00     0.188 C 
BRANCH   3   4
ATOM      4  C   UNL A   1      32.887  35.292  28.620  1.00  0.00     0.188 C 
BRANCH   4   5
ATOM      5  O   UNL A   1      32.556  34.227  27.737  1.00  0.00    -0.376 OA
BRANCH   5   6
ATOM      6  C   UNL A   1      32.486  32.828  27.912  1.00  0.00     0.202 C 
BRANCH   6   7
ATOM      7  C   UNL A   1      33.237  31.794  27.079  1.00  0.00     0.261 C 
BRANCH   7   8
ATOM      8  O   UNL A   1      34.349  31.196  27.718  1.00  0.00    -0.460 OA
BRANCH   8   9
ATOM      9  C   UNL A   1      35.526  31.784  28.008  1.00  0.00     0.338 C 
ATOM     10  O   UNL A   1      35.702  32.935  27.611  1.00  0.00    -0.246 OA
BRANCH   9  11
ATOM     11  C   UNL A   1      36.657  31.099  28.693  1.00  0.00     0.060 A 
ATOM     12  C   UNL A   1      37.748  31.709  29.319  1.00  0.00     0.016 A 
ATOM     13  C   UNL A   1      36.587  29.692  28.669  1.00  0.00     0.016 A 
ATOM     14  C   UNL A   1      38.848  30.961  29.661  1.00  0.00     0.010 A 
ATOM     15  C   UNL A   1      37.665  28.929  29.056  1.00  0.00     0.010 A 
ATOM     16  C   UNL A   1      38.821  29.594  29.422  1.00  0.00    -0.014 A 
BRANCH  16  17
ATOM     17  C   UNL A   1      40.083  28.907  29.534  1.00  0.00     0.031 A 
ATOM     18  C   UNL A   1      40.579  28.827  30.926  1.00  0.00     0.074 A 
ATOM     19  C   UNL A   1      40.693  28.467  28.416  1.00  0.00     0.049 A 
ATOM     20  N   UNL A   1      41.594  29.441  31.436  1.00  0.00    -0.248 NA
ATOM     21  C   UNL A   1      39.708  28.181  31.919  1.00  0.00     0.031 C 
ATOM     22  C   UNL A   1      40.131  28.354  27.064  1.00  0.00     0.029 A 
ATOM     23  N   UNL A   1      41.911  27.891  28.281  1.00  0.00    -0.354 N 
ATOM     24  C   UNL A   1      41.638  29.029  32.767  1.00  0.00     0.074 A 
ATOM     25  C   UNL A   1      40.347  28.470  33.053  1.00  0.00     0.031 C 
ATOM     26  C   UNL A   1      40.877  27.483  26.350  1.00  0.00     0.029 A 
ATOM     27  C   UNL A   1      42.031  27.102  27.144  1.00  0.00     0.049 A 
ATOM     28  H   UNL A   1      42.643  28.020  28.927  1.00  0.00     0.167 HD
ATOM     29  C   UNL A   1      42.833  28.896  33.406  1.00  0.00     0.034 A 
ATOM     30  C   UNL A   1      42.949  26.124  26.944  1.00  0.00     0.034 A 
ATOM     31  C   UNL A   1      43.852  29.681  32.749  1.00  0.00     0.049 A 
ATOM     32  C   UNL A   1      44.058  26.369  27.899  1.00  0.00     0.074 A 
ATOM     33  C   UNL A   1      44.018  31.023  32.467  1.00  0.00     0.029 A 
ATOM     34  N   UNL A   1      44.712  29.008  31.914  1.00  0.00    -0.354 N 
ATOM     35  N   UNL A   1      44.831  27.419  27.838  1.00  0.00    -0.248 NA
ATOM     36  C   UNL A   1      43.982  25.720  29.200  1.00  0.00     0.031 C 
ATOM     37  C   UNL A   1      44.610  31.056  31.171  1.00  0.00     0.029 A 
ATOM     38  C   UNL A   1      44.849  29.740  30.766  1.00  0.00     0.049 A 
ATOM     39  H   UNL A   1      45.154  28.151  32.108  1.00  0.00     0.167 HD
ATOM     40  C   UNL A   1      44.955  27.831  29.160  1.00  0.00     0.074 A 
ATOM     41  C   UNL A   1      44.494  26.695  29.959  1.00  0.00     0.031 C 
ATOM     42  C   UNL A   1      45.119  29.151  29.473  1.00  0.00     0.034 A 
BRANCH  29  43
ATOM     43  C   UNL A   1      43.193  27.712  34.291  1.00  0.00     0.023 A 
ATOM     44  C   UNL A   1      43.492  28.005  35.642  1.00  0.00     0.012 A 
ATOM     45  C   UNL A   1      43.560  26.426  33.828  1.00  0.00     0.148 A 
ATOM     46  C   UNL A   1      44.227  27.124  36.442  1.00  0.00     0.002 A 
ATOM     47  C   UNL A   1      44.248  25.533  34.641  1.00  0.00     0.091 A 
ATOM     48  F   UNL A   1      43.342  26.068  32.565  1.00  0.00    -0.205 F 
ATOM     49  C   UNL A   1      44.619  25.892  35.937  1.00  0.00     0.022 A 
BRANCH  47  50
ATOM     50  S   UNL A   1      44.762  23.915  34.042  1.00  0.00     0.127 S 
ATOM     51  O   UNL A   1      45.651  24.284  32.944  1.00  0.00    -0.237 OA
ATOM     52  O   UNL A   1      45.427  23.363  35.222  1.00  0.00    -0.237 OA
ATOM     53  O   UNL A   1      43.539  23.220  33.663  1.00  0.00    -0.744 OA
ENDBRANCH  47  50
ENDBRANCH  29  43
BRANCH  30  54
ATOM     54  C   UNL A   1      42.763  24.819  26.263  1.00  0.00     0.023 A 
ATOM     55  C   UNL A   1      43.712  24.381  25.318  1.00  0.00     0.012 A 
ATOM     56  C   UNL A   1      41.810  23.884  26.728  1.00  0.00     0.148 A 
ATOM     57  C   UNL A   1      43.722  23.053  24.869  1.00  0.00     0.002 A 
ATOM     58  C   UNL A   1      41.818  22.570  26.273  1.00  0.00     0.091 A 
ATOM     59  F   UNL A   1      40.954  24.257  27.688  1.00  0.00    -0.205 F 
ATOM     60  C   UNL A   1      42.781  22.146  25.350  1.00  0.00     0.022 A 
BRANCH  58  61
ATOM     61  S   UNL A   1      40.645  21.341  26.867  1.00  0.00     0.127 S 
ATOM     62  O   UNL A   1      39.371  21.893  26.405  1.00  0.00    -0.237 OA
ATOM     63  O   UNL A   1      41.084  20.139  26.163  1.00  0.00    -0.237 OA
ATOM     64  O   UNL A   1      40.796  21.314  28.316  1.00  0.00    -0.744 OA
ENDBRANCH  58  61
ENDBRANCH  30  54
BRANCH  42  65
ATOM     65  C   UNL A   1      45.388  30.121  28.350  1.00  0.00     0.023 A 
ATOM     66  C   UNL A   1      44.360  30.830  27.692  1.00  0.00     0.012 A 
ATOM     67  C   UNL A   1      46.723  30.460  28.088  1.00  0.00     0.148 A 
ATOM     68  C   UNL A   1      44.664  31.845  26.777  1.00  0.00     0.002 A 
ATOM     69  C   UNL A   1      47.021  31.499  27.216  1.00  0.00     0.091 A 
ATOM     70  F   UNL A   1      47.685  29.780  28.729  1.00  0.00    -0.205 F 
ATOM     71  C   UNL A   1      45.995  32.188  26.550  1.00  0.00     0.022 A 
BRANCH  69  72
ATOM     72  S   UNL A   1      48.704  32.073  26.989  1.00  0.00     0.127 S 
ATOM     73  O   UNL A   1      48.529  33.160  26.030  1.00  0.00    -0.237 OA
ATOM     74  O   UNL A   1      49.073  32.500  28.341  1.00  0.00    -0.237 OA
ATOM     75  O   UNL A   1      49.458  30.923  26.504  1.00  0.00    -0.744 OA
ENDBRANCH  69  72
ENDBRANCH  42  65
ENDBRANCH  16  17
ENDBRANCH   9  11
ENDBRANCH   8   9
ENDBRANCH   7   8
ENDBRANCH   6   7
ENDBRANCH   5   6
ENDBRANCH   4   5
ENDBRANCH   3   4
ENDBRANCH   2   3
ENDBRANCH   1   2
BRANCH   1  76
ATOM     76  C   UNL A   1      34.550  33.919  33.036  1.00  0.00     0.188 C 
BRANCH  76  77
ATOM     77  O   UNL A   1      35.923  33.570  33.069  1.00  0.00    -0.376 OA
BRANCH  77  78
ATOM     78  C   UNL A   1      36.698  33.673  34.251  1.00  0.00     0.202 C 
BRANCH  78  79
ATOM     79  C   UNL A   1      37.473  32.483  34.831  1.00  0.00     0.261 C 
BRANCH  79  80
ATOM     80  O   UNL A   1      37.279  32.215  36.220  1.00  0.00    -0.460 OA
BRANCH  80  81
ATOM     81  C   UNL A   1      38.083  31.301  36.800  1.00  0.00     0.338 C 
ATOM     82  O   UNL A   1      37.770  30.278  37.386  1.00  0.00    -0.246 OA
BRANCH  81  83
ATOM     83  C   UNL A   1      39.469  31.746  36.572  1.00  0.00     0.068 A 
ATOM     84  C   UNL A   1      40.190  31.245  35.471  1.00  0.00     0.016 A 
ATOM     85  C   UNL A   1      40.038  32.707  37.406  1.00  0.00     0.009 A 
ATOM     86  C   UNL A   1      41.475  31.711  35.198  1.00  0.00     0.001 A 
ATOM     87  C   UNL A   1      41.358  33.082  37.176  1.00  0.00     0.010 A 
ATOM     88  C   UNL A   1      42.075  32.604  36.076  1.00  0.00     0.001 A 
BRANCH  85  89
ATOM     89  C   UNL A   1      39.242  33.337  38.485  1.00  0.00     0.143 C 
ATOM     90  N   UNL A   1      39.005  32.785  39.635  1.00  0.00    -0.172 NA
BRANCH  90  91
ATOM     91  N   UNL A   1      38.238  33.545  40.501  1.00  0.00    -0.195 N 
ATOM     92  C   UNL A   1      37.066  33.196  41.148  1.00  0.00     0.251 A 
ATOM     93  C   UNL A   1      38.474  34.835  40.956  1.00  0.00     0.212 A 
ATOM     94  N   UNL A   1      36.598  34.190  41.861  1.00  0.00    -0.136 NA
ATOM     95  N   UNL A   1      37.484  35.222  41.739  1.00  0.00    -0.122 NA
BRANCH  93  96
ATOM     96  S   UNL A   1      39.766  35.921  40.559  1.00  0.00    -0.080 SA
BRANCH  96  97
ATOM     97  C   UNL A   1      39.393  36.693  38.981  1.00  0.00     0.113 C 
BRANCH  97  98
ATOM     98  C   UNL A   1      40.398  36.554  37.860  1.00  0.00    -0.038 A 
ATOM     99  C   UNL A   1      40.065  36.401  36.509  1.00  0.00     0.004 A 
ATOM    100  C   UNL A   1      41.758  36.586  38.198  1.00  0.00     0.004 A 
ATOM    101  C   UNL A   1      41.056  36.443  35.524  1.00  0.00     0.000 A 
ATOM    102  C   UNL A   1      42.747  36.674  37.216  1.00  0.00     0.000 A 
ATOM    103  C   UNL A   1      42.391  36.626  35.875  1.00  0.00     0.000 A 
ENDBRANCH  97  98
ENDBRANCH  96  97
ENDBRANCH  93  96
ENDBRANCH  90  91
ENDBRANCH  85  89
ENDBRANCH  81  83
ENDBRANCH  80  81
ENDBRANCH  79  80
ENDBRANCH  78  79
ENDBRANCH  77  78
ENDBRANCH  76  77
ENDBRANCH   1  76
TORSDOF 28
ENDMDL
MODEL 2
REMARK VINA RESULT:      -8.3      4.276     10.140
REMARK SMILES O=C(OCCOCCOCCOCCOC(=O)c1ccccc1/C=N/n1cnnc1SCc1ccccc1)c1ccc(-c2c3nc(c(-c4cccc(S(=O)(=O)[O-])c4F)c4ccc([nH]4)c(-c4cccc(S(=O)(=O)[O-])c4F)c4nc(c(-c5cccc(S(=O)(=O)[O-])c5F)c5ccc2[nH]5)C=C4)C=C3)cc1
REMARK SMILES IDX 10 1 9 2 8 3 7 4 6 5 5 6 4 7 3 8 2 9 1 10 39 11 40 12 101 13
REMARK SMILES IDX 41 14 100 15 42 16 43 17 44 18 94 19 45 20 99 21 93 22 95 23
REMARK SMILES IDX 46 24 98 25 92 26 91 27 47 29 79 30 59 31 78 32 60 33 63 34
REMARK SMILES IDX 77 35 96 36 61 37 62 38 76 40 97 41 64 42 48 43 49 44 57 45
REMARK SMILES IDX 50 46 52 47 58 48 51 49 53 50 54 51 55 52 56 53 80 54 81 55
REMARK SMILES IDX 89 56 82 57 84 58 90 59 83 60 85 61 86 62 87 63 88 64 65 65
REMARK SMILES IDX 66 66 74 67 67 68 69 69 75 70 68 71 70 72 71 73 72 74 73 75
REMARK SMILES IDX 11 76 12 77 13 78 14 79 15 80 16 81 17 82 18 83 19 84 23 85
REMARK SMILES IDX 20 86 22 87 21 88 24 89 25 90 26 91 27 92 30 93 28 94 29 95
REMARK SMILES IDX 31 96 32 97 33 98 34 99 38 100 35 101 37 102 36 103
REMARK H PARENT 95 28 63 39
REMARK Flexibility Score: inf
ROOT
ATOM      1  C   UNL A   1      32.191  29.155  26.847  1.00  0.00     0.188 C 
ENDROOT
BRANCH   1   2
ATOM      2  O   UNL A   1      31.605  30.422  27.029  1.00  0.00    -0.377 OA
BRANCH   2   3
ATOM      3  C   UNL A   1      32.554  31.476  27.040  1.00  0.00     0.188 C 
BRANCH   3   4
ATOM      4  C   UNL A   1      32.031  32.917  27.223  1.00  0.00     0.188 C 
BRANCH   4   5
ATOM      5  O   UNL A   1      32.636  33.960  27.977  1.00  0.00    -0.376 OA
BRANCH   5   6
ATOM      6  C   UNL A   1      33.952  34.467  28.022  1.00  0.00     0.202 C 
BRANCH   6   7
ATOM      7  C   UNL A   1      35.225  33.636  27.898  1.00  0.00     0.261 C 
BRANCH   7   8
ATOM      8  O   UNL A   1      35.164  32.347  28.479  1.00  0.00    -0.460 OA
BRANCH   8   9
ATOM      9  C   UNL A   1      35.471  32.017  29.748  1.00  0.00     0.338 C 
ATOM     10  O   UNL A   1      34.644  32.277  30.622  1.00  0.00    -0.246 OA
BRANCH   9  11
ATOM     11  C   UNL A   1      36.780  31.447  30.172  1.00  0.00     0.060 A 
ATOM     12  C   UNL A   1      37.921  32.162  30.549  1.00  0.00     0.016 A 
ATOM     13  C   UNL A   1      36.834  30.039  30.159  1.00  0.00     0.016 A 
ATOM     14  C   UNL A   1      39.131  31.521  30.644  1.00  0.00     0.010 A 
ATOM     15  C   UNL A   1      38.034  29.382  30.302  1.00  0.00     0.010 A 
ATOM     16  C   UNL A   1      39.177  30.153  30.413  1.00  0.00    -0.014 A 
BRANCH  16  17
ATOM     17  C   UNL A   1      40.491  29.582  30.248  1.00  0.00     0.031 A 
ATOM     18  C   UNL A   1      41.256  29.513  31.512  1.00  0.00     0.074 A 
ATOM     19  C   UNL A   1      40.904  29.229  29.015  1.00  0.00     0.049 A 
ATOM     20  N   UNL A   1      42.296  30.205  31.842  1.00  0.00    -0.248 NA
ATOM     21  C   UNL A   1      40.656  28.765  32.627  1.00  0.00     0.031 C 
ATOM     22  C   UNL A   1      40.098  29.099  27.794  1.00  0.00     0.029 A 
ATOM     23  N   UNL A   1      42.116  28.772  28.622  1.00  0.00    -0.354 N 
ATOM     24  C   UNL A   1      42.636  29.765  33.120  1.00  0.00     0.074 A 
ATOM     25  C   UNL A   1      41.479  29.082  33.626  1.00  0.00     0.031 C 
ATOM     26  C   UNL A   1      40.760  28.319  26.912  1.00  0.00     0.029 A 
ATOM     27  C   UNL A   1      42.076  28.026  27.450  1.00  0.00     0.049 A 
ATOM     28  H   UNL A   1      42.947  28.951  29.118  1.00  0.00     0.167 HD
ATOM     29  C   UNL A   1      43.941  29.727  33.508  1.00  0.00     0.034 A 
ATOM     30  C   UNL A   1      43.017  27.142  27.034  1.00  0.00     0.034 A 
ATOM     31  C   UNL A   1      44.739  30.619  32.701  1.00  0.00     0.049 A 
ATOM     32  C   UNL A   1      44.268  27.464  27.765  1.00  0.00     0.074 A 
ATOM     33  C   UNL A   1      44.731  31.977  32.450  1.00  0.00     0.029 A 
ATOM     34  N   UNL A   1      45.472  30.050  31.687  1.00  0.00    -0.354 N 
ATOM     35  N   UNL A   1      44.921  28.582  27.601  1.00  0.00    -0.248 NA
ATOM     36  C   UNL A   1      44.506  26.778  29.027  1.00  0.00     0.031 C 
ATOM     37  C   UNL A   1      45.051  32.097  31.067  1.00  0.00     0.029 A 
ATOM     38  C   UNL A   1      45.317  30.820  30.567  1.00  0.00     0.049 A 
ATOM     39  H   UNL A   1      46.015  29.232  31.755  1.00  0.00     0.167 HD
ATOM     40  C   UNL A   1      45.267  28.971  28.890  1.00  0.00     0.074 A 
ATOM     41  C   UNL A   1      45.072  27.776  29.714  1.00  0.00     0.031 C 
ATOM     42  C   UNL A   1      45.376  30.292  29.222  1.00  0.00     0.034 A 
BRANCH  29  43
ATOM     43  C   UNL A   1      44.568  28.559  34.255  1.00  0.00     0.023 A 
ATOM     44  C   UNL A   1      45.480  28.888  35.285  1.00  0.00     0.012 A 
ATOM     45  C   UNL A   1      44.571  27.213  33.816  1.00  0.00     0.148 A 
ATOM     46  C   UNL A   1      46.425  27.969  35.755  1.00  0.00     0.002 A 
ATOM     47  C   UNL A   1      45.479  26.289  34.319  1.00  0.00     0.091 A 
ATOM     48  F   UNL A   1      43.766  26.815  32.834  1.00  0.00    -0.205 F 
ATOM     49  C   UNL A   1      46.434  26.672  35.261  1.00  0.00     0.022 A 
BRANCH  47  50
ATOM     50  S   UNL A   1      45.521  24.590  33.729  1.00  0.00     0.127 S 
ATOM     51  O   UNL A   1      44.176  24.134  34.069  1.00  0.00    -0.237 OA
ATOM     52  O   UNL A   1      45.770  24.782  32.301  1.00  0.00    -0.237 OA
ATOM     53  O   UNL A   1      46.612  23.941  34.445  1.00  0.00    -0.744 OA
ENDBRANCH  47  50
ENDBRANCH  29  43
BRANCH  30  54
ATOM     54  C   UNL A   1      42.813  25.843  26.346  1.00  0.00     0.023 A 
ATOM     55  C   UNL A   1      43.650  25.480  25.272  1.00  0.00     0.012 A 
ATOM     56  C   UNL A   1      41.981  24.846  26.906  1.00  0.00     0.148 A 
ATOM     57  C   UNL A   1      43.671  24.165  24.788  1.00  0.00     0.002 A 
ATOM     58  C   UNL A   1      41.999  23.544  26.416  1.00  0.00     0.091 A 
ATOM     59  F   UNL A   1      41.243  25.149  27.981  1.00  0.00    -0.205 F 
ATOM     60  C   UNL A   1      42.853  23.196  25.363  1.00  0.00     0.022 A 
BRANCH  58  61
ATOM     61  S   UNL A   1      40.985  22.239  27.124  1.00  0.00     0.127 S 
ATOM     62  O   UNL A   1      39.761  22.962  27.470  1.00  0.00    -0.237 OA
ATOM     63  O   UNL A   1      40.854  21.314  26.001  1.00  0.00    -0.237 OA
ATOM     64  O   UNL A   1      41.727  21.735  28.273  1.00  0.00    -0.744 OA
ENDBRANCH  58  61
ENDBRANCH  30  54
BRANCH  42  65
ATOM     65  C   UNL A   1      45.334  31.310  28.111  1.00  0.00     0.023 A 
ATOM     66  C   UNL A   1      44.127  31.841  27.607  1.00  0.00     0.012 A 
ATOM     67  C   UNL A   1      46.549  31.878  27.702  1.00  0.00     0.148 A 
ATOM     68  C   UNL A   1      44.138  32.907  26.700  1.00  0.00     0.002 A 
ATOM     69  C   UNL A   1      46.556  32.966  26.839  1.00  0.00     0.091 A 
ATOM     70  F   UNL A   1      47.685  31.364  28.198  1.00  0.00    -0.205 F 
ATOM     71  C   UNL A   1      45.353  33.479  26.327  1.00  0.00     0.022 A 
BRANCH  69  72
ATOM     72  S   UNL A   1      48.076  33.825  26.432  1.00  0.00     0.127 S 
ATOM     73  O   UNL A   1      49.017  32.719  26.273  1.00  0.00    -0.237 OA
ATOM     74  O   UNL A   1      47.722  34.514  25.189  1.00  0.00    -0.237 OA
ATOM     75  O   UNL A   1      48.343  34.722  27.551  1.00  0.00    -0.744 OA
ENDBRANCH  69  72
ENDBRANCH  42  65
ENDBRANCH  16  17
ENDBRANCH   9  11
ENDBRANCH   8   9
ENDBRANCH   7   8
ENDBRANCH   6   7
ENDBRANCH   5   6
ENDBRANCH   4   5
ENDBRANCH   3   4
ENDBRANCH   2   3
ENDBRANCH   1   2
BRANCH   1  76
ATOM     76  C   UNL A   1      33.613  29.224  26.247  1.00  0.00     0.188 C 
BRANCH  76  77
ATOM     77  O   UNL A   1      33.830  29.286  24.848  1.00  0.00    -0.376 OA
BRANCH  77  78
ATOM     78  C   UNL A   1      32.999  28.602  23.926  1.00  0.00     0.202 C 
BRANCH  78  79
ATOM     79  C   UNL A   1      33.568  27.730  22.799  1.00  0.00     0.261 C 
BRANCH  79  80
ATOM     80  O   UNL A   1      32.620  26.993  22.026  1.00  0.00    -0.460 OA
BRANCH  80  81
ATOM     81  C   UNL A   1      32.341  25.731  22.411  1.00  0.00     0.338 C 
ATOM     82  O   UNL A   1      32.806  24.688  21.982  1.00  0.00    -0.246 OA
BRANCH  81  83
ATOM     83  C   UNL A   1      31.362  25.826  23.507  1.00  0.00     0.068 A 
ATOM     84  C   UNL A   1      30.034  26.199  23.224  1.00  0.00     0.016 A 
ATOM     85  C   UNL A   1      31.735  25.486  24.807  1.00  0.00     0.009 A 
ATOM     86  C   UNL A   1      29.077  26.221  24.238  1.00  0.00     0.001 A 
ATOM     87  C   UNL A   1      30.790  25.616  25.819  1.00  0.00     0.010 A 
ATOM     88  C   UNL A   1      29.466  25.966  25.546  1.00  0.00     0.001 A 
BRANCH  85  89
ATOM     89  C   UNL A   1      33.093  24.967  25.090  1.00  0.00     0.143 C 
ATOM     90  N   UNL A   1      33.405  23.708  25.107  1.00  0.00    -0.172 NA
BRANCH  90  91
ATOM     91  N   UNL A   1      34.732  23.438  25.395  1.00  0.00    -0.195 N 
ATOM     92  C   UNL A   1      35.642  24.222  26.082  1.00  0.00     0.251 A 
ATOM     93  C   UNL A   1      35.466  22.300  25.090  1.00  0.00     0.212 A 
ATOM     94  N   UNL A   1      36.823  23.657  26.126  1.00  0.00    -0.136 NA
ATOM     95  N   UNL A   1      36.712  22.448  25.500  1.00  0.00    -0.122 NA
BRANCH  93  96
ATOM     96  S   UNL A   1      34.981  20.881  24.220  1.00  0.00    -0.080 SA
BRANCH  96  97
ATOM     97  C   UNL A   1      33.779  19.991  25.214  1.00  0.00     0.113 C 
BRANCH  97  98
ATOM     98  C   UNL A   1      33.605  18.509  24.969  1.00  0.00    -0.038 A 
ATOM     99  C   UNL A   1      34.326  17.770  24.024  1.00  0.00     0.004 A 
ATOM    100  C   UNL A   1      32.658  17.827  25.747  1.00  0.00     0.004 A 
ATOM    101  C   UNL A   1      34.217  16.377  23.977  1.00  0.00     0.000 A 
ATOM    102  C   UNL A   1      32.578  16.433  25.735  1.00  0.00     0.000 A 
ATOM    103  C   UNL A   1      33.377  15.706  24.863  1.00  0.00     0.000 A 
ENDBRANCH  97  98
ENDBRANCH  96  97
ENDBRANCH  93  96
ENDBRANCH  90  91
ENDBRANCH  85  89
ENDBRANCH  81  83
ENDBRANCH  80  81
ENDBRANCH  79  80
ENDBRANCH  78  79
ENDBRANCH  77  78
ENDBRANCH  76  77
ENDBRANCH   1  76
TORSDOF 28
ENDMDL
MODEL 3
REMARK VINA RESULT:      -8.3      2.538      3.797
REMARK SMILES O=C(OCCOCCOCCOCCOC(=O)c1ccccc1/C=N/n1cnnc1SCc1ccccc1)c1ccc(-c2c3nc(c(-c4cccc(S(=O)(=O)[O-])c4F)c4ccc([nH]4)c(-c4cccc(S(=O)(=O)[O-])c4F)c4nc(c(-c5cccc(S(=O)(=O)[O-])c5F)c5ccc2[nH]5)C=C4)C=C3)cc1
REMARK SMILES IDX 10 1 9 2 8 3 7 4 6 5 5 6 4 7 3 8 2 9 1 10 39 11 40 12 101 13
REMARK SMILES IDX 41 14 100 15 42 16 43 17 44 18 94 19 45 20 99 21 93 22 95 23
REMARK SMILES IDX 46 24 98 25 92 26 91 27 47 29 79 30 59 31 78 32 60 33 63 34
REMARK SMILES IDX 77 35 96 36 61 37 62 38 76 40 97 41 64 42 48 43 49 44 57 45
REMARK SMILES IDX 50 46 52 47 58 48 51 49 53 50 54 51 55 52 56 53 80 54 81 55
REMARK SMILES IDX 89 56 82 57 84 58 90 59 83 60 85 61 86 62 87 63 88 64 65 65
REMARK SMILES IDX 66 66 74 67 67 68 69 69 75 70 68 71 70 72 71 73 72 74 73 75
REMARK SMILES IDX 11 76 12 77 13 78 14 79 15 80 16 81 17 82 18 83 19 84 23 85
REMARK SMILES IDX 20 86 22 87 21 88 24 89 25 90 26 91 27 92 30 93 28 94 29 95
REMARK SMILES IDX 31 96 32 97 33 98 34 99 38 100 35 101 37 102 36 103
REMARK H PARENT 95 28 63 39
REMARK Flexibility Score: inf
ROOT
ATOM      1  C   UNL A   1      33.577  36.898  32.022  1.00  0.00     0.188 C 
ENDROOT
BRANCH   1   2
ATOM      2  O   UNL A   1      33.681  35.944  30.994  1.00  0.00    -0.377 OA
BRANCH   2   3
ATOM      3  C   UNL A   1      33.369  36.470  29.714  1.00  0.00     0.188 C 
BRANCH   3   4
ATOM      4  C   UNL A   1      32.520  35.601  28.762  1.00  0.00     0.188 C 
BRANCH   4   5
ATOM      5  O   UNL A   1      32.858  34.326  28.232  1.00  0.00    -0.376 OA
BRANCH   5   6
ATOM      6  C   UNL A   1      33.773  33.333  28.643  1.00  0.00     0.202 C 
BRANCH   6   7
ATOM      7  C   UNL A   1      34.372  32.256  27.744  1.00  0.00     0.261 C 
BRANCH   7   8
ATOM      8  O   UNL A   1      35.485  31.569  28.284  1.00  0.00    -0.460 OA
BRANCH   8   9
ATOM      9  C   UNL A   1      36.713  32.073  28.509  1.00  0.00     0.338 C 
ATOM     10  O   UNL A   1      36.952  33.205  28.088  1.00  0.00    -0.246 OA
BRANCH   9  11
ATOM     11  C   UNL A   1      37.824  31.317  29.151  1.00  0.00     0.060 A 
ATOM     12  C   UNL A   1      38.964  31.856  29.754  1.00  0.00     0.016 A 
ATOM     13  C   UNL A   1      37.677  29.917  29.107  1.00  0.00     0.016 A 
ATOM     14  C   UNL A   1      40.031  31.045  30.052  1.00  0.00     0.010 A 
ATOM     15  C   UNL A   1      38.722  29.090  29.450  1.00  0.00     0.010 A 
ATOM     16  C   UNL A   1      39.923  29.685  29.793  1.00  0.00    -0.014 A 
BRANCH  16  17
ATOM     17  C   UNL A   1      41.148  28.928  29.858  1.00  0.00     0.031 A 
ATOM     18  C   UNL A   1      41.595  28.665  31.243  1.00  0.00     0.074 A 
ATOM     19  C   UNL A   1      41.773  28.591  28.713  1.00  0.00     0.049 A 
ATOM     20  N   UNL A   1      42.620  29.166  31.849  1.00  0.00    -0.248 NA
ATOM     21  C   UNL A   1      40.664  27.952  32.131  1.00  0.00     0.031 C 
ATOM     22  C   UNL A   1      41.251  28.663  27.342  1.00  0.00     0.029 A 
ATOM     23  N   UNL A   1      42.968  27.977  28.544  1.00  0.00    -0.354 N 
ATOM     24  C   UNL A   1      42.602  28.601  33.123  1.00  0.00     0.074 A 
ATOM     25  C   UNL A   1      41.278  28.076  33.307  1.00  0.00     0.031 C 
ATOM     26  C   UNL A   1      41.979  27.845  26.551  1.00  0.00     0.029 A 
ATOM     27  C   UNL A   1      43.088  27.319  27.326  1.00  0.00     0.049 A 
ATOM     28  H   UNL A   1      43.684  27.994  29.220  1.00  0.00     0.167 HD
ATOM     29  C   UNL A   1      43.769  28.337  33.774  1.00  0.00     0.034 A 
ATOM     30  C   UNL A   1      43.967  26.327  27.038  1.00  0.00     0.034 A 
ATOM     31  C   UNL A   1      44.843  29.142  33.241  1.00  0.00     0.049 A 
ATOM     32  C   UNL A   1      45.055  26.406  28.045  1.00  0.00     0.074 A 
ATOM     33  C   UNL A   1      45.078  30.498  33.122  1.00  0.00     0.029 A 
ATOM     34  N   UNL A   1      45.698  28.529  32.357  1.00  0.00    -0.354 N 
ATOM     35  N   UNL A   1      45.876  27.417  28.127  1.00  0.00    -0.248 NA
ATOM     36  C   UNL A   1      44.908  25.616  29.258  1.00  0.00     0.031 C 
ATOM     37  C   UNL A   1      45.713  30.650  31.856  1.00  0.00     0.029 A 
ATOM     38  C   UNL A   1      45.904  29.380  31.306  1.00  0.00     0.049 A 
ATOM     39  H   UNL A   1      46.094  27.635  32.461  1.00  0.00     0.167 HD
ATOM     40  C   UNL A   1      45.976  27.667  29.491  1.00  0.00     0.074 A 
ATOM     41  C   UNL A   1      45.438  26.470  30.140  1.00  0.00     0.031 C 
ATOM     42  C   UNL A   1      46.190  28.932  29.961  1.00  0.00     0.034 A 
BRANCH  29  43
ATOM     43  C   UNL A   1      44.046  27.042  34.524  1.00  0.00     0.023 A 
ATOM     44  C   UNL A   1      43.450  25.872  33.999  1.00  0.00     0.012 A 
ATOM     45  C   UNL A   1      44.563  26.952  35.838  1.00  0.00     0.148 A 
ATOM     46  C   UNL A   1      43.262  24.727  34.781  1.00  0.00     0.002 A 
ATOM     47  C   UNL A   1      44.417  25.796  36.596  1.00  0.00     0.091 A 
ATOM     48  F   UNL A   1      45.120  28.009  36.426  1.00  0.00    -0.205 F 
ATOM     49  C   UNL A   1      43.733  24.694  36.086  1.00  0.00     0.022 A 
BRANCH  47  50
ATOM     50  S   UNL A   1      45.028  25.693  38.286  1.00  0.00     0.127 S 
ATOM     51  O   UNL A   1      44.182  26.677  38.958  1.00  0.00    -0.237 OA
ATOM     52  O   UNL A   1      44.742  24.298  38.617  1.00  0.00    -0.237 OA
ATOM     53  O   UNL A   1      46.447  26.015  38.222  1.00  0.00    -0.744 OA
ENDBRANCH  47  50
ENDBRANCH  29  43
BRANCH  30  54
ATOM     54  C   UNL A   1      43.744  25.120  26.204  1.00  0.00     0.023 A 
ATOM     55  C   UNL A   1      44.641  24.814  25.161  1.00  0.00     0.012 A 
ATOM     56  C   UNL A   1      42.816  24.127  26.595  1.00  0.00     0.148 A 
ATOM     57  C   UNL A   1      44.626  23.555  24.544  1.00  0.00     0.002 A 
ATOM     58  C   UNL A   1      42.799  22.882  25.973  1.00  0.00     0.091 A 
ATOM     59  F   UNL A   1      42.014  24.367  27.639  1.00  0.00    -0.205 F 
ATOM     60  C   UNL A   1      43.712  22.588  24.953  1.00  0.00     0.022 A 
BRANCH  58  61
ATOM     61  S   UNL A   1      41.660  21.580  26.464  1.00  0.00     0.127 S 
ATOM     62  O   UNL A   1      42.079  20.472  25.604  1.00  0.00    -0.237 OA
ATOM     63  O   UNL A   1      41.983  21.413  27.879  1.00  0.00    -0.237 OA
ATOM     64  O   UNL A   1      40.325  22.088  26.178  1.00  0.00    -0.744 OA
ENDBRANCH  58  61
ENDBRANCH  30  54
BRANCH  42  65
ATOM     65  C   UNL A   1      46.538  30.011  28.966  1.00  0.00     0.023 A 
ATOM     66  C   UNL A   1      47.852  30.221  28.497  1.00  0.00     0.012 A 
ATOM     67  C   UNL A   1      45.480  30.699  28.354  1.00  0.00     0.148 A 
ATOM     68  C   UNL A   1      48.104  31.114  27.449  1.00  0.00     0.002 A 
ATOM     69  C   UNL A   1      45.726  31.547  27.283  1.00  0.00     0.091 A 
ATOM     70  F   UNL A   1      44.237  30.479  28.809  1.00  0.00    -0.205 F 
ATOM     71  C   UNL A   1      47.038  31.767  26.833  1.00  0.00     0.022 A 
BRANCH  69  72
ATOM     72  S   UNL A   1      44.385  32.307  26.368  1.00  0.00     0.127 S 
ATOM     73  O   UNL A   1      43.482  31.178  26.157  1.00  0.00    -0.237 OA
ATOM     74  O   UNL A   1      43.897  33.316  27.310  1.00  0.00    -0.237 OA
ATOM     75  O   UNL A   1      44.987  32.864  25.161  1.00  0.00    -0.744 OA
ENDBRANCH  69  72
ENDBRANCH  42  65
ENDBRANCH  16  17
ENDBRANCH   9  11
ENDBRANCH   8   9
ENDBRANCH   7   8
ENDBRANCH   6   7
ENDBRANCH   5   6
ENDBRANCH   4   5
ENDBRANCH   3   4
ENDBRANCH   2   3
ENDBRANCH   1   2
BRANCH   1  76
ATOM     76  C   UNL A   1      34.113  36.390  33.380  1.00  0.00     0.188 C 
BRANCH  76  77
ATOM     77  O   UNL A   1      34.571  35.061  33.552  1.00  0.00    -0.376 OA
BRANCH  77  78
ATOM     78  C   UNL A   1      35.930  34.761  33.819  1.00  0.00     0.202 C 
BRANCH  78  79
ATOM     79  C   UNL A   1      36.350  33.628  34.764  1.00  0.00     0.261 C 
BRANCH  79  80
ATOM     80  O   UNL A   1      37.696  33.664  35.240  1.00  0.00    -0.460 OA
BRANCH  80  81
ATOM     81  C   UNL A   1      38.188  32.548  35.816  1.00  0.00     0.338 C 
ATOM     82  O   UNL A   1      38.476  31.487  35.288  1.00  0.00    -0.246 OA
BRANCH  81  83
ATOM     83  C   UNL A   1      38.357  32.846  37.248  1.00  0.00     0.068 A 
ATOM     84  C   UNL A   1      37.262  32.711  38.122  1.00  0.00     0.016 A 
ATOM     85  C   UNL A   1      39.612  33.199  37.743  1.00  0.00     0.009 A 
ATOM     86  C   UNL A   1      37.423  32.917  39.492  1.00  0.00     0.001 A 
ATOM     87  C   UNL A   1      39.726  33.500  39.096  1.00  0.00     0.010 A 
ATOM     88  C   UNL A   1      38.650  33.350  39.975  1.00  0.00     0.001 A 
BRANCH  85  89
ATOM     89  C   UNL A   1      40.797  33.215  36.854  1.00  0.00     0.143 C 
ATOM     90  N   UNL A   1      41.297  34.287  36.322  1.00  0.00    -0.172 NA
BRANCH  90  91
ATOM     91  N   UNL A   1      42.406  34.079  35.521  1.00  0.00    -0.195 N 
ATOM     92  C   UNL A   1      43.697  33.755  35.901  1.00  0.00     0.251 A 
ATOM     93  C   UNL A   1      42.489  34.117  34.136  1.00  0.00     0.212 A 
ATOM     94  N   UNL A   1      44.496  33.678  34.867  1.00  0.00    -0.136 NA
ATOM     95  N   UNL A   1      43.735  33.906  33.755  1.00  0.00    -0.122 NA
BRANCH  93  96
ATOM     96  S   UNL A   1      41.255  34.475  32.972  1.00  0.00    -0.080 SA
BRANCH  96  97
ATOM     97  C   UNL A   1      41.815  33.910  31.361  1.00  0.00     0.113 C 
BRANCH  97  98
ATOM     98  C   UNL A   1      42.112  34.947  30.302  1.00  0.00    -0.038 A 
ATOM     99  C   UNL A   1      43.186  35.843  30.348  1.00  0.00     0.004 A 
ATOM    100  C   UNL A   1      41.255  35.010  29.194  1.00  0.00     0.004 A 
ATOM    101  C   UNL A   1      43.479  36.657  29.250  1.00  0.00     0.000 A 
ATOM    102  C   UNL A   1      41.569  35.788  28.078  1.00  0.00     0.000 A 
ATOM    103  C   UNL A   1      42.698  36.596  28.098  1.00  0.00     0.000 A 
ENDBRANCH  97  98
ENDBRANCH  96  97
ENDBRANCH  93  96
ENDBRANCH  90  91
ENDBRANCH  85  89
ENDBRANCH  81  83
ENDBRANCH  80  81
ENDBRANCH  79  80
ENDBRANCH  78  79
ENDBRANCH  77  78
ENDBRANCH  76  77
ENDBRANCH   1  76
TORSDOF 28
ENDMDL
