MODEL 1
REMARK VINA RESULT:      -7.6      0.000      0.000
REMARK SMILES CC(C)[N@@H+](C)Cc1cc2c(cc1Cl)C=C(C(=O)OCCOCCOCCOCCOC(=O)c1ccc(-c3c4nc(c(-c5cccc(S(=O)(=O)[O-])c5F)c5ccc([nH]5)c(-c5cccc(S(=O)(=O)[O-])c5F)c5nc(c(-c6cccc(S(=O)(=O)[O-])c6F)c6ccc3[nH]6)C=C5)C=C4)cc1)[C@@H](C(F)(F)F)O2
REMARK SMILES IDX 24 1 23 2 22 3 21 4 20 5 19 6 18 7 16 8 17 9 15 10 7 11 8 12
REMARK SMILES IDX 12 13 9 14 11 15 13 16 10 17 101 18 14 19 96 20 6 21 4 22
REMARK SMILES IDX 5 23 2 25 1 26 3 27 97 28 98 29 99 30 100 31 25 32 26 33
REMARK SMILES IDX 27 34 28 35 29 36 30 37 31 38 32 39 33 40 34 41 95 42 35 43
REMARK SMILES IDX 94 44 36 45 37 46 38 47 88 48 39 49 93 50 87 51 89 52 40 53
REMARK SMILES IDX 92 54 86 55 85 56 41 58 73 59 53 60 72 61 54 62 57 63 71 64
REMARK SMILES IDX 90 65 55 66 56 67 70 69 91 70 58 71 42 72 43 73 51 74 44 75
REMARK SMILES IDX 46 76 52 77 45 78 47 79 48 80 49 81 50 82 74 83 75 84 83 85
REMARK SMILES IDX 76 86 78 87 84 88 77 89 79 90 80 91 81 92 82 93 59 94 60 95
REMARK SMILES IDX 68 96 61 97 63 98 69 99 62 100 64 101 65 102 66 103 67 104
REMARK H PARENT 4 24 89 57 57 68
REMARK Flexibility Score: inf
ROOT
ATOM      1  O   UNL A   1      35.433  34.129  31.096  1.00  0.00    -0.377 OA
ENDROOT
BRANCH   1   2
ATOM      2  C   UNL A   1      34.809  33.867  29.850  1.00  0.00     0.188 C 
BRANCH   2   3
ATOM      3  C   UNL A   1      34.766  32.367  29.505  1.00  0.00     0.188 C 
BRANCH   3   4
ATOM      4  O   UNL A   1      35.880  31.928  28.732  1.00  0.00    -0.376 OA
BRANCH   4   5
ATOM      5  C   UNL A   1      36.155  30.532  28.694  1.00  0.00     0.202 C 
BRANCH   5   6
ATOM      6  C   UNL A   1      36.348  29.814  30.037  1.00  0.00     0.261 C 
BRANCH   6   7
ATOM      7  O   UNL A   1      37.673  29.907  30.578  1.00  0.00    -0.460 OA
BRANCH   7   8
ATOM      8  C   UNL A   1      38.257  28.782  31.026  1.00  0.00     0.338 C 
ATOM      9  O   UNL A   1      38.069  28.220  32.089  1.00  0.00    -0.246 OA
BRANCH   8  10
ATOM     10  C   UNL A   1      39.056  28.234  29.911  1.00  0.00     0.087 C 
ATOM     11  C   UNL A   1      41.445  25.362  26.541  1.00  0.00     0.029 A 
ATOM     12  C   UNL A   1      41.498  26.690  26.966  1.00  0.00     0.058 A 
ATOM     13  C   UNL A   1      40.426  24.565  27.099  1.00  0.00     0.050 A 
ATOM     14  C   UNL A   1      40.604  27.217  27.889  1.00  0.00     0.128 A 
ATOM     15  C   UNL A   1      39.548  25.076  28.072  1.00  0.00     0.033 A 
ATOM     16  Cl  UNL A   1      40.223  22.905  26.648  1.00  0.00    -0.084 Cl
ATOM     17  C   UNL A   1      39.661  26.403  28.496  1.00  0.00     0.019 A 
ATOM     18  O   UNL A   1      40.766  28.543  28.137  1.00  0.00    -0.475 OA
ATOM     19  C   UNL A   1      38.886  26.939  29.603  1.00  0.00     0.027 C 
ATOM     20  C   UNL A   1      39.928  29.184  29.126  1.00  0.00     0.316 C 
BRANCH  11  21
ATOM     21  C   UNL A   1      42.458  24.783  25.569  1.00  0.00     0.300 C 
BRANCH  21  22
ATOM     22  N   UNL A   1      43.610  24.017  26.059  1.00  0.00    -0.332 N 
ATOM     23  C   UNL A   1      43.536  22.574  25.902  1.00  0.00     0.333 C 
ATOM     24  H   UNL A   1      44.245  24.330  25.324  1.00  0.00     0.348 HD
BRANCH  22  25
ATOM     25  C   UNL A   1      44.443  24.514  27.159  1.00  0.00     0.177 C 
ATOM     26  C   UNL A   1      43.770  24.278  28.517  1.00  0.00     0.075 C 
ATOM     27  C   UNL A   1      45.890  24.021  27.227  1.00  0.00     0.075 C 
ENDBRANCH  22  25
ENDBRANCH  21  22
ENDBRANCH  11  21
BRANCH  20  28
ATOM     28  C   UNL A   1      40.863  30.033  30.000  1.00  0.00     0.430 C 
ATOM     29  F   UNL A   1      41.179  29.378  31.145  1.00  0.00    -0.167 F 
ATOM     30  F   UNL A   1      42.026  30.333  29.386  1.00  0.00    -0.167 F 
ATOM     31  F   UNL A   1      40.277  31.200  30.355  1.00  0.00    -0.167 F 
ENDBRANCH  20  28
ENDBRANCH   8  10
ENDBRANCH   7   8
ENDBRANCH   6   7
ENDBRANCH   5   6
ENDBRANCH   4   5
ENDBRANCH   3   4
ENDBRANCH   2   3
ENDBRANCH   1   2
BRANCH   1  32
ATOM     32  C   UNL A   1      34.585  34.357  32.223  1.00  0.00     0.188 C 
BRANCH  32  33
ATOM     33  C   UNL A   1      34.320  33.251  33.271  1.00  0.00     0.188 C 
BRANCH  33  34
ATOM     34  O   UNL A   1      35.447  32.963  34.100  1.00  0.00    -0.376 OA
BRANCH  34  35
ATOM     35  C   UNL A   1      35.885  34.003  34.963  1.00  0.00     0.202 C 
BRANCH  35  36
ATOM     36  C   UNL A   1      37.360  33.889  35.367  1.00  0.00     0.261 C 
BRANCH  36  37
ATOM     37  O   UNL A   1      37.595  33.727  36.772  1.00  0.00    -0.460 OA
BRANCH  37  38
ATOM     38  C   UNL A   1      37.803  32.473  37.235  1.00  0.00     0.338 C 
ATOM     39  O   UNL A   1      37.122  31.867  38.044  1.00  0.00    -0.246 OA
BRANCH  38  40
ATOM     40  C   UNL A   1      38.891  31.889  36.424  1.00  0.00     0.060 A 
ATOM     41  C   UNL A   1      38.592  30.995  35.393  1.00  0.00     0.016 A 
ATOM     42  C   UNL A   1      40.222  32.198  36.734  1.00  0.00     0.016 A 
ATOM     43  C   UNL A   1      39.628  30.428  34.651  1.00  0.00     0.010 A 
ATOM     44  C   UNL A   1      41.258  31.621  35.997  1.00  0.00     0.010 A 
ATOM     45  C   UNL A   1      40.966  30.749  34.937  1.00  0.00    -0.014 A 
BRANCH  45  46
ATOM     46  C   UNL A   1      42.034  30.329  34.001  1.00  0.00     0.031 A 
ATOM     47  C   UNL A   1      42.617  28.950  34.013  1.00  0.00     0.074 A 
ATOM     48  C   UNL A   1      42.490  31.249  33.130  1.00  0.00     0.049 A 
ATOM     49  N   UNL A   1      43.507  28.437  33.203  1.00  0.00    -0.248 NA
ATOM     50  C   UNL A   1      42.152  28.030  35.061  1.00  0.00     0.031 C 
ATOM     51  C   UNL A   1      42.028  32.638  33.062  1.00  0.00     0.029 A 
ATOM     52  N   UNL A   1      43.441  31.165  32.147  1.00  0.00    -0.354 N 
ATOM     53  C   UNL A   1      43.719  27.136  33.640  1.00  0.00     0.074 A 
ATOM     54  C   UNL A   1      42.870  26.941  34.797  1.00  0.00     0.031 C 
ATOM     55  C   UNL A   1      42.696  33.274  32.089  1.00  0.00     0.029 A 
ATOM     56  C   UNL A   1      43.637  32.345  31.473  1.00  0.00     0.049 A 
ATOM     57  H   UNL A   1      43.937  30.337  31.945  1.00  0.00     0.167 HD
ATOM     58  C   UNL A   1      44.531  26.192  33.108  1.00  0.00     0.034 A 
ATOM     59  C   UNL A   1      44.477  32.650  30.466  1.00  0.00     0.034 A 
ATOM     60  C   UNL A   1      45.363  26.389  31.948  1.00  0.00     0.049 A 
ATOM     61  C   UNL A   1      45.358  31.581  29.892  1.00  0.00     0.074 A 
ATOM     62  C   UNL A   1      46.165  25.464  31.302  1.00  0.00     0.029 A 
ATOM     63  N   UNL A   1      45.516  27.589  31.272  1.00  0.00    -0.354 N 
ATOM     64  N   UNL A   1      45.438  30.317  30.228  1.00  0.00    -0.248 NA
ATOM     65  C   UNL A   1      46.241  31.969  28.783  1.00  0.00     0.031 C 
ATOM     66  C   UNL A   1      46.815  26.107  30.244  1.00  0.00     0.029 A 
ATOM     67  C   UNL A   1      46.407  27.431  30.222  1.00  0.00     0.049 A 
ATOM     68  H   UNL A   1      45.058  28.430  31.502  1.00  0.00     0.167 HD
ATOM     69  C   UNL A   1      46.366  29.753  29.363  1.00  0.00     0.074 A 
ATOM     70  C   UNL A   1      46.808  30.810  28.475  1.00  0.00     0.031 C 
ATOM     71  C   UNL A   1      46.817  28.477  29.322  1.00  0.00     0.034 A 
BRANCH  58  72
ATOM     72  C   UNL A   1      44.525  24.820  33.725  1.00  0.00     0.023 A 
ATOM     73  C   UNL A   1      43.729  23.815  33.142  1.00  0.00     0.012 A 
ATOM     74  C   UNL A   1      45.396  24.491  34.782  1.00  0.00     0.148 A 
ATOM     75  C   UNL A   1      43.793  22.502  33.606  1.00  0.00     0.002 A 
ATOM     76  C   UNL A   1      45.476  23.175  35.221  1.00  0.00     0.091 A 
ATOM     77  F   UNL A   1      46.139  25.468  35.323  1.00  0.00    -0.205 F 
ATOM     78  C   UNL A   1      44.674  22.180  34.637  1.00  0.00     0.022 A 
BRANCH  76  79
ATOM     79  S   UNL A   1      46.613  22.641  36.505  1.00  0.00     0.127 S 
ATOM     80  O   UNL A   1      46.170  21.266  36.738  1.00  0.00    -0.237 OA
ATOM     81  O   UNL A   1      47.908  22.759  35.837  1.00  0.00    -0.237 OA
ATOM     82  O   UNL A   1      46.415  23.552  37.624  1.00  0.00    -0.744 OA
ENDBRANCH  76  79
ENDBRANCH  58  72
BRANCH  59  83
ATOM     83  C   UNL A   1      44.450  34.023  29.899  1.00  0.00     0.023 A 
ATOM     84  C   UNL A   1      45.411  34.959  30.325  1.00  0.00     0.012 A 
ATOM     85  C   UNL A   1      43.544  34.370  28.879  1.00  0.00     0.148 A 
ATOM     86  C   UNL A   1      45.465  36.226  29.746  1.00  0.00     0.002 A 
ATOM     87  C   UNL A   1      43.629  35.619  28.281  1.00  0.00     0.091 A 
ATOM     88  F   UNL A   1      42.645  33.453  28.493  1.00  0.00    -0.205 F 
ATOM     89  C   UNL A   1      44.583  36.552  28.719  1.00  0.00     0.022 A 
BRANCH  87  90
ATOM     90  S   UNL A   1      42.611  36.096  26.880  1.00  0.00     0.127 S 
ATOM     91  O   UNL A   1      43.017  37.485  26.676  1.00  0.00    -0.237 OA
ATOM     92  O   UNL A   1      43.066  35.163  25.850  1.00  0.00    -0.237 OA
ATOM     93  O   UNL A   1      41.232  35.906  27.309  1.00  0.00    -0.744 OA
ENDBRANCH  87  90
ENDBRANCH  59  83
BRANCH  71  94
ATOM     94  C   UNL A   1      47.851  28.132  28.284  1.00  0.00     0.023 A 
ATOM     95  C   UNL A   1      49.214  28.140  28.640  1.00  0.00     0.012 A 
ATOM     96  C   UNL A   1      47.471  27.705  26.997  1.00  0.00     0.148 A 
ATOM     97  C   UNL A   1      50.186  27.740  27.725  1.00  0.00     0.002 A 
ATOM     98  C   UNL A   1      48.442  27.275  26.101  1.00  0.00     0.091 A 
ATOM     99  F   UNL A   1      46.168  27.718  26.679  1.00  0.00    -0.205 F 
ATOM    100  C   UNL A   1      49.800  27.297  26.461  1.00  0.00     0.022 A 
BRANCH  98 101
ATOM    101  S   UNL A   1      48.042  26.621  24.476  1.00  0.00     0.127 S 
ATOM    102  O   UNL A   1      46.855  27.400  24.127  1.00  0.00    -0.237 OA
ATOM    103  O   UNL A   1      49.240  26.954  23.706  1.00  0.00    -0.237 OA
ATOM    104  O   UNL A   1      47.815  25.194  24.660  1.00  0.00    -0.744 OA
ENDBRANCH  98 101
ENDBRANCH  71  94
ENDBRANCH  45  46
ENDBRANCH  38  40
ENDBRANCH  37  38
ENDBRANCH  36  37
ENDBRANCH  35  36
ENDBRANCH  34  35
ENDBRANCH  33  34
ENDBRANCH  32  33
ENDBRANCH   1  32
TORSDOF 27
ENDMDL
MODEL 2
REMARK VINA RESULT:      -7.3      6.284      8.902
REMARK SMILES CC(C)[N@@H+](C)Cc1cc2c(cc1Cl)C=C(C(=O)OCCOCCOCCOCCOC(=O)c1ccc(-c3c4nc(c(-c5cccc(S(=O)(=O)[O-])c5F)c5ccc([nH]5)c(-c5cccc(S(=O)(=O)[O-])c5F)c5nc(c(-c6cccc(S(=O)(=O)[O-])c6F)c6ccc3[nH]6)C=C5)C=C4)cc1)[C@@H](C(F)(F)F)O2
REMARK SMILES IDX 24 1 23 2 22 3 21 4 20 5 19 6 18 7 16 8 17 9 15 10 7 11 8 12
REMARK SMILES IDX 12 13 9 14 11 15 13 16 10 17 101 18 14 19 96 20 6 21 4 22
REMARK SMILES IDX 5 23 2 25 1 26 3 27 97 28 98 29 99 30 100 31 25 32 26 33
REMARK SMILES IDX 27 34 28 35 29 36 30 37 31 38 32 39 33 40 34 41 95 42 35 43
REMARK SMILES IDX 94 44 36 45 37 46 38 47 88 48 39 49 93 50 87 51 89 52 40 53
REMARK SMILES IDX 92 54 86 55 85 56 41 58 73 59 53 60 72 61 54 62 57 63 71 64
REMARK SMILES IDX 90 65 55 66 56 67 70 69 91 70 58 71 42 72 43 73 51 74 44 75
REMARK SMILES IDX 46 76 52 77 45 78 47 79 48 80 49 81 50 82 74 83 75 84 83 85
REMARK SMILES IDX 76 86 78 87 84 88 77 89 79 90 80 91 81 92 82 93 59 94 60 95
REMARK SMILES IDX 68 96 61 97 63 98 69 99 62 100 64 101 65 102 66 103 67 104
REMARK H PARENT 4 24 89 57 57 68
REMARK Flexibility Score: inf
ROOT
ATOM      1  O   UNL A   1      35.517  33.790  29.271  1.00  0.00    -0.377 OA
ENDROOT
BRANCH   1   2
ATOM      2  C   UNL A   1      34.737  33.481  28.128  1.00  0.00     0.188 C 
BRANCH   2   3
ATOM      3  C   UNL A   1      34.456  31.974  27.983  1.00  0.00     0.188 C 
BRANCH   3   4
ATOM      4  O   UNL A   1      33.148  31.682  27.502  1.00  0.00    -0.376 OA
BRANCH   4   5
ATOM      5  C   UNL A   1      32.841  30.328  27.188  1.00  0.00     0.202 C 
BRANCH   5   6
ATOM      6  C   UNL A   1      34.010  29.409  26.806  1.00  0.00     0.261 C 
BRANCH   6   7
ATOM      7  O   UNL A   1      33.661  28.025  26.674  1.00  0.00    -0.460 OA
BRANCH   7   8
ATOM      8  C   UNL A   1      33.670  27.483  25.443  1.00  0.00     0.338 C 
ATOM      9  O   UNL A   1      33.944  28.031  24.391  1.00  0.00    -0.246 OA
BRANCH   8  10
ATOM     10  C   UNL A   1      33.452  26.031  25.607  1.00  0.00     0.087 C 
ATOM     11  C   UNL A   1      33.675  21.004  25.554  1.00  0.00     0.029 A 
ATOM     12  C   UNL A   1      32.714  21.978  25.831  1.00  0.00     0.058 A 
ATOM     13  C   UNL A   1      34.978  21.468  25.285  1.00  0.00     0.050 A 
ATOM     14  C   UNL A   1      33.006  23.336  25.845  1.00  0.00     0.128 A 
ATOM     15  C   UNL A   1      35.272  22.844  25.247  1.00  0.00     0.033 A 
ATOM     16  Cl  UNL A   1      36.278  20.375  24.947  1.00  0.00    -0.084 Cl
ATOM     17  C   UNL A   1      34.269  23.786  25.494  1.00  0.00     0.019 A 
ATOM     18  O   UNL A   1      31.963  24.133  26.197  1.00  0.00    -0.475 OA
ATOM     19  C   UNL A   1      34.477  25.213  25.318  1.00  0.00     0.027 C 
ATOM     20  C   UNL A   1      32.138  25.569  26.186  1.00  0.00     0.316 C 
BRANCH  11  21
ATOM     21  C   UNL A   1      33.334  19.527  25.493  1.00  0.00     0.300 C 
BRANCH  21  22
ATOM     22  N   UNL A   1      33.021  18.884  24.210  1.00  0.00    -0.332 N 
ATOM     23  C   UNL A   1      32.271  19.685  23.256  1.00  0.00     0.333 C 
ATOM     24  H   UNL A   1      33.981  18.895  23.867  1.00  0.00     0.348 HD
BRANCH  22  25
ATOM     25  C   UNL A   1      32.870  17.430  24.104  1.00  0.00     0.177 C 
ATOM     26  C   UNL A   1      34.018  16.808  23.300  1.00  0.00     0.075 C 
ATOM     27  C   UNL A   1      32.686  16.641  25.402  1.00  0.00     0.075 C 
ENDBRANCH  22  25
ENDBRANCH  21  22
ENDBRANCH  11  21
BRANCH  20  28
ATOM     28  C   UNL A   1      30.907  26.148  25.473  1.00  0.00     0.430 C 
ATOM     29  F   UNL A   1      31.034  26.035  24.127  1.00  0.00    -0.167 F 
ATOM     30  F   UNL A   1      29.761  25.524  25.813  1.00  0.00    -0.167 F 
ATOM     31  F   UNL A   1      30.753  27.464  25.752  1.00  0.00    -0.167 F 
ENDBRANCH  20  28
ENDBRANCH   8  10
ENDBRANCH   7   8
ENDBRANCH   6   7
ENDBRANCH   5   6
ENDBRANCH   4   5
ENDBRANCH   3   4
ENDBRANCH   2   3
ENDBRANCH   1   2
BRANCH   1  32
ATOM     32  C   UNL A   1      36.398  32.778  29.762  1.00  0.00     0.188 C 
BRANCH  32  33
ATOM     33  C   UNL A   1      37.902  32.772  29.401  1.00  0.00     0.188 C 
BRANCH  33  34
ATOM     34  O   UNL A   1      38.750  33.211  30.462  1.00  0.00    -0.376 OA
BRANCH  34  35
ATOM     35  C   UNL A   1      39.196  34.559  30.404  1.00  0.00     0.202 C 
BRANCH  35  36
ATOM     36  C   UNL A   1      39.880  34.925  29.082  1.00  0.00     0.261 C 
BRANCH  36  37
ATOM     37  O   UNL A   1      41.270  35.262  29.188  1.00  0.00    -0.460 OA
BRANCH  37  38
ATOM     38  C   UNL A   1      41.840  35.918  28.151  1.00  0.00     0.338 C 
ATOM     39  O   UNL A   1      41.495  36.988  27.682  1.00  0.00    -0.246 OA
BRANCH  38  40
ATOM     40  C   UNL A   1      43.089  35.201  27.822  1.00  0.00     0.060 A 
ATOM     41  C   UNL A   1      44.021  34.924  28.825  1.00  0.00     0.016 A 
ATOM     42  C   UNL A   1      43.351  34.851  26.491  1.00  0.00     0.016 A 
ATOM     43  C   UNL A   1      45.210  34.271  28.499  1.00  0.00     0.010 A 
ATOM     44  C   UNL A   1      44.547  34.208  26.165  1.00  0.00     0.010 A 
ATOM     45  C   UNL A   1      45.474  33.895  27.171  1.00  0.00    -0.014 A 
BRANCH  45  46
ATOM     46  C   UNL A   1      46.619  33.002  26.879  1.00  0.00     0.031 A 
ATOM     47  C   UNL A   1      46.522  31.511  26.977  1.00  0.00     0.074 A 
ATOM     48  C   UNL A   1      47.784  33.583  26.534  1.00  0.00     0.049 A 
ATOM     49  N   UNL A   1      47.430  30.617  26.685  1.00  0.00    -0.248 NA
ATOM     50  C   UNL A   1      45.255  30.949  27.466  1.00  0.00     0.031 C 
ATOM     51  C   UNL A   1      48.006  35.030  26.455  1.00  0.00     0.029 A 
ATOM     52  N   UNL A   1      48.995  33.040  26.197  1.00  0.00    -0.354 N 
ATOM     53  C   UNL A   1      46.854  29.383  26.956  1.00  0.00     0.074 A 
ATOM     54  C   UNL A   1      45.518  29.645  27.450  1.00  0.00     0.031 C 
ATOM     55  C   UNL A   1      49.276  35.258  26.090  1.00  0.00     0.029 A 
ATOM     56  C   UNL A   1      49.959  33.979  25.921  1.00  0.00     0.049 A 
ATOM     57  H   UNL A   1      49.159  32.069  26.156  1.00  0.00     0.167 HD
ATOM     58  C   UNL A   1      47.389  28.150  26.787  1.00  0.00     0.034 A 
ATOM     59  C   UNL A   1      51.249  33.833  25.566  1.00  0.00     0.034 A 
ATOM     60  C   UNL A   1      48.715  27.896  26.283  1.00  0.00     0.049 A 
ATOM     61  C   UNL A   1      51.810  32.455  25.378  1.00  0.00     0.074 A 
ATOM     62  C   UNL A   1      49.311  26.675  26.017  1.00  0.00     0.029 A 
ATOM     63  N   UNL A   1      49.654  28.871  25.987  1.00  0.00    -0.354 N 
ATOM     64  N   UNL A   1      51.205  31.300  25.503  1.00  0.00    -0.248 NA
ATOM     65  C   UNL A   1      53.219  32.359  24.974  1.00  0.00     0.031 C 
ATOM     66  C   UNL A   1      50.616  26.910  25.573  1.00  0.00     0.029 A 
ATOM     67  C   UNL A   1      50.829  28.279  25.550  1.00  0.00     0.049 A 
ATOM     68  H   UNL A   1      49.509  29.841  26.072  1.00  0.00     0.167 HD
ATOM     69  C   UNL A   1      52.152  30.339  25.175  1.00  0.00     0.074 A 
ATOM     70  C   UNL A   1      53.367  31.048  24.830  1.00  0.00     0.031 C 
ATOM     71  C   UNL A   1      52.023  28.990  25.176  1.00  0.00     0.034 A 
BRANCH  58  72
ATOM     72  C   UNL A   1      46.526  26.954  27.084  1.00  0.00     0.023 A 
ATOM     73  C   UNL A   1      46.544  26.408  28.383  1.00  0.00     0.012 A 
ATOM     74  C   UNL A   1      45.610  26.461  26.134  1.00  0.00     0.148 A 
ATOM     75  C   UNL A   1      45.666  25.382  28.731  1.00  0.00     0.002 A 
ATOM     76  C   UNL A   1      44.720  25.457  26.498  1.00  0.00     0.091 A 
ATOM     77  F   UNL A   1      45.618  26.994  24.905  1.00  0.00    -0.205 F 
ATOM     78  C   UNL A   1      44.748  24.915  27.793  1.00  0.00     0.022 A 
BRANCH  76  79
ATOM     79  S   UNL A   1      43.461  24.819  25.385  1.00  0.00     0.127 S 
ATOM     80  O   UNL A   1      44.265  24.020  24.459  1.00  0.00    -0.237 OA
ATOM     81  O   UNL A   1      42.618  24.039  26.290  1.00  0.00    -0.237 OA
ATOM     82  O   UNL A   1      42.816  25.983  24.796  1.00  0.00    -0.744 OA
ENDBRANCH  76  79
ENDBRANCH  58  72
BRANCH  59  83
ATOM     83  C   UNL A   1      52.061  35.047  25.294  1.00  0.00     0.023 A 
ATOM     84  C   UNL A   1      52.080  35.580  23.991  1.00  0.00     0.012 A 
ATOM     85  C   UNL A   1      52.729  35.722  26.332  1.00  0.00     0.148 A 
ATOM     86  C   UNL A   1      52.760  36.767  23.726  1.00  0.00     0.002 A 
ATOM     87  C   UNL A   1      53.371  36.924  26.068  1.00  0.00     0.091 A 
ATOM     88  F   UNL A   1      52.686  35.190  27.562  1.00  0.00    -0.205 F 
ATOM     89  C   UNL A   1      53.396  37.444  24.765  1.00  0.00     0.022 A 
BRANCH  87  90
ATOM     90  S   UNL A   1      54.127  37.923  27.356  1.00  0.00     0.127 S 
ATOM     91  O   UNL A   1      54.580  39.088  26.599  1.00  0.00    -0.237 OA
ATOM     92  O   UNL A   1      52.993  38.168  28.246  1.00  0.00    -0.237 OA
ATOM     93  O   UNL A   1      55.184  37.101  27.928  1.00  0.00    -0.744 OA
ENDBRANCH  87  90
ENDBRANCH  59  83
BRANCH  71  94
ATOM     94  C   UNL A   1      53.227  28.171  24.794  1.00  0.00     0.023 A 
ATOM     95  C   UNL A   1      53.508  27.954  23.431  1.00  0.00     0.012 A 
ATOM     96  C   UNL A   1      54.126  27.706  25.773  1.00  0.00     0.148 A 
ATOM     97  C   UNL A   1      54.663  27.274  23.047  1.00  0.00     0.002 A 
ATOM     98  C   UNL A   1      55.292  27.060  25.382  1.00  0.00     0.091 A 
ATOM     99  F   UNL A   1      53.829  27.915  27.064  1.00  0.00    -0.205 F 
ATOM    100  C   UNL A   1      55.560  26.838  24.021  1.00  0.00     0.022 A 
BRANCH  98 101
ATOM    101  S   UNL A   1      56.543  26.521  26.555  1.00  0.00     0.127 S 
ATOM    102  O   UNL A   1      57.550  25.940  25.669  1.00  0.00    -0.237 OA
ATOM    103  O   UNL A   1      56.938  27.781  27.185  1.00  0.00    -0.237 OA
ATOM    104  O   UNL A   1      55.881  25.578  27.446  1.00  0.00    -0.744 OA
ENDBRANCH  98 101
ENDBRANCH  71  94
ENDBRANCH  45  46
ENDBRANCH  38  40
ENDBRANCH  37  38
ENDBRANCH  36  37
ENDBRANCH  35  36
ENDBRANCH  34  35
ENDBRANCH  33  34
ENDBRANCH  32  33
ENDBRANCH   1  32
TORSDOF 27
ENDMDL
MODEL 3
REMARK VINA RESULT:      -6.9      5.320      9.001
REMARK SMILES CC(C)[N@@H+](C)Cc1cc2c(cc1Cl)C=C(C(=O)OCCOCCOCCOCCOC(=O)c1ccc(-c3c4nc(c(-c5cccc(S(=O)(=O)[O-])c5F)c5ccc([nH]5)c(-c5cccc(S(=O)(=O)[O-])c5F)c5nc(c(-c6cccc(S(=O)(=O)[O-])c6F)c6ccc3[nH]6)C=C5)C=C4)cc1)[C@@H](C(F)(F)F)O2
REMARK SMILES IDX 24 1 23 2 22 3 21 4 20 5 19 6 18 7 16 8 17 9 15 10 7 11 8 12
REMARK SMILES IDX 12 13 9 14 11 15 13 16 10 17 101 18 14 19 96 20 6 21 4 22
REMARK SMILES IDX 5 23 2 25 1 26 3 27 97 28 98 29 99 30 100 31 25 32 26 33
REMARK SMILES IDX 27 34 28 35 29 36 30 37 31 38 32 39 33 40 34 41 95 42 35 43
REMARK SMILES IDX 94 44 36 45 37 46 38 47 88 48 39 49 93 50 87 51 89 52 40 53
REMARK SMILES IDX 92 54 86 55 85 56 41 58 73 59 53 60 72 61 54 62 57 63 71 64
REMARK SMILES IDX 90 65 55 66 56 67 70 69 91 70 58 71 42 72 43 73 51 74 44 75
REMARK SMILES IDX 46 76 52 77 45 78 47 79 48 80 49 81 50 82 74 83 75 84 83 85
REMARK SMILES IDX 76 86 78 87 84 88 77 89 79 90 80 91 81 92 82 93 59 94 60 95
REMARK SMILES IDX 68 96 61 97 63 98 69 99 62 100 64 101 65 102 66 103 67 104
REMARK H PARENT 4 24 89 57 57 68
REMARK Flexibility Score: inf
ROOT
ATOM      1  O   UNL A   1      33.276  34.043  29.794  1.00  0.00    -0.377 OA
ENDROOT
BRANCH   1   2
ATOM      2  C   UNL A   1      33.236  34.289  28.398  1.00  0.00     0.188 C 
BRANCH   2   3
ATOM      3  C   UNL A   1      32.998  33.012  27.570  1.00  0.00     0.188 C 
BRANCH   3   4
ATOM      4  O   UNL A   1      31.622  32.750  27.310  1.00  0.00    -0.376 OA
BRANCH   4   5
ATOM      5  C   UNL A   1      31.298  31.977  26.160  1.00  0.00     0.202 C 
BRANCH   5   6
ATOM      6  C   UNL A   1      31.484  30.456  26.256  1.00  0.00     0.261 C 
BRANCH   6   7
ATOM      7  O   UNL A   1      32.433  29.913  25.328  1.00  0.00    -0.460 OA
BRANCH   7   8
ATOM      8  C   UNL A   1      31.967  29.195  24.290  1.00  0.00     0.338 C 
ATOM      9  O   UNL A   1      31.708  29.591  23.169  1.00  0.00    -0.246 OA
BRANCH   8  10
ATOM     10  C   UNL A   1      31.985  27.776  24.702  1.00  0.00     0.087 C 
ATOM     11  C   UNL A   1      33.162  23.022  25.855  1.00  0.00     0.029 A 
ATOM     12  C   UNL A   1      31.999  23.748  25.592  1.00  0.00     0.058 A 
ATOM     13  C   UNL A   1      34.361  23.758  25.908  1.00  0.00     0.050 A 
ATOM     14  C   UNL A   1      32.003  25.123  25.390  1.00  0.00     0.128 A 
ATOM     15  C   UNL A   1      34.383  25.142  25.654  1.00  0.00     0.033 A 
ATOM     16  Cl  UNL A   1      35.879  22.996  26.247  1.00  0.00    -0.084 Cl
ATOM     17  C   UNL A   1      33.199  25.823  25.358  1.00  0.00     0.019 A 
ATOM     18  O   UNL A   1      30.773  25.669  25.210  1.00  0.00    -0.475 OA
ATOM     19  C   UNL A   1      33.181  27.214  24.938  1.00  0.00     0.027 C 
ATOM     20  C   UNL A   1      30.664  27.084  24.932  1.00  0.00     0.316 C 
BRANCH  11  21
ATOM     21  C   UNL A   1      33.152  21.514  26.026  1.00  0.00     0.300 C 
BRANCH  21  22
ATOM     22  N   UNL A   1      33.524  20.633  24.911  1.00  0.00    -0.332 N 
ATOM     23  C   UNL A   1      32.524  20.456  23.871  1.00  0.00     0.333 C 
ATOM     24  H   UNL A   1      34.208  21.276  24.513  1.00  0.00     0.348 HD
BRANCH  22  25
ATOM     25  C   UNL A   1      34.479  19.536  25.094  1.00  0.00     0.177 C 
ATOM     26  C   UNL A   1      34.092  18.315  24.252  1.00  0.00     0.075 C 
ATOM     27  C   UNL A   1      35.961  19.846  24.872  1.00  0.00     0.075 C 
ENDBRANCH  22  25
ENDBRANCH  21  22
ENDBRANCH  11  21
BRANCH  20  28
ATOM     28  C   UNL A   1      29.681  27.219  23.759  1.00  0.00     0.430 C 
ATOM     29  F   UNL A   1      30.314  27.023  22.576  1.00  0.00    -0.167 F 
ATOM     30  F   UNL A   1      28.670  26.328  23.817  1.00  0.00    -0.167 F 
ATOM     31  F   UNL A   1      29.131  28.456  23.720  1.00  0.00    -0.167 F 
ENDBRANCH  20  28
ENDBRANCH   8  10
ENDBRANCH   7   8
ENDBRANCH   6   7
ENDBRANCH   5   6
ENDBRANCH   4   5
ENDBRANCH   3   4
ENDBRANCH   2   3
ENDBRANCH   1   2
BRANCH   1  32
ATOM     32  C   UNL A   1      34.206  34.800  30.570  1.00  0.00     0.188 C 
BRANCH  32  33
ATOM     33  C   UNL A   1      34.652  34.334  31.976  1.00  0.00     0.188 C 
BRANCH  33  34
ATOM     34  O   UNL A   1      34.664  32.915  32.134  1.00  0.00    -0.376 OA
BRANCH  34  35
ATOM     35  C   UNL A   1      35.215  32.160  31.065  1.00  0.00     0.202 C 
BRANCH  35  36
ATOM     36  C   UNL A   1      36.072  30.975  31.525  1.00  0.00     0.261 C 
BRANCH  36  37
ATOM     37  O   UNL A   1      37.472  31.255  31.669  1.00  0.00    -0.460 OA
BRANCH  37  38
ATOM     38  C   UNL A   1      37.986  31.263  32.920  1.00  0.00     0.338 C 
ATOM     39  O   UNL A   1      37.426  31.620  33.941  1.00  0.00    -0.246 OA
BRANCH  38  40
ATOM     40  C   UNL A   1      39.286  30.564  32.856  1.00  0.00     0.060 A 
ATOM     41  C   UNL A   1      40.475  31.282  33.016  1.00  0.00     0.016 A 
ATOM     42  C   UNL A   1      39.316  29.191  32.583  1.00  0.00     0.016 A 
ATOM     43  C   UNL A   1      41.698  30.617  32.927  1.00  0.00     0.010 A 
ATOM     44  C   UNL A   1      40.542  28.529  32.483  1.00  0.00     0.010 A 
ATOM     45  C   UNL A   1      41.739  29.234  32.676  1.00  0.00    -0.014 A 
BRANCH  45  46
ATOM     46  C   UNL A   1      43.020  28.506  32.818  1.00  0.00     0.031 A 
ATOM     47  C   UNL A   1      43.832  28.070  31.637  1.00  0.00     0.074 A 
ATOM     48  C   UNL A   1      43.435  28.221  34.067  1.00  0.00     0.049 A 
ATOM     49  N   UNL A   1      45.002  27.485  31.627  1.00  0.00    -0.248 NA
ATOM     50  C   UNL A   1      43.267  28.314  30.302  1.00  0.00     0.031 C 
ATOM     51  C   UNL A   1      42.699  28.554  35.289  1.00  0.00     0.029 A 
ATOM     52  N   UNL A   1      44.562  27.585  34.517  1.00  0.00    -0.354 N 
ATOM     53  C   UNL A   1      45.318  27.283  30.290  1.00  0.00     0.074 A 
ATOM     54  C   UNL A   1      44.207  27.799  29.516  1.00  0.00     0.031 C 
ATOM     55  C   UNL A   1      43.395  28.121  36.350  1.00  0.00     0.029 A 
ATOM     56  C   UNL A   1      44.617  27.473  35.885  1.00  0.00     0.049 A 
ATOM     57  H   UNL A   1      45.265  27.242  33.918  1.00  0.00     0.167 HD
ATOM     58  C   UNL A   1      46.440  26.737  29.764  1.00  0.00     0.034 A 
ATOM     59  C   UNL A   1      45.547  26.914  36.682  1.00  0.00     0.034 A 
ATOM     60  C   UNL A   1      47.547  26.237  30.540  1.00  0.00     0.049 A 
ATOM     61  C   UNL A   1      46.783  26.325  36.071  1.00  0.00     0.074 A 
ATOM     62  C   UNL A   1      48.752  25.730  30.085  1.00  0.00     0.029 A 
ATOM     63  N   UNL A   1      47.581  26.165  31.924  1.00  0.00    -0.354 N 
ATOM     64  N   UNL A   1      47.128  26.272  34.808  1.00  0.00    -0.248 NA
ATOM     65  C   UNL A   1      47.770  25.745  36.993  1.00  0.00     0.031 C 
ATOM     66  C   UNL A   1      49.509  25.336  31.193  1.00  0.00     0.029 A 
ATOM     67  C   UNL A   1      48.781  25.611  32.339  1.00  0.00     0.049 A 
ATOM     68  H   UNL A   1      46.860  26.463  32.524  1.00  0.00     0.167 HD
ATOM     69  C   UNL A   1      48.379  25.671  34.782  1.00  0.00     0.074 A 
ATOM     70  C   UNL A   1      48.740  25.392  36.158  1.00  0.00     0.031 C 
ATOM     71  C   UNL A   1      49.149  25.367  33.710  1.00  0.00     0.034 A 
BRANCH  58  72
ATOM     72  C   UNL A   1      46.579  26.700  28.267  1.00  0.00     0.023 A 
ATOM     73  C   UNL A   1      47.220  27.773  27.616  1.00  0.00     0.012 A 
ATOM     74  C   UNL A   1      46.202  25.562  27.526  1.00  0.00     0.148 A 
ATOM     75  C   UNL A   1      47.480  27.717  26.247  1.00  0.00     0.002 A 
ATOM     76  C   UNL A   1      46.490  25.502  26.168  1.00  0.00     0.091 A 
ATOM     77  F   UNL A   1      45.589  24.559  28.169  1.00  0.00    -0.205 F 
ATOM     78  C   UNL A   1      47.125  26.579  25.527  1.00  0.00     0.022 A 
BRANCH  76  79
ATOM     79  S   UNL A   1      46.125  24.063  25.155  1.00  0.00     0.127 S 
ATOM     80  O   UNL A   1      46.988  24.293  23.996  1.00  0.00    -0.237 OA
ATOM     81  O   UNL A   1      46.547  22.964  26.021  1.00  0.00    -0.237 OA
ATOM     82  O   UNL A   1      44.696  24.115  24.881  1.00  0.00    -0.744 OA
ENDBRANCH  76  79
ENDBRANCH  58  72
BRANCH  59  83
ATOM     83  C   UNL A   1      45.357  26.968  38.155  1.00  0.00     0.023 A 
ATOM     84  C   UNL A   1      44.767  25.871  38.810  1.00  0.00     0.012 A 
ATOM     85  C   UNL A   1      45.842  28.052  38.910  1.00  0.00     0.148 A 
ATOM     86  C   UNL A   1      44.657  25.857  40.200  1.00  0.00     0.002 A 
ATOM     87  C   UNL A   1      45.764  28.013  40.295  1.00  0.00     0.091 A 
ATOM     88  F   UNL A   1      46.404  29.079  38.255  1.00  0.00    -0.205 F 
ATOM     89  C   UNL A   1      45.164  26.921  40.942  1.00  0.00     0.022 A 
BRANCH  87  90
ATOM     90  S   UNL A   1      46.483  29.283  41.344  1.00  0.00     0.127 S 
ATOM     91  O   UNL A   1      45.967  28.908  42.659  1.00  0.00    -0.237 OA
ATOM     92  O   UNL A   1      47.914  29.051  41.153  1.00  0.00    -0.237 OA
ATOM     93  O   UNL A   1      45.996  30.551  40.821  1.00  0.00    -0.744 OA
ENDBRANCH  87  90
ENDBRANCH  59  83
BRANCH  71  94
ATOM     94  C   UNL A   1      50.469  24.691  33.964  1.00  0.00     0.023 A 
ATOM     95  C   UNL A   1      51.614  25.479  34.193  1.00  0.00     0.012 A 
ATOM     96  C   UNL A   1      50.556  23.289  34.074  1.00  0.00     0.148 A 
ATOM     97  C   UNL A   1      52.830  24.881  34.517  1.00  0.00     0.002 A 
ATOM     98  C   UNL A   1      51.763  22.702  34.431  1.00  0.00     0.091 A 
ATOM     99  F   UNL A   1      49.454  22.561  33.838  1.00  0.00    -0.205 F 
ATOM    100  C   UNL A   1      52.902  23.496  34.647  1.00  0.00     0.022 A 
BRANCH  98 101
ATOM    101  S   UNL A   1      51.942  20.934  34.691  1.00  0.00     0.127 S 
ATOM    102  O   UNL A   1      51.450  20.395  33.425  1.00  0.00    -0.237 OA
ATOM    103  O   UNL A   1      53.384  20.795  34.894  1.00  0.00    -0.237 OA
ATOM    104  O   UNL A   1      51.131  20.613  35.859  1.00  0.00    -0.744 OA
ENDBRANCH  98 101
ENDBRANCH  71  94
ENDBRANCH  45  46
ENDBRANCH  38  40
ENDBRANCH  37  38
ENDBRANCH  36  37
ENDBRANCH  35  36
ENDBRANCH  34  35
ENDBRANCH  33  34
ENDBRANCH  32  33
ENDBRANCH   1  32
TORSDOF 27
ENDMDL
