MODEL 1
REMARK VINA RESULT:      -8.4      0.000      0.000
REMARK SMILES CC(C)CCn1nc(C(=O)OCCOCCOCCOCCOC(=O)c2ccc(-c3c4nc(c(-c5cccc(S(=O)(=O)[O-])c5F)c5ccc([nH]5)c(-c5cccc(S(=O)(=O)[O-])c5F)c5nc(c(-c6cccc(S(=O)(=O)[O-])c6F)c6ccc3[nH]6)C=C5)C=C4)cc2)c2c1CCN(C(=O)[C@@H]1CCc3nn(C)c(=O)n3C1)C2
REMARK SMILES IDX 17 1 16 2 15 3 14 4 13 5 12 6 11 7 9 8 10 9 8 10 6 11 7 12
REMARK SMILES IDX 90 13 89 14 91 15 107 16 92 17 93 18 5 19 4 20 2 21 1 22
REMARK SMILES IDX 3 23 94 24 95 25 96 26 97 27 106 28 98 29 105 30 99 31
REMARK SMILES IDX 103 32 100 33 101 34 104 35 102 36 18 37 19 38 20 39 21 40
REMARK SMILES IDX 22 41 23 42 24 43 25 44 26 45 27 46 88 47 28 48 87 49 29 50
REMARK SMILES IDX 30 51 31 52 81 53 32 54 86 55 80 56 82 57 33 58 85 59 79 60
REMARK SMILES IDX 78 61 34 63 66 64 46 65 65 66 47 67 50 68 64 69 83 70 48 71
REMARK SMILES IDX 49 72 63 74 84 75 51 76 35 77 36 78 44 79 37 80 39 81 45 82
REMARK SMILES IDX 38 83 40 84 41 85 42 86 43 87 67 88 68 89 76 90 69 91 71 92
REMARK SMILES IDX 77 93 70 94 72 95 73 96 74 97 75 98 52 99 53 100 61 101
REMARK SMILES IDX 54 102 56 103 62 104 55 105 57 106 58 107 59 108 60 109
REMARK H PARENT 82 62 50 73
REMARK Flexibility Score: inf
ROOT
ATOM      1  O   UNL A   1      36.249  30.686  29.553  1.00  0.00    -0.377 OA
ENDROOT
BRANCH   1   2
ATOM      2  C   UNL A   1      37.453  30.696  28.813  1.00  0.00     0.188 C 
BRANCH   2   3
ATOM      3  C   UNL A   1      37.863  29.309  28.268  1.00  0.00     0.188 C 
BRANCH   3   4
ATOM      4  O   UNL A   1      38.200  28.211  29.114  1.00  0.00    -0.376 OA
BRANCH   4   5
ATOM      5  C   UNL A   1      39.530  27.842  29.439  1.00  0.00     0.202 C 
BRANCH   5   6
ATOM      6  C   UNL A   1      40.325  26.826  28.616  1.00  0.00     0.261 C 
BRANCH   6   7
ATOM      7  O   UNL A   1      39.543  25.810  28.011  1.00  0.00    -0.458 OA
BRANCH   7   8
ATOM      8  C   UNL A   1      39.988  25.334  26.817  1.00  0.00     0.359 C 
ATOM      9  O   UNL A   1      40.561  26.013  25.966  1.00  0.00    -0.244 OA
BRANCH   8  10
ATOM     10  C   UNL A   1      39.741  23.892  26.718  1.00  0.00     0.175 A 
ATOM     11  N   UNL A   1      40.076  21.766  26.737  1.00  0.00    -0.268 N 
ATOM     12  N   UNL A   1      40.678  22.957  26.994  1.00  0.00    -0.165 NA
ATOM     13  C   UNL A   1      38.892  21.972  26.104  1.00  0.00     0.046 A 
ATOM     14  C   UNL A   1      38.521  23.279  26.339  1.00  0.00     0.028 A 
ATOM     15  C   UNL A   1      38.104  21.104  25.214  1.00  0.00     0.078 C 
ATOM     16  C   UNL A   1      37.175  23.863  25.979  1.00  0.00     0.159 C 
ATOM     17  C   UNL A   1      37.201  22.021  24.382  1.00  0.00     0.126 C 
ATOM     18  N   UNL A   1      36.382  22.838  25.264  1.00  0.00    -0.338 N 
BRANCH  11  19
ATOM     19  C   UNL A   1      40.809  20.561  27.095  1.00  0.00     0.145 C 
BRANCH  19  20
ATOM     20  C   UNL A   1      42.354  20.509  27.064  1.00  0.00     0.027 C 
BRANCH  20  21
ATOM     21  C   UNL A   1      43.062  20.523  25.695  1.00  0.00    -0.016 C 
ATOM     22  C   UNL A   1      43.939  21.746  25.452  1.00  0.00     0.007 C 
ATOM     23  C   UNL A   1      43.838  19.232  25.429  1.00  0.00     0.007 C 
ENDBRANCH  20  21
ENDBRANCH  19  20
ENDBRANCH  11  19
BRANCH  18  24
ATOM     24  C   UNL A   1      35.038  22.702  25.551  1.00  0.00     0.227 C 
ATOM     25  O   UNL A   1      34.699  22.312  26.677  1.00  0.00    -0.274 OA
BRANCH  24  26
ATOM     26  C   UNL A   1      33.888  22.988  24.546  1.00  0.00     0.099 C 
ATOM     27  C   UNL A   1      34.252  23.816  23.305  1.00  0.00     0.023 C 
ATOM     28  C   UNL A   1      32.516  23.346  25.108  1.00  0.00     0.142 C 
ATOM     29  C   UNL A   1      33.949  25.310  23.364  1.00  0.00     0.078 C 
ATOM     30  N   UNL A   1      32.242  24.767  25.078  1.00  0.00    -0.278 N 
ATOM     31  C   UNL A   1      32.921  25.698  24.379  1.00  0.00     0.133 A 
ATOM     32  C   UNL A   1      31.528  25.450  26.034  1.00  0.00     0.345 A 
ATOM     33  N   UNL A   1      32.714  26.927  24.762  1.00  0.00    -0.155 NA
ATOM     34  N   UNL A   1      31.831  26.798  25.812  1.00  0.00    -0.216 N 
ATOM     35  O   UNL A   1      30.907  24.980  26.974  1.00  0.00    -0.246 OA
ATOM     36  C   UNL A   1      31.583  27.861  26.747  1.00  0.00     0.179 C 
ENDBRANCH  24  26
ENDBRANCH  18  24
ENDBRANCH   8  10
ENDBRANCH   7   8
ENDBRANCH   6   7
ENDBRANCH   5   6
ENDBRANCH   4   5
ENDBRANCH   3   4
ENDBRANCH   2   3
ENDBRANCH   1   2
BRANCH   1  37
ATOM     37  C   UNL A   1      35.417  31.840  29.440  1.00  0.00     0.188 C 
BRANCH  37  38
ATOM     38  C   UNL A   1      35.508  32.967  30.507  1.00  0.00     0.188 C 
BRANCH  38  39
ATOM     39  O   UNL A   1      36.824  33.311  30.921  1.00  0.00    -0.376 OA
BRANCH  39  40
ATOM     40  C   UNL A   1      37.262  33.161  32.261  1.00  0.00     0.202 C 
BRANCH  40  41
ATOM     41  C   UNL A   1      37.376  31.745  32.816  1.00  0.00     0.261 C 
BRANCH  41  42
ATOM     42  O   UNL A   1      37.054  31.664  34.188  1.00  0.00    -0.460 OA
BRANCH  42  43
ATOM     43  C   UNL A   1      38.078  31.298  34.973  1.00  0.00     0.338 C 
ATOM     44  O   UNL A   1      38.496  30.156  35.160  1.00  0.00    -0.246 OA
BRANCH  43  45
ATOM     45  C   UNL A   1      38.559  32.479  35.680  1.00  0.00     0.060 A 
ATOM     46  C   UNL A   1      39.822  32.351  36.252  1.00  0.00     0.016 A 
ATOM     47  C   UNL A   1      37.602  33.405  36.127  1.00  0.00     0.016 A 
ATOM     48  C   UNL A   1      39.997  32.898  37.492  1.00  0.00     0.010 A 
ATOM     49  C   UNL A   1      37.767  33.927  37.378  1.00  0.00     0.010 A 
ATOM     50  C   UNL A   1      38.913  33.564  38.074  1.00  0.00    -0.014 A 
BRANCH  50  51
ATOM     51  C   UNL A   1      39.032  33.907  39.462  1.00  0.00     0.031 A 
ATOM     52  C   UNL A   1      39.754  35.171  39.654  1.00  0.00     0.074 A 
ATOM     53  C   UNL A   1      38.493  33.150  40.432  1.00  0.00     0.049 A 
ATOM     54  N   UNL A   1      40.962  35.314  40.083  1.00  0.00    -0.248 NA
ATOM     55  C   UNL A   1      39.154  36.385  39.087  1.00  0.00     0.031 C 
ATOM     56  C   UNL A   1      37.526  32.056  40.305  1.00  0.00     0.029 A 
ATOM     57  N   UNL A   1      38.596  33.322  41.772  1.00  0.00    -0.354 N 
ATOM     58  C   UNL A   1      41.172  36.686  40.077  1.00  0.00     0.074 A 
ATOM     59  C   UNL A   1      40.154  37.253  39.233  1.00  0.00     0.031 C 
ATOM     60  C   UNL A   1      36.936  31.860  41.507  1.00  0.00     0.029 A 
ATOM     61  C   UNL A   1      37.569  32.726  42.488  1.00  0.00     0.049 A 
ATOM     62  H   UNL A   1      39.330  33.822  42.197  1.00  0.00     0.167 HD
ATOM     63  C   UNL A   1      41.968  37.267  41.009  1.00  0.00     0.034 A 
ATOM     64  C   UNL A   1      37.209  33.045  43.755  1.00  0.00     0.034 A 
ATOM     65  C   UNL A   1      42.813  36.300  41.665  1.00  0.00     0.049 A 
ATOM     66  C   UNL A   1      38.364  33.742  44.382  1.00  0.00     0.074 A 
ATOM     67  C   UNL A   1      43.744  35.375  41.236  1.00  0.00     0.029 A 
ATOM     68  N   UNL A   1      42.452  35.914  42.936  1.00  0.00    -0.354 N 
ATOM     69  N   UNL A   1      39.503  33.157  44.640  1.00  0.00    -0.248 NA
ATOM     70  C   UNL A   1      38.418  35.194  44.292  1.00  0.00     0.031 C 
ATOM     71  C   UNL A   1      43.544  34.236  42.070  1.00  0.00     0.029 A 
ATOM     72  C   UNL A   1      42.546  34.549  42.995  1.00  0.00     0.049 A 
ATOM     73  H   UNL A   1      42.177  36.511  43.669  1.00  0.00     0.167 HD
ATOM     74  C   UNL A   1      40.465  34.097  44.289  1.00  0.00     0.074 A 
ATOM     75  C   UNL A   1      39.740  35.363  44.188  1.00  0.00     0.031 C 
ATOM     76  C   UNL A   1      41.689  33.717  43.814  1.00  0.00     0.034 A 
BRANCH  63  77
ATOM     77  C   UNL A   1      41.703  38.627  41.602  1.00  0.00     0.023 A 
ATOM     78  C   UNL A   1      42.638  39.642  41.314  1.00  0.00     0.012 A 
ATOM     79  C   UNL A   1      40.761  38.891  42.625  1.00  0.00     0.148 A 
ATOM     80  C   UNL A   1      42.668  40.833  42.044  1.00  0.00     0.002 A 
ATOM     81  C   UNL A   1      40.737  40.110  43.285  1.00  0.00     0.091 A 
ATOM     82  F   UNL A   1      39.967  37.920  43.083  1.00  0.00    -0.205 F 
ATOM     83  C   UNL A   1      41.711  41.074  43.023  1.00  0.00     0.022 A 
BRANCH  81  84
ATOM     84  S   UNL A   1      39.482  40.480  44.516  1.00  0.00     0.127 S 
ATOM     85  O   UNL A   1      39.517  39.276  45.340  1.00  0.00    -0.237 OA
ATOM     86  O   UNL A   1      40.027  41.682  45.147  1.00  0.00    -0.237 OA
ATOM     87  O   UNL A   1      38.253  40.709  43.766  1.00  0.00    -0.744 OA
ENDBRANCH  81  84
ENDBRANCH  63  77
BRANCH  64  88
ATOM     88  C   UNL A   1      35.846  33.082  44.335  1.00  0.00     0.023 A 
ATOM     89  C   UNL A   1      34.818  33.764  43.657  1.00  0.00     0.012 A 
ATOM     90  C   UNL A   1      35.486  32.246  45.418  1.00  0.00     0.148 A 
ATOM     91  C   UNL A   1      33.477  33.603  44.032  1.00  0.00     0.002 A 
ATOM     92  C   UNL A   1      34.156  32.105  45.799  1.00  0.00     0.091 A 
ATOM     93  F   UNL A   1      36.433  31.510  46.014  1.00  0.00    -0.205 F 
ATOM     94  C   UNL A   1      33.146  32.773  45.101  1.00  0.00     0.022 A 
BRANCH  92  95
ATOM     95  S   UNL A   1      33.667  31.042  47.166  1.00  0.00     0.127 S 
ATOM     96  O   UNL A   1      32.213  31.208  47.176  1.00  0.00    -0.237 OA
ATOM     97  O   UNL A   1      34.132  29.733  46.716  1.00  0.00    -0.237 OA
ATOM     98  O   UNL A   1      34.333  31.579  48.346  1.00  0.00    -0.744 OA
ENDBRANCH  92  95
ENDBRANCH  64  88
BRANCH  76  99
ATOM     99  C   UNL A   1      42.070  32.258  43.898  1.00  0.00     0.023 A 
ATOM    100  C   UNL A   1      41.813  31.352  42.847  1.00  0.00     0.012 A 
ATOM    101  C   UNL A   1      42.875  31.838  44.971  1.00  0.00     0.148 A 
ATOM    102  C   UNL A   1      42.327  30.053  42.876  1.00  0.00     0.002 A 
ATOM    103  C   UNL A   1      43.424  30.560  44.972  1.00  0.00     0.091 A 
ATOM    104  F   UNL A   1      43.119  32.710  45.960  1.00  0.00    -0.205 F 
ATOM    105  C   UNL A   1      43.144  29.662  43.932  1.00  0.00     0.022 A 
BRANCH 103 106
ATOM    106  S   UNL A   1      44.589  30.044  46.235  1.00  0.00     0.127 S 
ATOM    107  O   UNL A   1      44.741  28.619  45.946  1.00  0.00    -0.237 OA
ATOM    108  O   UNL A   1      45.767  30.859  45.931  1.00  0.00    -0.237 OA
ATOM    109  O   UNL A   1      43.963  30.362  47.512  1.00  0.00    -0.744 OA
ENDBRANCH 103 106
ENDBRANCH  76  99
ENDBRANCH  50  51
ENDBRANCH  43  45
ENDBRANCH  42  43
ENDBRANCH  41  42
ENDBRANCH  40  41
ENDBRANCH  39  40
ENDBRANCH  38  39
ENDBRANCH  37  38
ENDBRANCH   1  37
TORSDOF 28
ENDMDL
MODEL 2
REMARK VINA RESULT:      -8.2      1.977      2.263
REMARK SMILES CC(C)CCn1nc(C(=O)OCCOCCOCCOCCOC(=O)c2ccc(-c3c4nc(c(-c5cccc(S(=O)(=O)[O-])c5F)c5ccc([nH]5)c(-c5cccc(S(=O)(=O)[O-])c5F)c5nc(c(-c6cccc(S(=O)(=O)[O-])c6F)c6ccc3[nH]6)C=C5)C=C4)cc2)c2c1CCN(C(=O)[C@@H]1CCc3nn(C)c(=O)n3C1)C2
REMARK SMILES IDX 17 1 16 2 15 3 14 4 13 5 12 6 11 7 9 8 10 9 8 10 6 11 7 12
REMARK SMILES IDX 90 13 89 14 91 15 107 16 92 17 93 18 5 19 4 20 2 21 1 22
REMARK SMILES IDX 3 23 94 24 95 25 96 26 97 27 106 28 98 29 105 30 99 31
REMARK SMILES IDX 103 32 100 33 101 34 104 35 102 36 18 37 19 38 20 39 21 40
REMARK SMILES IDX 22 41 23 42 24 43 25 44 26 45 27 46 88 47 28 48 87 49 29 50
REMARK SMILES IDX 30 51 31 52 81 53 32 54 86 55 80 56 82 57 33 58 85 59 79 60
REMARK SMILES IDX 78 61 34 63 66 64 46 65 65 66 47 67 50 68 64 69 83 70 48 71
REMARK SMILES IDX 49 72 63 74 84 75 51 76 35 77 36 78 44 79 37 80 39 81 45 82
REMARK SMILES IDX 38 83 40 84 41 85 42 86 43 87 67 88 68 89 76 90 69 91 71 92
REMARK SMILES IDX 77 93 70 94 72 95 73 96 74 97 75 98 52 99 53 100 61 101
REMARK SMILES IDX 54 102 56 103 62 104 55 105 57 106 58 107 59 108 60 109
REMARK H PARENT 82 62 50 73
REMARK Flexibility Score: inf
ROOT
ATOM      1  O   UNL A   1      36.041  30.801  29.729  1.00  0.00    -0.377 OA
ENDROOT
BRANCH   1   2
ATOM      2  C   UNL A   1      37.223  30.796  28.956  1.00  0.00     0.188 C 
BRANCH   2   3
ATOM      3  C   UNL A   1      37.694  29.383  28.545  1.00  0.00     0.188 C 
BRANCH   3   4
ATOM      4  O   UNL A   1      38.136  28.407  29.488  1.00  0.00    -0.376 OA
BRANCH   4   5
ATOM      5  C   UNL A   1      39.500  28.140  29.770  1.00  0.00     0.202 C 
BRANCH   5   6
ATOM      6  C   UNL A   1      40.333  27.160  28.942  1.00  0.00     0.261 C 
BRANCH   6   7
ATOM      7  O   UNL A   1      39.592  26.112  28.339  1.00  0.00    -0.458 OA
BRANCH   7   8
ATOM      8  C   UNL A   1      39.924  25.796  27.059  1.00  0.00     0.359 C 
ATOM      9  O   UNL A   1      40.357  26.598  26.232  1.00  0.00    -0.244 OA
BRANCH   8  10
ATOM     10  C   UNL A   1      39.749  24.359  26.826  1.00  0.00     0.175 A 
ATOM     11  N   UNL A   1      40.206  22.274  26.550  1.00  0.00    -0.268 N 
ATOM     12  N   UNL A   1      40.768  23.471  26.861  1.00  0.00    -0.165 NA
ATOM     13  C   UNL A   1      38.934  22.458  26.112  1.00  0.00     0.046 A 
ATOM     14  C   UNL A   1      38.525  23.702  26.547  1.00  0.00     0.028 A 
ATOM     15  C   UNL A   1      38.078  21.636  25.242  1.00  0.00     0.078 C 
ATOM     16  C   UNL A   1      37.110  24.221  26.444  1.00  0.00     0.159 C 
ATOM     17  C   UNL A   1      37.013  22.569  24.653  1.00  0.00     0.126 C 
ATOM     18  N   UNL A   1      36.283  23.223  25.727  1.00  0.00    -0.338 N 
BRANCH  11  19
ATOM     19  C   UNL A   1      41.050  21.094  26.662  1.00  0.00     0.145 C 
BRANCH  19  20
ATOM     20  C   UNL A   1      42.531  21.193  27.098  1.00  0.00     0.027 C 
BRANCH  20  21
ATOM     21  C   UNL A   1      43.432  22.234  26.406  1.00  0.00    -0.016 C 
ATOM     22  C   UNL A   1      44.716  22.556  27.162  1.00  0.00     0.007 C 
ATOM     23  C   UNL A   1      43.731  21.870  24.951  1.00  0.00     0.007 C 
ENDBRANCH  20  21
ENDBRANCH  19  20
ENDBRANCH  11  19
BRANCH  18  24
ATOM     24  C   UNL A   1      35.004  22.958  26.176  1.00  0.00     0.227 C 
ATOM     25  O   UNL A   1      34.823  22.737  27.382  1.00  0.00    -0.274 OA
BRANCH  24  26
ATOM     26  C   UNL A   1      33.746  22.897  25.268  1.00  0.00     0.099 C 
ATOM     27  C   UNL A   1      33.941  22.300  23.866  1.00  0.00     0.023 C 
ATOM     28  C   UNL A   1      32.800  24.093  25.269  1.00  0.00     0.142 C 
ATOM     29  C   UNL A   1      34.149  23.288  22.723  1.00  0.00     0.078 C 
ATOM     30  N   UNL A   1      32.984  24.965  24.128  1.00  0.00    -0.278 N 
ATOM     31  C   UNL A   1      33.663  24.676  23.001  1.00  0.00     0.133 A 
ATOM     32  C   UNL A   1      32.852  26.333  24.156  1.00  0.00     0.345 A 
ATOM     33  N   UNL A   1      33.976  25.708  22.271  1.00  0.00    -0.155 NA
ATOM     34  N   UNL A   1      33.472  26.776  22.981  1.00  0.00    -0.216 N 
ATOM     35  O   UNL A   1      32.443  27.022  25.077  1.00  0.00    -0.246 OA
ATOM     36  C   UNL A   1      33.870  28.133  22.723  1.00  0.00     0.179 C 
ENDBRANCH  24  26
ENDBRANCH  18  24
ENDBRANCH   8  10
ENDBRANCH   7   8
ENDBRANCH   6   7
ENDBRANCH   5   6
ENDBRANCH   4   5
ENDBRANCH   3   4
ENDBRANCH   2   3
ENDBRANCH   1   2
BRANCH   1  37
ATOM     37  C   UNL A   1      35.225  31.970  29.647  1.00  0.00     0.188 C 
BRANCH  37  38
ATOM     38  C   UNL A   1      35.378  33.098  30.706  1.00  0.00     0.188 C 
BRANCH  38  39
ATOM     39  O   UNL A   1      36.716  33.421  31.064  1.00  0.00    -0.376 OA
BRANCH  39  40
ATOM     40  C   UNL A   1      37.240  33.157  32.355  1.00  0.00     0.202 C 
BRANCH  40  41
ATOM     41  C   UNL A   1      37.437  31.699  32.757  1.00  0.00     0.261 C 
BRANCH  41  42
ATOM     42  O   UNL A   1      37.376  31.500  34.153  1.00  0.00    -0.460 OA
BRANCH  42  43
ATOM     43  C   UNL A   1      38.545  31.158  34.712  1.00  0.00     0.338 C 
ATOM     44  O   UNL A   1      39.085  30.053  34.682  1.00  0.00    -0.246 OA
BRANCH  43  45
ATOM     45  C   UNL A   1      39.036  32.296  35.481  1.00  0.00     0.060 A 
ATOM     46  C   UNL A   1      40.147  32.034  36.279  1.00  0.00     0.016 A 
ATOM     47  C   UNL A   1      38.140  33.348  35.731  1.00  0.00     0.016 A 
ATOM     48  C   UNL A   1      40.161  32.600  37.522  1.00  0.00     0.010 A 
ATOM     49  C   UNL A   1      38.139  33.891  36.983  1.00  0.00     0.010 A 
ATOM     50  C   UNL A   1      39.083  33.415  37.885  1.00  0.00    -0.014 A 
BRANCH  50  51
ATOM     51  C   UNL A   1      38.989  33.791  39.267  1.00  0.00     0.031 A 
ATOM     52  C   UNL A   1      39.662  35.069  39.533  1.00  0.00     0.074 A 
ATOM     53  C   UNL A   1      38.319  33.049  40.163  1.00  0.00     0.049 A 
ATOM     54  N   UNL A   1      40.790  35.238  40.134  1.00  0.00    -0.248 NA
ATOM     55  C   UNL A   1      39.141  36.261  38.853  1.00  0.00     0.031 C 
ATOM     56  C   UNL A   1      37.393  31.940  39.920  1.00  0.00     0.029 A 
ATOM     57  N   UNL A   1      38.218  33.252  41.499  1.00  0.00    -0.354 N 
ATOM     58  C   UNL A   1      40.986  36.612  40.126  1.00  0.00     0.074 A 
ATOM     59  C   UNL A   1      40.100  37.146  39.126  1.00  0.00     0.031 C 
ATOM     60  C   UNL A   1      36.631  31.763  41.024  1.00  0.00     0.029 A 
ATOM     61  C   UNL A   1      37.102  32.659  42.068  1.00  0.00     0.049 A 
ATOM     62  H   UNL A   1      38.876  33.772  42.016  1.00  0.00     0.167 HD
ATOM     63  C   UNL A   1      41.628  37.225  41.152  1.00  0.00     0.034 A 
ATOM     64  C   UNL A   1      36.553  33.002  43.259  1.00  0.00     0.034 A 
ATOM     65  C   UNL A   1      42.374  36.284  41.950  1.00  0.00     0.049 A 
ATOM     66  C   UNL A   1      37.595  33.728  44.034  1.00  0.00     0.074 A 
ATOM     67  C   UNL A   1      43.368  35.362  41.687  1.00  0.00     0.029 A 
ATOM     68  N   UNL A   1      41.831  35.922  43.162  1.00  0.00    -0.354 N 
ATOM     69  N   UNL A   1      38.688  33.165  44.473  1.00  0.00    -0.248 NA
ATOM     70  C   UNL A   1      37.647  35.178  43.917  1.00  0.00     0.031 C 
ATOM     71  C   UNL A   1      43.056  34.240  42.510  1.00  0.00     0.029 A 
ATOM     72  C   UNL A   1      41.929  34.560  43.268  1.00  0.00     0.049 A 
ATOM     73  H   UNL A   1      41.444  36.532  43.831  1.00  0.00     0.167 HD
ATOM     74  C   UNL A   1      39.682  34.110  44.247  1.00  0.00     0.074 A 
ATOM     75  C   UNL A   1      38.968  35.363  44.008  1.00  0.00     0.031 C 
ATOM     76  C   UNL A   1      40.967  33.735  43.970  1.00  0.00     0.034 A 
BRANCH  63  77
ATOM     77  C   UNL A   1      41.263  38.594  41.665  1.00  0.00     0.023 A 
ATOM     78  C   UNL A   1      40.251  38.660  42.643  1.00  0.00     0.012 A 
ATOM     79  C   UNL A   1      41.653  39.812  41.059  1.00  0.00     0.148 A 
ATOM     80  C   UNL A   1      39.622  39.867  42.961  1.00  0.00     0.002 A 
ATOM     81  C   UNL A   1      41.090  41.020  41.442  1.00  0.00     0.091 A 
ATOM     82  F   UNL A   1      42.466  39.813  40.000  1.00  0.00    -0.205 F 
ATOM     83  C   UNL A   1      40.048  41.051  42.368  1.00  0.00     0.022 A 
BRANCH  81  84
ATOM     84  S   UNL A   1      41.652  42.576  40.740  1.00  0.00     0.127 S 
ATOM     85  O   UNL A   1      40.814  43.536  41.450  1.00  0.00    -0.237 OA
ATOM     86  O   UNL A   1      43.064  42.583  41.118  1.00  0.00    -0.237 OA
ATOM     87  O   UNL A   1      41.423  42.461  39.304  1.00  0.00    -0.744 OA
ENDBRANCH  81  84
ENDBRANCH  63  77
BRANCH  64  88
ATOM     88  C   UNL A   1      35.119  33.034  43.628  1.00  0.00     0.023 A 
ATOM     89  C   UNL A   1      34.733  32.766  44.955  1.00  0.00     0.012 A 
ATOM     90  C   UNL A   1      34.147  33.569  42.750  1.00  0.00     0.148 A 
ATOM     91  C   UNL A   1      33.432  33.041  45.397  1.00  0.00     0.002 A 
ATOM     92  C   UNL A   1      32.851  33.821  43.187  1.00  0.00     0.091 A 
ATOM     93  F   UNL A   1      34.514  33.924  41.512  1.00  0.00    -0.205 F 
ATOM     94  C   UNL A   1      32.493  33.569  44.515  1.00  0.00     0.022 A 
BRANCH  92  95
ATOM     95  S   UNL A   1      31.597  34.508  42.097  1.00  0.00     0.127 S 
ATOM     96  O   UNL A   1      31.494  33.479  41.062  1.00  0.00    -0.237 OA
ATOM     97  O   UNL A   1      30.441  34.603  42.984  1.00  0.00    -0.237 OA
ATOM     98  O   UNL A   1      32.135  35.777  41.621  1.00  0.00    -0.744 OA
ENDBRANCH  92  95
ENDBRANCH  64  88
BRANCH  76  99
ATOM     99  C   UNL A   1      41.346  32.284  44.145  1.00  0.00     0.023 A 
ATOM    100  C   UNL A   1      41.199  31.338  43.108  1.00  0.00     0.012 A 
ATOM    101  C   UNL A   1      42.042  31.910  45.307  1.00  0.00     0.148 A 
ATOM    102  C   UNL A   1      41.715  30.046  43.236  1.00  0.00     0.002 A 
ATOM    103  C   UNL A   1      42.595  30.639  45.411  1.00  0.00     0.091 A 
ATOM    104  F   UNL A   1      42.182  32.820  46.283  1.00  0.00    -0.205 F 
ATOM    105  C   UNL A   1      42.425  29.700  44.382  1.00  0.00     0.022 A 
BRANCH 103 106
ATOM    106  S   UNL A   1      43.632  30.179  46.801  1.00  0.00     0.127 S 
ATOM    107  O   UNL A   1      44.529  29.195  46.201  1.00  0.00    -0.237 OA
ATOM    108  O   UNL A   1      44.267  31.450  47.156  1.00  0.00    -0.237 OA
ATOM    109  O   UNL A   1      42.727  29.665  47.822  1.00  0.00    -0.744 OA
ENDBRANCH 103 106
ENDBRANCH  76  99
ENDBRANCH  50  51
ENDBRANCH  43  45
ENDBRANCH  42  43
ENDBRANCH  41  42
ENDBRANCH  40  41
ENDBRANCH  39  40
ENDBRANCH  38  39
ENDBRANCH  37  38
ENDBRANCH   1  37
TORSDOF 28
ENDMDL
MODEL 3
REMARK VINA RESULT:      -8.2     10.256     18.854
REMARK SMILES CC(C)CCn1nc(C(=O)OCCOCCOCCOCCOC(=O)c2ccc(-c3c4nc(c(-c5cccc(S(=O)(=O)[O-])c5F)c5ccc([nH]5)c(-c5cccc(S(=O)(=O)[O-])c5F)c5nc(c(-c6cccc(S(=O)(=O)[O-])c6F)c6ccc3[nH]6)C=C5)C=C4)cc2)c2c1CCN(C(=O)[C@@H]1CCc3nn(C)c(=O)n3C1)C2
REMARK SMILES IDX 17 1 16 2 15 3 14 4 13 5 12 6 11 7 9 8 10 9 8 10 6 11 7 12
REMARK SMILES IDX 90 13 89 14 91 15 107 16 92 17 93 18 5 19 4 20 2 21 1 22
REMARK SMILES IDX 3 23 94 24 95 25 96 26 97 27 106 28 98 29 105 30 99 31
REMARK SMILES IDX 103 32 100 33 101 34 104 35 102 36 18 37 19 38 20 39 21 40
REMARK SMILES IDX 22 41 23 42 24 43 25 44 26 45 27 46 88 47 28 48 87 49 29 50
REMARK SMILES IDX 30 51 31 52 81 53 32 54 86 55 80 56 82 57 33 58 85 59 79 60
REMARK SMILES IDX 78 61 34 63 66 64 46 65 65 66 47 67 50 68 64 69 83 70 48 71
REMARK SMILES IDX 49 72 63 74 84 75 51 76 35 77 36 78 44 79 37 80 39 81 45 82
REMARK SMILES IDX 38 83 40 84 41 85 42 86 43 87 67 88 68 89 76 90 69 91 71 92
REMARK SMILES IDX 77 93 70 94 72 95 73 96 74 97 75 98 52 99 53 100 61 101
REMARK SMILES IDX 54 102 56 103 62 104 55 105 57 106 58 107 59 108 60 109
REMARK H PARENT 82 62 50 73
REMARK Flexibility Score: inf
ROOT
ATOM      1  O   UNL A   1      42.466  36.309  28.887  1.00  0.00    -0.377 OA
ENDROOT
BRANCH   1   2
ATOM      2  C   UNL A   1      42.747  37.059  27.723  1.00  0.00     0.188 C 
BRANCH   2   3
ATOM      3  C   UNL A   1      41.982  38.400  27.645  1.00  0.00     0.188 C 
BRANCH   3   4
ATOM      4  O   UNL A   1      41.747  39.089  26.419  1.00  0.00    -0.376 OA
BRANCH   4   5
ATOM      5  C   UNL A   1      42.067  40.454  26.204  1.00  0.00     0.202 C 
BRANCH   5   6
ATOM      6  C   UNL A   1      43.298  41.117  26.824  1.00  0.00     0.261 C 
BRANCH   6   7
ATOM      7  O   UNL A   1      43.896  42.125  26.027  1.00  0.00    -0.458 OA
BRANCH   7   8
ATOM      8  C   UNL A   1      45.111  41.832  25.492  1.00  0.00     0.359 C 
ATOM      9  O   UNL A   1      45.281  41.332  24.380  1.00  0.00    -0.244 OA
BRANCH   8  10
ATOM     10  C   UNL A   1      46.183  42.251  26.400  1.00  0.00     0.175 A 
ATOM     11  N   UNL A   1      47.654  43.481  27.379  1.00  0.00    -0.268 N 
ATOM     12  N   UNL A   1      46.647  43.519  26.468  1.00  0.00    -0.165 NA
ATOM     13  C   UNL A   1      47.952  42.191  27.686  1.00  0.00     0.046 A 
ATOM     14  C   UNL A   1      46.868  41.420  27.320  1.00  0.00     0.028 A 
ATOM     15  C   UNL A   1      49.185  41.577  28.202  1.00  0.00     0.078 C 
ATOM     16  C   UNL A   1      46.705  39.958  27.666  1.00  0.00     0.159 C 
ATOM     17  C   UNL A   1      49.134  40.091  27.828  1.00  0.00     0.126 C 
ATOM     18  N   UNL A   1      47.923  39.490  28.364  1.00  0.00    -0.338 N 
BRANCH  11  19
ATOM     19  C   UNL A   1      48.244  44.751  27.771  1.00  0.00     0.145 C 
BRANCH  19  20
ATOM     20  C   UNL A   1      47.713  46.097  27.226  1.00  0.00     0.027 C 
BRANCH  20  21
ATOM     21  C   UNL A   1      48.279  47.403  27.818  1.00  0.00    -0.016 C 
ATOM     22  C   UNL A   1      49.260  48.133  26.908  1.00  0.00     0.007 C 
ATOM     23  C   UNL A   1      47.177  48.347  28.303  1.00  0.00     0.007 C 
ENDBRANCH  20  21
ENDBRANCH  19  20
ENDBRANCH  11  19
BRANCH  18  24
ATOM     24  C   UNL A   1      47.796  38.648  29.452  1.00  0.00     0.227 C 
ATOM     25  O   UNL A   1      48.341  37.535  29.418  1.00  0.00    -0.274 OA
BRANCH  24  26
ATOM     26  C   UNL A   1      46.992  38.982  30.737  1.00  0.00     0.099 C 
ATOM     27  C   UNL A   1      45.514  38.562  30.750  1.00  0.00     0.023 C 
ATOM     28  C   UNL A   1      47.221  40.339  31.395  1.00  0.00     0.142 C 
ATOM     29  C   UNL A   1      44.493  39.635  30.388  1.00  0.00     0.078 C 
ATOM     30  N   UNL A   1      46.188  41.304  31.082  1.00  0.00    -0.278 N 
ATOM     31  C   UNL A   1      44.983  41.041  30.542  1.00  0.00     0.133 A 
ATOM     32  C   UNL A   1      46.401  42.652  30.908  1.00  0.00     0.345 A 
ATOM     33  N   UNL A   1      44.368  42.077  30.046  1.00  0.00    -0.155 NA
ATOM     34  N   UNL A   1      45.246  43.115  30.267  1.00  0.00    -0.216 N 
ATOM     35  O   UNL A   1      47.432  43.274  31.108  1.00  0.00    -0.246 OA
ATOM     36  C   UNL A   1      45.131  44.380  29.594  1.00  0.00     0.179 C 
ENDBRANCH  24  26
ENDBRANCH  18  24
ENDBRANCH   8  10
ENDBRANCH   7   8
ENDBRANCH   6   7
ENDBRANCH   5   6
ENDBRANCH   4   5
ENDBRANCH   3   4
ENDBRANCH   2   3
ENDBRANCH   1   2
BRANCH   1  37
ATOM     37  C   UNL A   1      41.462  35.301  28.775  1.00  0.00     0.188 C 
BRANCH  37  38
ATOM     38  C   UNL A   1      40.941  34.582  30.051  1.00  0.00     0.188 C 
BRANCH  38  39
ATOM     39  O   UNL A   1      39.632  34.035  29.953  1.00  0.00    -0.376 OA
BRANCH  39  40
ATOM     40  C   UNL A   1      39.275  32.806  30.563  1.00  0.00     0.202 C 
BRANCH  40  41
ATOM     41  C   UNL A   1      37.924  32.199  30.199  1.00  0.00     0.261 C 
BRANCH  41  42
ATOM     42  O   UNL A   1      37.983  30.802  30.002  1.00  0.00    -0.460 OA
BRANCH  42  43
ATOM     43  C   UNL A   1      37.339  30.373  28.907  1.00  0.00     0.338 C 
ATOM     44  O   UNL A   1      36.253  30.767  28.485  1.00  0.00    -0.246 OA
BRANCH  43  45
ATOM     45  C   UNL A   1      38.089  29.257  28.342  1.00  0.00     0.060 A 
ATOM     46  C   UNL A   1      38.355  28.217  29.229  1.00  0.00     0.016 A 
ATOM     47  C   UNL A   1      38.857  29.503  27.193  1.00  0.00     0.016 A 
ATOM     48  C   UNL A   1      39.595  27.646  29.158  1.00  0.00     0.010 A 
ATOM     49  C   UNL A   1      40.106  28.954  27.139  1.00  0.00     0.010 A 
ATOM     50  C   UNL A   1      40.484  28.126  28.189  1.00  0.00    -0.014 A 
BRANCH  50  51
ATOM     51  C   UNL A   1      41.849  27.699  28.292  1.00  0.00     0.031 A 
ATOM     52  C   UNL A   1      42.068  26.401  27.641  1.00  0.00     0.074 A 
ATOM     53  C   UNL A   1      42.789  28.451  28.888  1.00  0.00     0.049 A 
ATOM     54  N   UNL A   1      42.244  25.264  28.222  1.00  0.00    -0.248 NA
ATOM     55  C   UNL A   1      41.828  26.322  26.194  1.00  0.00     0.031 C 
ATOM     56  C   UNL A   1      42.711  29.858  29.291  1.00  0.00     0.029 A 
ATOM     57  N   UNL A   1      44.086  28.133  29.115  1.00  0.00    -0.354 N 
ATOM     58  C   UNL A   1      42.396  24.360  27.180  1.00  0.00     0.074 A 
ATOM     59  C   UNL A   1      41.883  25.005  26.000  1.00  0.00     0.031 C 
ATOM     60  C   UNL A   1      43.969  30.332  29.448  1.00  0.00     0.029 A 
ATOM     61  C   UNL A   1      44.909  29.237  29.274  1.00  0.00     0.049 A 
ATOM     62  H   UNL A   1      44.413  27.206  29.162  1.00  0.00     0.167 HD
ATOM     63  C   UNL A   1      43.213  23.284  27.311  1.00  0.00     0.034 A 
ATOM     64  C   UNL A   1      46.257  29.238  29.130  1.00  0.00     0.034 A 
ATOM     65  C   UNL A   1      43.522  23.017  28.694  1.00  0.00     0.049 A 
ATOM     66  C   UNL A   1      46.718  27.831  29.270  1.00  0.00     0.074 A 
ATOM     67  C   UNL A   1      42.771  22.769  29.826  1.00  0.00     0.029 A 
ATOM     68  N   UNL A   1      44.769  23.392  29.140  1.00  0.00    -0.354 N 
ATOM     69  N   UNL A   1      46.637  27.155  30.385  1.00  0.00    -0.248 NA
ATOM     70  C   UNL A   1      46.835  27.026  28.063  1.00  0.00     0.031 C 
ATOM     71  C   UNL A   1      43.450  23.453  30.876  1.00  0.00     0.029 A 
ATOM     72  C   UNL A   1      44.603  24.030  30.340  1.00  0.00     0.049 A 
ATOM     73  H   UNL A   1      45.624  23.229  28.679  1.00  0.00     0.167 HD
ATOM     74  C   UNL A   1      46.231  25.884  29.993  1.00  0.00     0.074 A 
ATOM     75  C   UNL A   1      46.477  25.834  28.553  1.00  0.00     0.031 C 
ATOM     76  C   UNL A   1      45.454  25.106  30.806  1.00  0.00     0.034 A 
BRANCH  63  77
ATOM     77  C   UNL A   1      44.043  22.725  26.186  1.00  0.00     0.023 A 
ATOM     78  C   UNL A   1      44.695  23.654  25.351  1.00  0.00     0.012 A 
ATOM     79  C   UNL A   1      43.999  21.381  25.742  1.00  0.00     0.148 A 
ATOM     80  C   UNL A   1      45.227  23.276  24.115  1.00  0.00     0.002 A 
ATOM     81  C   UNL A   1      44.608  20.993  24.558  1.00  0.00     0.091 A 
ATOM     82  F   UNL A   1      43.246  20.481  26.378  1.00  0.00    -0.205 F 
ATOM     83  C   UNL A   1      45.193  21.943  23.721  1.00  0.00     0.022 A 
BRANCH  81  84
ATOM     84  S   UNL A   1      44.634  19.272  24.042  1.00  0.00     0.127 S 
ATOM     85  O   UNL A   1      43.424  18.758  24.676  1.00  0.00    -0.237 OA
ATOM     86  O   UNL A   1      44.570  19.394  22.586  1.00  0.00    -0.237 OA
ATOM     87  O   UNL A   1      45.896  18.735  24.538  1.00  0.00    -0.744 OA
ENDBRANCH  81  84
ENDBRANCH  63  77
BRANCH  64  88
ATOM     88  C   UNL A   1      47.114  30.304  28.561  1.00  0.00     0.023 A 
ATOM     89  C   UNL A   1      47.128  30.519  27.170  1.00  0.00     0.012 A 
ATOM     90  C   UNL A   1      47.724  31.275  29.389  1.00  0.00     0.148 A 
ATOM     91  C   UNL A   1      47.714  31.670  26.625  1.00  0.00     0.002 A 
ATOM     92  C   UNL A   1      48.322  32.406  28.842  1.00  0.00     0.091 A 
ATOM     93  F   UNL A   1      47.636  31.144  30.719  1.00  0.00    -0.205 F 
ATOM     94  C   UNL A   1      48.308  32.613  27.460  1.00  0.00     0.022 A 
BRANCH  92  95
ATOM     95  S   UNL A   1      49.098  33.661  29.870  1.00  0.00     0.127 S 
ATOM     96  O   UNL A   1      50.065  32.874  30.636  1.00  0.00    -0.237 OA
ATOM     97  O   UNL A   1      49.685  34.551  28.873  1.00  0.00    -0.237 OA
ATOM     98  O   UNL A   1      48.027  34.233  30.677  1.00  0.00    -0.744 OA
ENDBRANCH  92  95
ENDBRANCH  64  88
BRANCH  76  99
ATOM     99  C   UNL A   1      45.237  25.549  32.232  1.00  0.00     0.023 A 
ATOM    100  C   UNL A   1      46.155  25.247  33.261  1.00  0.00     0.012 A 
ATOM    101  C   UNL A   1      44.193  26.450  32.501  1.00  0.00     0.148 A 
ATOM    102  C   UNL A   1      46.022  25.813  34.532  1.00  0.00     0.002 A 
ATOM    103  C   UNL A   1      44.092  27.047  33.753  1.00  0.00     0.091 A 
ATOM    104  F   UNL A   1      43.331  26.735  31.513  1.00  0.00    -0.205 F 
ATOM    105  C   UNL A   1      44.998  26.724  34.774  1.00  0.00     0.022 A 
BRANCH 103 106
ATOM    106  S   UNL A   1      42.878  28.326  34.084  1.00  0.00     0.127 S 
ATOM    107  O   UNL A   1      43.510  29.073  35.169  1.00  0.00    -0.237 OA
ATOM    108  O   UNL A   1      42.813  29.040  32.807  1.00  0.00    -0.237 OA
ATOM    109  O   UNL A   1      41.647  27.629  34.435  1.00  0.00    -0.744 OA
ENDBRANCH 103 106
ENDBRANCH  76  99
ENDBRANCH  50  51
ENDBRANCH  43  45
ENDBRANCH  42  43
ENDBRANCH  41  42
ENDBRANCH  40  41
ENDBRANCH  39  40
ENDBRANCH  38  39
ENDBRANCH  37  38
ENDBRANCH   1  37
TORSDOF 28
ENDMDL
