MODEL 1
REMARK VINA RESULT:      -8.0      0.000      0.000
REMARK SMILES CCC1(C(=O)OCCOCCOCCOCCOC(=O)c2ccc(-c3c4nc(c(-c5cccc(S(=O)(=O)[O-])c5F)c5ccc([nH]5)c(-c5cccc(S(=O)(=O)[O-])c5F)c5nc(c(-c6cccc(S(=O)(=O)[O-])c6F)c6ccc3[nH]6)C=C5)C=C4)cc2)CCN(C(=O)C[C@H]2CSCC[NH2+]2)CC1
REMARK SMILES IDX 13 1 12 2 11 3 10 4 9 5 8 6 7 7 6 8 4 9 5 10 3 11 84 12
REMARK SMILES IDX 97 13 85 14 96 15 86 16 87 17 88 18 2 19 1 20 89 21 90 22
REMARK SMILES IDX 91 23 95 24 92 25 94 26 93 29 14 30 15 31 16 32 17 33 18 34
REMARK SMILES IDX 19 35 20 36 21 37 22 38 83 39 23 40 82 41 24 42 25 43 26 44
REMARK SMILES IDX 76 45 27 46 81 47 75 48 77 49 28 50 80 51 74 52 73 53 29 55
REMARK SMILES IDX 61 56 41 57 60 58 42 59 45 60 59 61 78 62 43 63 44 64 58 66
REMARK SMILES IDX 79 67 46 68 30 69 31 70 39 71 32 72 34 73 40 74 33 75 35 76
REMARK SMILES IDX 36 77 37 78 38 79 62 80 63 81 71 82 64 83 66 84 72 85 65 86
REMARK SMILES IDX 67 87 68 88 69 89 70 90 47 91 48 92 56 93 49 94 51 95 57 96
REMARK SMILES IDX 50 97 52 98 53 99 54 100 55 101
REMARK H PARENT 95 27 95 28 77 54 45 65
REMARK Flexibility Score: inf
ROOT
ATOM      1  C   UNL A   1      34.650  35.332  31.971  1.00  0.00     0.188 C 
ENDROOT
BRANCH   1   2
ATOM      2  O   UNL A   1      34.544  34.913  33.328  1.00  0.00    -0.377 OA
BRANCH   2   3
ATOM      3  C   UNL A   1      34.810  33.567  33.677  1.00  0.00     0.188 C 
BRANCH   3   4
ATOM      4  C   UNL A   1      36.102  32.994  33.090  1.00  0.00     0.188 C 
BRANCH   4   5
ATOM      5  O   UNL A   1      37.282  33.764  33.262  1.00  0.00    -0.376 OA
BRANCH   5   6
ATOM      6  C   UNL A   1      38.110  33.981  32.117  1.00  0.00     0.202 C 
BRANCH   6   7
ATOM      7  C   UNL A   1      39.563  34.462  32.302  1.00  0.00     0.261 C 
BRANCH   7   8
ATOM      8  O   UNL A   1      40.342  34.454  31.084  1.00  0.00    -0.463 OA
BRANCH   8   9
ATOM      9  C   UNL A   1      41.694  34.538  31.203  1.00  0.00     0.312 C 
ATOM     10  O   UNL A   1      42.296  34.353  32.258  1.00  0.00    -0.252 OA
BRANCH   9  11
ATOM     11  C   UNL A   1      42.435  34.787  29.867  1.00  0.00     0.071 C 
ATOM     12  C   UNL A   1      41.465  35.218  28.717  1.00  0.00     0.040 C 
ATOM     13  C   UNL A   1      43.384  35.965  30.148  1.00  0.00     0.040 C 
ATOM     14  C   UNL A   1      42.149  35.915  27.527  1.00  0.00     0.120 C 
ATOM     15  C   UNL A   1      44.079  36.464  28.893  1.00  0.00     0.120 C 
ATOM     16  N   UNL A   1      43.060  36.955  27.993  1.00  0.00    -0.342 N 
ATOM     17  C   UNL A   1      42.794  38.290  27.738  1.00  0.00     0.228 C 
ATOM     18  O   UNL A   1      41.922  38.626  26.933  1.00  0.00    -0.275 OA
BRANCH  11  19
ATOM     19  C   UNL A   1      43.211  33.491  29.486  1.00  0.00     0.015 C 
ATOM     20  C   UNL A   1      42.453  32.169  29.591  1.00  0.00     0.005 C 
ENDBRANCH  11  19
BRANCH  17  21
ATOM     21  C   UNL A   1      43.609  39.375  28.450  1.00  0.00     0.166 C 
BRANCH  21  22
ATOM     22  C   UNL A   1      43.011  39.956  29.759  1.00  0.00     0.201 C 
ATOM     23  C   UNL A   1      44.107  40.635  30.612  1.00  0.00     0.135 C 
ATOM     24  N   UNL A   1      41.803  40.757  29.446  1.00  0.00    -0.342 N 
ATOM     25  S   UNL A   1      43.440  41.329  32.150  1.00  0.00    -0.150 SA
ATOM     26  C   UNL A   1      41.225  41.517  30.563  1.00  0.00     0.271 C 
ATOM     27  H   UNL A   1      41.088  40.120  29.099  1.00  0.00     0.346 HD
ATOM     28  H   UNL A   1      42.105  41.456  28.767  1.00  0.00     0.346 HD
ATOM     29  C   UNL A   1      42.181  42.372  31.397  1.00  0.00     0.131 C 
ENDBRANCH  21  22
ENDBRANCH  17  21
ENDBRANCH   9  11
ENDBRANCH   8   9
ENDBRANCH   7   8
ENDBRANCH   6   7
ENDBRANCH   5   6
ENDBRANCH   4   5
ENDBRANCH   3   4
ENDBRANCH   2   3
ENDBRANCH   1   2
BRANCH   1  30
ATOM     30  C   UNL A   1      33.444  35.104  31.055  1.00  0.00     0.188 C 
BRANCH  30  31
ATOM     31  O   UNL A   1      33.612  34.286  29.891  1.00  0.00    -0.376 OA
BRANCH  31  32
ATOM     32  C   UNL A   1      34.508  33.181  29.944  1.00  0.00     0.202 C 
BRANCH  32  33
ATOM     33  C   UNL A   1      35.520  33.080  28.801  1.00  0.00     0.261 C 
BRANCH  33  34
ATOM     34  O   UNL A   1      35.001  32.416  27.643  1.00  0.00    -0.460 OA
BRANCH  34  35
ATOM     35  C   UNL A   1      34.756  31.095  27.799  1.00  0.00     0.338 C 
ATOM     36  O   UNL A   1      33.721  30.496  27.544  1.00  0.00    -0.246 OA
BRANCH  35  37
ATOM     37  C   UNL A   1      36.002  30.429  28.206  1.00  0.00     0.060 A 
ATOM     38  C   UNL A   1      36.048  29.782  29.448  1.00  0.00     0.016 A 
ATOM     39  C   UNL A   1      37.130  30.482  27.385  1.00  0.00     0.016 A 
ATOM     40  C   UNL A   1      37.233  29.192  29.880  1.00  0.00     0.010 A 
ATOM     41  C   UNL A   1      38.321  29.910  27.829  1.00  0.00     0.010 A 
ATOM     42  C   UNL A   1      38.381  29.285  29.086  1.00  0.00    -0.014 A 
BRANCH  42  43
ATOM     43  C   UNL A   1      39.684  28.834  29.615  1.00  0.00     0.031 A 
ATOM     44  C   UNL A   1      40.359  27.658  28.971  1.00  0.00     0.074 A 
ATOM     45  C   UNL A   1      40.230  29.445  30.680  1.00  0.00     0.049 A 
ATOM     46  N   UNL A   1      41.451  27.035  29.328  1.00  0.00    -0.248 NA
ATOM     47  C   UNL A   1      39.716  27.108  27.765  1.00  0.00     0.031 C 
ATOM     48  C   UNL A   1      39.660  30.598  31.374  1.00  0.00     0.029 A 
ATOM     49  N   UNL A   1      41.368  29.151  31.384  1.00  0.00    -0.354 N 
ATOM     50  C   UNL A   1      41.607  25.997  28.417  1.00  0.00     0.074 A 
ATOM     51  C   UNL A   1      40.499  26.074  27.491  1.00  0.00     0.031 C 
ATOM     52  C   UNL A   1      40.432  30.890  32.435  1.00  0.00     0.029 A 
ATOM     53  C   UNL A   1      41.524  29.924  32.510  1.00  0.00     0.049 A 
ATOM     54  H   UNL A   1      42.010  28.456  31.111  1.00  0.00     0.167 HD
ATOM     55  C   UNL A   1      42.590  25.069  28.359  1.00  0.00     0.034 A 
ATOM     56  C   UNL A   1      42.424  29.829  33.508  1.00  0.00     0.034 A 
ATOM     57  C   UNL A   1      43.688  25.006  29.285  1.00  0.00     0.049 A 
ATOM     58  C   UNL A   1      43.478  28.757  33.443  1.00  0.00     0.074 A 
ATOM     59  C   UNL A   1      44.765  24.138  29.283  1.00  0.00     0.029 A 
ATOM     60  N   UNL A   1      43.837  25.826  30.393  1.00  0.00    -0.354 N 
ATOM     61  N   UNL A   1      43.688  27.857  32.512  1.00  0.00    -0.248 NA
ATOM     62  C   UNL A   1      44.438  28.704  34.556  1.00  0.00     0.031 C 
ATOM     63  C   UNL A   1      45.540  24.404  30.417  1.00  0.00     0.029 A 
ATOM     64  C   UNL A   1      44.974  25.467  31.098  1.00  0.00     0.049 A 
ATOM     65  H   UNL A   1      43.225  26.556  30.643  1.00  0.00     0.167 HD
ATOM     66  C   UNL A   1      44.818  27.152  32.911  1.00  0.00     0.074 A 
ATOM     67  C   UNL A   1      45.265  27.749  34.154  1.00  0.00     0.031 C 
ATOM     68  C   UNL A   1      45.425  26.097  32.313  1.00  0.00     0.034 A 
BRANCH  55  69
ATOM     69  C   UNL A   1      42.525  24.045  27.257  1.00  0.00     0.023 A 
ATOM     70  C   UNL A   1      43.211  24.270  26.046  1.00  0.00     0.012 A 
ATOM     71  C   UNL A   1      41.833  22.833  27.444  1.00  0.00     0.148 A 
ATOM     72  C   UNL A   1      43.186  23.317  25.029  1.00  0.00     0.002 A 
ATOM     73  C   UNL A   1      41.852  21.868  26.445  1.00  0.00     0.091 A 
ATOM     74  F   UNL A   1      41.168  22.648  28.594  1.00  0.00    -0.205 F 
ATOM     75  C   UNL A   1      42.517  22.113  25.233  1.00  0.00     0.022 A 
BRANCH  73  76
ATOM     76  S   UNL A   1      41.088  20.254  26.641  1.00  0.00     0.127 S 
ATOM     77  O   UNL A   1      39.791  20.462  25.997  1.00  0.00    -0.237 OA
ATOM     78  O   UNL A   1      42.006  19.390  25.898  1.00  0.00    -0.237 OA
ATOM     79  O   UNL A   1      41.037  20.001  28.073  1.00  0.00    -0.744 OA
ENDBRANCH  73  76
ENDBRANCH  55  69
BRANCH  56  80
ATOM     80  C   UNL A   1      42.371  30.777  34.655  1.00  0.00     0.023 A 
ATOM     81  C   UNL A   1      41.435  30.568  35.685  1.00  0.00     0.012 A 
ATOM     82  C   UNL A   1      43.240  31.882  34.727  1.00  0.00     0.148 A 
ATOM     83  C   UNL A   1      41.340  31.463  36.750  1.00  0.00     0.002 A 
ATOM     84  C   UNL A   1      43.176  32.741  35.816  1.00  0.00     0.091 A 
ATOM     85  F   UNL A   1      44.113  32.072  33.726  1.00  0.00    -0.205 F 
ATOM     86  C   UNL A   1      42.216  32.542  36.821  1.00  0.00     0.022 A 
BRANCH  84  87
ATOM     87  S   UNL A   1      44.347  34.080  36.055  1.00  0.00     0.127 S 
ATOM     88  O   UNL A   1      44.056  34.937  34.907  1.00  0.00    -0.237 OA
ATOM     89  O   UNL A   1      43.918  34.616  37.345  1.00  0.00    -0.237 OA
ATOM     90  O   UNL A   1      45.660  33.450  36.061  1.00  0.00    -0.744 OA
ENDBRANCH  84  87
ENDBRANCH  56  80
BRANCH  68  91
ATOM     91  C   UNL A   1      46.659  25.537  32.973  1.00  0.00     0.023 A 
ATOM     92  C   UNL A   1      47.919  26.111  32.712  1.00  0.00     0.012 A 
ATOM     93  C   UNL A   1      46.559  24.483  33.903  1.00  0.00     0.148 A 
ATOM     94  C   UNL A   1      49.065  25.621  33.338  1.00  0.00     0.002 A 
ATOM     95  C   UNL A   1      47.697  24.036  34.564  1.00  0.00     0.091 A 
ATOM     96  F   UNL A   1      45.354  23.941  34.128  1.00  0.00    -0.205 F 
ATOM     97  C   UNL A   1      48.952  24.593  34.272  1.00  0.00     0.022 A 
BRANCH  95  98
ATOM     98  S   UNL A   1      47.639  22.786  35.852  1.00  0.00     0.127 S 
ATOM     99  O   UNL A   1      47.327  21.582  35.084  1.00  0.00    -0.237 OA
ATOM    100  O   UNL A   1      48.999  22.833  36.389  1.00  0.00    -0.237 OA
ATOM    101  O   UNL A   1      46.604  23.214  36.785  1.00  0.00    -0.744 OA
ENDBRANCH  95  98
ENDBRANCH  68  91
ENDBRANCH  42  43
ENDBRANCH  35  37
ENDBRANCH  34  35
ENDBRANCH  33  34
ENDBRANCH  32  33
ENDBRANCH  31  32
ENDBRANCH  30  31
ENDBRANCH   1  30
TORSDOF 26
ENDMDL
MODEL 2
REMARK VINA RESULT:      -7.6      2.120      3.885
REMARK SMILES CCC1(C(=O)OCCOCCOCCOCCOC(=O)c2ccc(-c3c4nc(c(-c5cccc(S(=O)(=O)[O-])c5F)c5ccc([nH]5)c(-c5cccc(S(=O)(=O)[O-])c5F)c5nc(c(-c6cccc(S(=O)(=O)[O-])c6F)c6ccc3[nH]6)C=C5)C=C4)cc2)CCN(C(=O)C[C@H]2CSCC[NH2+]2)CC1
REMARK SMILES IDX 13 1 12 2 11 3 10 4 9 5 8 6 7 7 6 8 4 9 5 10 3 11 84 12
REMARK SMILES IDX 97 13 85 14 96 15 86 16 87 17 88 18 2 19 1 20 89 21 90 22
REMARK SMILES IDX 91 23 95 24 92 25 94 26 93 29 14 30 15 31 16 32 17 33 18 34
REMARK SMILES IDX 19 35 20 36 21 37 22 38 83 39 23 40 82 41 24 42 25 43 26 44
REMARK SMILES IDX 76 45 27 46 81 47 75 48 77 49 28 50 80 51 74 52 73 53 29 55
REMARK SMILES IDX 61 56 41 57 60 58 42 59 45 60 59 61 78 62 43 63 44 64 58 66
REMARK SMILES IDX 79 67 46 68 30 69 31 70 39 71 32 72 34 73 40 74 33 75 35 76
REMARK SMILES IDX 36 77 37 78 38 79 62 80 63 81 71 82 64 83 66 84 72 85 65 86
REMARK SMILES IDX 67 87 68 88 69 89 70 90 47 91 48 92 56 93 49 94 51 95 57 96
REMARK SMILES IDX 50 97 52 98 53 99 54 100 55 101
REMARK H PARENT 95 27 95 28 77 54 45 65
REMARK Flexibility Score: inf
ROOT
ATOM      1  C   UNL A   1      34.490  35.337  31.963  1.00  0.00     0.188 C 
ENDROOT
BRANCH   1   2
ATOM      2  O   UNL A   1      34.185  34.804  33.248  1.00  0.00    -0.377 OA
BRANCH   2   3
ATOM      3  C   UNL A   1      34.404  33.432  33.517  1.00  0.00     0.188 C 
BRANCH   3   4
ATOM      4  C   UNL A   1      35.787  32.911  33.117  1.00  0.00     0.188 C 
BRANCH   4   5
ATOM      5  O   UNL A   1      36.903  33.708  33.481  1.00  0.00    -0.376 OA
BRANCH   5   6
ATOM      6  C   UNL A   1      37.886  33.977  32.478  1.00  0.00     0.202 C 
BRANCH   6   7
ATOM      7  C   UNL A   1      39.217  34.649  32.870  1.00  0.00     0.261 C 
BRANCH   7   8
ATOM      8  O   UNL A   1      40.239  34.563  31.851  1.00  0.00    -0.463 OA
BRANCH   8   9
ATOM      9  C   UNL A   1      41.481  34.167  32.241  1.00  0.00     0.312 C 
ATOM     10  O   UNL A   1      41.744  33.772  33.374  1.00  0.00    -0.252 OA
BRANCH   9  11
ATOM     11  C   UNL A   1      42.529  34.156  31.102  1.00  0.00     0.071 C 
ATOM     12  C   UNL A   1      43.998  34.159  31.641  1.00  0.00     0.040 C 
ATOM     13  C   UNL A   1      42.302  32.827  30.361  1.00  0.00     0.040 C 
ATOM     14  C   UNL A   1      45.056  33.690  30.625  1.00  0.00     0.120 C 
ATOM     15  C   UNL A   1      43.360  32.563  29.304  1.00  0.00     0.120 C 
ATOM     16  N   UNL A   1      44.635  32.453  29.977  1.00  0.00    -0.342 N 
ATOM     17  C   UNL A   1      45.321  31.271  30.202  1.00  0.00     0.228 C 
ATOM     18  O   UNL A   1      46.420  31.267  30.763  1.00  0.00    -0.275 OA
BRANCH  11  19
ATOM     19  C   UNL A   1      42.269  35.388  30.183  1.00  0.00     0.015 C 
ATOM     20  C   UNL A   1      41.189  35.243  29.113  1.00  0.00     0.005 C 
ENDBRANCH  11  19
BRANCH  17  21
ATOM     21  C   UNL A   1      44.720  29.944  29.730  1.00  0.00     0.166 C 
BRANCH  21  22
ATOM     22  C   UNL A   1      44.862  29.607  28.221  1.00  0.00     0.201 C 
ATOM     23  C   UNL A   1      46.349  29.583  27.799  1.00  0.00     0.135 C 
ATOM     24  N   UNL A   1      44.047  28.412  27.896  1.00  0.00    -0.342 N 
ATOM     25  S   UNL A   1      46.551  29.189  26.039  1.00  0.00    -0.150 SA
ATOM     26  C   UNL A   1      44.216  27.865  26.542  1.00  0.00     0.271 C 
ATOM     27  H   UNL A   1      43.065  28.663  28.010  1.00  0.00     0.346 HD
ATOM     28  H   UNL A   1      44.367  27.680  28.529  1.00  0.00     0.346 HD
ATOM     29  C   UNL A   1      45.647  27.632  26.055  1.00  0.00     0.131 C 
ENDBRANCH  21  22
ENDBRANCH  17  21
ENDBRANCH   9  11
ENDBRANCH   8   9
ENDBRANCH   7   8
ENDBRANCH   6   7
ENDBRANCH   5   6
ENDBRANCH   4   5
ENDBRANCH   3   4
ENDBRANCH   2   3
ENDBRANCH   1   2
BRANCH   1  30
ATOM     30  C   UNL A   1      33.439  35.189  30.858  1.00  0.00     0.188 C 
BRANCH  30  31
ATOM     31  O   UNL A   1      33.718  34.315  29.758  1.00  0.00    -0.376 OA
BRANCH  31  32
ATOM     32  C   UNL A   1      34.505  33.149  29.981  1.00  0.00     0.202 C 
BRANCH  32  33
ATOM     33  C   UNL A   1      35.533  32.815  28.899  1.00  0.00     0.261 C 
BRANCH  33  34
ATOM     34  O   UNL A   1      34.955  32.204  27.739  1.00  0.00    -0.460 OA
BRANCH  34  35
ATOM     35  C   UNL A   1      34.745  30.872  27.835  1.00  0.00     0.338 C 
ATOM     36  O   UNL A   1      33.734  30.255  27.531  1.00  0.00    -0.246 OA
BRANCH  35  37
ATOM     37  C   UNL A   1      36.000  30.225  28.244  1.00  0.00     0.060 A 
ATOM     38  C   UNL A   1      36.072  29.627  29.508  1.00  0.00     0.016 A 
ATOM     39  C   UNL A   1      37.113  30.249  27.400  1.00  0.00     0.016 A 
ATOM     40  C   UNL A   1      37.266  29.057  29.941  1.00  0.00     0.010 A 
ATOM     41  C   UNL A   1      38.314  29.697  27.843  1.00  0.00     0.010 A 
ATOM     42  C   UNL A   1      38.399  29.122  29.122  1.00  0.00    -0.014 A 
BRANCH  42  43
ATOM     43  C   UNL A   1      39.713  28.694  29.643  1.00  0.00     0.031 A 
ATOM     44  C   UNL A   1      40.421  27.552  28.974  1.00  0.00     0.074 A 
ATOM     45  C   UNL A   1      40.241  29.296  30.722  1.00  0.00     0.049 A 
ATOM     46  N   UNL A   1      41.528  26.950  29.319  1.00  0.00    -0.248 NA
ATOM     47  C   UNL A   1      39.794  27.011  27.755  1.00  0.00     0.031 C 
ATOM     48  C   UNL A   1      39.639  30.418  31.441  1.00  0.00     0.029 A 
ATOM     49  N   UNL A   1      41.386  29.018  31.422  1.00  0.00    -0.354 N 
ATOM     50  C   UNL A   1      41.713  25.938  28.386  1.00  0.00     0.074 A 
ATOM     51  C   UNL A   1      40.605  26.006  27.460  1.00  0.00     0.031 C 
ATOM     52  C   UNL A   1      40.401  30.707  32.509  1.00  0.00     0.029 A 
ATOM     53  C   UNL A   1      41.520  29.769  32.566  1.00  0.00     0.049 A 
ATOM     54  H   UNL A   1      42.047  28.346  31.135  1.00  0.00     0.167 HD
ATOM     55  C   UNL A   1      42.722  25.038  28.310  1.00  0.00     0.034 A 
ATOM     56  C   UNL A   1      42.421  29.676  33.563  1.00  0.00     0.034 A 
ATOM     57  C   UNL A   1      43.820  24.984  29.236  1.00  0.00     0.049 A 
ATOM     58  C   UNL A   1      43.503  28.636  33.475  1.00  0.00     0.074 A 
ATOM     59  C   UNL A   1      44.920  24.146  29.217  1.00  0.00     0.029 A 
ATOM     60  N   UNL A   1      43.945  25.783  30.363  1.00  0.00    -0.354 N 
ATOM     61  N   UNL A   1      43.739  27.762  32.525  1.00  0.00    -0.248 NA
ATOM     62  C   UNL A   1      44.463  28.584  34.589  1.00  0.00     0.031 C 
ATOM     63  C   UNL A   1      45.686  24.407  30.357  1.00  0.00     0.029 A 
ATOM     64  C   UNL A   1      45.090  25.440  31.061  1.00  0.00     0.049 A 
ATOM     65  H   UNL A   1      43.313  26.491  30.627  1.00  0.00     0.167 HD
ATOM     66  C   UNL A   1      44.887  27.079  32.911  1.00  0.00     0.074 A 
ATOM     67  C   UNL A   1      45.315  27.660  34.167  1.00  0.00     0.031 C 
ATOM     68  C   UNL A   1      45.523  26.054  32.290  1.00  0.00     0.034 A 
BRANCH  55  69
ATOM     69  C   UNL A   1      42.686  24.038  27.185  1.00  0.00     0.023 A 
ATOM     70  C   UNL A   1      43.325  24.330  25.963  1.00  0.00     0.012 A 
ATOM     71  C   UNL A   1      42.070  22.783  27.361  1.00  0.00     0.148 A 
ATOM     72  C   UNL A   1      43.327  23.400  24.923  1.00  0.00     0.002 A 
ATOM     73  C   UNL A   1      42.117  21.844  26.338  1.00  0.00     0.091 A 
ATOM     74  F   UNL A   1      41.447  22.534  28.522  1.00  0.00    -0.205 F 
ATOM     75  C   UNL A   1      42.734  22.155  25.115  1.00  0.00     0.022 A 
BRANCH  73  76
ATOM     76  S   UNL A   1      41.452  20.185  26.514  1.00  0.00     0.127 S 
ATOM     77  O   UNL A   1      40.014  20.447  26.552  1.00  0.00    -0.237 OA
ATOM     78  O   UNL A   1      41.922  19.537  25.289  1.00  0.00    -0.237 OA
ATOM     79  O   UNL A   1      42.019  19.650  27.743  1.00  0.00    -0.744 OA
ENDBRANCH  73  76
ENDBRANCH  55  69
BRANCH  56  80
ATOM     80  C   UNL A   1      42.341  30.597  34.730  1.00  0.00     0.023 A 
ATOM     81  C   UNL A   1      41.242  30.513  35.606  1.00  0.00     0.012 A 
ATOM     82  C   UNL A   1      43.344  31.555  34.972  1.00  0.00     0.148 A 
ATOM     83  C   UNL A   1      41.126  31.389  36.685  1.00  0.00     0.002 A 
ATOM     84  C   UNL A   1      43.248  32.390  36.078  1.00  0.00     0.091 A 
ATOM     85  F   UNL A   1      44.373  31.629  34.116  1.00  0.00    -0.205 F 
ATOM     86  C   UNL A   1      42.132  32.319  36.926  1.00  0.00     0.022 A 
BRANCH  84  87
ATOM     87  S   UNL A   1      44.556  33.529  36.538  1.00  0.00     0.127 S 
ATOM     88  O   UNL A   1      44.091  34.005  37.839  1.00  0.00    -0.237 OA
ATOM     89  O   UNL A   1      45.714  32.638  36.588  1.00  0.00    -0.237 OA
ATOM     90  O   UNL A   1      44.596  34.523  35.474  1.00  0.00    -0.744 OA
ENDBRANCH  84  87
ENDBRANCH  56  80
BRANCH  68  91
ATOM     91  C   UNL A   1      46.771  25.513  32.940  1.00  0.00     0.023 A 
ATOM     92  C   UNL A   1      48.032  26.031  32.582  1.00  0.00     0.012 A 
ATOM     93  C   UNL A   1      46.687  24.539  33.954  1.00  0.00     0.148 A 
ATOM     94  C   UNL A   1      49.192  25.559  33.196  1.00  0.00     0.002 A 
ATOM     95  C   UNL A   1      47.841  24.113  34.600  1.00  0.00     0.091 A 
ATOM     96  F   UNL A   1      45.479  24.050  34.272  1.00  0.00    -0.205 F 
ATOM     97  C   UNL A   1      49.095  24.611  34.212  1.00  0.00     0.022 A 
BRANCH  95  98
ATOM     98  S   UNL A   1      47.810  22.970  35.984  1.00  0.00     0.127 S 
ATOM     99  O   UNL A   1      49.035  22.203  35.764  1.00  0.00    -0.237 OA
ATOM    100  O   UNL A   1      47.853  23.874  37.133  1.00  0.00    -0.237 OA
ATOM    101  O   UNL A   1      46.572  22.212  35.855  1.00  0.00    -0.744 OA
ENDBRANCH  95  98
ENDBRANCH  68  91
ENDBRANCH  42  43
ENDBRANCH  35  37
ENDBRANCH  34  35
ENDBRANCH  33  34
ENDBRANCH  32  33
ENDBRANCH  31  32
ENDBRANCH  30  31
ENDBRANCH   1  30
TORSDOF 26
ENDMDL
MODEL 3
REMARK VINA RESULT:      -7.6      5.612      9.893
REMARK SMILES CCC1(C(=O)OCCOCCOCCOCCOC(=O)c2ccc(-c3c4nc(c(-c5cccc(S(=O)(=O)[O-])c5F)c5ccc([nH]5)c(-c5cccc(S(=O)(=O)[O-])c5F)c5nc(c(-c6cccc(S(=O)(=O)[O-])c6F)c6ccc3[nH]6)C=C5)C=C4)cc2)CCN(C(=O)C[C@H]2CSCC[NH2+]2)CC1
REMARK SMILES IDX 13 1 12 2 11 3 10 4 9 5 8 6 7 7 6 8 4 9 5 10 3 11 84 12
REMARK SMILES IDX 97 13 85 14 96 15 86 16 87 17 88 18 2 19 1 20 89 21 90 22
REMARK SMILES IDX 91 23 95 24 92 25 94 26 93 29 14 30 15 31 16 32 17 33 18 34
REMARK SMILES IDX 19 35 20 36 21 37 22 38 83 39 23 40 82 41 24 42 25 43 26 44
REMARK SMILES IDX 76 45 27 46 81 47 75 48 77 49 28 50 80 51 74 52 73 53 29 55
REMARK SMILES IDX 61 56 41 57 60 58 42 59 45 60 59 61 78 62 43 63 44 64 58 66
REMARK SMILES IDX 79 67 46 68 30 69 31 70 39 71 32 72 34 73 40 74 33 75 35 76
REMARK SMILES IDX 36 77 37 78 38 79 62 80 63 81 71 82 64 83 66 84 72 85 65 86
REMARK SMILES IDX 67 87 68 88 69 89 70 90 47 91 48 92 56 93 49 94 51 95 57 96
REMARK SMILES IDX 50 97 52 98 53 99 54 100 55 101
REMARK H PARENT 95 27 95 28 77 54 45 65
REMARK Flexibility Score: inf
ROOT
ATOM      1  C   UNL A   1      39.851  25.687  27.260  1.00  0.00     0.188 C 
ENDROOT
BRANCH   1   2
ATOM      2  O   UNL A   1      39.322  26.132  28.505  1.00  0.00    -0.377 OA
BRANCH   2   3
ATOM      3  C   UNL A   1      39.318  27.512  28.820  1.00  0.00     0.188 C 
BRANCH   3   4
ATOM      4  C   UNL A   1      39.228  27.829  30.315  1.00  0.00     0.188 C 
BRANCH   4   5
ATOM      5  O   UNL A   1      38.672  29.085  30.673  1.00  0.00    -0.376 OA
BRANCH   5   6
ATOM      6  C   UNL A   1      37.275  29.136  30.970  1.00  0.00     0.202 C 
BRANCH   6   7
ATOM      7  C   UNL A   1      36.789  29.832  32.257  1.00  0.00     0.261 C 
BRANCH   7   8
ATOM      8  O   UNL A   1      37.590  30.972  32.645  1.00  0.00    -0.463 OA
BRANCH   8   9
ATOM      9  C   UNL A   1      36.952  32.010  33.250  1.00  0.00     0.312 C 
ATOM     10  O   UNL A   1      36.779  32.087  34.464  1.00  0.00    -0.252 OA
BRANCH   9  11
ATOM     11  C   UNL A   1      36.545  33.152  32.287  1.00  0.00     0.071 C 
ATOM     12  C   UNL A   1      37.461  33.221  31.020  1.00  0.00     0.040 C 
ATOM     13  C   UNL A   1      35.123  32.795  31.820  1.00  0.00     0.040 C 
ATOM     14  C   UNL A   1      36.858  33.994  29.833  1.00  0.00     0.120 C 
ATOM     15  C   UNL A   1      34.619  33.725  30.730  1.00  0.00     0.120 C 
ATOM     16  N   UNL A   1      35.486  33.567  29.584  1.00  0.00    -0.342 N 
ATOM     17  C   UNL A   1      35.159  32.888  28.422  1.00  0.00     0.228 C 
ATOM     18  O   UNL A   1      35.949  32.822  27.477  1.00  0.00    -0.275 OA
BRANCH  11  19
ATOM     19  C   UNL A   1      36.581  34.495  33.075  1.00  0.00     0.015 C 
ATOM     20  C   UNL A   1      35.330  34.872  33.867  1.00  0.00     0.005 C 
ENDBRANCH  11  19
BRANCH  17  21
ATOM     21  C   UNL A   1      33.786  32.222  28.293  1.00  0.00     0.166 C 
BRANCH  21  22
ATOM     22  C   UNL A   1      33.643  31.110  27.219  1.00  0.00     0.201 C 
ATOM     23  C   UNL A   1      34.338  29.808  27.679  1.00  0.00     0.135 C 
ATOM     24  N   UNL A   1      32.228  31.008  26.789  1.00  0.00    -0.342 N 
ATOM     25  S   UNL A   1      34.187  28.484  26.446  1.00  0.00    -0.150 SA
ATOM     26  C   UNL A   1      31.904  29.880  25.903  1.00  0.00     0.271 C 
ATOM     27  H   UNL A   1      31.988  31.869  26.298  1.00  0.00     0.346 HD
ATOM     28  H   UNL A   1      31.692  30.849  27.641  1.00  0.00     0.346 HD
ATOM     29  C   UNL A   1      32.391  28.494  26.327  1.00  0.00     0.131 C 
ENDBRANCH  21  22
ENDBRANCH  17  21
ENDBRANCH   9  11
ENDBRANCH   8   9
ENDBRANCH   7   8
ENDBRANCH   6   7
ENDBRANCH   5   6
ENDBRANCH   4   5
ENDBRANCH   3   4
ENDBRANCH   2   3
ENDBRANCH   1   2
BRANCH   1  30
ATOM     30  C   UNL A   1      39.162  24.503  26.572  1.00  0.00     0.188 C 
BRANCH  30  31
ATOM     31  O   UNL A   1      39.431  23.180  27.052  1.00  0.00    -0.376 OA
BRANCH  31  32
ATOM     32  C   UNL A   1      39.033  22.062  26.266  1.00  0.00     0.202 C 
BRANCH  32  33
ATOM     33  C   UNL A   1      40.016  20.891  26.217  1.00  0.00     0.261 C 
BRANCH  33  34
ATOM     34  O   UNL A   1      41.264  21.173  26.859  1.00  0.00    -0.460 OA
BRANCH  34  35
ATOM     35  C   UNL A   1      42.356  21.061  26.068  1.00  0.00     0.338 C 
ATOM     36  O   UNL A   1      42.611  20.166  25.274  1.00  0.00    -0.246 OA
BRANCH  35  37
ATOM     37  C   UNL A   1      43.161  22.284  26.201  1.00  0.00     0.060 A 
ATOM     38  C   UNL A   1      44.050  22.395  27.278  1.00  0.00     0.016 A 
ATOM     39  C   UNL A   1      43.006  23.333  25.292  1.00  0.00     0.016 A 
ATOM     40  C   UNL A   1      44.782  23.565  27.457  1.00  0.00     0.010 A 
ATOM     41  C   UNL A   1      43.723  24.512  25.485  1.00  0.00     0.010 A 
ATOM     42  C   UNL A   1      44.594  24.639  26.580  1.00  0.00    -0.014 A 
BRANCH  42  43
ATOM     43  C   UNL A   1      45.218  25.946  26.868  1.00  0.00     0.031 A 
ATOM     44  C   UNL A   1      46.601  26.219  26.351  1.00  0.00     0.074 A 
ATOM     45  C   UNL A   1      44.568  26.856  27.614  1.00  0.00     0.049 A 
ATOM     46  N   UNL A   1      47.373  27.251  26.564  1.00  0.00    -0.248 NA
ATOM     47  C   UNL A   1      47.194  25.188  25.482  1.00  0.00     0.031 C 
ATOM     48  C   UNL A   1      43.221  26.693  28.157  1.00  0.00     0.029 A 
ATOM     49  N   UNL A   1      44.976  28.081  28.073  1.00  0.00    -0.354 N 
ATOM     50  C   UNL A   1      48.557  26.980  25.889  1.00  0.00     0.074 A 
ATOM     51  C   UNL A   1      48.401  25.687  25.259  1.00  0.00     0.031 C 
ATOM     52  C   UNL A   1      42.927  27.764  28.915  1.00  0.00     0.029 A 
ATOM     53  C   UNL A   1      44.078  28.664  28.935  1.00  0.00     0.049 A 
ATOM     54  H   UNL A   1      45.827  28.501  27.812  1.00  0.00     0.167 HD
ATOM     55  C   UNL A   1      49.670  27.746  25.801  1.00  0.00     0.034 A 
ATOM     56  C   UNL A   1      44.195  29.776  29.686  1.00  0.00     0.034 A 
ATOM     57  C   UNL A   1      49.810  29.031  26.429  1.00  0.00     0.049 A 
ATOM     58  C   UNL A   1      45.461  30.584  29.605  1.00  0.00     0.074 A 
ATOM     59  C   UNL A   1      50.875  29.911  26.359  1.00  0.00     0.029 A 
ATOM     60  N   UNL A   1      48.867  29.610  27.266  1.00  0.00    -0.354 N 
ATOM     61  N   UNL A   1      46.527  30.381  28.868  1.00  0.00    -0.248 NA
ATOM     62  C   UNL A   1      45.531  31.791  30.442  1.00  0.00     0.031 C 
ATOM     63  C   UNL A   1      50.595  31.001  27.190  1.00  0.00     0.029 A 
ATOM     64  C   UNL A   1      49.337  30.823  27.740  1.00  0.00     0.049 A 
ATOM     65  H   UNL A   1      47.993  29.216  27.490  1.00  0.00     0.167 HD
ATOM     66  C   UNL A   1      47.380  31.447  29.129  1.00  0.00     0.074 A 
ATOM     67  C   UNL A   1      46.694  32.309  30.071  1.00  0.00     0.031 C 
ATOM     68  C   UNL A   1      48.625  31.688  28.647  1.00  0.00     0.034 A 
BRANCH  55  69
ATOM     69  C   UNL A   1      50.825  27.216  24.994  1.00  0.00     0.023 A 
ATOM     70  C   UNL A   1      51.001  27.632  23.659  1.00  0.00     0.012 A 
ATOM     71  C   UNL A   1      51.770  26.350  25.578  1.00  0.00     0.148 A 
ATOM     72  C   UNL A   1      52.084  27.174  22.909  1.00  0.00     0.002 A 
ATOM     73  C   UNL A   1      52.872  25.936  24.841  1.00  0.00     0.091 A 
ATOM     74  F   UNL A   1      51.572  25.947  26.842  1.00  0.00    -0.205 F 
ATOM     75  C   UNL A   1      53.024  26.336  23.504  1.00  0.00     0.022 A 
BRANCH  73  76
ATOM     76  S   UNL A   1      54.180  24.921  25.539  1.00  0.00     0.127 S 
ATOM     77  O   UNL A   1      53.613  23.579  25.405  1.00  0.00    -0.237 OA
ATOM     78  O   UNL A   1      55.298  25.203  24.638  1.00  0.00    -0.237 OA
ATOM     79  O   UNL A   1      54.365  25.384  26.906  1.00  0.00    -0.744 OA
ENDBRANCH  73  76
ENDBRANCH  55  69
BRANCH  56  80
ATOM     80  C   UNL A   1      43.080  30.195  30.579  1.00  0.00     0.023 A 
ATOM     81  C   UNL A   1      42.192  31.202  30.155  1.00  0.00     0.012 A 
ATOM     82  C   UNL A   1      42.898  29.604  31.845  1.00  0.00     0.148 A 
ATOM     83  C   UNL A   1      41.163  31.638  30.990  1.00  0.00     0.002 A 
ATOM     84  C   UNL A   1      41.840  30.007  32.649  1.00  0.00     0.091 A 
ATOM     85  F   UNL A   1      43.765  28.658  32.236  1.00  0.00    -0.205 F 
ATOM     86  C   UNL A   1      40.981  31.035  32.230  1.00  0.00     0.022 A 
BRANCH  84  87
ATOM     87  S   UNL A   1      41.454  29.199  34.204  1.00  0.00     0.127 S 
ATOM     88  O   UNL A   1      40.004  29.367  34.274  1.00  0.00    -0.237 OA
ATOM     89  O   UNL A   1      41.901  27.832  33.942  1.00  0.00    -0.237 OA
ATOM     90  O   UNL A   1      42.226  29.911  35.213  1.00  0.00    -0.744 OA
ENDBRANCH  84  87
ENDBRANCH  56  80
BRANCH  68  91
ATOM     91  C   UNL A   1      49.317  32.948  29.099  1.00  0.00     0.023 A 
ATOM     92  C   UNL A   1      50.136  32.928  30.246  1.00  0.00     0.012 A 
ATOM     93  C   UNL A   1      49.208  34.135  28.348  1.00  0.00     0.148 A 
ATOM     94  C   UNL A   1      50.804  34.080  30.658  1.00  0.00     0.002 A 
ATOM     95  C   UNL A   1      49.920  35.264  28.734  1.00  0.00     0.091 A 
ATOM     96  F   UNL A   1      48.414  34.137  27.267  1.00  0.00    -0.205 F 
ATOM     97  C   UNL A   1      50.706  35.243  29.897  1.00  0.00     0.022 A 
BRANCH  95  98
ATOM     98  S   UNL A   1      49.935  36.776  27.766  1.00  0.00     0.127 S 
ATOM     99  O   UNL A   1      50.822  37.627  28.558  1.00  0.00    -0.237 OA
ATOM    100  O   UNL A   1      50.498  36.323  26.494  1.00  0.00    -0.237 OA
ATOM    101  O   UNL A   1      48.550  37.223  27.692  1.00  0.00    -0.744 OA
ENDBRANCH  95  98
ENDBRANCH  68  91
ENDBRANCH  42  43
ENDBRANCH  35  37
ENDBRANCH  34  35
ENDBRANCH  33  34
ENDBRANCH  32  33
ENDBRANCH  31  32
ENDBRANCH  30  31
ENDBRANCH   1  30
TORSDOF 26
ENDMDL
