MODEL 1
REMARK VINA RESULT:      -8.7      0.000      0.000
REMARK SMILES CC(C)CN(C)c1cc2c(cc1Cl)C=C(C(=O)OCCOCCOCCOCCOC(=O)c1ccc(-c3c4nc(c(-c5cccc(S(=O)(=O)[O-])c5F)c5ccc([nH]5)c(-c5cccc(S(=O)(=O)[O-])c5F)c5nc(c(-c6cccc(S(=O)(=O)[O-])c6F)c6ccc3[nH]6)C=C5)C=C4)cc1)[C@@H](C(F)(F)F)O2
REMARK SMILES IDX 24 1 23 2 22 3 21 4 20 5 19 6 18 7 16 8 17 9 15 10 7 11 8 12
REMARK SMILES IDX 12 13 9 14 11 15 13 16 10 17 101 18 14 19 96 20 5 21 6 22
REMARK SMILES IDX 4 23 2 24 1 25 3 26 97 27 98 28 99 29 100 30 25 31 26 32
REMARK SMILES IDX 27 33 28 34 29 35 30 36 31 37 32 38 33 39 34 40 95 41 35 42
REMARK SMILES IDX 94 43 36 44 37 45 38 46 88 47 39 48 93 49 87 50 89 51 40 52
REMARK SMILES IDX 92 53 86 54 85 55 41 57 73 58 53 59 72 60 54 61 57 62 71 63
REMARK SMILES IDX 90 64 55 65 56 66 70 68 91 69 58 70 42 71 43 72 51 73 44 74
REMARK SMILES IDX 46 75 52 76 45 77 47 78 48 79 49 80 50 81 74 82 75 83 83 84
REMARK SMILES IDX 76 85 78 86 84 87 77 88 79 89 80 90 81 91 82 92 59 93 60 94
REMARK SMILES IDX 68 95 61 96 63 97 69 98 62 99 64 100 65 101 66 102 67 103
REMARK H PARENT 89 56 57 67
REMARK Flexibility Score: inf
ROOT
ATOM      1  O   UNL A   1      34.153  30.644  27.049  1.00  0.00    -0.377 OA
ENDROOT
BRANCH   1   2
ATOM      2  C   UNL A   1      34.809  29.429  26.733  1.00  0.00     0.188 C 
BRANCH   2   3
ATOM      3  C   UNL A   1      33.897  28.198  26.869  1.00  0.00     0.188 C 
BRANCH   3   4
ATOM      4  O   UNL A   1      32.625  28.503  27.431  1.00  0.00    -0.376 OA
BRANCH   4   5
ATOM      5  C   UNL A   1      31.463  28.056  26.742  1.00  0.00     0.202 C 
BRANCH   5   6
ATOM      6  C   UNL A   1      31.406  28.198  25.209  1.00  0.00     0.261 C 
BRANCH   6   7
ATOM      7  O   UNL A   1      30.192  27.742  24.589  1.00  0.00    -0.460 OA
BRANCH   7   8
ATOM      8  C   UNL A   1      30.304  27.210  23.361  1.00  0.00     0.338 C 
ATOM      9  O   UNL A   1      30.058  27.766  22.303  1.00  0.00    -0.246 OA
BRANCH   8  10
ATOM     10  C   UNL A   1      30.956  25.888  23.468  1.00  0.00     0.087 C 
ATOM     11  C   UNL A   1      33.085  21.707  25.292  1.00  0.00     0.059 A 
ATOM     12  C   UNL A   1      32.911  22.231  23.991  1.00  0.00     0.074 A 
ATOM     13  C   UNL A   1      32.478  22.413  26.355  1.00  0.00     0.065 A 
ATOM     14  C   UNL A   1      32.183  23.410  23.771  1.00  0.00     0.130 A 
ATOM     15  C   UNL A   1      31.657  23.515  26.118  1.00  0.00     0.034 A 
ATOM     16  Cl  UNL A   1      32.795  22.065  28.021  1.00  0.00    -0.082 Cl
ATOM     17  C   UNL A   1      31.530  24.028  24.833  1.00  0.00     0.019 A 
ATOM     18  O   UNL A   1      32.146  23.912  22.496  1.00  0.00    -0.475 OA
ATOM     19  C   UNL A   1      30.789  25.255  24.633  1.00  0.00     0.027 C 
ATOM     20  C   UNL A   1      31.759  25.317  22.326  1.00  0.00     0.316 C 
BRANCH  11  21
ATOM     21  N   UNL A   1      33.875  20.570  25.517  1.00  0.00    -0.373 N 
ATOM     22  C   UNL A   1      35.270  20.686  25.105  1.00  0.00     0.143 C 
BRANCH  21  23
ATOM     23  C   UNL A   1      33.252  19.234  25.406  1.00  0.00     0.119 C 
BRANCH  23  24
ATOM     24  C   UNL A   1      33.601  18.512  24.086  1.00  0.00     0.002 C 
ATOM     25  C   UNL A   1      34.129  17.097  24.336  1.00  0.00     0.009 C 
ATOM     26  C   UNL A   1      32.405  18.436  23.134  1.00  0.00     0.009 C 
ENDBRANCH  23  24
ENDBRANCH  21  23
ENDBRANCH  11  21
BRANCH  20  27
ATOM     27  C   UNL A   1      32.998  26.179  22.040  1.00  0.00     0.430 C 
ATOM     28  F   UNL A   1      33.212  26.314  20.711  1.00  0.00    -0.167 F 
ATOM     29  F   UNL A   1      32.866  27.424  22.551  1.00  0.00    -0.167 F 
ATOM     30  F   UNL A   1      34.117  25.640  22.578  1.00  0.00    -0.167 F 
ENDBRANCH  20  27
ENDBRANCH   8  10
ENDBRANCH   7   8
ENDBRANCH   6   7
ENDBRANCH   5   6
ENDBRANCH   4   5
ENDBRANCH   3   4
ENDBRANCH   2   3
ENDBRANCH   1   2
BRANCH   1  31
ATOM     31  C   UNL A   1      34.916  31.672  27.684  1.00  0.00     0.188 C 
BRANCH  31  32
ATOM     32  C   UNL A   1      34.458  32.341  29.002  1.00  0.00     0.188 C 
BRANCH  32  33
ATOM     33  O   UNL A   1      35.213  33.498  29.361  1.00  0.00    -0.376 OA
BRANCH  33  34
ATOM     34  C   UNL A   1      35.974  33.414  30.558  1.00  0.00     0.202 C 
BRANCH  34  35
ATOM     35  C   UNL A   1      37.270  32.607  30.418  1.00  0.00     0.261 C 
BRANCH  35  36
ATOM     36  O   UNL A   1      37.159  31.209  30.719  1.00  0.00    -0.460 OA
BRANCH  36  37
ATOM     37  C   UNL A   1      37.100  30.841  32.020  1.00  0.00     0.338 C 
ATOM     38  O   UNL A   1      36.114  30.836  32.735  1.00  0.00    -0.246 OA
BRANCH  37  39
ATOM     39  C   UNL A   1      38.411  30.251  32.362  1.00  0.00     0.060 A 
ATOM     40  C   UNL A   1      38.587  28.865  32.318  1.00  0.00     0.016 A 
ATOM     41  C   UNL A   1      39.454  31.085  32.785  1.00  0.00     0.016 A 
ATOM     42  C   UNL A   1      39.817  28.315  32.676  1.00  0.00     0.010 A 
ATOM     43  C   UNL A   1      40.685  30.531  33.150  1.00  0.00     0.010 A 
ATOM     44  C   UNL A   1      40.880  29.143  33.078  1.00  0.00    -0.014 A 
BRANCH  44  45
ATOM     45  C   UNL A   1      42.236  28.561  33.220  1.00  0.00     0.031 A 
ATOM     46  C   UNL A   1      42.889  28.352  34.552  1.00  0.00     0.074 A 
ATOM     47  C   UNL A   1      42.884  28.219  32.089  1.00  0.00     0.049 A 
ATOM     48  N   UNL A   1      44.032  27.771  34.813  1.00  0.00    -0.248 NA
ATOM     49  C   UNL A   1      42.186  28.858  35.740  1.00  0.00     0.031 C 
ATOM     50  C   UNL A   1      42.371  28.436  30.733  1.00  0.00     0.029 A 
ATOM     51  N   UNL A   1      44.107  27.632  31.894  1.00  0.00    -0.354 N 
ATOM     52  C   UNL A   1      44.194  27.839  36.190  1.00  0.00     0.074 A 
ATOM     53  C   UNL A   1      43.033  28.532  36.713  1.00  0.00     0.031 C 
ATOM     54  C   UNL A   1      43.276  27.994  29.848  1.00  0.00     0.029 A 
ATOM     55  C   UNL A   1      44.432  27.470  30.569  1.00  0.00     0.049 A 
ATOM     56  H   UNL A   1      44.695  27.354  32.632  1.00  0.00     0.167 HD
ATOM     57  C   UNL A   1      45.206  27.347  36.942  1.00  0.00     0.034 A 
ATOM     58  C   UNL A   1      45.534  26.957  29.991  1.00  0.00     0.034 A 
ATOM     59  C   UNL A   1      46.347  26.642  36.417  1.00  0.00     0.049 A 
ATOM     60  C   UNL A   1      46.624  26.394  30.853  1.00  0.00     0.074 A 
ATOM     61  C   UNL A   1      47.380  26.044  37.121  1.00  0.00     0.029 A 
ATOM     62  N   UNL A   1      46.617  26.449  35.073  1.00  0.00    -0.354 N 
ATOM     63  N   UNL A   1      46.681  26.325  32.160  1.00  0.00    -0.248 NA
ATOM     64  C   UNL A   1      47.784  25.805  30.168  1.00  0.00     0.031 C 
ATOM     65  C   UNL A   1      48.281  25.501  36.201  1.00  0.00     0.029 A 
ATOM     66  C   UNL A   1      47.804  25.750  34.926  1.00  0.00     0.049 A 
ATOM     67  H   UNL A   1      46.050  26.762  34.332  1.00  0.00     0.167 HD
ATOM     68  C   UNL A   1      47.872  25.675  32.454  1.00  0.00     0.074 A 
ATOM     69  C   UNL A   1      48.498  25.350  31.189  1.00  0.00     0.031 C 
ATOM     70  C   UNL A   1      48.403  25.392  33.667  1.00  0.00     0.034 A 
BRANCH  57  71
ATOM     71  C   UNL A   1      45.122  27.472  38.439  1.00  0.00     0.023 A 
ATOM     72  C   UNL A   1      44.597  26.393  39.178  1.00  0.00     0.012 A 
ATOM     73  C   UNL A   1      45.723  28.551  39.114  1.00  0.00     0.148 A 
ATOM     74  C   UNL A   1      44.679  26.382  40.570  1.00  0.00     0.002 A 
ATOM     75  C   UNL A   1      45.823  28.522  40.501  1.00  0.00     0.091 A 
ATOM     76  F   UNL A   1      46.216  29.564  38.386  1.00  0.00    -0.205 F 
ATOM     77  C   UNL A   1      45.302  27.439  41.229  1.00  0.00     0.022 A 
BRANCH  75  78
ATOM     78  S   UNL A   1      46.657  29.802  41.448  1.00  0.00     0.127 S 
ATOM     79  O   UNL A   1      46.048  31.015  40.903  1.00  0.00    -0.237 OA
ATOM     80  O   UNL A   1      46.256  29.479  42.817  1.00  0.00    -0.237 OA
ATOM     81  O   UNL A   1      48.078  29.651  41.168  1.00  0.00    -0.744 OA
ENDBRANCH  75  78
ENDBRANCH  57  71
BRANCH  58  82
ATOM     82  C   UNL A   1      45.619  26.916  28.509  1.00  0.00     0.023 A 
ATOM     83  C   UNL A   1      44.952  25.898  27.804  1.00  0.00     0.012 A 
ATOM     84  C   UNL A   1      46.291  27.929  27.799  1.00  0.00     0.148 A 
ATOM     85  C   UNL A   1      44.964  25.882  26.409  1.00  0.00     0.002 A 
ATOM     86  C   UNL A   1      46.263  27.930  26.411  1.00  0.00     0.091 A 
ATOM     87  F   UNL A   1      46.918  28.884  28.500  1.00  0.00    -0.205 F 
ATOM     88  C   UNL A   1      45.609  26.902  25.713  1.00  0.00     0.022 A 
BRANCH  86  89
ATOM     89  S   UNL A   1      46.971  29.261  25.433  1.00  0.00     0.127 S 
ATOM     90  O   UNL A   1      48.353  29.274  25.905  1.00  0.00    -0.237 OA
ATOM     91  O   UNL A   1      46.790  28.757  24.070  1.00  0.00    -0.237 OA
ATOM     92  O   UNL A   1      46.185  30.445  25.747  1.00  0.00    -0.744 OA
ENDBRANCH  86  89
ENDBRANCH  58  82
BRANCH  70  93
ATOM     93  C   UNL A   1      49.733  24.695  33.711  1.00  0.00     0.023 A 
ATOM     94  C   UNL A   1      50.911  25.452  33.569  1.00  0.00     0.012 A 
ATOM     95  C   UNL A   1      49.820  23.321  34.014  1.00  0.00     0.148 A 
ATOM     96  C   UNL A   1      52.160  24.851  33.719  1.00  0.00     0.002 A 
ATOM     97  C   UNL A   1      51.067  22.737  34.195  1.00  0.00     0.091 A 
ATOM     98  F   UNL A   1      48.682  22.622  34.135  1.00  0.00    -0.205 F 
ATOM     99  C   UNL A   1      52.237  23.498  34.044  1.00  0.00     0.022 A 
BRANCH  97 100
ATOM    100  S   UNL A   1      51.271  21.019  34.683  1.00  0.00     0.127 S 
ATOM    101  O   UNL A   1      51.389  20.354  33.387  1.00  0.00    -0.237 OA
ATOM    102  O   UNL A   1      52.509  21.064  35.461  1.00  0.00    -0.237 OA
ATOM    103  O   UNL A   1      50.082  20.671  35.449  1.00  0.00    -0.744 OA
ENDBRANCH  97 100
ENDBRANCH  70  93
ENDBRANCH  44  45
ENDBRANCH  37  39
ENDBRANCH  36  37
ENDBRANCH  35  36
ENDBRANCH  34  35
ENDBRANCH  33  34
ENDBRANCH  32  33
ENDBRANCH  31  32
ENDBRANCH   1  31
TORSDOF 27
ENDMDL
MODEL 2
REMARK VINA RESULT:      -8.4      9.022     13.157
REMARK SMILES CC(C)CN(C)c1cc2c(cc1Cl)C=C(C(=O)OCCOCCOCCOCCOC(=O)c1ccc(-c3c4nc(c(-c5cccc(S(=O)(=O)[O-])c5F)c5ccc([nH]5)c(-c5cccc(S(=O)(=O)[O-])c5F)c5nc(c(-c6cccc(S(=O)(=O)[O-])c6F)c6ccc3[nH]6)C=C5)C=C4)cc1)[C@@H](C(F)(F)F)O2
REMARK SMILES IDX 24 1 23 2 22 3 21 4 20 5 19 6 18 7 16 8 17 9 15 10 7 11 8 12
REMARK SMILES IDX 12 13 9 14 11 15 13 16 10 17 101 18 14 19 96 20 5 21 6 22
REMARK SMILES IDX 4 23 2 24 1 25 3 26 97 27 98 28 99 29 100 30 25 31 26 32
REMARK SMILES IDX 27 33 28 34 29 35 30 36 31 37 32 38 33 39 34 40 95 41 35 42
REMARK SMILES IDX 94 43 36 44 37 45 38 46 88 47 39 48 93 49 87 50 89 51 40 52
REMARK SMILES IDX 92 53 86 54 85 55 41 57 73 58 53 59 72 60 54 61 57 62 71 63
REMARK SMILES IDX 90 64 55 65 56 66 70 68 91 69 58 70 42 71 43 72 51 73 44 74
REMARK SMILES IDX 46 75 52 76 45 77 47 78 48 79 49 80 50 81 74 82 75 83 83 84
REMARK SMILES IDX 76 85 78 86 84 87 77 88 79 89 80 90 81 91 82 92 59 93 60 94
REMARK SMILES IDX 68 95 61 96 63 97 69 98 62 99 64 100 65 101 66 102 67 103
REMARK H PARENT 89 56 57 67
REMARK Flexibility Score: inf
ROOT
ATOM      1  O   UNL A   1      36.038  33.522  34.256  1.00  0.00    -0.377 OA
ENDROOT
BRANCH   1   2
ATOM      2  C   UNL A   1      36.142  33.873  32.887  1.00  0.00     0.188 C 
BRANCH   2   3
ATOM      3  C   UNL A   1      37.543  34.379  32.500  1.00  0.00     0.188 C 
BRANCH   3   4
ATOM      4  O   UNL A   1      37.931  34.000  31.184  1.00  0.00    -0.376 OA
BRANCH   4   5
ATOM      5  C   UNL A   1      38.567  34.976  30.367  1.00  0.00     0.202 C 
BRANCH   5   6
ATOM      6  C   UNL A   1      39.367  34.509  29.135  1.00  0.00     0.261 C 
BRANCH   6   7
ATOM      7  O   UNL A   1      40.497  35.325  28.784  1.00  0.00    -0.460 OA
BRANCH   7   8
ATOM      8  C   UNL A   1      41.708  34.861  29.131  1.00  0.00     0.338 C 
ATOM      9  O   UNL A   1      41.948  33.808  29.699  1.00  0.00    -0.246 OA
BRANCH   8  10
ATOM     10  C   UNL A   1      42.743  35.743  28.550  1.00  0.00     0.087 C 
ATOM     11  C   UNL A   1      45.060  39.547  26.207  1.00  0.00     0.059 A 
ATOM     12  C   UNL A   1      45.495  38.310  26.733  1.00  0.00     0.074 A 
ATOM     13  C   UNL A   1      43.710  39.900  26.428  1.00  0.00     0.065 A 
ATOM     14  C   UNL A   1      44.617  37.464  27.427  1.00  0.00     0.130 A 
ATOM     15  C   UNL A   1      42.875  39.112  27.220  1.00  0.00     0.034 A 
ATOM     16  Cl  UNL A   1      42.946  41.243  25.646  1.00  0.00    -0.082 Cl
ATOM     17  C   UNL A   1      43.319  37.885  27.698  1.00  0.00     0.019 A 
ATOM     18  O   UNL A   1      45.084  36.235  27.816  1.00  0.00    -0.475 OA
ATOM     19  C   UNL A   1      42.390  37.022  28.396  1.00  0.00     0.027 C 
ATOM     20  C   UNL A   1      44.097  35.205  28.158  1.00  0.00     0.316 C 
BRANCH  11  21
ATOM     21  N   UNL A   1      45.920  40.357  25.450  1.00  0.00    -0.373 N 
ATOM     22  C   UNL A   1      47.015  39.656  24.786  1.00  0.00     0.143 C 
BRANCH  21  23
ATOM     23  C   UNL A   1      46.185  41.738  25.905  1.00  0.00     0.119 C 
BRANCH  23  24
ATOM     24  C   UNL A   1      46.471  41.831  27.419  1.00  0.00     0.002 C 
ATOM     25  C   UNL A   1      47.895  41.383  27.757  1.00  0.00     0.009 C 
ATOM     26  C   UNL A   1      46.251  43.245  27.964  1.00  0.00     0.009 C 
ENDBRANCH  23  24
ENDBRANCH  21  23
ENDBRANCH  11  21
BRANCH  20  27
ATOM     27  C   UNL A   1      43.975  34.186  27.017  1.00  0.00     0.430 C 
ATOM     28  F   UNL A   1      43.716  32.944  27.487  1.00  0.00    -0.167 F 
ATOM     29  F   UNL A   1      42.973  34.508  26.167  1.00  0.00    -0.167 F 
ATOM     30  F   UNL A   1      45.114  34.114  26.287  1.00  0.00    -0.167 F 
ENDBRANCH  20  27
ENDBRANCH   8  10
ENDBRANCH   7   8
ENDBRANCH   6   7
ENDBRANCH   5   6
ENDBRANCH   4   5
ENDBRANCH   3   4
ENDBRANCH   2   3
ENDBRANCH   1   2
BRANCH   1  31
ATOM     31  C   UNL A   1      37.088  33.930  35.133  1.00  0.00     0.188 C 
BRANCH  31  32
ATOM     32  C   UNL A   1      37.195  33.409  36.586  1.00  0.00     0.188 C 
BRANCH  32  33
ATOM     33  O   UNL A   1      37.229  31.987  36.695  1.00  0.00    -0.376 OA
BRANCH  33  34
ATOM     34  C   UNL A   1      38.422  31.344  36.265  1.00  0.00     0.202 C 
BRANCH  34  35
ATOM     35  C   UNL A   1      38.316  30.697  34.880  1.00  0.00     0.261 C 
BRANCH  35  36
ATOM     36  O   UNL A   1      39.294  29.685  34.598  1.00  0.00    -0.460 OA
BRANCH  36  37
ATOM     37  C   UNL A   1      40.483  29.754  35.239  1.00  0.00     0.338 C 
ATOM     38  O   UNL A   1      40.822  29.125  36.225  1.00  0.00    -0.246 OA
BRANCH  37  39
ATOM     39  C   UNL A   1      41.376  30.585  34.403  1.00  0.00     0.060 A 
ATOM     40  C   UNL A   1      42.585  31.054  34.925  1.00  0.00     0.016 A 
ATOM     41  C   UNL A   1      40.975  30.945  33.110  1.00  0.00     0.016 A 
ATOM     42  C   UNL A   1      43.405  31.866  34.141  1.00  0.00     0.010 A 
ATOM     43  C   UNL A   1      41.795  31.764  32.329  1.00  0.00     0.010 A 
ATOM     44  C   UNL A   1      43.025  32.213  32.833  1.00  0.00    -0.014 A 
BRANCH  44  45
ATOM     45  C   UNL A   1      44.013  32.870  31.945  1.00  0.00     0.031 A 
ATOM     46  C   UNL A   1      44.245  34.351  31.951  1.00  0.00     0.074 A 
ATOM     47  C   UNL A   1      44.712  32.081  31.105  1.00  0.00     0.049 A 
ATOM     48  N   UNL A   1      45.142  35.034  31.287  1.00  0.00    -0.248 NA
ATOM     49  C   UNL A   1      43.368  35.172  32.797  1.00  0.00     0.031 C 
ATOM     50  C   UNL A   1      44.523  30.634  30.967  1.00  0.00     0.029 A 
ATOM     51  N   UNL A   1      45.704  32.375  30.208  1.00  0.00    -0.354 N 
ATOM     52  C   UNL A   1      44.942  36.364  31.627  1.00  0.00     0.074 A 
ATOM     53  C   UNL A   1      43.826  36.396  32.550  1.00  0.00     0.031 C 
ATOM     54  C   UNL A   1      45.368  30.170  30.035  1.00  0.00     0.029 A 
ATOM     55  C   UNL A   1      46.152  31.282  29.507  1.00  0.00     0.049 A 
ATOM     56  H   UNL A   1      46.063  33.283  30.080  1.00  0.00     0.167 HD
ATOM     57  C   UNL A   1      45.643  37.449  31.221  1.00  0.00     0.034 A 
ATOM     58  C   UNL A   1      47.089  31.178  28.546  1.00  0.00     0.034 A 
ATOM     59  C   UNL A   1      46.765  37.408  30.317  1.00  0.00     0.049 A 
ATOM     60  C   UNL A   1      47.867  32.394  28.140  1.00  0.00     0.074 A 
ATOM     61  C   UNL A   1      47.577  38.455  29.915  1.00  0.00     0.029 A 
ATOM     62  N   UNL A   1      47.224  36.275  29.668  1.00  0.00    -0.354 N 
ATOM     63  N   UNL A   1      47.768  33.618  28.595  1.00  0.00    -0.248 NA
ATOM     64  C   UNL A   1      48.909  32.212  27.119  1.00  0.00     0.031 C 
ATOM     65  C   UNL A   1      48.520  37.958  29.012  1.00  0.00     0.029 A 
ATOM     66  C   UNL A   1      48.303  36.599  28.861  1.00  0.00     0.049 A 
ATOM     67  H   UNL A   1      46.842  35.373  29.764  1.00  0.00     0.167 HD
ATOM     68  C   UNL A   1      48.741  34.350  27.927  1.00  0.00     0.074 A 
ATOM     69  C   UNL A   1      49.435  33.429  27.052  1.00  0.00     0.031 C 
ATOM     70  C   UNL A   1      49.017  35.672  28.023  1.00  0.00     0.034 A 
BRANCH  57  71
ATOM     71  C   UNL A   1      45.290  38.795  31.793  1.00  0.00     0.023 A 
ATOM     72  C   UNL A   1      44.346  39.590  31.115  1.00  0.00     0.012 A 
ATOM     73  C   UNL A   1      45.737  39.182  33.071  1.00  0.00     0.148 A 
ATOM     74  C   UNL A   1      43.844  40.751  31.704  1.00  0.00     0.002 A 
ATOM     75  C   UNL A   1      45.215  40.327  33.662  1.00  0.00     0.091 A 
ATOM     76  F   UNL A   1      46.635  38.405  33.695  1.00  0.00    -0.205 F 
ATOM     77  C   UNL A   1      44.269  41.111  32.980  1.00  0.00     0.022 A 
BRANCH  75  78
ATOM     78  S   UNL A   1      45.646  40.852  35.325  1.00  0.00     0.127 S 
ATOM     79  O   UNL A   1      45.750  39.570  36.022  1.00  0.00    -0.237 OA
ATOM     80  O   UNL A   1      46.923  41.534  35.108  1.00  0.00    -0.237 OA
ATOM     81  O   UNL A   1      44.558  41.708  35.776  1.00  0.00    -0.744 OA
ENDBRANCH  75  78
ENDBRANCH  57  71
BRANCH  58  82
ATOM     82  C   UNL A   1      47.363  29.846  27.947  1.00  0.00     0.023 A 
ATOM     83  C   UNL A   1      48.140  28.913  28.657  1.00  0.00     0.012 A 
ATOM     84  C   UNL A   1      46.789  29.480  26.715  1.00  0.00     0.148 A 
ATOM     85  C   UNL A   1      48.352  27.635  28.141  1.00  0.00     0.002 A 
ATOM     86  C   UNL A   1      46.969  28.193  26.228  1.00  0.00     0.091 A 
ATOM     87  F   UNL A   1      46.056  30.393  26.062  1.00  0.00    -0.205 F 
ATOM     88  C   UNL A   1      47.759  27.271  26.935  1.00  0.00     0.022 A 
BRANCH  86  89
ATOM     89  S   UNL A   1      46.154  27.601  24.741  1.00  0.00     0.127 S 
ATOM     90  O   UNL A   1      44.746  27.805  25.072  1.00  0.00    -0.237 OA
ATOM     91  O   UNL A   1      46.688  28.511  23.726  1.00  0.00    -0.237 OA
ATOM     92  O   UNL A   1      46.570  26.215  24.586  1.00  0.00    -0.744 OA
ENDBRANCH  86  89
ENDBRANCH  58  82
BRANCH  70  93
ATOM     93  C   UNL A   1      50.116  36.229  27.163  1.00  0.00     0.023 A 
ATOM     94  C   UNL A   1      49.830  36.599  25.835  1.00  0.00     0.012 A 
ATOM     95  C   UNL A   1      51.390  36.496  27.702  1.00  0.00     0.148 A 
ATOM     96  C   UNL A   1      50.799  37.222  25.051  1.00  0.00     0.002 A 
ATOM     97  C   UNL A   1      52.340  37.148  26.925  1.00  0.00     0.091 A 
ATOM     98  F   UNL A   1      51.639  36.125  28.966  1.00  0.00    -0.205 F 
ATOM     99  C   UNL A   1      52.049  37.507  25.599  1.00  0.00     0.022 A 
BRANCH  97 100
ATOM    100  S   UNL A   1      53.953  37.623  27.560  1.00  0.00     0.127 S 
ATOM    101  O   UNL A   1      53.610  38.744  28.433  1.00  0.00    -0.237 OA
ATOM    102  O   UNL A   1      54.377  36.411  28.262  1.00  0.00    -0.237 OA
ATOM    103  O   UNL A   1      54.760  37.968  26.399  1.00  0.00    -0.744 OA
ENDBRANCH  97 100
ENDBRANCH  70  93
ENDBRANCH  44  45
ENDBRANCH  37  39
ENDBRANCH  36  37
ENDBRANCH  35  36
ENDBRANCH  34  35
ENDBRANCH  33  34
ENDBRANCH  32  33
ENDBRANCH  31  32
ENDBRANCH   1  31
TORSDOF 27
ENDMDL
MODEL 3
REMARK VINA RESULT:      -8.4      6.323     10.553
REMARK SMILES CC(C)CN(C)c1cc2c(cc1Cl)C=C(C(=O)OCCOCCOCCOCCOC(=O)c1ccc(-c3c4nc(c(-c5cccc(S(=O)(=O)[O-])c5F)c5ccc([nH]5)c(-c5cccc(S(=O)(=O)[O-])c5F)c5nc(c(-c6cccc(S(=O)(=O)[O-])c6F)c6ccc3[nH]6)C=C5)C=C4)cc1)[C@@H](C(F)(F)F)O2
REMARK SMILES IDX 24 1 23 2 22 3 21 4 20 5 19 6 18 7 16 8 17 9 15 10 7 11 8 12
REMARK SMILES IDX 12 13 9 14 11 15 13 16 10 17 101 18 14 19 96 20 5 21 6 22
REMARK SMILES IDX 4 23 2 24 1 25 3 26 97 27 98 28 99 29 100 30 25 31 26 32
REMARK SMILES IDX 27 33 28 34 29 35 30 36 31 37 32 38 33 39 34 40 95 41 35 42
REMARK SMILES IDX 94 43 36 44 37 45 38 46 88 47 39 48 93 49 87 50 89 51 40 52
REMARK SMILES IDX 92 53 86 54 85 55 41 57 73 58 53 59 72 60 54 61 57 62 71 63
REMARK SMILES IDX 90 64 55 65 56 66 70 68 91 69 58 70 42 71 43 72 51 73 44 74
REMARK SMILES IDX 46 75 52 76 45 77 47 78 48 79 49 80 50 81 74 82 75 83 83 84
REMARK SMILES IDX 76 85 78 86 84 87 77 88 79 89 80 90 81 91 82 92 59 93 60 94
REMARK SMILES IDX 68 95 61 96 63 97 69 98 62 99 64 100 65 101 66 102 67 103
REMARK H PARENT 89 56 57 67
REMARK Flexibility Score: inf
ROOT
ATOM      1  O   UNL A   1      38.468  34.154  36.565  1.00  0.00    -0.377 OA
ENDROOT
BRANCH   1   2
ATOM      2  C   UNL A   1      38.952  33.135  35.708  1.00  0.00     0.188 C 
BRANCH   2   3
ATOM      3  C   UNL A   1      37.933  32.006  35.479  1.00  0.00     0.188 C 
BRANCH   3   4
ATOM      4  O   UNL A   1      37.665  31.765  34.102  1.00  0.00    -0.376 OA
BRANCH   4   5
ATOM      5  C   UNL A   1      37.970  30.478  33.576  1.00  0.00     0.202 C 
BRANCH   5   6
ATOM      6  C   UNL A   1      37.070  29.893  32.472  1.00  0.00     0.261 C 
BRANCH   6   7
ATOM      7  O   UNL A   1      37.743  29.506  31.262  1.00  0.00    -0.460 OA
BRANCH   7   8
ATOM      8  C   UNL A   1      38.845  30.200  30.936  1.00  0.00     0.338 C 
ATOM      9  O   UNL A   1      39.038  31.390  31.128  1.00  0.00    -0.246 OA
BRANCH   8  10
ATOM     10  C   UNL A   1      39.884  29.258  30.467  1.00  0.00     0.087 C 
ATOM     11  C   UNL A   1      42.212  25.248  28.510  1.00  0.00     0.059 A 
ATOM     12  C   UNL A   1      42.657  26.402  29.194  1.00  0.00     0.074 A 
ATOM     13  C   UNL A   1      40.837  25.178  28.194  1.00  0.00     0.065 A 
ATOM     14  C   UNL A   1      41.765  27.423  29.557  1.00  0.00     0.130 A 
ATOM     15  C   UNL A   1      39.978  26.247  28.451  1.00  0.00     0.034 A 
ATOM     16  Cl  UNL A   1      40.079  23.742  27.594  1.00  0.00    -0.082 Cl
ATOM     17  C   UNL A   1      40.436  27.356  29.153  1.00  0.00     0.019 A 
ATOM     18  O   UNL A   1      42.251  28.461  30.309  1.00  0.00    -0.475 OA
ATOM     19  C   UNL A   1      39.493  28.387  29.532  1.00  0.00     0.027 C 
ATOM     20  C   UNL A   1      41.283  29.294  31.031  1.00  0.00     0.316 C 
BRANCH  11  21
ATOM     21  N   UNL A   1      43.092  24.196  28.213  1.00  0.00    -0.373 N 
ATOM     22  C   UNL A   1      43.077  23.084  29.158  1.00  0.00     0.143 C 
BRANCH  21  23
ATOM     23  C   UNL A   1      44.383  24.506  27.563  1.00  0.00     0.119 C 
BRANCH  23  24
ATOM     24  C   UNL A   1      44.483  23.956  26.124  1.00  0.00     0.002 C 
ATOM     25  C   UNL A   1      44.962  22.502  26.105  1.00  0.00     0.009 C 
ATOM     26  C   UNL A   1      43.153  24.053  25.373  1.00  0.00     0.009 C 
ENDBRANCH  23  24
ENDBRANCH  21  23
ENDBRANCH  11  21
BRANCH  20  27
ATOM     27  C   UNL A   1      41.284  28.936  32.524  1.00  0.00     0.430 C 
ATOM     28  F   UNL A   1      42.340  28.154  32.846  1.00  0.00    -0.167 F 
ATOM     29  F   UNL A   1      41.355  30.042  33.300  1.00  0.00    -0.167 F 
ATOM     30  F   UNL A   1      40.162  28.267  32.879  1.00  0.00    -0.167 F 
ENDBRANCH  20  27
ENDBRANCH   8  10
ENDBRANCH   7   8
ENDBRANCH   6   7
ENDBRANCH   5   6
ENDBRANCH   4   5
ENDBRANCH   3   4
ENDBRANCH   2   3
ENDBRANCH   1   2
BRANCH   1  31
ATOM     31  C   UNL A   1      38.745  34.042  37.962  1.00  0.00     0.188 C 
BRANCH  31  32
ATOM     32  C   UNL A   1      39.180  35.258  38.815  1.00  0.00     0.188 C 
BRANCH  32  33
ATOM     33  O   UNL A   1      39.873  34.911  40.013  1.00  0.00    -0.376 OA
BRANCH  33  34
ATOM     34  C   UNL A   1      40.712  35.911  40.575  1.00  0.00     0.202 C 
BRANCH  34  35
ATOM     35  C   UNL A   1      42.181  35.493  40.703  1.00  0.00     0.261 C 
BRANCH  35  36
ATOM     36  O   UNL A   1      42.767  34.937  39.517  1.00  0.00    -0.460 OA
BRANCH  36  37
ATOM     37  C   UNL A   1      42.916  35.746  38.442  1.00  0.00     0.338 C 
ATOM     38  O   UNL A   1      42.946  36.964  38.441  1.00  0.00    -0.246 OA
BRANCH  37  39
ATOM     39  C   UNL A   1      43.242  34.879  37.291  1.00  0.00     0.060 A 
ATOM     40  C   UNL A   1      42.244  34.096  36.701  1.00  0.00     0.016 A 
ATOM     41  C   UNL A   1      44.564  34.804  36.834  1.00  0.00     0.016 A 
ATOM     42  C   UNL A   1      42.568  33.255  35.637  1.00  0.00     0.010 A 
ATOM     43  C   UNL A   1      44.887  33.955  35.772  1.00  0.00     0.010 A 
ATOM     44  C   UNL A   1      43.887  33.190  35.153  1.00  0.00    -0.014 A 
BRANCH  44  45
ATOM     45  C   UNL A   1      44.155  32.478  33.881  1.00  0.00     0.031 A 
ATOM     46  C   UNL A   1      44.009  33.135  32.543  1.00  0.00     0.074 A 
ATOM     47  C   UNL A   1      44.538  31.188  33.963  1.00  0.00     0.049 A 
ATOM     48  N   UNL A   1      44.299  32.647  31.363  1.00  0.00    -0.248 NA
ATOM     49  C   UNL A   1      43.469  34.502  32.512  1.00  0.00     0.031 C 
ATOM     50  C   UNL A   1      44.651  30.427  35.210  1.00  0.00     0.029 A 
ATOM     51  N   UNL A   1      44.891  30.291  32.990  1.00  0.00    -0.354 N 
ATOM     52  C   UNL A   1      43.978  33.638  30.447  1.00  0.00     0.074 A 
ATOM     53  C   UNL A   1      43.457  34.756  31.206  1.00  0.00     0.031 C 
ATOM     54  C   UNL A   1      45.039  29.176  34.924  1.00  0.00     0.029 A 
ATOM     55  C   UNL A   1      45.197  29.044  33.480  1.00  0.00     0.049 A 
ATOM     56  H   UNL A   1      44.923  30.518  32.033  1.00  0.00     0.167 HD
ATOM     57  C   UNL A   1      44.129  33.618  29.102  1.00  0.00     0.034 A 
ATOM     58  C   UNL A   1      45.565  27.916  32.843  1.00  0.00     0.034 A 
ATOM     59  C   UNL A   1      44.667  32.510  28.354  1.00  0.00     0.049 A 
ATOM     60  C   UNL A   1      45.752  27.937  31.355  1.00  0.00     0.074 A 
ATOM     61  C   UNL A   1      44.924  32.440  26.995  1.00  0.00     0.029 A 
ATOM     62  N   UNL A   1      45.017  31.282  28.890  1.00  0.00    -0.354 N 
ATOM     63  N   UNL A   1      45.596  28.937  30.524  1.00  0.00    -0.248 NA
ATOM     64  C   UNL A   1      46.199  26.689  30.719  1.00  0.00     0.031 C 
ATOM     65  C   UNL A   1      45.416  31.165  26.706  1.00  0.00     0.029 A 
ATOM     66  C   UNL A   1      45.478  30.445  27.887  1.00  0.00     0.049 A 
ATOM     67  H   UNL A   1      44.948  31.039  29.841  1.00  0.00     0.167 HD
ATOM     68  C   UNL A   1      45.937  28.446  29.271  1.00  0.00     0.074 A 
ATOM     69  C   UNL A   1      46.331  27.065  29.453  1.00  0.00     0.031 C 
ATOM     70  C   UNL A   1      45.907  29.085  28.078  1.00  0.00     0.034 A 
BRANCH  57  71
ATOM     71  C   UNL A   1      43.783  34.854  28.316  1.00  0.00     0.023 A 
ATOM     72  C   UNL A   1      42.444  35.057  27.931  1.00  0.00     0.012 A 
ATOM     73  C   UNL A   1      44.726  35.884  28.129  1.00  0.00     0.148 A 
ATOM     74  C   UNL A   1      42.043  36.272  27.376  1.00  0.00     0.002 A 
ATOM     75  C   UNL A   1      44.314  37.101  27.597  1.00  0.00     0.091 A 
ATOM     76  F   UNL A   1      45.993  35.665  28.506  1.00  0.00    -0.205 F 
ATOM     77  C   UNL A   1      42.974  37.296  27.222  1.00  0.00     0.022 A 
BRANCH  75  78
ATOM     78  S   UNL A   1      45.415  38.508  27.409  1.00  0.00     0.127 S 
ATOM     79  O   UNL A   1      44.687  39.324  26.437  1.00  0.00    -0.237 OA
ATOM     80  O   UNL A   1      45.444  39.056  28.765  1.00  0.00    -0.237 OA
ATOM     81  O   UNL A   1      46.681  37.971  26.932  1.00  0.00    -0.744 OA
ENDBRANCH  75  78
ENDBRANCH  57  71
BRANCH  58  82
ATOM     82  C   UNL A   1      45.828  26.691  33.640  1.00  0.00     0.023 A 
ATOM     83  C   UNL A   1      47.062  26.543  34.299  1.00  0.00     0.012 A 
ATOM     84  C   UNL A   1      44.828  25.715  33.809  1.00  0.00     0.148 A 
ATOM     85  C   UNL A   1      47.301  25.432  35.107  1.00  0.00     0.002 A 
ATOM     86  C   UNL A   1      45.057  24.633  34.648  1.00  0.00     0.091 A 
ATOM     87  F   UNL A   1      43.664  25.883  33.166  1.00  0.00    -0.205 F 
ATOM     88  C   UNL A   1      46.297  24.483  35.290  1.00  0.00     0.022 A 
BRANCH  86  89
ATOM     89  S   UNL A   1      43.787  23.422  35.030  1.00  0.00     0.127 S 
ATOM     90  O   UNL A   1      43.349  23.019  33.696  1.00  0.00    -0.237 OA
ATOM     91  O   UNL A   1      44.551  22.408  35.761  1.00  0.00    -0.237 OA
ATOM     92  O   UNL A   1      42.798  24.126  35.833  1.00  0.00    -0.744 OA
ENDBRANCH  86  89
ENDBRANCH  58  82
BRANCH  70  93
ATOM     93  C   UNL A   1      46.307  28.311  26.853  1.00  0.00     0.023 A 
ATOM     94  C   UNL A   1      45.307  27.765  26.027  1.00  0.00     0.012 A 
ATOM     95  C   UNL A   1      47.657  28.231  26.457  1.00  0.00     0.148 A 
ATOM     96  C   UNL A   1      45.642  27.143  24.826  1.00  0.00     0.002 A 
ATOM     97  C   UNL A   1      47.982  27.639  25.243  1.00  0.00     0.091 A 
ATOM     98  F   UNL A   1      48.591  28.751  27.267  1.00  0.00    -0.205 F 
ATOM     99  C   UNL A   1      46.978  27.090  24.429  1.00  0.00     0.022 A 
BRANCH  97 100
ATOM    100  S   UNL A   1      49.663  27.583  24.610  1.00  0.00     0.127 S 
ATOM    101  O   UNL A   1      49.443  27.731  23.172  1.00  0.00    -0.237 OA
ATOM    102  O   UNL A   1      50.275  28.744  25.256  1.00  0.00    -0.237 OA
ATOM    103  O   UNL A   1      50.209  26.298  25.022  1.00  0.00    -0.744 OA
ENDBRANCH  97 100
ENDBRANCH  70  93
ENDBRANCH  44  45
ENDBRANCH  37  39
ENDBRANCH  36  37
ENDBRANCH  35  36
ENDBRANCH  34  35
ENDBRANCH  33  34
ENDBRANCH  32  33
ENDBRANCH  31  32
ENDBRANCH   1  31
TORSDOF 27
ENDMDL
