MODEL 1
REMARK VINA RESULT:      -9.3      0.000      0.000
REMARK SMILES CN(C)S(=O)(=O)c1ccc(-n2c(CCC(=O)OCCOCCOCCOCCOC(=O)c3ccc(-c4c5nc(c(-c6cccc(S(=O)(=O)[O-])c6F)c6ccc([nH]6)c(-c6cccc(S(=O)(=O)[O-])c6F)c6nc(c(-c7cccc(S(=O)(=O)[O-])c7F)c7ccc4[nH]7)C=C6)C=C5)cc3)ccc2-c2ccc(F)cc2)cc1
REMARK SMILES IDX 22 1 21 2 20 3 19 4 18 5 17 6 15 7 16 8 14 9 13 10 12 11
REMARK SMILES IDX 11 12 97 13 95 14 96 15 10 16 7 17 8 18 106 19 9 20 105 21
REMARK SMILES IDX 4 22 5 23 6 24 2 25 1 26 3 27 98 28 99 29 104 30 100 31
REMARK SMILES IDX 103 32 101 33 102 34 23 35 24 36 25 37 26 38 27 39 28 40
REMARK SMILES IDX 29 41 30 42 31 43 32 44 33 45 94 46 34 47 93 48 35 49 36 50
REMARK SMILES IDX 37 51 87 52 38 53 92 54 86 55 88 56 39 57 91 58 85 59 84 60
REMARK SMILES IDX 40 62 72 63 52 64 71 65 53 66 56 67 70 68 89 69 54 70 55 71
REMARK SMILES IDX 69 73 90 74 57 75 41 76 42 77 50 78 43 79 45 80 51 81 44 82
REMARK SMILES IDX 46 83 47 84 48 85 49 86 73 87 74 88 82 89 75 90 77 91 83 92
REMARK SMILES IDX 76 93 78 94 79 95 80 96 81 97 58 98 59 99 67 100 60 101
REMARK SMILES IDX 62 102 68 103 61 104 63 105 64 106 65 107 66 108
REMARK H PARENT 88 61 56 72
REMARK Flexibility Score: inf
ROOT
ATOM      1  C   UNL A   1      35.957  23.433  23.733  1.00  0.00     0.188 C 
ENDROOT
BRANCH   1   2
ATOM      2  C   UNL A   1      34.670  23.074  22.980  1.00  0.00     0.188 C 
BRANCH   2   3
ATOM      3  O   UNL A   1      33.904  24.331  22.531  1.00  0.00    -0.376 OA
BRANCH   3   4
ATOM      4  C   UNL A   1      33.882  26.296  22.192  1.00  0.00     0.202 C 
BRANCH   4   5
ATOM      5  C   UNL A   1      32.618  27.374  21.715  1.00  0.00     0.261 C 
BRANCH   5   6
ATOM      6  O   UNL A   1      32.278  28.509  22.565  1.00  0.00    -0.463 OA
BRANCH   6   7
ATOM      7  C   UNL A   1      31.016  29.010  22.446  1.00  0.00     0.306 C 
ATOM      8  O   UNL A   1      30.506  29.309  21.369  1.00  0.00    -0.252 OA
BRANCH   7   9
ATOM      9  C   UNL A   1      30.218  29.078  23.753  1.00  0.00     0.129 C 
BRANCH   9  10
ATOM     10  C   UNL A   1      29.348  27.900  24.219  1.00  0.00     0.066 C 
BRANCH  10  11
ATOM     11  C   UNL A   1      30.023  26.581  24.144  1.00  0.00     0.024 A 
ATOM     12  N   UNL A   1      31.175  26.219  24.841  1.00  0.00    -0.314 N 
ATOM     13  C   UNL A   1      31.343  24.830  24.655  1.00  0.00     0.053 A 
ATOM     14  C   UNL A   1      29.660  25.525  23.329  1.00  0.00     0.024 A 
ATOM     15  C   UNL A   1      30.485  24.438  23.642  1.00  0.00     0.029 A 
BRANCH  12  16
ATOM     16  C   UNL A   1      31.995  27.075  25.662  1.00  0.00     0.046 A 
ATOM     17  C   UNL A   1      34.300  29.018  27.659  1.00  0.00     0.082 A 
ATOM     18  C   UNL A   1      34.839  28.261  26.131  1.00  0.00     0.024 A 
ATOM     19  C   UNL A   1      32.623  28.785  28.263  1.00  0.00     0.024 A 
ATOM     20  C   UNL A   1      33.694  27.336  25.114  1.00  0.00     0.028 A 
ATOM     21  C   UNL A   1      31.439  27.842  27.243  1.00  0.00     0.028 A 
BRANCH  17  22
ATOM     22  S   UNL A   1      35.399  30.220  28.322  1.00  0.00     0.242 S 
ATOM     23  O   UNL A   1      36.239  30.692  27.223  1.00  0.00    -0.207 OA
ATOM     24  O   UNL A   1      35.971  29.636  29.499  1.00  0.00    -0.207 OA
BRANCH  22  25
ATOM     25  N   UNL A   1      34.435  31.557  28.802  1.00  0.00    -0.204 NA
ATOM     26  C   UNL A   1      35.050  32.287  29.943  1.00  0.00     0.124 C 
ATOM     27  C   UNL A   1      34.083  32.518  27.730  1.00  0.00     0.124 C 
ENDBRANCH  22  25
ENDBRANCH  17  22
ENDBRANCH  12  16
BRANCH  13  28
ATOM     28  C   UNL A   1      32.188  23.915  25.438  1.00  0.00    -0.001 A 
ATOM     29  C   UNL A   1      31.904  22.540  25.480  1.00  0.00     0.013 A 
ATOM     30  C   UNL A   1      33.290  24.403  26.160  1.00  0.00     0.013 A 
ATOM     31  C   UNL A   1      32.749  21.663  26.166  1.00  0.00     0.040 A 
ATOM     32  C   UNL A   1      34.144  23.522  26.831  1.00  0.00     0.040 A 
ATOM     33  C   UNL A   1      33.870  22.160  26.821  1.00  0.00     0.123 A 
ATOM     34  F   UNL A   1      34.701  21.320  27.450  1.00  0.00    -0.207 F 
ENDBRANCH  13  28
ENDBRANCH  10  11
ENDBRANCH   9  10
ENDBRANCH   7   9
ENDBRANCH   6   7
ENDBRANCH   5   6
ENDBRANCH   4   5
ENDBRANCH   3   4
ENDBRANCH   2   3
ENDBRANCH   1   2
BRANCH   1  35
ATOM     35  O   UNL A   1      36.810  22.368  24.136  1.00  0.00    -0.377 OA
BRANCH  35  36
ATOM     36  C   UNL A   1      37.721  22.573  25.197  1.00  0.00     0.188 C 
BRANCH  36  37
ATOM     37  C   UNL A   1      37.645  23.897  25.961  1.00  0.00     0.188 C 
BRANCH  37  38
ATOM     38  O   UNL A   1      38.372  24.103  27.162  1.00  0.00    -0.376 OA
BRANCH  38  39
ATOM     39  C   UNL A   1      39.124  25.287  27.393  1.00  0.00     0.202 C 
BRANCH  39  40
ATOM     40  C   UNL A   1      39.256  25.941  28.767  1.00  0.00     0.261 C 
BRANCH  40  41
ATOM     41  O   UNL A   1      38.776  27.274  28.813  1.00  0.00    -0.460 OA
BRANCH  41  42
ATOM     42  C   UNL A   1      38.894  27.825  30.036  1.00  0.00     0.338 C 
ATOM     43  O   UNL A   1      38.106  27.727  30.966  1.00  0.00    -0.246 OA
BRANCH  42  44
ATOM     44  C   UNL A   1      40.064  28.709  30.089  1.00  0.00     0.060 A 
ATOM     45  C   UNL A   1      40.487  29.110  28.815  1.00  0.00     0.016 A 
ATOM     46  C   UNL A   1      40.955  28.272  31.069  1.00  0.00     0.016 A 
ATOM     47  C   UNL A   1      41.734  28.701  28.405  1.00  0.00     0.010 A 
ATOM     48  C   UNL A   1      42.161  27.781  30.636  1.00  0.00     0.010 A 
ATOM     49  C   UNL A   1      42.519  27.953  29.295  1.00  0.00    -0.014 A 
BRANCH  49  50
ATOM     50  C   UNL A   1      43.837  27.520  28.829  1.00  0.00     0.031 A 
ATOM     51  C   UNL A   1      44.757  28.748  28.837  1.00  0.00     0.074 A 
ATOM     52  C   UNL A   1      43.939  26.222  28.396  1.00  0.00     0.049 A 
ATOM     53  N   UNL A   1      45.518  29.217  27.896  1.00  0.00    -0.248 NA
ATOM     54  C   UNL A   1      44.653  29.722  29.964  1.00  0.00     0.031 C 
ATOM     55  C   UNL A   1      42.889  25.179  28.534  1.00  0.00     0.029 A 
ATOM     56  N   UNL A   1      44.927  25.504  27.755  1.00  0.00    -0.354 N 
ATOM     57  C   UNL A   1      46.170  30.350  28.440  1.00  0.00     0.074 A 
ATOM     58  C   UNL A   1      45.414  30.745  29.580  1.00  0.00     0.031 C 
ATOM     59  C   UNL A   1      43.264  24.023  27.934  1.00  0.00     0.029 A 
ATOM     60  C   UNL A   1      44.587  24.182  27.358  1.00  0.00     0.049 A 
ATOM     61  H   UNL A   1      45.817  25.886  27.584  1.00  0.00     0.167 HD
ATOM     62  C   UNL A   1      47.434  30.717  28.076  1.00  0.00     0.034 A 
ATOM     63  C   UNL A   1      45.307  23.310  26.576  1.00  0.00     0.034 A 
ATOM     64  C   UNL A   1      47.925  29.766  27.130  1.00  0.00     0.049 A 
ATOM     65  C   UNL A   1      46.589  23.989  26.342  1.00  0.00     0.074 A 
ATOM     66  C   UNL A   1      47.600  29.487  25.829  1.00  0.00     0.029 A 
ATOM     67  N   UNL A   1      48.574  28.690  27.692  1.00  0.00    -0.354 N 
ATOM     68  N   UNL A   1      47.529  24.124  27.230  1.00  0.00    -0.248 NA
ATOM     69  C   UNL A   1      46.783  24.694  25.069  1.00  0.00     0.031 C 
ATOM     70  C   UNL A   1      47.663  28.079  25.784  1.00  0.00     0.029 A 
ATOM     71  C   UNL A   1      48.257  27.584  26.953  1.00  0.00     0.049 A 
ATOM     72  H   UNL A   1      49.160  28.712  28.483  1.00  0.00     0.167 HD
ATOM     73  C   UNL A   1      48.205  25.219  26.750  1.00  0.00     0.074 A 
ATOM     74  C   UNL A   1      47.954  25.268  25.326  1.00  0.00     0.031 C 
ATOM     75  C   UNL A   1      48.415  26.286  27.565  1.00  0.00     0.034 A 
BRANCH  62  76
ATOM     76  C   UNL A   1      48.474  31.620  28.702  1.00  0.00     0.023 A 
ATOM     77  C   UNL A   1      49.085  32.536  27.799  1.00  0.00     0.012 A 
ATOM     78  C   UNL A   1      49.093  31.449  29.953  1.00  0.00     0.148 A 
ATOM     79  C   UNL A   1      50.324  33.120  28.047  1.00  0.00     0.002 A 
ATOM     80  C   UNL A   1      50.306  32.089  30.224  1.00  0.00     0.091 A 
ATOM     81  F   UNL A   1      48.566  30.619  30.854  1.00  0.00    -0.205 F 
ATOM     82  C   UNL A   1      50.945  32.878  29.257  1.00  0.00     0.022 A 
BRANCH  80  83
ATOM     83  S   UNL A   1      51.149  31.947  31.805  1.00  0.00     0.127 S 
ATOM     84  O   UNL A   1      52.279  32.854  31.629  1.00  0.00    -0.237 OA
ATOM     85  O   UNL A   1      50.122  32.430  32.731  1.00  0.00    -0.237 OA
ATOM     86  O   UNL A   1      51.468  30.535  31.961  1.00  0.00    -0.744 OA
ENDBRANCH  80  83
ENDBRANCH  62  76
BRANCH  63  87
ATOM     87  C   UNL A   1      45.105  21.993  25.847  1.00  0.00     0.023 A 
ATOM     88  C   UNL A   1      46.061  21.376  25.032  1.00  0.00     0.012 A 
ATOM     89  C   UNL A   1      43.876  21.269  26.004  1.00  0.00     0.148 A 
ATOM     90  C   UNL A   1      45.841  20.085  24.492  1.00  0.00     0.002 A 
ATOM     91  C   UNL A   1      43.711  19.953  25.585  1.00  0.00     0.091 A 
ATOM     92  F   UNL A   1      42.806  21.875  26.523  1.00  0.00    -0.205 F 
ATOM     93  C   UNL A   1      44.692  19.355  24.807  1.00  0.00     0.022 A 
BRANCH  91  94
ATOM     94  S   UNL A   1      42.315  18.948  26.137  1.00  0.00     0.127 S 
ATOM     95  O   UNL A   1      41.205  19.494  25.359  1.00  0.00    -0.237 OA
ATOM     96  O   UNL A   1      42.743  17.607  25.739  1.00  0.00    -0.237 OA
ATOM     97  O   UNL A   1      42.212  19.140  27.579  1.00  0.00    -0.744 OA
ENDBRANCH  91  94
ENDBRANCH  63  87
BRANCH  75  98
ATOM     98  C   UNL A   1      48.469  25.957  29.059  1.00  0.00     0.023 A 
ATOM     99  C   UNL A   1      47.350  26.318  29.834  1.00  0.00     0.012 A 
ATOM    100  C   UNL A   1      49.587  25.436  29.756  1.00  0.00     0.148 A 
ATOM    101  C   UNL A   1      47.341  26.190  31.227  1.00  0.00     0.002 A 
ATOM    102  C   UNL A   1      49.593  25.330  31.154  1.00  0.00     0.091 A 
ATOM    103  F   UNL A   1      50.642  25.036  29.053  1.00  0.00    -0.205 F 
ATOM    104  C   UNL A   1      48.462  25.704  31.888  1.00  0.00     0.022 A 
BRANCH 102 105
ATOM    105  S   UNL A   1      51.025  24.806  32.124  1.00  0.00     0.127 S 
ATOM    106  O   UNL A   1      50.987  23.347  31.985  1.00  0.00    -0.237 OA
ATOM    107  O   UNL A   1      52.131  25.442  31.414  1.00  0.00    -0.237 OA
ATOM    108  O   UNL A   1      50.801  25.280  33.484  1.00  0.00    -0.744 OA
ENDBRANCH 102 105
ENDBRANCH  75  98
ENDBRANCH  49  50
ENDBRANCH  42  44
ENDBRANCH  41  42
ENDBRANCH  40  41
ENDBRANCH  39  40
ENDBRANCH  38  39
ENDBRANCH  37  38
ENDBRANCH  36  37
ENDBRANCH  35  36
ENDBRANCH   1  35
TORSDOF 29
ENDMDL
MODEL 2
REMARK VINA RESULT:      -9.0      3.085      6.320
REMARK SMILES CN(C)S(=O)(=O)c1ccc(-n2c(CCC(=O)OCCOCCOCCOCCOC(=O)c3ccc(-c4c5nc(c(-c6cccc(S(=O)(=O)[O-])c6F)c6ccc([nH]6)c(-c6cccc(S(=O)(=O)[O-])c6F)c6nc(c(-c7cccc(S(=O)(=O)[O-])c7F)c7ccc4[nH]7)C=C6)C=C5)cc3)ccc2-c2ccc(F)cc2)cc1
REMARK SMILES IDX 22 1 21 2 20 3 19 4 18 5 17 6 15 7 16 8 14 9 13 10 12 11
REMARK SMILES IDX 11 12 97 13 95 14 96 15 10 16 7 17 8 18 106 19 9 20 105 21
REMARK SMILES IDX 4 22 5 23 6 24 2 25 1 26 3 27 98 28 99 29 104 30 100 31
REMARK SMILES IDX 103 32 101 33 102 34 23 35 24 36 25 37 26 38 27 39 28 40
REMARK SMILES IDX 29 41 30 42 31 43 32 44 33 45 94 46 34 47 93 48 35 49 36 50
REMARK SMILES IDX 37 51 87 52 38 53 92 54 86 55 88 56 39 57 91 58 85 59 84 60
REMARK SMILES IDX 40 62 72 63 52 64 71 65 53 66 56 67 70 68 89 69 54 70 55 71
REMARK SMILES IDX 69 73 90 74 57 75 41 76 42 77 50 78 43 79 45 80 51 81 44 82
REMARK SMILES IDX 46 83 47 84 48 85 49 86 73 87 74 88 82 89 75 90 77 91 83 92
REMARK SMILES IDX 76 93 78 94 79 95 80 96 81 97 58 98 59 99 67 100 60 101
REMARK SMILES IDX 62 102 68 103 61 104 63 105 64 106 65 107 66 108
REMARK H PARENT 88 61 56 72
REMARK Flexibility Score: inf
ROOT
ATOM      1  C   UNL A   1      35.698  23.300  23.292  1.00  0.00     0.188 C 
ENDROOT
BRANCH   1   2
ATOM      2  C   UNL A   1      34.305  22.968  22.743  1.00  0.00     0.188 C 
BRANCH   2   3
ATOM      3  O   UNL A   1      33.470  24.238  22.501  1.00  0.00    -0.376 OA
BRANCH   3   4
ATOM      4  C   UNL A   1      33.379  26.147  21.930  1.00  0.00     0.202 C 
BRANCH   4   5
ATOM      5  C   UNL A   1      32.044  27.209  21.652  1.00  0.00     0.261 C 
BRANCH   5   6
ATOM      6  O   UNL A   1      32.055  28.548  22.228  1.00  0.00    -0.463 OA
BRANCH   6   7
ATOM      7  C   UNL A   1      30.851  29.175  22.351  1.00  0.00     0.306 C 
ATOM      8  O   UNL A   1      30.251  29.678  21.404  1.00  0.00    -0.252 OA
BRANCH   7   9
ATOM      9  C   UNL A   1      30.229  29.118  23.750  1.00  0.00     0.129 C 
BRANCH   9  10
ATOM     10  C   UNL A   1      29.289  27.973  24.160  1.00  0.00     0.066 C 
BRANCH  10  11
ATOM     11  C   UNL A   1      29.956  26.652  24.273  1.00  0.00     0.024 A 
ATOM     12  N   UNL A   1      31.115  26.391  25.004  1.00  0.00    -0.314 N 
ATOM     13  C   UNL A   1      31.273  24.989  25.024  1.00  0.00     0.053 A 
ATOM     14  C   UNL A   1      29.577  25.490  23.629  1.00  0.00     0.024 A 
ATOM     15  C   UNL A   1      30.401  24.456  24.091  1.00  0.00     0.029 A 
BRANCH  12  16
ATOM     16  C   UNL A   1      31.949  27.354  25.678  1.00  0.00     0.046 A 
ATOM     17  C   UNL A   1      34.287  29.555  27.341  1.00  0.00     0.082 A 
ATOM     18  C   UNL A   1      34.810  28.560  25.950  1.00  0.00     0.024 A 
ATOM     19  C   UNL A   1      32.610  29.443  27.976  1.00  0.00     0.024 A 
ATOM     20  C   UNL A   1      33.649  27.502  25.093  1.00  0.00     0.028 A 
ATOM     21  C   UNL A   1      31.410  28.368  27.119  1.00  0.00     0.028 A 
BRANCH  17  22
ATOM     22  S   UNL A   1      35.405  30.831  27.804  1.00  0.00     0.242 S 
ATOM     23  O   UNL A   1      34.881  32.084  27.264  1.00  0.00    -0.207 OA
ATOM     24  O   UNL A   1      36.715  30.362  27.461  1.00  0.00    -0.207 OA
BRANCH  22  25
ATOM     25  N   UNL A   1      35.316  30.967  29.513  1.00  0.00    -0.204 NA
ATOM     26  C   UNL A   1      36.466  30.293  30.172  1.00  0.00     0.124 C 
ATOM     27  C   UNL A   1      35.177  32.344  30.045  1.00  0.00     0.124 C 
ENDBRANCH  22  25
ENDBRANCH  17  22
ENDBRANCH  12  16
BRANCH  13  28
ATOM     28  C   UNL A   1      32.124  24.195  25.924  1.00  0.00    -0.001 A 
ATOM     29  C   UNL A   1      31.552  23.287  26.831  1.00  0.00     0.013 A 
ATOM     30  C   UNL A   1      33.521  24.335  25.895  1.00  0.00     0.013 A 
ATOM     31  C   UNL A   1      32.365  22.482  27.636  1.00  0.00     0.040 A 
ATOM     32  C   UNL A   1      34.333  23.518  26.688  1.00  0.00     0.040 A 
ATOM     33  C   UNL A   1      33.748  22.594  27.544  1.00  0.00     0.123 A 
ATOM     34  F   UNL A   1      34.531  21.801  28.287  1.00  0.00    -0.207 F 
ENDBRANCH  13  28
ENDBRANCH  10  11
ENDBRANCH   9  10
ENDBRANCH   7   9
ENDBRANCH   6   7
ENDBRANCH   5   6
ENDBRANCH   4   5
ENDBRANCH   3   4
ENDBRANCH   2   3
ENDBRANCH   1   2
BRANCH   1  35
ATOM     35  O   UNL A   1      36.604  22.224  23.500  1.00  0.00    -0.377 OA
BRANCH  35  36
ATOM     36  C   UNL A   1      36.469  21.417  24.653  1.00  0.00     0.188 C 
BRANCH  36  37
ATOM     37  C   UNL A   1      37.723  21.143  25.487  1.00  0.00     0.188 C 
BRANCH  37  38
ATOM     38  O   UNL A   1      38.781  22.086  25.566  1.00  0.00    -0.376 OA
BRANCH  38  39
ATOM     39  C   UNL A   1      39.598  22.204  26.723  1.00  0.00     0.202 C 
BRANCH  39  40
ATOM     40  C   UNL A   1      41.030  21.674  26.795  1.00  0.00     0.261 C 
BRANCH  40  41
ATOM     41  O   UNL A   1      41.861  22.130  25.742  1.00  0.00    -0.460 OA
BRANCH  41  42
ATOM     42  C   UNL A   1      42.866  21.278  25.469  1.00  0.00     0.338 C 
ATOM     43  O   UNL A   1      42.882  20.071  25.667  1.00  0.00    -0.246 OA
BRANCH  42  44
ATOM     44  C   UNL A   1      44.051  22.012  25.009  1.00  0.00     0.060 A 
ATOM     45  C   UNL A   1      45.127  21.899  25.898  1.00  0.00     0.016 A 
ATOM     46  C   UNL A   1      43.674  23.231  24.443  1.00  0.00     0.016 A 
ATOM     47  C   UNL A   1      45.562  23.049  26.514  1.00  0.00     0.010 A 
ATOM     48  C   UNL A   1      44.037  24.367  25.121  1.00  0.00     0.010 A 
ATOM     49  C   UNL A   1      44.939  24.261  26.184  1.00  0.00    -0.014 A 
BRANCH  49  50
ATOM     50  C   UNL A   1      45.412  25.467  26.864  1.00  0.00     0.031 A 
ATOM     51  C   UNL A   1      44.213  26.088  27.593  1.00  0.00     0.074 A 
ATOM     52  C   UNL A   1      46.712  25.836  26.627  1.00  0.00     0.049 A 
ATOM     53  N   UNL A   1      43.766  27.306  27.563  1.00  0.00    -0.248 NA
ATOM     54  C   UNL A   1      43.236  25.186  28.275  1.00  0.00     0.031 C 
ATOM     55  C   UNL A   1      47.723  25.024  25.900  1.00  0.00     0.029 A 
ATOM     56  N   UNL A   1      47.460  26.953  26.937  1.00  0.00    -0.354 N 
ATOM     57  C   UNL A   1      42.655  27.344  28.438  1.00  0.00     0.074 A 
ATOM     58  C   UNL A   1      42.237  25.995  28.623  1.00  0.00     0.031 C 
ATOM     59  C   UNL A   1      48.889  25.700  25.763  1.00  0.00     0.029 A 
ATOM     60  C   UNL A   1      48.770  27.005  26.389  1.00  0.00     0.049 A 
ATOM     61  H   UNL A   1      47.105  27.673  27.507  1.00  0.00     0.167 HD
ATOM     62  C   UNL A   1      42.325  28.453  29.163  1.00  0.00     0.034 A 
ATOM     63  C   UNL A   1      49.663  28.050  26.401  1.00  0.00     0.034 A 
ATOM     64  C   UNL A   1      43.291  29.471  28.892  1.00  0.00     0.049 A 
ATOM     65  C   UNL A   1      49.023  29.079  27.232  1.00  0.00     0.074 A 
ATOM     66  C   UNL A   1      43.559  30.236  27.788  1.00  0.00     0.029 A 
ATOM     67  N   UNL A   1      44.387  29.450  29.726  1.00  0.00    -0.354 N 
ATOM     68  N   UNL A   1      48.918  29.026  28.527  1.00  0.00    -0.248 NA
ATOM     69  C   UNL A   1      48.324  30.182  26.561  1.00  0.00     0.031 C 
ATOM     70  C   UNL A   1      44.968  30.284  27.774  1.00  0.00     0.029 A 
ATOM     71  C   UNL A   1      45.481  29.780  28.976  1.00  0.00     0.049 A 
ATOM     72  H   UNL A   1      44.383  29.236  30.687  1.00  0.00     0.167 HD
ATOM     73  C   UNL A   1      47.844  29.853  28.748  1.00  0.00     0.074 A 
ATOM     74  C   UNL A   1      47.787  30.765  27.627  1.00  0.00     0.031 C 
ATOM     75  C   UNL A   1      46.784  29.396  29.466  1.00  0.00     0.034 A 
BRANCH  62  76
ATOM     76  C   UNL A   1      41.455  28.678  30.381  1.00  0.00     0.023 A 
ATOM     77  C   UNL A   1      40.423  29.644  30.201  1.00  0.00     0.012 A 
ATOM     78  C   UNL A   1      41.736  28.282  31.700  1.00  0.00     0.148 A 
ATOM     79  C   UNL A   1      39.822  30.304  31.268  1.00  0.00     0.002 A 
ATOM     80  C   UNL A   1      41.082  28.903  32.768  1.00  0.00     0.091 A 
ATOM     81  F   UNL A   1      42.679  27.370  31.940  1.00  0.00    -0.205 F 
ATOM     82  C   UNL A   1      40.168  29.945  32.556  1.00  0.00     0.022 A 
BRANCH  80  83
ATOM     83  S   UNL A   1      41.360  28.438  34.482  1.00  0.00     0.127 S 
ATOM     84  O   UNL A   1      41.108  27.001  34.451  1.00  0.00    -0.237 OA
ATOM     85  O   UNL A   1      42.768  28.803  34.662  1.00  0.00    -0.237 OA
ATOM     86  O   UNL A   1      40.436  29.242  35.268  1.00  0.00    -0.744 OA
ENDBRANCH  80  83
ENDBRANCH  62  76
BRANCH  63  87
ATOM     87  C   UNL A   1      50.973  28.443  25.740  1.00  0.00     0.023 A 
ATOM     88  C   UNL A   1      52.064  29.016  26.405  1.00  0.00     0.012 A 
ATOM     89  C   UNL A   1      51.173  28.193  24.341  1.00  0.00     0.148 A 
ATOM     90  C   UNL A   1      53.296  29.233  25.742  1.00  0.00     0.002 A 
ATOM     91  C   UNL A   1      52.416  28.284  23.724  1.00  0.00     0.091 A 
ATOM     92  F   UNL A   1      50.130  27.911  23.558  1.00  0.00    -0.205 F 
ATOM     93  C   UNL A   1      53.488  28.824  24.420  1.00  0.00     0.022 A 
BRANCH  91  94
ATOM     94  S   UNL A   1      52.714  27.593  22.081  1.00  0.00     0.127 S 
ATOM     95  O   UNL A   1      51.704  28.267  21.267  1.00  0.00    -0.237 OA
ATOM     96  O   UNL A   1      54.090  28.018  21.829  1.00  0.00    -0.237 OA
ATOM     97  O   UNL A   1      52.545  26.150  22.202  1.00  0.00    -0.744 OA
ENDBRANCH  91  94
ENDBRANCH  63  87
BRANCH  75  98
ATOM     98  C   UNL A   1      47.115  28.295  30.478  1.00  0.00     0.023 A 
ATOM     99  C   UNL A   1      46.688  26.989  30.165  1.00  0.00     0.012 A 
ATOM    100  C   UNL A   1      47.702  28.486  31.753  1.00  0.00     0.148 A 
ATOM    101  C   UNL A   1      46.815  25.932  31.072  1.00  0.00     0.002 A 
ATOM    102  C   UNL A   1      47.807  27.436  32.674  1.00  0.00     0.091 A 
ATOM    103  F   UNL A   1      48.164  29.694  32.062  1.00  0.00    -0.205 F 
ATOM    104  C   UNL A   1      47.367  26.154  32.327  1.00  0.00     0.022 A 
BRANCH 102 105
ATOM    105  S   UNL A   1      48.416  27.630  34.366  1.00  0.00     0.127 S 
ATOM    106  O   UNL A   1      47.477  28.601  34.933  1.00  0.00    -0.237 OA
ATOM    107  O   UNL A   1      48.273  26.280  34.904  1.00  0.00    -0.237 OA
ATOM    108  O   UNL A   1      49.786  28.118  34.260  1.00  0.00    -0.744 OA
ENDBRANCH 102 105
ENDBRANCH  75  98
ENDBRANCH  49  50
ENDBRANCH  42  44
ENDBRANCH  41  42
ENDBRANCH  40  41
ENDBRANCH  39  40
ENDBRANCH  38  39
ENDBRANCH  37  38
ENDBRANCH  36  37
ENDBRANCH  35  36
ENDBRANCH   1  35
TORSDOF 29
ENDMDL
MODEL 3
REMARK VINA RESULT:      -8.8      3.318      6.229
REMARK SMILES CN(C)S(=O)(=O)c1ccc(-n2c(CCC(=O)OCCOCCOCCOCCOC(=O)c3ccc(-c4c5nc(c(-c6cccc(S(=O)(=O)[O-])c6F)c6ccc([nH]6)c(-c6cccc(S(=O)(=O)[O-])c6F)c6nc(c(-c7cccc(S(=O)(=O)[O-])c7F)c7ccc4[nH]7)C=C6)C=C5)cc3)ccc2-c2ccc(F)cc2)cc1
REMARK SMILES IDX 22 1 21 2 20 3 19 4 18 5 17 6 15 7 16 8 14 9 13 10 12 11
REMARK SMILES IDX 11 12 97 13 95 14 96 15 10 16 7 17 8 18 106 19 9 20 105 21
REMARK SMILES IDX 4 22 5 23 6 24 2 25 1 26 3 27 98 28 99 29 104 30 100 31
REMARK SMILES IDX 103 32 101 33 102 34 23 35 24 36 25 37 26 38 27 39 28 40
REMARK SMILES IDX 29 41 30 42 31 43 32 44 33 45 94 46 34 47 93 48 35 49 36 50
REMARK SMILES IDX 37 51 87 52 38 53 92 54 86 55 88 56 39 57 91 58 85 59 84 60
REMARK SMILES IDX 40 62 72 63 52 64 71 65 53 66 56 67 70 68 89 69 54 70 55 71
REMARK SMILES IDX 69 73 90 74 57 75 41 76 42 77 50 78 43 79 45 80 51 81 44 82
REMARK SMILES IDX 46 83 47 84 48 85 49 86 73 87 74 88 82 89 75 90 77 91 83 92
REMARK SMILES IDX 76 93 78 94 79 95 80 96 81 97 58 98 59 99 67 100 60 101
REMARK SMILES IDX 62 102 68 103 61 104 63 105 64 106 65 107 66 108
REMARK H PARENT 88 61 56 72
REMARK Flexibility Score: inf
ROOT
ATOM      1  C   UNL A   1      35.881  23.398  23.505  1.00  0.00     0.188 C 
ENDROOT
BRANCH   1   2
ATOM      2  C   UNL A   1      34.614  23.033  22.721  1.00  0.00     0.188 C 
BRANCH   2   3
ATOM      3  O   UNL A   1      33.718  24.260  22.481  1.00  0.00    -0.376 OA
BRANCH   3   4
ATOM      4  C   UNL A   1      33.522  26.143  21.852  1.00  0.00     0.202 C 
BRANCH   4   5
ATOM      5  C   UNL A   1      32.132  27.135  21.586  1.00  0.00     0.261 C 
BRANCH   5   6
ATOM      6  O   UNL A   1      32.082  28.476  22.157  1.00  0.00    -0.463 OA
BRANCH   6   7
ATOM      7  C   UNL A   1      30.847  29.023  22.334  1.00  0.00     0.306 C 
ATOM      8  O   UNL A   1      30.139  29.410  21.407  1.00  0.00    -0.252 OA
BRANCH   7   9
ATOM      9  C   UNL A   1      30.340  29.028  23.780  1.00  0.00     0.129 C 
BRANCH   9  10
ATOM     10  C   UNL A   1      29.465  27.887  24.324  1.00  0.00     0.066 C 
BRANCH  10  11
ATOM     11  C   UNL A   1      30.097  26.547  24.240  1.00  0.00     0.024 A 
ATOM     12  N   UNL A   1      31.302  26.181  24.838  1.00  0.00    -0.314 N 
ATOM     13  C   UNL A   1      31.417  24.782  24.697  1.00  0.00     0.053 A 
ATOM     14  C   UNL A   1      29.629  25.470  23.511  1.00  0.00     0.024 A 
ATOM     15  C   UNL A   1      30.454  24.373  23.790  1.00  0.00     0.029 A 
BRANCH  12  16
ATOM     16  C   UNL A   1      32.219  27.046  25.537  1.00  0.00     0.046 A 
ATOM     17  C   UNL A   1      34.258  29.380  27.402  1.00  0.00     0.082 A 
ATOM     18  C   UNL A   1      32.709  28.790  28.074  1.00  0.00     0.024 A 
ATOM     19  C   UNL A   1      34.807  28.872  25.768  1.00  0.00     0.024 A 
ATOM     20  C   UNL A   1      31.716  27.601  27.179  1.00  0.00     0.028 A 
ATOM     21  C   UNL A   1      33.808  27.661  24.835  1.00  0.00     0.028 A 
BRANCH  17  22
ATOM     22  S   UNL A   1      35.304  30.200  28.552  1.00  0.00     0.242 S 
ATOM     23  O   UNL A   1      35.393  29.350  29.739  1.00  0.00    -0.207 OA
ATOM     24  O   UNL A   1      34.828  31.550  28.637  1.00  0.00    -0.207 OA
BRANCH  22  25
ATOM     25  N   UNL A   1      36.873  30.229  27.859  1.00  0.00    -0.204 NA
ATOM     26  C   UNL A   1      37.666  31.384  28.356  1.00  0.00     0.124 C 
ATOM     27  C   UNL A   1      37.666  28.984  28.002  1.00  0.00     0.124 C 
ENDBRANCH  22  25
ENDBRANCH  17  22
ENDBRANCH  12  16
BRANCH  13  28
ATOM     28  C   UNL A   1      32.312  23.875  25.433  1.00  0.00    -0.001 A 
ATOM     29  C   UNL A   1      33.445  24.373  26.096  1.00  0.00     0.013 A 
ATOM     30  C   UNL A   1      32.050  22.496  25.481  1.00  0.00     0.013 A 
ATOM     31  C   UNL A   1      34.255  23.521  26.853  1.00  0.00     0.040 A 
ATOM     32  C   UNL A   1      32.850  21.648  26.252  1.00  0.00     0.040 A 
ATOM     33  C   UNL A   1      33.940  22.170  26.937  1.00  0.00     0.123 A 
ATOM     34  F   UNL A   1      34.692  21.356  27.689  1.00  0.00    -0.207 F 
ENDBRANCH  13  28
ENDBRANCH  10  11
ENDBRANCH   9  10
ENDBRANCH   7   9
ENDBRANCH   6   7
ENDBRANCH   5   6
ENDBRANCH   4   5
ENDBRANCH   3   4
ENDBRANCH   2   3
ENDBRANCH   1   2
BRANCH   1  35
ATOM     35  O   UNL A   1      36.903  22.416  23.611  1.00  0.00    -0.377 OA
BRANCH  35  36
ATOM     36  C   UNL A   1      36.827  21.442  24.633  1.00  0.00     0.188 C 
BRANCH  36  37
ATOM     37  C   UNL A   1      38.088  21.167  25.456  1.00  0.00     0.188 C 
BRANCH  37  38
ATOM     38  O   UNL A   1      39.100  22.149  25.611  1.00  0.00    -0.376 OA
BRANCH  38  39
ATOM     39  C   UNL A   1      39.901  22.225  26.782  1.00  0.00     0.202 C 
BRANCH  39  40
ATOM     40  C   UNL A   1      41.375  21.821  26.817  1.00  0.00     0.261 C 
BRANCH  40  41
ATOM     41  O   UNL A   1      42.135  22.342  25.741  1.00  0.00    -0.460 OA
BRANCH  41  42
ATOM     42  C   UNL A   1      43.077  21.483  25.309  1.00  0.00     0.338 C 
ATOM     43  O   UNL A   1      43.025  20.261  25.333  1.00  0.00    -0.246 OA
BRANCH  42  44
ATOM     44  C   UNL A   1      44.288  22.208  24.907  1.00  0.00     0.060 A 
ATOM     45  C   UNL A   1      45.390  21.894  25.713  1.00  0.00     0.016 A 
ATOM     46  C   UNL A   1      43.970  23.521  24.556  1.00  0.00     0.016 A 
ATOM     47  C   UNL A   1      45.924  22.905  26.476  1.00  0.00     0.010 A 
ATOM     48  C   UNL A   1      44.436  24.513  25.381  1.00  0.00     0.010 A 
ATOM     49  C   UNL A   1      45.371  24.189  26.369  1.00  0.00    -0.014 A 
BRANCH  49  50
ATOM     50  C   UNL A   1      45.951  25.243  27.201  1.00  0.00     0.031 A 
ATOM     51  C   UNL A   1      47.376  25.502  26.693  1.00  0.00     0.074 A 
ATOM     52  C   UNL A   1      45.198  25.669  28.266  1.00  0.00     0.049 A 
ATOM     53  N   UNL A   1      48.494  25.542  27.351  1.00  0.00    -0.248 NA
ATOM     54  C   UNL A   1      47.631  25.494  25.222  1.00  0.00     0.031 C 
ATOM     55  C   UNL A   1      43.786  25.291  28.533  1.00  0.00     0.029 A 
ATOM     56  N   UNL A   1      45.446  26.497  29.341  1.00  0.00    -0.354 N 
ATOM     57  C   UNL A   1      49.501  25.844  26.404  1.00  0.00     0.074 A 
ATOM     58  C   UNL A   1      48.958  25.543  25.123  1.00  0.00     0.031 C 
ATOM     59  C   UNL A   1      43.351  25.812  29.707  1.00  0.00     0.029 A 
ATOM     60  C   UNL A   1      44.417  26.587  30.317  1.00  0.00     0.049 A 
ATOM     61  H   UNL A   1      46.289  26.998  29.426  1.00  0.00     0.167 HD
ATOM     62  C   UNL A   1      50.611  26.575  26.718  1.00  0.00     0.034 A 
ATOM     63  C   UNL A   1      44.454  27.200  31.547  1.00  0.00     0.034 A 
ATOM     64  C   UNL A   1      50.522  26.964  28.090  1.00  0.00     0.049 A 
ATOM     65  C   UNL A   1      45.758  27.873  31.590  1.00  0.00     0.074 A 
ATOM     66  C   UNL A   1      50.610  26.270  29.267  1.00  0.00     0.029 A 
ATOM     67  N   UNL A   1      49.873  28.161  28.298  1.00  0.00    -0.354 N 
ATOM     68  N   UNL A   1      46.056  28.955  30.934  1.00  0.00    -0.248 NA
ATOM     69  C   UNL A   1      46.859  27.218  32.308  1.00  0.00     0.031 C 
ATOM     70  C   UNL A   1      49.611  26.870  30.061  1.00  0.00     0.029 A 
ATOM     71  C   UNL A   1      49.143  28.040  29.448  1.00  0.00     0.049 A 
ATOM     72  H   UNL A   1      49.926  28.959  27.724  1.00  0.00     0.167 HD
ATOM     73  C   UNL A   1      47.424  28.865  30.863  1.00  0.00     0.074 A 
ATOM     74  C   UNL A   1      47.843  28.048  31.981  1.00  0.00     0.031 C 
ATOM     75  C   UNL A   1      48.038  28.947  29.653  1.00  0.00     0.034 A 
BRANCH  62  76
ATOM     76  C   UNL A   1      51.633  27.320  25.888  1.00  0.00     0.023 A 
ATOM     77  C   UNL A   1      52.917  26.704  25.834  1.00  0.00     0.012 A 
ATOM     78  C   UNL A   1      51.545  28.650  25.438  1.00  0.00     0.148 A 
ATOM     79  C   UNL A   1      54.074  27.410  25.518  1.00  0.00     0.002 A 
ATOM     80  C   UNL A   1      52.701  29.336  25.060  1.00  0.00     0.091 A 
ATOM     81  F   UNL A   1      50.370  29.282  25.445  1.00  0.00    -0.205 F 
ATOM     82  C   UNL A   1      53.966  28.737  25.148  1.00  0.00     0.022 A 
BRANCH  80  83
ATOM     83  S   UNL A   1      52.674  31.026  24.448  1.00  0.00     0.127 S 
ATOM     84  O   UNL A   1      52.328  31.778  25.651  1.00  0.00    -0.237 OA
ATOM     85  O   UNL A   1      54.057  31.201  24.000  1.00  0.00    -0.237 OA
ATOM     86  O   UNL A   1      51.697  31.043  23.369  1.00  0.00    -0.744 OA
ENDBRANCH  80  83
ENDBRANCH  62  76
BRANCH  63  87
ATOM     87  C   UNL A   1      43.625  27.261  32.820  1.00  0.00     0.023 A 
ATOM     88  C   UNL A   1      42.746  28.299  33.150  1.00  0.00     0.012 A 
ATOM     89  C   UNL A   1      43.682  26.184  33.765  1.00  0.00     0.148 A 
ATOM     90  C   UNL A   1      41.914  28.219  34.294  1.00  0.00     0.002 A 
ATOM     91  C   UNL A   1      42.778  26.043  34.812  1.00  0.00     0.091 A 
ATOM     92  F   UNL A   1      44.670  25.288  33.697  1.00  0.00    -0.205 F 
ATOM     93  C   UNL A   1      41.893  27.075  35.095  1.00  0.00     0.022 A 
BRANCH  91  94
ATOM     94  S   UNL A   1      42.625  24.497  35.735  1.00  0.00     0.127 S 
ATOM     95  O   UNL A   1      41.385  24.697  36.481  1.00  0.00    -0.237 OA
ATOM     96  O   UNL A   1      42.540  23.517  34.653  1.00  0.00    -0.237 OA
ATOM     97  O   UNL A   1      43.827  24.384  36.553  1.00  0.00    -0.744 OA
ENDBRANCH  91  94
ENDBRANCH  63  87
BRANCH  75  98
ATOM     98  C   UNL A   1      47.275  29.745  28.593  1.00  0.00     0.023 A 
ATOM     99  C   UNL A   1      46.637  29.009  27.575  1.00  0.00     0.012 A 
ATOM    100  C   UNL A   1      47.253  31.156  28.471  1.00  0.00     0.148 A 
ATOM    101  C   UNL A   1      46.026  29.634  26.483  1.00  0.00     0.002 A 
ATOM    102  C   UNL A   1      46.665  31.785  27.365  1.00  0.00     0.091 A 
ATOM    103  F   UNL A   1      47.800  31.884  29.439  1.00  0.00    -0.205 F 
ATOM    104  C   UNL A   1      46.044  31.019  26.372  1.00  0.00     0.022 A 
BRANCH 102 105
ATOM    105  S   UNL A   1      46.715  33.568  27.068  1.00  0.00     0.127 S 
ATOM    106  O   UNL A   1      46.147  33.683  25.722  1.00  0.00    -0.237 OA
ATOM    107  O   UNL A   1      45.849  34.083  28.125  1.00  0.00    -0.237 OA
ATOM    108  O   UNL A   1      48.115  33.964  27.159  1.00  0.00    -0.744 OA
ENDBRANCH 102 105
ENDBRANCH  75  98
ENDBRANCH  49  50
ENDBRANCH  42  44
ENDBRANCH  41  42
ENDBRANCH  40  41
ENDBRANCH  39  40
ENDBRANCH  38  39
ENDBRANCH  37  38
ENDBRANCH  36  37
ENDBRANCH  35  36
ENDBRANCH   1  35
TORSDOF 29
ENDMDL
