MODEL 1
REMARK VINA RESULT:      -8.2      0.000      0.000
REMARK SMILES COc1cccc(CSc2nc3ccccc3c(=O)n2CCC(=O)OCCOCCOCCOCCOC(=O)c2ccc(-c3c4nc(c(-c5cccc(S(=O)(=O)[O-])c5F)c5ccc([nH]5)c(-c5cccc(S(=O)(=O)[O-])c5F)c5nc(c(-c6cccc(S(=O)(=O)[O-])c6F)c6ccc3[nH]6)C=C5)C=C4)cc2)c1
REMARK SMILES IDX 29 1 28 2 27 3 26 4 25 5 23 6 24 7 22 8 21 9 20 10 10 11
REMARK SMILES IDX 11 12 12 13 18 14 13 15 17 16 19 17 14 18 16 19 15 20 9 21
REMARK SMILES IDX 8 22 7 23 3 24 4 25 103 26 5 27 6 28 2 29 1 30 30 31 31 32
REMARK SMILES IDX 32 33 33 34 34 35 35 36 36 37 37 38 38 39 39 40 40 41 41 42
REMARK SMILES IDX 102 43 42 44 101 45 43 46 44 47 45 48 95 49 46 50 100 51
REMARK SMILES IDX 94 52 96 53 47 54 99 55 93 56 92 57 48 59 80 60 60 61 79 62
REMARK SMILES IDX 61 63 64 64 78 65 97 66 62 67 63 68 77 70 98 71 65 72 49 73
REMARK SMILES IDX 50 74 58 75 51 76 53 77 59 78 52 79 54 80 55 81 56 82 57 83
REMARK SMILES IDX 81 84 82 85 90 86 83 87 85 88 91 89 84 90 86 91 87 92 88 93
REMARK SMILES IDX 89 94 66 95 67 96 75 97 68 98 70 99 76 100 69 101 71 102
REMARK SMILES IDX 72 103 73 104 74 105
REMARK H PARENT 96 58 64 69
REMARK Flexibility Score: inf
ROOT
ATOM      1  C   UNL A   1      35.868  32.956  30.490  1.00  0.00     0.188 C 
ENDROOT
BRANCH   1   2
ATOM      2  O   UNL A   1      36.539  33.112  29.260  1.00  0.00    -0.376 OA
BRANCH   2   3
ATOM      3  C   UNL A   1      37.027  31.923  28.626  1.00  0.00     0.202 C 
BRANCH   3   4
ATOM      4  C   UNL A   1      36.149  30.635  28.550  1.00  0.00     0.261 C 
BRANCH   4   5
ATOM      5  O   UNL A   1      35.595  30.205  27.271  1.00  0.00    -0.463 OA
BRANCH   5   6
ATOM      6  C   UNL A   1      34.270  29.873  27.209  1.00  0.00     0.307 C 
ATOM      7  O   UNL A   1      33.360  30.687  27.341  1.00  0.00    -0.252 OA
BRANCH   6   8
ATOM      8  C   UNL A   1      33.988  28.358  27.056  1.00  0.00     0.144 C 
BRANCH   8   9
ATOM      9  C   UNL A   1      32.622  27.731  26.655  1.00  0.00     0.140 C 
BRANCH   9  10
ATOM     10  N   UNL A   1      32.688  26.571  25.790  1.00  0.00    -0.286 N 
ATOM     11  C   UNL A   1      32.876  26.682  24.465  1.00  0.00     0.171 A 
ATOM     12  N   UNL A   1      33.710  25.935  23.821  1.00  0.00    -0.224 NA
ATOM     13  C   UNL A   1      34.164  24.807  24.523  1.00  0.00     0.079 A 
ATOM     14  C   UNL A   1      32.455  25.275  26.199  1.00  0.00     0.262 A 
ATOM     15  C   UNL A   1      35.300  24.107  24.139  1.00  0.00     0.029 A 
ATOM     16  C   UNL A   1      33.339  24.281  25.527  1.00  0.00     0.066 A 
ATOM     17  O   UNL A   1      31.634  24.960  27.051  1.00  0.00    -0.269 OA
ATOM     18  C   UNL A   1      35.537  22.842  24.683  1.00  0.00     0.002 A 
ATOM     19  C   UNL A   1      33.488  22.974  25.973  1.00  0.00     0.016 A 
ATOM     20  C   UNL A   1      34.597  22.252  25.538  1.00  0.00     0.001 A 
BRANCH  11  21
ATOM     21  S   UNL A   1      31.800  27.635  23.565  1.00  0.00    -0.083 SA
BRANCH  21  22
ATOM     22  C   UNL A   1      30.029  27.366  23.650  1.00  0.00     0.113 C 
BRANCH  22  23
ATOM     23  C   UNL A   1      29.261  28.617  23.349  1.00  0.00    -0.034 A 
ATOM     24  C   UNL A   1      29.057  31.012  23.573  1.00  0.00     0.119 A 
ATOM     25  C   UNL A   1      27.741  30.937  23.114  1.00  0.00     0.046 A 
ATOM     26  C   UNL A   1      29.808  29.849  23.699  1.00  0.00     0.051 A 
ATOM     27  C   UNL A   1      27.212  29.722  22.685  1.00  0.00     0.004 A 
ATOM     28  C   UNL A   1      27.986  28.573  22.768  1.00  0.00     0.005 A 
BRANCH  24  29
ATOM     29  O   UNL A   1      29.512  32.260  23.901  1.00  0.00    -0.497 OA
ATOM     30  C   UNL A   1      29.023  33.315  23.078  1.00  0.00     0.278 C 
ENDBRANCH  24  29
ENDBRANCH  22  23
ENDBRANCH  21  22
ENDBRANCH  11  21
ENDBRANCH   9  10
ENDBRANCH   8   9
ENDBRANCH   6   8
ENDBRANCH   5   6
ENDBRANCH   4   5
ENDBRANCH   3   4
ENDBRANCH   2   3
ENDBRANCH   1   2
BRANCH   1  31
ATOM     31  C   UNL A   1      36.647  32.652  31.782  1.00  0.00     0.188 C 
BRANCH  31  32
ATOM     32  O   UNL A   1      36.884  33.649  32.749  1.00  0.00    -0.377 OA
BRANCH  32  33
ATOM     33  C   UNL A   1      36.487  33.307  34.060  1.00  0.00     0.188 C 
BRANCH  33  34
ATOM     34  C   UNL A   1      37.572  33.363  35.158  1.00  0.00     0.188 C 
BRANCH  34  35
ATOM     35  O   UNL A   1      37.495  32.362  36.166  1.00  0.00    -0.376 OA
BRANCH  35  36
ATOM     36  C   UNL A   1      38.719  32.005  36.826  1.00  0.00     0.202 C 
BRANCH  36  37
ATOM     37  C   UNL A   1      40.049  31.869  36.036  1.00  0.00     0.261 C 
BRANCH  37  38
ATOM     38  O   UNL A   1      39.953  31.386  34.695  1.00  0.00    -0.460 OA
BRANCH  38  39
ATOM     39  C   UNL A   1      39.454  30.146  34.547  1.00  0.00     0.338 C 
ATOM     40  O   UNL A   1      38.305  29.849  34.241  1.00  0.00    -0.246 OA
BRANCH  39  41
ATOM     41  C   UNL A   1      40.576  29.200  34.588  1.00  0.00     0.060 A 
ATOM     42  C   UNL A   1      41.217  29.003  35.817  1.00  0.00     0.016 A 
ATOM     43  C   UNL A   1      41.015  28.543  33.436  1.00  0.00     0.016 A 
ATOM     44  C   UNL A   1      42.303  28.148  35.906  1.00  0.00     0.010 A 
ATOM     45  C   UNL A   1      42.150  27.733  33.511  1.00  0.00     0.010 A 
ATOM     46  C   UNL A   1      42.814  27.570  34.740  1.00  0.00    -0.014 A 
BRANCH  46  47
ATOM     47  C   UNL A   1      44.210  27.095  34.786  1.00  0.00     0.031 A 
ATOM     48  C   UNL A   1      45.285  28.117  34.530  1.00  0.00     0.074 A 
ATOM     49  C   UNL A   1      44.511  25.833  35.124  1.00  0.00     0.049 A 
ATOM     50  N   UNL A   1      46.582  27.981  34.555  1.00  0.00    -0.248 NA
ATOM     51  C   UNL A   1      44.828  29.484  34.216  1.00  0.00     0.031 C 
ATOM     52  C   UNL A   1      43.541  24.786  35.443  1.00  0.00     0.029 A 
ATOM     53  N   UNL A   1      45.730  25.219  35.247  1.00  0.00    -0.354 N 
ATOM     54  C   UNL A   1      47.093  29.234  34.239  1.00  0.00     0.074 A 
ATOM     55  C   UNL A   1      45.972  30.117  34.022  1.00  0.00     0.031 C 
ATOM     56  C   UNL A   1      44.206  23.645  35.698  1.00  0.00     0.029 A 
ATOM     57  C   UNL A   1      45.640  23.879  35.534  1.00  0.00     0.049 A 
ATOM     58  H   UNL A   1      46.586  25.693  35.141  1.00  0.00     0.167 HD
ATOM     59  C   UNL A   1      48.386  29.617  34.141  1.00  0.00     0.034 A 
ATOM     60  C   UNL A   1      46.614  22.953  35.623  1.00  0.00     0.034 A 
ATOM     61  C   UNL A   1      49.490  28.723  34.342  1.00  0.00     0.049 A 
ATOM     62  C   UNL A   1      48.048  23.389  35.446  1.00  0.00     0.074 A 
ATOM     63  C   UNL A   1      50.842  28.996  34.274  1.00  0.00     0.029 A 
ATOM     64  N   UNL A   1      49.363  27.372  34.629  1.00  0.00    -0.354 N 
ATOM     65  N   UNL A   1      48.527  24.591  35.226  1.00  0.00    -0.248 NA
ATOM     66  C   UNL A   1      49.079  22.347  35.559  1.00  0.00     0.031 C 
ATOM     67  C   UNL A   1      51.535  27.798  34.478  1.00  0.00     0.029 A 
ATOM     68  C   UNL A   1      50.614  26.791  34.727  1.00  0.00     0.049 A 
ATOM     69  H   UNL A   1      48.509  26.896  34.745  1.00  0.00     0.167 HD
ATOM     70  C   UNL A   1      49.911  24.460  35.222  1.00  0.00     0.074 A 
ATOM     71  C   UNL A   1      50.194  23.060  35.469  1.00  0.00     0.031 C 
ATOM     72  C   UNL A   1      50.865  25.404  35.028  1.00  0.00     0.034 A 
BRANCH  59  73
ATOM     73  C   UNL A   1      48.660  31.052  33.783  1.00  0.00     0.023 A 
ATOM     74  C   UNL A   1      48.806  32.018  34.798  1.00  0.00     0.012 A 
ATOM     75  C   UNL A   1      48.784  31.441  32.434  1.00  0.00     0.148 A 
ATOM     76  C   UNL A   1      49.034  33.357  34.477  1.00  0.00     0.002 A 
ATOM     77  C   UNL A   1      49.061  32.766  32.124  1.00  0.00     0.091 A 
ATOM     78  F   UNL A   1      48.610  30.512  31.483  1.00  0.00    -0.205 F 
ATOM     79  C   UNL A   1      49.171  33.728  33.141  1.00  0.00     0.022 A 
BRANCH  77  80
ATOM     80  S   UNL A   1      49.332  33.327  30.440  1.00  0.00     0.127 S 
ATOM     81  O   UNL A   1      49.666  34.736  30.648  1.00  0.00    -0.237 OA
ATOM     82  O   UNL A   1      50.455  32.490  30.017  1.00  0.00    -0.237 OA
ATOM     83  O   UNL A   1      48.088  33.081  29.727  1.00  0.00    -0.744 OA
ENDBRANCH  77  80
ENDBRANCH  59  73
BRANCH  60  84
ATOM     84  C   UNL A   1      46.272  21.531  35.908  1.00  0.00     0.023 A 
ATOM     85  C   UNL A   1      45.775  20.709  34.879  1.00  0.00     0.012 A 
ATOM     86  C   UNL A   1      46.446  20.987  37.197  1.00  0.00     0.148 A 
ATOM     87  C   UNL A   1      45.424  19.382  35.135  1.00  0.00     0.002 A 
ATOM     88  C   UNL A   1      46.145  19.652  37.433  1.00  0.00     0.091 A 
ATOM     89  F   UNL A   1      46.918  21.786  38.164  1.00  0.00    -0.205 F 
ATOM     90  C   UNL A   1      45.616  18.852  36.407  1.00  0.00     0.022 A 
BRANCH  88  91
ATOM     91  S   UNL A   1      46.466  18.851  39.008  1.00  0.00     0.127 S 
ATOM     92  O   UNL A   1      45.868  19.793  39.951  1.00  0.00    -0.237 OA
ATOM     93  O   UNL A   1      45.743  17.590  38.853  1.00  0.00    -0.237 OA
ATOM     94  O   UNL A   1      47.914  18.712  39.096  1.00  0.00    -0.744 OA
ENDBRANCH  88  91
ENDBRANCH  60  84
BRANCH  72  95
ATOM     95  C   UNL A   1      52.306  24.982  35.137  1.00  0.00     0.023 A 
ATOM     96  C   UNL A   1      52.941  24.942  36.392  1.00  0.00     0.012 A 
ATOM     97  C   UNL A   1      52.995  24.527  33.994  1.00  0.00     0.148 A 
ATOM     98  C   UNL A   1      54.255  24.485  36.504  1.00  0.00     0.002 A 
ATOM     99  C   UNL A   1      54.281  24.020  34.122  1.00  0.00     0.091 A 
ATOM    100  F   UNL A   1      52.374  24.586  32.807  1.00  0.00    -0.205 F 
ATOM    101  C   UNL A   1      54.918  24.012  35.373  1.00  0.00     0.022 A 
BRANCH  99 102
ATOM    102  S   UNL A   1      55.172  23.292  32.742  1.00  0.00     0.127 S 
ATOM    103  O   UNL A   1      54.410  22.066  32.511  1.00  0.00    -0.237 OA
ATOM    104  O   UNL A   1      55.018  24.311  31.704  1.00  0.00    -0.237 OA
ATOM    105  O   UNL A   1      56.541  23.098  33.203  1.00  0.00    -0.744 OA
ENDBRANCH  99 102
ENDBRANCH  72  95
ENDBRANCH  46  47
ENDBRANCH  39  41
ENDBRANCH  38  39
ENDBRANCH  37  38
ENDBRANCH  36  37
ENDBRANCH  35  36
ENDBRANCH  34  35
ENDBRANCH  33  34
ENDBRANCH  32  33
ENDBRANCH  31  32
ENDBRANCH   1  31
TORSDOF 29
ENDMDL
MODEL 2
REMARK VINA RESULT:      -7.5      6.432     11.157
REMARK SMILES COc1cccc(CSc2nc3ccccc3c(=O)n2CCC(=O)OCCOCCOCCOCCOC(=O)c2ccc(-c3c4nc(c(-c5cccc(S(=O)(=O)[O-])c5F)c5ccc([nH]5)c(-c5cccc(S(=O)(=O)[O-])c5F)c5nc(c(-c6cccc(S(=O)(=O)[O-])c6F)c6ccc3[nH]6)C=C5)C=C4)cc2)c1
REMARK SMILES IDX 29 1 28 2 27 3 26 4 25 5 23 6 24 7 22 8 21 9 20 10 10 11
REMARK SMILES IDX 11 12 12 13 18 14 13 15 17 16 19 17 14 18 16 19 15 20 9 21
REMARK SMILES IDX 8 22 7 23 3 24 4 25 103 26 5 27 6 28 2 29 1 30 30 31 31 32
REMARK SMILES IDX 32 33 33 34 34 35 35 36 36 37 37 38 38 39 39 40 40 41 41 42
REMARK SMILES IDX 102 43 42 44 101 45 43 46 44 47 45 48 95 49 46 50 100 51
REMARK SMILES IDX 94 52 96 53 47 54 99 55 93 56 92 57 48 59 80 60 60 61 79 62
REMARK SMILES IDX 61 63 64 64 78 65 97 66 62 67 63 68 77 70 98 71 65 72 49 73
REMARK SMILES IDX 50 74 58 75 51 76 53 77 59 78 52 79 54 80 55 81 56 82 57 83
REMARK SMILES IDX 81 84 82 85 90 86 83 87 85 88 91 89 84 90 86 91 87 92 88 93
REMARK SMILES IDX 89 94 66 95 67 96 75 97 68 98 70 99 76 100 69 101 71 102
REMARK SMILES IDX 72 103 73 104 74 105
REMARK H PARENT 96 58 64 69
REMARK Flexibility Score: inf
ROOT
ATOM      1  C   UNL A   1      38.985  29.327  33.033  1.00  0.00     0.188 C 
ENDROOT
BRANCH   1   2
ATOM      2  O   UNL A   1      38.915  27.934  32.824  1.00  0.00    -0.376 OA
BRANCH   2   3
ATOM      3  C   UNL A   1      38.405  27.487  31.562  1.00  0.00     0.202 C 
BRANCH   3   4
ATOM      4  C   UNL A   1      38.485  28.396  30.296  1.00  0.00     0.261 C 
BRANCH   4   5
ATOM      5  O   UNL A   1      39.690  28.397  29.473  1.00  0.00    -0.463 OA
BRANCH   5   6
ATOM      6  C   UNL A   1      39.586  28.757  28.159  1.00  0.00     0.307 C 
ATOM      7  O   UNL A   1      38.950  29.734  27.771  1.00  0.00    -0.252 OA
BRANCH   6   8
ATOM      8  C   UNL A   1      40.255  27.777  27.164  1.00  0.00     0.144 C 
BRANCH   8   9
ATOM      9  C   UNL A   1      40.934  26.429  27.544  1.00  0.00     0.140 C 
BRANCH   9  10
ATOM     10  N   UNL A   1      42.382  26.435  27.570  1.00  0.00    -0.286 N 
ATOM     11  C   UNL A   1      43.095  25.306  27.708  1.00  0.00     0.171 A 
ATOM     12  N   UNL A   1      44.131  25.049  26.978  1.00  0.00    -0.224 NA
ATOM     13  C   UNL A   1      44.643  26.145  26.266  1.00  0.00     0.079 A 
ATOM     14  C   UNL A   1      43.160  27.573  27.574  1.00  0.00     0.262 A 
ATOM     15  C   UNL A   1      45.505  25.987  25.189  1.00  0.00     0.029 A 
ATOM     16  C   UNL A   1      44.412  27.429  26.779  1.00  0.00     0.066 A 
ATOM     17  O   UNL A   1      42.852  28.615  28.139  1.00  0.00    -0.269 OA
ATOM     18  C   UNL A   1      46.207  27.095  24.710  1.00  0.00     0.002 A 
ATOM     19  C   UNL A   1      45.201  28.509  26.405  1.00  0.00     0.016 A 
ATOM     20  C   UNL A   1      46.110  28.331  25.363  1.00  0.00     0.001 A 
BRANCH  11  21
ATOM     21  S   UNL A   1      42.801  24.313  29.051  1.00  0.00    -0.083 SA
BRANCH  21  22
ATOM     22  C   UNL A   1      42.872  22.527  28.917  1.00  0.00     0.113 C 
BRANCH  22  23
ATOM     23  C   UNL A   1      41.926  22.009  27.876  1.00  0.00    -0.034 A 
ATOM     24  C   UNL A   1      39.823  22.232  26.711  1.00  0.00     0.119 A 
ATOM     25  C   UNL A   1      39.977  20.942  26.199  1.00  0.00     0.046 A 
ATOM     26  C   UNL A   1      40.795  22.755  27.557  1.00  0.00     0.051 A 
ATOM     27  C   UNL A   1      41.141  20.220  26.446  1.00  0.00     0.004 A 
ATOM     28  C   UNL A   1      42.128  20.770  27.252  1.00  0.00     0.005 A 
BRANCH  24  29
ATOM     29  O   UNL A   1      38.679  22.892  26.352  1.00  0.00    -0.497 OA
ATOM     30  C   UNL A   1      37.769  22.133  25.562  1.00  0.00     0.278 C 
ENDBRANCH  24  29
ENDBRANCH  22  23
ENDBRANCH  21  22
ENDBRANCH  11  21
ENDBRANCH   9  10
ENDBRANCH   8   9
ENDBRANCH   6   8
ENDBRANCH   5   6
ENDBRANCH   4   5
ENDBRANCH   3   4
ENDBRANCH   2   3
ENDBRANCH   1   2
BRANCH   1  31
ATOM     31  C   UNL A   1      40.049  29.934  33.964  1.00  0.00     0.188 C 
BRANCH  31  32
ATOM     32  O   UNL A   1      40.238  29.454  35.275  1.00  0.00    -0.377 OA
BRANCH  32  33
ATOM     33  C   UNL A   1      41.505  28.881  35.518  1.00  0.00     0.188 C 
BRANCH  33  34
ATOM     34  C   UNL A   1      41.951  27.740  34.576  1.00  0.00     0.188 C 
BRANCH  34  35
ATOM     35  O   UNL A   1      41.835  26.421  35.094  1.00  0.00    -0.376 OA
BRANCH  35  36
ATOM     36  C   UNL A   1      43.018  25.609  35.086  1.00  0.00     0.202 C 
BRANCH  36  37
ATOM     37  C   UNL A   1      44.431  26.248  35.006  1.00  0.00     0.261 C 
BRANCH  37  38
ATOM     38  O   UNL A   1      45.390  25.586  34.181  1.00  0.00    -0.460 OA
BRANCH  38  39
ATOM     39  C   UNL A   1      45.013  25.344  32.912  1.00  0.00     0.338 C 
ATOM     40  O   UNL A   1      44.252  24.465  32.528  1.00  0.00    -0.246 OA
BRANCH  39  41
ATOM     41  C   UNL A   1      45.487  26.459  32.082  1.00  0.00     0.060 A 
ATOM     42  C   UNL A   1      45.556  26.257  30.699  1.00  0.00     0.016 A 
ATOM     43  C   UNL A   1      45.887  27.670  32.651  1.00  0.00     0.016 A 
ATOM     44  C   UNL A   1      46.027  27.263  29.872  1.00  0.00     0.010 A 
ATOM     45  C   UNL A   1      46.424  28.661  31.826  1.00  0.00     0.010 A 
ATOM     46  C   UNL A   1      46.529  28.436  30.442  1.00  0.00    -0.014 A 
BRANCH  46  47
ATOM     47  C   UNL A   1      47.449  29.241  29.615  1.00  0.00     0.031 A 
ATOM     48  C   UNL A   1      46.863  30.432  28.908  1.00  0.00     0.074 A 
ATOM     49  C   UNL A   1      48.763  28.973  29.564  1.00  0.00     0.049 A 
ATOM     50  N   UNL A   1      47.451  31.326  28.161  1.00  0.00    -0.248 NA
ATOM     51  C   UNL A   1      45.414  30.649  29.081  1.00  0.00     0.031 C 
ATOM     52  C   UNL A   1      49.432  27.873  30.258  1.00  0.00     0.029 A 
ATOM     53  N   UNL A   1      49.767  29.611  28.886  1.00  0.00    -0.354 N 
ATOM     54  C   UNL A   1      46.443  32.195  27.760  1.00  0.00     0.074 A 
ATOM     55  C   UNL A   1      45.208  31.723  28.338  1.00  0.00     0.031 C 
ATOM     56  C   UNL A   1      50.739  27.897  29.944  1.00  0.00     0.029 A 
ATOM     57  C   UNL A   1      50.988  28.994  29.009  1.00  0.00     0.049 A 
ATOM     58  H   UNL A   1      49.627  30.432  28.361  1.00  0.00     0.167 HD
ATOM     59  C   UNL A   1      46.540  33.294  26.978  1.00  0.00     0.034 A 
ATOM     60  C   UNL A   1      52.159  29.278  28.408  1.00  0.00     0.034 A 
ATOM     61  C   UNL A   1      47.772  33.741  26.396  1.00  0.00     0.049 A 
ATOM     62  C   UNL A   1      52.230  30.472  27.487  1.00  0.00     0.074 A 
ATOM     63  C   UNL A   1      47.996  34.841  25.591  1.00  0.00     0.029 A 
ATOM     64  N   UNL A   1      48.989  33.091  26.540  1.00  0.00    -0.354 N 
ATOM     65  N   UNL A   1      51.292  31.334  27.176  1.00  0.00    -0.248 NA
ATOM     66  C   UNL A   1      53.529  30.750  26.858  1.00  0.00     0.031 C 
ATOM     67  C   UNL A   1      49.342  34.833  25.213  1.00  0.00     0.029 A 
ATOM     68  C   UNL A   1      49.968  33.758  25.827  1.00  0.00     0.049 A 
ATOM     69  H   UNL A   1      49.135  32.275  27.072  1.00  0.00     0.167 HD
ATOM     70  C   UNL A   1      51.895  32.282  26.355  1.00  0.00     0.074 A 
ATOM     71  C   UNL A   1      53.284  31.889  26.225  1.00  0.00     0.031 C 
ATOM     72  C   UNL A   1      51.355  33.374  25.760  1.00  0.00     0.034 A 
BRANCH  59  73
ATOM     73  C   UNL A   1      45.277  34.062  26.701  1.00  0.00     0.023 A 
ATOM     74  C   UNL A   1      44.484  33.739  25.581  1.00  0.00     0.012 A 
ATOM     75  C   UNL A   1      44.867  35.099  27.562  1.00  0.00     0.148 A 
ATOM     76  C   UNL A   1      43.324  34.461  25.299  1.00  0.00     0.002 A 
ATOM     77  C   UNL A   1      43.685  35.781  27.303  1.00  0.00     0.091 A 
ATOM     78  F   UNL A   1      45.651  35.412  28.603  1.00  0.00    -0.205 F 
ATOM     79  C   UNL A   1      42.920  35.474  26.166  1.00  0.00     0.022 A 
BRANCH  77  80
ATOM     80  S   UNL A   1      43.040  37.047  28.401  1.00  0.00     0.127 S 
ATOM     81  O   UNL A   1      41.814  37.443  27.709  1.00  0.00    -0.237 OA
ATOM     82  O   UNL A   1      42.827  36.298  29.639  1.00  0.00    -0.237 OA
ATOM     83  O   UNL A   1      44.069  38.074  28.481  1.00  0.00    -0.744 OA
ENDBRANCH  77  80
ENDBRANCH  59  73
BRANCH  60  84
ATOM     84  C   UNL A   1      53.359  28.433  28.667  1.00  0.00     0.023 A 
ATOM     85  C   UNL A   1      53.621  27.317  27.850  1.00  0.00     0.012 A 
ATOM     86  C   UNL A   1      54.247  28.739  29.718  1.00  0.00     0.148 A 
ATOM     87  C   UNL A   1      54.726  26.500  28.096  1.00  0.00     0.002 A 
ATOM     88  C   UNL A   1      55.374  27.952  29.924  1.00  0.00     0.091 A 
ATOM     89  F   UNL A   1      53.979  29.804  30.486  1.00  0.00    -0.205 F 
ATOM     90  C   UNL A   1      55.605  26.821  29.125  1.00  0.00     0.022 A 
BRANCH  88  91
ATOM     91  S   UNL A   1      56.622  28.353  31.151  1.00  0.00     0.127 S 
ATOM     92  O   UNL A   1      57.588  27.275  30.960  1.00  0.00    -0.237 OA
ATOM     93  O   UNL A   1      57.069  29.670  30.701  1.00  0.00    -0.237 OA
ATOM     94  O   UNL A   1      55.932  28.354  32.435  1.00  0.00    -0.744 OA
ENDBRANCH  88  91
ENDBRANCH  60  84
BRANCH  72  95
ATOM     95  C   UNL A   1      52.271  34.266  24.964  1.00  0.00     0.023 A 
ATOM     96  C   UNL A   1      52.505  34.008  23.600  1.00  0.00     0.012 A 
ATOM     97  C   UNL A   1      52.818  35.422  25.557  1.00  0.00     0.148 A 
ATOM     98  C   UNL A   1      53.297  34.873  22.845  1.00  0.00     0.002 A 
ATOM     99  C   UNL A   1      53.558  36.307  24.785  1.00  0.00     0.091 A 
ATOM    100  F   UNL A   1      52.592  35.640  26.861  1.00  0.00    -0.205 F 
ATOM    101  C   UNL A   1      53.811  36.027  23.433  1.00  0.00     0.022 A 
BRANCH  99 102
ATOM    102  S   UNL A   1      54.168  37.869  25.428  1.00  0.00     0.127 S 
ATOM    103  O   UNL A   1      54.990  38.347  24.318  1.00  0.00    -0.237 OA
ATOM    104  O   UNL A   1      52.930  38.621  25.638  1.00  0.00    -0.237 OA
ATOM    105  O   UNL A   1      54.895  37.547  26.650  1.00  0.00    -0.744 OA
ENDBRANCH  99 102
ENDBRANCH  72  95
ENDBRANCH  46  47
ENDBRANCH  39  41
ENDBRANCH  38  39
ENDBRANCH  37  38
ENDBRANCH  36  37
ENDBRANCH  35  36
ENDBRANCH  34  35
ENDBRANCH  33  34
ENDBRANCH  32  33
ENDBRANCH  31  32
ENDBRANCH   1  31
TORSDOF 29
ENDMDL
MODEL 3
REMARK VINA RESULT:      -7.5      5.533      9.146
REMARK SMILES COc1cccc(CSc2nc3ccccc3c(=O)n2CCC(=O)OCCOCCOCCOCCOC(=O)c2ccc(-c3c4nc(c(-c5cccc(S(=O)(=O)[O-])c5F)c5ccc([nH]5)c(-c5cccc(S(=O)(=O)[O-])c5F)c5nc(c(-c6cccc(S(=O)(=O)[O-])c6F)c6ccc3[nH]6)C=C5)C=C4)cc2)c1
REMARK SMILES IDX 29 1 28 2 27 3 26 4 25 5 23 6 24 7 22 8 21 9 20 10 10 11
REMARK SMILES IDX 11 12 12 13 18 14 13 15 17 16 19 17 14 18 16 19 15 20 9 21
REMARK SMILES IDX 8 22 7 23 3 24 4 25 103 26 5 27 6 28 2 29 1 30 30 31 31 32
REMARK SMILES IDX 32 33 33 34 34 35 35 36 36 37 37 38 38 39 39 40 40 41 41 42
REMARK SMILES IDX 102 43 42 44 101 45 43 46 44 47 45 48 95 49 46 50 100 51
REMARK SMILES IDX 94 52 96 53 47 54 99 55 93 56 92 57 48 59 80 60 60 61 79 62
REMARK SMILES IDX 61 63 64 64 78 65 97 66 62 67 63 68 77 70 98 71 65 72 49 73
REMARK SMILES IDX 50 74 58 75 51 76 53 77 59 78 52 79 54 80 55 81 56 82 57 83
REMARK SMILES IDX 81 84 82 85 90 86 83 87 85 88 91 89 84 90 86 91 87 92 88 93
REMARK SMILES IDX 89 94 66 95 67 96 75 97 68 98 70 99 76 100 69 101 71 102
REMARK SMILES IDX 72 103 73 104 74 105
REMARK H PARENT 96 58 64 69
REMARK Flexibility Score: inf
ROOT
ATOM      1  C   UNL A   1      39.127  32.906  34.053  1.00  0.00     0.188 C 
ENDROOT
BRANCH   1   2
ATOM      2  O   UNL A   1      39.761  33.616  35.094  1.00  0.00    -0.376 OA
BRANCH   2   3
ATOM      3  C   UNL A   1      40.687  32.890  35.910  1.00  0.00     0.202 C 
BRANCH   3   4
ATOM      4  C   UNL A   1      40.998  31.387  35.631  1.00  0.00     0.261 C 
BRANCH   4   5
ATOM      5  O   UNL A   1      42.127  30.740  36.291  1.00  0.00    -0.463 OA
BRANCH   5   6
ATOM      6  C   UNL A   1      42.198  29.375  36.282  1.00  0.00     0.307 C 
ATOM      7  O   UNL A   1      41.218  28.646  36.150  1.00  0.00    -0.252 OA
BRANCH   6   8
ATOM      8  C   UNL A   1      43.609  28.797  36.552  1.00  0.00     0.144 C 
BRANCH   8   9
ATOM      9  C   UNL A   1      44.505  28.078  35.502  1.00  0.00     0.140 C 
BRANCH   9  10
ATOM     10  N   UNL A   1      43.940  26.891  34.895  1.00  0.00    -0.286 N 
ATOM     11  C   UNL A   1      43.669  26.823  33.582  1.00  0.00     0.171 A 
ATOM     12  N   UNL A   1      43.982  25.796  32.863  1.00  0.00    -0.224 NA
ATOM     13  C   UNL A   1      44.328  24.646  33.590  1.00  0.00     0.079 A 
ATOM     14  C   UNL A   1      43.522  25.778  35.594  1.00  0.00     0.262 A 
ATOM     15  C   UNL A   1      45.016  23.588  33.010  1.00  0.00     0.029 A 
ATOM     16  C   UNL A   1      43.802  24.500  34.881  1.00  0.00     0.066 A 
ATOM     17  O   UNL A   1      43.004  25.816  36.702  1.00  0.00    -0.269 OA
ATOM     18  C   UNL A   1      45.074  22.364  33.682  1.00  0.00     0.002 A 
ATOM     19  C   UNL A   1      43.736  23.257  35.498  1.00  0.00     0.016 A 
ATOM     20  C   UNL A   1      44.376  22.182  34.883  1.00  0.00     0.001 A 
BRANCH  11  21
ATOM     21  S   UNL A   1      42.648  27.993  32.898  1.00  0.00    -0.083 SA
BRANCH  21  22
ATOM     22  C   UNL A   1      42.064  27.841  31.210  1.00  0.00     0.113 C 
BRANCH  22  23
ATOM     23  C   UNL A   1      40.683  28.401  31.046  1.00  0.00    -0.034 A 
ATOM     24  C   UNL A   1      39.151  29.758  29.766  1.00  0.00     0.119 A 
ATOM     25  C   UNL A   1      38.252  29.739  30.833  1.00  0.00     0.046 A 
ATOM     26  C   UNL A   1      40.369  29.098  29.882  1.00  0.00     0.051 A 
ATOM     27  C   UNL A   1      38.521  28.979  31.969  1.00  0.00     0.004 A 
ATOM     28  C   UNL A   1      39.719  28.283  32.056  1.00  0.00     0.005 A 
BRANCH  24  29
ATOM     29  O   UNL A   1      38.765  30.472  28.664  1.00  0.00    -0.497 OA
ATOM     30  C   UNL A   1      37.419  30.258  28.249  1.00  0.00     0.278 C 
ENDBRANCH  24  29
ENDBRANCH  22  23
ENDBRANCH  21  22
ENDBRANCH  11  21
ENDBRANCH   9  10
ENDBRANCH   8   9
ENDBRANCH   6   8
ENDBRANCH   5   6
ENDBRANCH   4   5
ENDBRANCH   3   4
ENDBRANCH   2   3
ENDBRANCH   1   2
BRANCH   1  31
ATOM     31  C   UNL A   1      37.767  32.222  34.278  1.00  0.00     0.188 C 
BRANCH  31  32
ATOM     32  O   UNL A   1      36.572  32.966  34.344  1.00  0.00    -0.377 OA
BRANCH  32  33
ATOM     33  C   UNL A   1      35.594  32.599  33.395  1.00  0.00     0.188 C 
BRANCH  33  34
ATOM     34  C   UNL A   1      35.518  33.443  32.103  1.00  0.00     0.188 C 
BRANCH  34  35
ATOM     35  O   UNL A   1      36.453  33.112  31.084  1.00  0.00    -0.376 OA
BRANCH  35  36
ATOM     36  C   UNL A   1      37.289  34.172  30.595  1.00  0.00     0.202 C 
BRANCH  36  37
ATOM     37  C   UNL A   1      38.480  33.881  29.641  1.00  0.00     0.261 C 
BRANCH  37  38
ATOM     38  O   UNL A   1      39.646  33.303  30.228  1.00  0.00    -0.460 OA
BRANCH  38  39
ATOM     39  C   UNL A   1      40.816  33.892  29.922  1.00  0.00     0.338 C 
ATOM     40  O   UNL A   1      40.971  34.954  29.330  1.00  0.00    -0.246 OA
BRANCH  39  41
ATOM     41  C   UNL A   1      41.883  33.164  30.620  1.00  0.00     0.060 A 
ATOM     42  C   UNL A   1      43.207  33.462  30.278  1.00  0.00     0.016 A 
ATOM     43  C   UNL A   1      41.591  32.183  31.571  1.00  0.00     0.016 A 
ATOM     44  C   UNL A   1      44.252  32.781  30.881  1.00  0.00     0.010 A 
ATOM     45  C   UNL A   1      42.640  31.450  32.131  1.00  0.00     0.010 A 
ATOM     46  C   UNL A   1      43.966  31.727  31.752  1.00  0.00    -0.014 A 
BRANCH  46  47
ATOM     47  C   UNL A   1      45.035  30.735  31.974  1.00  0.00     0.031 A 
ATOM     48  C   UNL A   1      45.335  29.793  30.841  1.00  0.00     0.074 A 
ATOM     49  C   UNL A   1      45.763  30.728  33.101  1.00  0.00     0.049 A 
ATOM     50  N   UNL A   1      46.247  28.863  30.752  1.00  0.00    -0.248 NA
ATOM     51  C   UNL A   1      44.497  29.931  29.635  1.00  0.00     0.031 C 
ATOM     52  C   UNL A   1      45.583  31.637  34.233  1.00  0.00     0.029 A 
ATOM     53  N   UNL A   1      46.801  29.916  33.476  1.00  0.00    -0.354 N 
ATOM     54  C   UNL A   1      46.077  28.294  29.496  1.00  0.00     0.074 A 
ATOM     55  C   UNL A   1      44.976  28.974  28.857  1.00  0.00     0.031 C 
ATOM     56  C   UNL A   1      46.466  31.310  35.193  1.00  0.00     0.029 A 
ATOM     57  C   UNL A   1      47.250  30.157  34.751  1.00  0.00     0.049 A 
ATOM     58  H   UNL A   1      47.187  29.228  32.888  1.00  0.00     0.167 HD
ATOM     59  C   UNL A   1      46.781  27.292  28.923  1.00  0.00     0.034 A 
ATOM     60  C   UNL A   1      48.172  29.495  35.477  1.00  0.00     0.034 A 
ATOM     61  C   UNL A   1      47.861  26.613  29.578  1.00  0.00     0.049 A 
ATOM     62  C   UNL A   1      48.901  28.337  34.841  1.00  0.00     0.074 A 
ATOM     63  C   UNL A   1      48.651  25.586  29.097  1.00  0.00     0.029 A 
ATOM     64  N   UNL A   1      48.288  26.881  30.870  1.00  0.00    -0.354 N 
ATOM     65  N   UNL A   1      48.790  27.857  33.624  1.00  0.00    -0.248 NA
ATOM     66  C   UNL A   1      49.904  27.649  35.665  1.00  0.00     0.031 C 
ATOM     67  C   UNL A   1      49.529  25.204  30.116  1.00  0.00     0.029 A 
ATOM     68  C   UNL A   1      49.322  26.030  31.211  1.00  0.00     0.049 A 
ATOM     69  H   UNL A   1      47.911  27.575  31.458  1.00  0.00     0.167 HD
ATOM     70  C   UNL A   1      49.737  26.844  33.522  1.00  0.00     0.074 A 
ATOM     71  C   UNL A   1      50.419  26.786  34.799  1.00  0.00     0.031 C 
ATOM     72  C   UNL A   1      50.019  26.031  32.473  1.00  0.00     0.034 A 
BRANCH  59  73
ATOM     73  C   UNL A   1      46.381  26.869  27.536  1.00  0.00     0.023 A 
ATOM     74  C   UNL A   1      46.985  27.470  26.412  1.00  0.00     0.012 A 
ATOM     75  C   UNL A   1      45.413  25.863  27.346  1.00  0.00     0.148 A 
ATOM     76  C   UNL A   1      46.603  27.105  25.121  1.00  0.00     0.002 A 
ATOM     77  C   UNL A   1      45.075  25.469  26.057  1.00  0.00     0.091 A 
ATOM     78  F   UNL A   1      44.829  25.326  28.426  1.00  0.00    -0.205 F 
ATOM     79  C   UNL A   1      45.657  26.098  24.945  1.00  0.00     0.022 A 
BRANCH  77  80
ATOM     80  S   UNL A   1      43.926  24.130  25.727  1.00  0.00     0.127 S 
ATOM     81  O   UNL A   1      42.637  24.812  25.834  1.00  0.00    -0.237 OA
ATOM     82  O   UNL A   1      44.298  23.738  24.368  1.00  0.00    -0.237 OA
ATOM     83  O   UNL A   1      44.182  23.119  26.743  1.00  0.00    -0.744 OA
ENDBRANCH  77  80
ENDBRANCH  59  73
BRANCH  60  84
ATOM     84  C   UNL A   1      48.471  29.918  36.874  1.00  0.00     0.023 A 
ATOM     85  C   UNL A   1      49.443  30.907  37.115  1.00  0.00     0.012 A 
ATOM     86  C   UNL A   1      47.786  29.349  37.966  1.00  0.00     0.148 A 
ATOM     87  C   UNL A   1      49.754  31.297  38.419  1.00  0.00     0.002 A 
ATOM     88  C   UNL A   1      48.063  29.778  39.258  1.00  0.00     0.091 A 
ATOM     89  F   UNL A   1      46.865  28.407  37.717  1.00  0.00    -0.205 F 
ATOM     90  C   UNL A   1      49.060  30.739  39.489  1.00  0.00     0.022 A 
BRANCH  88  91
ATOM     91  S   UNL A   1      47.141  29.202  40.688  1.00  0.00     0.127 S 
ATOM     92  O   UNL A   1      46.372  28.096  40.123  1.00  0.00    -0.237 OA
ATOM     93  O   UNL A   1      48.218  28.805  41.595  1.00  0.00    -0.237 OA
ATOM     94  O   UNL A   1      46.356  30.342  41.142  1.00  0.00    -0.744 OA
ENDBRANCH  88  91
ENDBRANCH  60  84
BRANCH  72  95
ATOM     95  C   UNL A   1      51.151  25.051  32.627  1.00  0.00     0.023 A 
ATOM     96  C   UNL A   1      52.483  25.472  32.456  1.00  0.00     0.012 A 
ATOM     97  C   UNL A   1      50.887  23.730  33.043  1.00  0.00     0.148 A 
ATOM     98  C   UNL A   1      53.537  24.582  32.666  1.00  0.00     0.002 A 
ATOM     99  C   UNL A   1      51.943  22.867  33.304  1.00  0.00     0.091 A 
ATOM    100  F   UNL A   1      49.610  23.348  33.187  1.00  0.00    -0.205 F 
ATOM    101  C   UNL A   1      53.268  23.286  33.102  1.00  0.00     0.022 A 
BRANCH  99 102
ATOM    102  S   UNL A   1      51.696  21.218  33.972  1.00  0.00     0.127 S 
ATOM    103  O   UNL A   1      53.001  20.603  33.735  1.00  0.00    -0.237 OA
ATOM    104  O   UNL A   1      51.399  21.495  35.378  1.00  0.00    -0.237 OA
ATOM    105  O   UNL A   1      50.589  20.640  33.221  1.00  0.00    -0.744 OA
ENDBRANCH  99 102
ENDBRANCH  72  95
ENDBRANCH  46  47
ENDBRANCH  39  41
ENDBRANCH  38  39
ENDBRANCH  37  38
ENDBRANCH  36  37
ENDBRANCH  35  36
ENDBRANCH  34  35
ENDBRANCH  33  34
ENDBRANCH  32  33
ENDBRANCH  31  32
ENDBRANCH   1  31
TORSDOF 29
ENDMDL
