MODEL 1
REMARK VINA RESULT:      -9.1      0.000      0.000
REMARK SMILES Cc1c(CC(=O)N[C@H](CO)C(=O)OCCOCCOCCOCCOC(=O)c2ccc(-c3c4nc(c(-c5cccc(S(=O)(=O)[O-])c5F)c5ccc([nH]5)c(-c5cccc(S(=O)(=O)[O-])c5F)c5nc(c(-c6cccc(S(=O)(=O)[O-])c6F)c6ccc3[nH]6)C=C5)C=C4)cc2)cc(-c2ccc(S(C)(=O)=O)cc2)n1-c1cccc(F)c1
REMARK SMILES IDX 18 1 17 2 16 3 15 4 14 5 13 6 11 7 12 8 8 9 7 10 5 11 6 12
REMARK SMILES IDX 4 14 3 15 1 16 2 17 103 18 91 19 92 20 104 21 105 22 110 23
REMARK SMILES IDX 106 24 108 25 107 26 109 27 93 28 94 29 102 30 95 31 101 32
REMARK SMILES IDX 96 33 97 34 98 35 99 36 100 37 9 38 10 39 19 41 20 42 21 43
REMARK SMILES IDX 22 44 23 45 24 46 25 47 26 48 27 49 28 50 29 51 90 52 30 53
REMARK SMILES IDX 89 54 31 55 32 56 33 57 83 58 34 59 88 60 82 61 84 62 35 63
REMARK SMILES IDX 87 64 81 65 80 66 36 68 68 69 48 70 67 71 49 72 52 73 66 74
REMARK SMILES IDX 85 75 50 76 51 77 65 79 86 80 53 81 37 82 38 83 46 84 39 85
REMARK SMILES IDX 41 86 47 87 40 88 42 89 43 90 44 91 45 92 69 93 70 94 78 95
REMARK SMILES IDX 71 96 73 97 79 98 72 99 74 100 75 101 76 102 77 103 54 104
REMARK SMILES IDX 55 105 63 106 56 107 58 108 64 109 57 110 59 111 60 112
REMARK SMILES IDX 61 113 62 114
REMARK H PARENT 7 13 10 40 84 67 52 78
REMARK Flexibility Score: inf
ROOT
ATOM      1  C   UNL A   1      35.663  21.220  25.161  1.00  0.00     0.188 C 
ENDROOT
BRANCH   1   2
ATOM      2  C   UNL A   1      34.930  22.475  25.583  1.00  0.00     0.188 C 
BRANCH   2   3
ATOM      3  O   UNL A   1      34.860  23.351  24.501  1.00  0.00    -0.376 OA
BRANCH   3   4
ATOM      4  C   UNL A   1      34.167  23.013  23.333  1.00  0.00     0.202 C 
BRANCH   4   5
ATOM      5  C   UNL A   1      33.211  23.928  22.622  1.00  0.00     0.261 C 
BRANCH   5   6
ATOM      6  O   UNL A   1      32.859  25.125  23.299  1.00  0.00    -0.462 OA
BRANCH   6   7
ATOM      7  C   UNL A   1      33.130  26.372  22.865  1.00  0.00     0.331 C 
ATOM      8  O   UNL A   1      33.813  26.721  21.896  1.00  0.00    -0.250 OA
BRANCH   7   9
ATOM      9  C   UNL A   1      32.624  27.334  23.887  1.00  0.00     0.218 C 
BRANCH   9  10
ATOM     10  N   UNL A   1      32.198  26.433  24.975  1.00  0.00    -0.341 N 
ATOM     11  C   UNL A   1      31.848  26.693  26.282  1.00  0.00     0.225 C 
ATOM     12  O   UNL A   1      31.630  25.690  26.973  1.00  0.00    -0.275 OA
ATOM     13  H   UNL A   1      32.157  25.482  24.724  1.00  0.00     0.164 HD
BRANCH  11  14
ATOM     14  C   UNL A   1      31.657  28.112  26.884  1.00  0.00     0.137 C 
BRANCH  14  15
ATOM     15  C   UNL A   1      32.837  29.106  26.979  1.00  0.00    -0.017 A 
ATOM     16  C   UNL A   1      31.725  31.338  26.388  1.00  0.00     0.065 C 
ATOM     17  C   UNL A   1      32.878  30.491  26.842  1.00  0.00     0.024 A 
ATOM     18  N   UNL A   1      34.155  30.976  27.273  1.00  0.00    -0.313 N 
ATOM     19  C   UNL A   1      34.207  28.724  27.163  1.00  0.00     0.033 A 
ATOM     20  C   UNL A   1      35.035  29.834  27.388  1.00  0.00     0.053 A 
BRANCH  18  21
ATOM     21  C   UNL A   1      34.416  32.329  27.778  1.00  0.00     0.049 A 
ATOM     22  C   UNL A   1      35.723  32.793  27.980  1.00  0.00     0.027 A 
ATOM     23  C   UNL A   1      33.373  33.117  28.313  1.00  0.00     0.065 A 
ATOM     24  C   UNL A   1      35.982  33.909  28.802  1.00  0.00     0.005 A 
ATOM     25  C   UNL A   1      33.642  34.207  29.148  1.00  0.00     0.125 A 
ATOM     26  C   UNL A   1      34.940  34.593  29.420  1.00  0.00     0.039 A 
ATOM     27  F   UNL A   1      32.626  34.812  29.777  1.00  0.00    -0.207 F 
ENDBRANCH  18  21
BRANCH  20  28
ATOM     28  C   UNL A   1      36.341  29.716  28.165  1.00  0.00    -0.001 A 
ATOM     29  C   UNL A   1      36.270  29.553  29.555  1.00  0.00     0.011 A 
ATOM     30  C   UNL A   1      37.632  29.585  27.643  1.00  0.00     0.011 A 
ATOM     31  C   UNL A   1      37.360  29.519  30.431  1.00  0.00     0.021 A 
ATOM     32  C   UNL A   1      38.769  29.437  28.504  1.00  0.00     0.021 A 
ATOM     33  C   UNL A   1      38.630  29.467  29.902  1.00  0.00     0.067 A 
BRANCH  33  34
ATOM     34  S   UNL A   1      39.982  29.188  31.038  1.00  0.00     0.175 S 
ATOM     35  C   UNL A   1      39.307  29.368  32.673  1.00  0.00     0.163 C 
ATOM     36  O   UNL A   1      40.381  27.801  30.878  1.00  0.00    -0.224 OA
ATOM     37  O   UNL A   1      40.946  30.254  30.835  1.00  0.00    -0.224 OA
ENDBRANCH  33  34
ENDBRANCH  20  28
ENDBRANCH  14  15
ENDBRANCH  11  14
ENDBRANCH   9  10
BRANCH   9  38
ATOM     38  C   UNL A   1      31.491  28.133  23.179  1.00  0.00     0.193 C 
BRANCH  38  39
ATOM     39  O   UNL A   1      31.571  29.523  23.510  1.00  0.00    -0.394 OA
ATOM     40  H   UNL A   1      32.220  29.955  22.933  1.00  0.00     0.210 HD
ENDBRANCH  38  39
ENDBRANCH   9  38
ENDBRANCH   7   9
ENDBRANCH   6   7
ENDBRANCH   5   6
ENDBRANCH   4   5
ENDBRANCH   3   4
ENDBRANCH   2   3
ENDBRANCH   1   2
BRANCH   1  41
ATOM     41  O   UNL A   1      37.086  21.234  25.135  1.00  0.00    -0.377 OA
BRANCH  41  42
ATOM     42  C   UNL A   1      37.927  22.229  25.739  1.00  0.00     0.188 C 
BRANCH  42  43
ATOM     43  C   UNL A   1      39.366  21.861  26.192  1.00  0.00     0.188 C 
BRANCH  43  44
ATOM     44  O   UNL A   1      39.801  20.514  26.062  1.00  0.00    -0.376 OA
BRANCH  44  45
ATOM     45  C   UNL A   1      40.935  20.166  26.822  1.00  0.00     0.202 C 
BRANCH  45  46
ATOM     46  C   UNL A   1      42.254  19.970  26.032  1.00  0.00     0.261 C 
BRANCH  46  47
ATOM     47  O   UNL A   1      43.396  20.884  26.021  1.00  0.00    -0.460 OA
BRANCH  47  48
ATOM     48  C   UNL A   1      43.223  22.200  25.689  1.00  0.00     0.338 C 
ATOM     49  O   UNL A   1      42.936  22.584  24.565  1.00  0.00    -0.246 OA
BRANCH  48  50
ATOM     50  C   UNL A   1      43.284  23.140  26.899  1.00  0.00     0.060 A 
ATOM     51  C   UNL A   1      42.228  24.001  27.146  1.00  0.00     0.016 A 
ATOM     52  C   UNL A   1      44.412  23.346  27.721  1.00  0.00     0.016 A 
ATOM     53  C   UNL A   1      42.298  24.973  28.207  1.00  0.00     0.010 A 
ATOM     54  C   UNL A   1      44.511  24.418  28.737  1.00  0.00     0.010 A 
ATOM     55  C   UNL A   1      43.458  25.299  29.028  1.00  0.00    -0.014 A 
BRANCH  55  56
ATOM     56  C   UNL A   1      43.485  26.802  29.792  1.00  0.00     0.031 A 
ATOM     57  C   UNL A   1      43.535  27.711  28.610  1.00  0.00     0.074 A 
ATOM     58  C   UNL A   1      43.642  27.488  31.023  1.00  0.00     0.049 A 
ATOM     59  N   UNL A   1      44.480  27.503  27.736  1.00  0.00    -0.248 NA
ATOM     60  C   UNL A   1      42.418  28.496  28.083  1.00  0.00     0.031 C 
ATOM     61  C   UNL A   1      43.937  26.916  32.353  1.00  0.00     0.029 A 
ATOM     62  N   UNL A   1      43.606  28.897  31.413  1.00  0.00    -0.354 N 
ATOM     63  C   UNL A   1      44.303  28.391  26.722  1.00  0.00     0.074 A 
ATOM     64  C   UNL A   1      42.904  28.785  26.864  1.00  0.00     0.031 C 
ATOM     65  C   UNL A   1      43.902  27.849  33.357  1.00  0.00     0.029 A 
ATOM     66  C   UNL A   1      43.635  29.200  32.851  1.00  0.00     0.049 A 
ATOM     67  H   UNL A   1      43.564  29.615  30.739  1.00  0.00     0.167 HD
ATOM     68  C   UNL A   1      45.413  29.148  26.481  1.00  0.00     0.034 A 
ATOM     69  C   UNL A   1      43.559  30.409  33.582  1.00  0.00     0.034 A 
ATOM     70  C   UNL A   1      45.286  30.451  27.071  1.00  0.00     0.049 A 
ATOM     71  C   UNL A   1      44.045  31.443  32.665  1.00  0.00     0.074 A 
ATOM     72  C   UNL A   1      44.221  31.330  27.170  1.00  0.00     0.029 A 
ATOM     73  N   UNL A   1      46.149  30.750  28.100  1.00  0.00    -0.354 N 
ATOM     74  N   UNL A   1      45.318  31.642  32.504  1.00  0.00    -0.248 NA
ATOM     75  C   UNL A   1      43.170  32.391  31.991  1.00  0.00     0.031 C 
ATOM     76  C   UNL A   1      44.213  31.711  28.526  1.00  0.00     0.029 A 
ATOM     77  C   UNL A   1      45.472  31.481  29.055  1.00  0.00     0.049 A 
ATOM     78  H   UNL A   1      47.096  30.486  28.148  1.00  0.00     0.167 HD
ATOM     79  C   UNL A   1      45.352  32.271  31.302  1.00  0.00     0.074 A 
ATOM     80  C   UNL A   1      44.075  32.953  31.187  1.00  0.00     0.031 C 
ATOM     81  C   UNL A   1      46.082  31.651  30.345  1.00  0.00     0.034 A 
BRANCH  68  82
ATOM     82  C   UNL A   1      46.696  28.327  26.416  1.00  0.00     0.023 A 
ATOM     83  C   UNL A   1      47.550  28.393  27.529  1.00  0.00     0.012 A 
ATOM     84  C   UNL A   1      47.180  27.700  25.231  1.00  0.00     0.148 A 
ATOM     85  C   UNL A   1      48.864  27.922  27.444  1.00  0.00     0.002 A 
ATOM     86  C   UNL A   1      48.522  27.356  25.113  1.00  0.00     0.091 A 
ATOM     87  F   UNL A   1      46.324  27.450  24.226  1.00  0.00    -0.205 F 
ATOM     88  C   UNL A   1      49.363  27.452  26.229  1.00  0.00     0.022 A 
BRANCH  86  89
ATOM     89  S   UNL A   1      49.291  27.009  23.516  1.00  0.00     0.127 S 
ATOM     90  O   UNL A   1      50.546  26.354  23.903  1.00  0.00    -0.237 OA
ATOM     91  O   UNL A   1      48.327  26.120  22.877  1.00  0.00    -0.237 OA
ATOM     92  O   UNL A   1      49.490  28.296  22.860  1.00  0.00    -0.744 OA
ENDBRANCH  86  89
ENDBRANCH  68  82
BRANCH  69  93
ATOM     93  C   UNL A   1      43.426  31.149  34.999  1.00  0.00     0.023 A 
ATOM     94  C   UNL A   1      44.577  31.853  35.529  1.00  0.00     0.012 A 
ATOM     95  C   UNL A   1      42.197  31.600  35.537  1.00  0.00     0.148 A 
ATOM     96  C   UNL A   1      44.515  32.964  36.404  1.00  0.00     0.002 A 
ATOM     97  C   UNL A   1      42.139  32.704  36.444  1.00  0.00     0.091 A 
ATOM     98  F   UNL A   1      41.072  31.029  35.092  1.00  0.00    -0.205 F 
ATOM     99  C   UNL A   1      43.288  33.400  36.852  1.00  0.00     0.022 A 
BRANCH  97 100
ATOM    100  S   UNL A   1      40.597  33.409  37.084  1.00  0.00     0.127 S 
ATOM    101  O   UNL A   1      39.833  33.673  35.863  1.00  0.00    -0.237 OA
ATOM    102  O   UNL A   1      40.075  32.310  37.895  1.00  0.00    -0.237 OA
ATOM    103  O   UNL A   1      40.994  34.602  37.819  1.00  0.00    -0.744 OA
ENDBRANCH  97 100
ENDBRANCH  69  93
BRANCH  81 104
ATOM    104  C   UNL A   1      47.398  31.030  30.762  1.00  0.00     0.023 A 
ATOM    105  C   UNL A   1      48.635  31.709  30.856  1.00  0.00     0.012 A 
ATOM    106  C   UNL A   1      47.385  29.658  31.041  1.00  0.00     0.148 A 
ATOM    107  C   UNL A   1      49.817  31.030  31.177  1.00  0.00     0.002 A 
ATOM    108  C   UNL A   1      48.548  28.993  31.411  1.00  0.00     0.091 A 
ATOM    109  F   UNL A   1      46.220  29.005  30.919  1.00  0.00    -0.205 F 
ATOM    110  C   UNL A   1      49.771  29.670  31.471  1.00  0.00     0.022 A 
BRANCH 108 111
ATOM    111  S   UNL A   1      48.485  27.253  31.828  1.00  0.00     0.127 S 
ATOM    112  O   UNL A   1      49.866  26.990  32.228  1.00  0.00    -0.237 OA
ATOM    113  O   UNL A   1      47.514  27.202  32.918  1.00  0.00    -0.237 OA
ATOM    114  O   UNL A   1      48.049  26.583  30.605  1.00  0.00    -0.744 OA
ENDBRANCH 108 111
ENDBRANCH  81 104
ENDBRANCH  55  56
ENDBRANCH  48  50
ENDBRANCH  47  48
ENDBRANCH  46  47
ENDBRANCH  45  46
ENDBRANCH  44  45
ENDBRANCH  43  44
ENDBRANCH  42  43
ENDBRANCH  41  42
ENDBRANCH   1  41
TORSDOF 31
ENDMDL
MODEL 2
REMARK VINA RESULT:      -8.3      2.557      3.784
REMARK SMILES Cc1c(CC(=O)N[C@H](CO)C(=O)OCCOCCOCCOCCOC(=O)c2ccc(-c3c4nc(c(-c5cccc(S(=O)(=O)[O-])c5F)c5ccc([nH]5)c(-c5cccc(S(=O)(=O)[O-])c5F)c5nc(c(-c6cccc(S(=O)(=O)[O-])c6F)c6ccc3[nH]6)C=C5)C=C4)cc2)cc(-c2ccc(S(C)(=O)=O)cc2)n1-c1cccc(F)c1
REMARK SMILES IDX 18 1 17 2 16 3 15 4 14 5 13 6 11 7 12 8 8 9 7 10 5 11 6 12
REMARK SMILES IDX 4 14 3 15 1 16 2 17 103 18 91 19 92 20 104 21 105 22 110 23
REMARK SMILES IDX 106 24 108 25 107 26 109 27 93 28 94 29 102 30 95 31 101 32
REMARK SMILES IDX 96 33 97 34 98 35 99 36 100 37 9 38 10 39 19 41 20 42 21 43
REMARK SMILES IDX 22 44 23 45 24 46 25 47 26 48 27 49 28 50 29 51 90 52 30 53
REMARK SMILES IDX 89 54 31 55 32 56 33 57 83 58 34 59 88 60 82 61 84 62 35 63
REMARK SMILES IDX 87 64 81 65 80 66 36 68 68 69 48 70 67 71 49 72 52 73 66 74
REMARK SMILES IDX 85 75 50 76 51 77 65 79 86 80 53 81 37 82 38 83 46 84 39 85
REMARK SMILES IDX 41 86 47 87 40 88 42 89 43 90 44 91 45 92 69 93 70 94 78 95
REMARK SMILES IDX 71 96 73 97 79 98 72 99 74 100 75 101 76 102 77 103 54 104
REMARK SMILES IDX 55 105 63 106 56 107 58 108 64 109 57 110 59 111 60 112
REMARK SMILES IDX 61 113 62 114
REMARK H PARENT 7 13 10 40 84 67 52 78
REMARK Flexibility Score: inf
ROOT
ATOM      1  C   UNL A   1      35.556  22.155  24.819  1.00  0.00     0.188 C 
ENDROOT
BRANCH   1   2
ATOM      2  C   UNL A   1      34.780  22.603  26.038  1.00  0.00     0.188 C 
BRANCH   2   3
ATOM      3  O   UNL A   1      34.101  23.783  25.742  1.00  0.00    -0.376 OA
BRANCH   3   4
ATOM      4  C   UNL A   1      33.093  23.822  24.772  1.00  0.00     0.202 C 
BRANCH   4   5
ATOM      5  C   UNL A   1      33.089  24.751  23.592  1.00  0.00     0.261 C 
BRANCH   5   6
ATOM      6  O   UNL A   1      33.154  26.140  23.881  1.00  0.00    -0.462 OA
BRANCH   6   7
ATOM      7  C   UNL A   1      33.373  27.113  22.975  1.00  0.00     0.331 C 
ATOM      8  O   UNL A   1      33.926  27.032  21.872  1.00  0.00    -0.250 OA
BRANCH   7   9
ATOM      9  C   UNL A   1      33.012  28.417  23.604  1.00  0.00     0.218 C 
BRANCH   9  10
ATOM     10  N   UNL A   1      32.929  28.057  25.032  1.00  0.00    -0.341 N 
ATOM     11  C   UNL A   1      33.576  28.572  26.136  1.00  0.00     0.225 C 
ATOM     12  O   UNL A   1      33.353  27.974  27.196  1.00  0.00    -0.275 OA
ATOM     13  H   UNL A   1      32.304  27.323  25.233  1.00  0.00     0.164 HD
BRANCH  11  14
ATOM     14  C   UNL A   1      34.473  29.839  26.128  1.00  0.00     0.137 C 
BRANCH  14  15
ATOM     15  C   UNL A   1      35.105  30.380  27.431  1.00  0.00    -0.017 A 
ATOM     16  C   UNL A   1      37.524  29.557  27.254  1.00  0.00     0.065 C 
ATOM     17  C   UNL A   1      36.414  30.335  27.899  1.00  0.00     0.024 A 
ATOM     18  N   UNL A   1      36.548  31.200  29.034  1.00  0.00    -0.313 N 
ATOM     19  C   UNL A   1      34.367  31.002  28.494  1.00  0.00     0.033 A 
ATOM     20  C   UNL A   1      35.214  31.551  29.468  1.00  0.00     0.053 A 
BRANCH  18  21
ATOM     21  C   UNL A   1      37.799  31.830  29.471  1.00  0.00     0.049 A 
ATOM     22  C   UNL A   1      38.573  31.278  30.500  1.00  0.00     0.027 A 
ATOM     23  C   UNL A   1      38.138  33.136  29.052  1.00  0.00     0.065 A 
ATOM     24  C   UNL A   1      39.541  32.046  31.177  1.00  0.00     0.005 A 
ATOM     25  C   UNL A   1      39.083  33.898  29.748  1.00  0.00     0.125 A 
ATOM     26  C   UNL A   1      39.768  33.374  30.826  1.00  0.00     0.039 A 
ATOM     27  F   UNL A   1      39.241  35.189  29.427  1.00  0.00    -0.207 F 
ENDBRANCH  18  21
BRANCH  20  28
ATOM     28  C   UNL A   1      34.778  32.721  30.342  1.00  0.00    -0.001 A 
ATOM     29  C   UNL A   1      34.499  33.944  29.719  1.00  0.00     0.011 A 
ATOM     30  C   UNL A   1      34.455  32.691  31.703  1.00  0.00     0.011 A 
ATOM     31  C   UNL A   1      34.177  35.139  30.370  1.00  0.00     0.021 A 
ATOM     32  C   UNL A   1      34.014  33.871  32.387  1.00  0.00     0.021 A 
ATOM     33  C   UNL A   1      33.936  35.107  31.726  1.00  0.00     0.067 A 
BRANCH  33  34
ATOM     34  S   UNL A   1      33.300  36.597  32.481  1.00  0.00     0.175 S 
ATOM     35  C   UNL A   1      33.201  37.813  31.187  1.00  0.00     0.163 C 
ATOM     36  O   UNL A   1      31.944  36.301  32.909  1.00  0.00    -0.224 OA
ATOM     37  O   UNL A   1      34.287  37.051  33.444  1.00  0.00    -0.224 OA
ENDBRANCH  33  34
ENDBRANCH  20  28
ENDBRANCH  14  15
ENDBRANCH  11  14
ENDBRANCH   9  10
BRANCH   9  38
ATOM     38  C   UNL A   1      31.677  28.847  22.930  1.00  0.00     0.193 C 
BRANCH  38  39
ATOM     39  O   UNL A   1      31.247  27.860  21.987  1.00  0.00    -0.394 OA
ATOM     40  H   UNL A   1      31.151  28.269  21.112  1.00  0.00     0.210 HD
ENDBRANCH  38  39
ENDBRANCH   9  38
ENDBRANCH   7   9
ENDBRANCH   6   7
ENDBRANCH   5   6
ENDBRANCH   4   5
ENDBRANCH   3   4
ENDBRANCH   2   3
ENDBRANCH   1   2
BRANCH   1  41
ATOM     41  O   UNL A   1      36.979  22.183  24.865  1.00  0.00    -0.377 OA
BRANCH  41  42
ATOM     42  C   UNL A   1      37.775  23.047  25.690  1.00  0.00     0.188 C 
BRANCH  42  43
ATOM     43  C   UNL A   1      39.036  22.492  26.408  1.00  0.00     0.188 C 
BRANCH  43  44
ATOM     44  O   UNL A   1      39.472  21.174  26.104  1.00  0.00    -0.376 OA
BRANCH  44  45
ATOM     45  C   UNL A   1      40.569  20.710  26.855  1.00  0.00     0.202 C 
BRANCH  45  46
ATOM     46  C   UNL A   1      41.972  20.967  26.247  1.00  0.00     0.261 C 
BRANCH  46  47
ATOM     47  O   UNL A   1      42.330  22.057  25.339  1.00  0.00    -0.460 OA
BRANCH  47  48
ATOM     48  C   UNL A   1      43.643  22.332  25.075  1.00  0.00     0.338 C 
ATOM     49  O   UNL A   1      44.333  21.677  24.307  1.00  0.00    -0.246 OA
BRANCH  48  50
ATOM     50  C   UNL A   1      44.131  23.631  25.729  1.00  0.00     0.060 A 
ATOM     51  C   UNL A   1      44.353  23.664  27.095  1.00  0.00     0.016 A 
ATOM     52  C   UNL A   1      44.221  24.886  25.089  1.00  0.00     0.016 A 
ATOM     53  C   UNL A   1      44.705  24.894  27.758  1.00  0.00     0.010 A 
ATOM     54  C   UNL A   1      44.480  26.159  25.799  1.00  0.00     0.010 A 
ATOM     55  C   UNL A   1      44.726  26.232  27.178  1.00  0.00    -0.014 A 
BRANCH  55  56
ATOM     56  C   UNL A   1      44.615  27.547  28.229  1.00  0.00     0.031 A 
ATOM     57  C   UNL A   1      45.605  28.477  27.613  1.00  0.00     0.074 A 
ATOM     58  C   UNL A   1      44.116  28.015  29.472  1.00  0.00     0.049 A 
ATOM     59  N   UNL A   1      46.808  28.018  27.406  1.00  0.00    -0.248 NA
ATOM     60  C   UNL A   1      45.289  29.659  26.811  1.00  0.00     0.031 C 
ATOM     61  C   UNL A   1      43.368  27.257  30.495  1.00  0.00     0.029 A 
ATOM     62  N   UNL A   1      44.171  29.299  30.169  1.00  0.00    -0.354 N 
ATOM     63  C   UNL A   1      47.519  28.996  26.786  1.00  0.00     0.074 A 
ATOM     64  C   UNL A   1      46.482  29.859  26.227  1.00  0.00     0.031 C 
ATOM     65  C   UNL A   1      42.926  28.044  31.527  1.00  0.00     0.029 A 
ATOM     66  C   UNL A   1      43.359  29.439  31.387  1.00  0.00     0.049 A 
ATOM     67  H   UNL A   1      44.729  30.039  29.837  1.00  0.00     0.167 HD
ATOM     68  C   UNL A   1      48.670  29.314  27.447  1.00  0.00     0.034 A 
ATOM     69  C   UNL A   1      43.124  30.521  32.267  1.00  0.00     0.034 A 
ATOM     70  C   UNL A   1      48.507  30.515  28.217  1.00  0.00     0.049 A 
ATOM     71  C   UNL A   1      44.300  31.385  32.137  1.00  0.00     0.074 A 
ATOM     72  C   UNL A   1      47.857  31.709  27.957  1.00  0.00     0.029 A 
ATOM     73  N   UNL A   1      48.571  30.385  29.586  1.00  0.00    -0.354 N 
ATOM     74  N   UNL A   1      45.393  31.119  32.787  1.00  0.00    -0.248 NA
ATOM     75  C   UNL A   1      44.293  32.643  31.406  1.00  0.00     0.031 C 
ATOM     76  C   UNL A   1      47.087  31.944  29.113  1.00  0.00     0.029 A 
ATOM     77  C   UNL A   1      47.637  31.224  30.160  1.00  0.00     0.049 A 
ATOM     78  H   UNL A   1      49.182  29.790  30.076  1.00  0.00     0.167 HD
ATOM     79  C   UNL A   1      46.318  31.798  32.063  1.00  0.00     0.074 A 
ATOM     80  C   UNL A   1      45.601  32.906  31.458  1.00  0.00     0.031 C 
ATOM     81  C   UNL A   1      47.319  31.043  31.550  1.00  0.00     0.034 A 
BRANCH  68  82
ATOM     82  C   UNL A   1      49.474  28.091  27.875  1.00  0.00     0.023 A 
ATOM     83  C   UNL A   1      49.562  27.838  29.253  1.00  0.00     0.012 A 
ATOM     84  C   UNL A   1      50.312  27.344  26.997  1.00  0.00     0.148 A 
ATOM     85  C   UNL A   1      50.504  26.931  29.749  1.00  0.00     0.002 A 
ATOM     86  C   UNL A   1      51.331  26.546  27.505  1.00  0.00     0.091 A 
ATOM     87  F   UNL A   1      50.110  27.425  25.671  1.00  0.00    -0.205 F 
ATOM     88  C   UNL A   1      51.417  26.326  28.886  1.00  0.00     0.022 A 
BRANCH  86  89
ATOM     89  S   UNL A   1      52.701  25.963  26.481  1.00  0.00     0.127 S 
ATOM     90  O   UNL A   1      52.218  24.656  26.019  1.00  0.00    -0.237 OA
ATOM     91  O   UNL A   1      52.776  26.975  25.433  1.00  0.00    -0.237 OA
ATOM     92  O   UNL A   1      53.866  25.873  27.353  1.00  0.00    -0.744 OA
ENDBRANCH  86  89
ENDBRANCH  68  82
BRANCH  69  93
ATOM     93  C   UNL A   1      42.306  31.129  33.506  1.00  0.00     0.023 A 
ATOM     94  C   UNL A   1      42.487  32.527  33.844  1.00  0.00     0.012 A 
ATOM     95  C   UNL A   1      41.084  30.592  33.979  1.00  0.00     0.148 A 
ATOM     96  C   UNL A   1      41.516  33.341  34.474  1.00  0.00     0.002 A 
ATOM     97  C   UNL A   1      40.117  31.410  34.643  1.00  0.00     0.091 A 
ATOM     98  F   UNL A   1      40.811  29.313  33.697  1.00  0.00    -0.205 F 
ATOM     99  C   UNL A   1      40.319  32.782  34.863  1.00  0.00     0.022 A 
BRANCH  97 100
ATOM    100  S   UNL A   1      38.487  30.822  35.174  1.00  0.00     0.127 S 
ATOM    101  O   UNL A   1      38.766  30.244  36.490  1.00  0.00    -0.237 OA
ATOM    102  O   UNL A   1      37.715  32.064  35.214  1.00  0.00    -0.237 OA
ATOM    103  O   UNL A   1      38.077  29.857  34.164  1.00  0.00    -0.744 OA
ENDBRANCH  97 100
ENDBRANCH  69  93
BRANCH  81 104
ATOM    104  C   UNL A   1      47.891  29.950  32.427  1.00  0.00     0.023 A 
ATOM    105  C   UNL A   1      48.845  30.134  33.455  1.00  0.00     0.012 A 
ATOM    106  C   UNL A   1      47.458  28.643  32.166  1.00  0.00     0.148 A 
ATOM    107  C   UNL A   1      49.372  29.047  34.163  1.00  0.00     0.002 A 
ATOM    108  C   UNL A   1      47.941  27.570  32.903  1.00  0.00     0.091 A 
ATOM    109  F   UNL A   1      46.579  28.462  31.169  1.00  0.00    -0.205 F 
ATOM    110  C   UNL A   1      48.908  27.762  33.898  1.00  0.00     0.022 A 
BRANCH 108 111
ATOM    111  S   UNL A   1      47.317  25.921  32.592  1.00  0.00     0.127 S 
ATOM    112  O   UNL A   1      47.910  25.162  33.691  1.00  0.00    -0.237 OA
ATOM    113  O   UNL A   1      45.868  26.087  32.677  1.00  0.00    -0.237 OA
ATOM    114  O   UNL A   1      47.803  25.575  31.258  1.00  0.00    -0.744 OA
ENDBRANCH 108 111
ENDBRANCH  81 104
ENDBRANCH  55  56
ENDBRANCH  48  50
ENDBRANCH  47  48
ENDBRANCH  46  47
ENDBRANCH  45  46
ENDBRANCH  44  45
ENDBRANCH  43  44
ENDBRANCH  42  43
ENDBRANCH  41  42
ENDBRANCH   1  41
TORSDOF 31
ENDMDL
MODEL 3
REMARK VINA RESULT:      -8.1      5.139      7.878
REMARK SMILES Cc1c(CC(=O)N[C@H](CO)C(=O)OCCOCCOCCOCCOC(=O)c2ccc(-c3c4nc(c(-c5cccc(S(=O)(=O)[O-])c5F)c5ccc([nH]5)c(-c5cccc(S(=O)(=O)[O-])c5F)c5nc(c(-c6cccc(S(=O)(=O)[O-])c6F)c6ccc3[nH]6)C=C5)C=C4)cc2)cc(-c2ccc(S(C)(=O)=O)cc2)n1-c1cccc(F)c1
REMARK SMILES IDX 18 1 17 2 16 3 15 4 14 5 13 6 11 7 12 8 8 9 7 10 5 11 6 12
REMARK SMILES IDX 4 14 3 15 1 16 2 17 103 18 91 19 92 20 104 21 105 22 110 23
REMARK SMILES IDX 106 24 108 25 107 26 109 27 93 28 94 29 102 30 95 31 101 32
REMARK SMILES IDX 96 33 97 34 98 35 99 36 100 37 9 38 10 39 19 41 20 42 21 43
REMARK SMILES IDX 22 44 23 45 24 46 25 47 26 48 27 49 28 50 29 51 90 52 30 53
REMARK SMILES IDX 89 54 31 55 32 56 33 57 83 58 34 59 88 60 82 61 84 62 35 63
REMARK SMILES IDX 87 64 81 65 80 66 36 68 68 69 48 70 67 71 49 72 52 73 66 74
REMARK SMILES IDX 85 75 50 76 51 77 65 79 86 80 53 81 37 82 38 83 46 84 39 85
REMARK SMILES IDX 41 86 47 87 40 88 42 89 43 90 44 91 45 92 69 93 70 94 78 95
REMARK SMILES IDX 71 96 73 97 79 98 72 99 74 100 75 101 76 102 77 103 54 104
REMARK SMILES IDX 55 105 63 106 56 107 58 108 64 109 57 110 59 111 60 112
REMARK SMILES IDX 61 113 62 114
REMARK H PARENT 7 13 10 40 84 67 52 78
REMARK Flexibility Score: inf
ROOT
ATOM      1  C   UNL A   1      36.599  21.262  25.361  1.00  0.00     0.188 C 
ENDROOT
BRANCH   1   2
ATOM      2  C   UNL A   1      35.165  21.584  25.723  1.00  0.00     0.188 C 
BRANCH   2   3
ATOM      3  O   UNL A   1      34.541  22.187  24.633  1.00  0.00    -0.376 OA
BRANCH   3   4
ATOM      4  C   UNL A   1      33.207  22.606  24.695  1.00  0.00     0.202 C 
BRANCH   4   5
ATOM      5  C   UNL A   1      32.566  23.536  23.705  1.00  0.00     0.261 C 
BRANCH   5   6
ATOM      6  O   UNL A   1      32.843  24.919  23.865  1.00  0.00    -0.462 OA
BRANCH   6   7
ATOM      7  C   UNL A   1      32.067  25.924  23.414  1.00  0.00     0.331 C 
ATOM      8  O   UNL A   1      30.968  25.860  22.853  1.00  0.00    -0.250 OA
BRANCH   7   9
ATOM      9  C   UNL A   1      32.851  27.190  23.513  1.00  0.00     0.218 C 
BRANCH   9  10
ATOM     10  N   UNL A   1      31.788  28.200  23.672  1.00  0.00    -0.341 N 
ATOM     11  C   UNL A   1      31.286  28.817  24.798  1.00  0.00     0.225 C 
ATOM     12  O   UNL A   1      30.314  29.557  24.598  1.00  0.00    -0.275 OA
ATOM     13  H   UNL A   1      31.363  28.482  22.830  1.00  0.00     0.164 HD
BRANCH  11  14
ATOM     14  C   UNL A   1      31.888  28.690  26.224  1.00  0.00     0.137 C 
BRANCH  14  15
ATOM     15  C   UNL A   1      33.077  29.571  26.671  1.00  0.00    -0.017 A 
ATOM     16  C   UNL A   1      32.028  31.907  26.765  1.00  0.00     0.065 C 
ATOM     17  C   UNL A   1      33.146  30.927  26.976  1.00  0.00     0.024 A 
ATOM     18  N   UNL A   1      34.409  31.217  27.587  1.00  0.00    -0.313 N 
ATOM     19  C   UNL A   1      34.432  29.112  26.780  1.00  0.00     0.033 A 
ATOM     20  C   UNL A   1      35.265  30.071  27.374  1.00  0.00     0.053 A 
BRANCH  18  21
ATOM     21  C   UNL A   1      34.666  32.337  28.500  1.00  0.00     0.049 A 
ATOM     22  C   UNL A   1      34.730  32.148  29.887  1.00  0.00     0.027 A 
ATOM     23  C   UNL A   1      34.608  33.673  28.044  1.00  0.00     0.065 A 
ATOM     24  C   UNL A   1      34.594  33.232  30.778  1.00  0.00     0.005 A 
ATOM     25  C   UNL A   1      34.447  34.738  28.936  1.00  0.00     0.125 A 
ATOM     26  C   UNL A   1      34.411  34.526  30.301  1.00  0.00     0.039 A 
ATOM     27  F   UNL A   1      34.216  35.965  28.451  1.00  0.00    -0.207 F 
ENDBRANCH  18  21
BRANCH  20  28
ATOM     28  C   UNL A   1      36.531  29.680  28.126  1.00  0.00    -0.001 A 
ATOM     29  C   UNL A   1      37.737  29.641  27.414  1.00  0.00     0.011 A 
ATOM     30  C   UNL A   1      36.680  29.505  29.506  1.00  0.00     0.011 A 
ATOM     31  C   UNL A   1      38.971  29.218  27.919  1.00  0.00     0.021 A 
ATOM     32  C   UNL A   1      37.954  29.178  30.079  1.00  0.00     0.021 A 
ATOM     33  C   UNL A   1      39.083  28.975  29.270  1.00  0.00     0.067 A 
BRANCH  33  34
ATOM     34  S   UNL A   1      40.722  28.667  29.915  1.00  0.00     0.175 S 
ATOM     35  C   UNL A   1      41.495  30.257  30.102  1.00  0.00     0.163 C 
ATOM     36  O   UNL A   1      40.547  28.105  31.243  1.00  0.00    -0.224 OA
ATOM     37  O   UNL A   1      41.456  27.931  28.902  1.00  0.00    -0.224 OA
ENDBRANCH  33  34
ENDBRANCH  20  28
ENDBRANCH  14  15
ENDBRANCH  11  14
ENDBRANCH   9  10
BRANCH   9  38
ATOM     38  C   UNL A   1      33.676  27.270  22.195  1.00  0.00     0.193 C 
BRANCH  38  39
ATOM     39  O   UNL A   1      33.640  26.019  21.500  1.00  0.00    -0.394 OA
ATOM     40  H   UNL A   1      33.220  26.143  20.634  1.00  0.00     0.210 HD
ENDBRANCH  38  39
ENDBRANCH   9  38
ENDBRANCH   7   9
ENDBRANCH   6   7
ENDBRANCH   5   6
ENDBRANCH   4   5
ENDBRANCH   3   4
ENDBRANCH   2   3
ENDBRANCH   1   2
BRANCH   1  41
ATOM     41  O   UNL A   1      37.646  21.960  26.028  1.00  0.00    -0.377 OA
BRANCH  41  42
ATOM     42  C   UNL A   1      37.990  23.340  25.836  1.00  0.00     0.188 C 
BRANCH  42  43
ATOM     43  C   UNL A   1      39.020  24.024  26.777  1.00  0.00     0.188 C 
BRANCH  43  44
ATOM     44  O   UNL A   1      39.789  23.212  27.655  1.00  0.00    -0.376 OA
BRANCH  44  45
ATOM     45  C   UNL A   1      41.003  22.731  27.128  1.00  0.00     0.202 C 
BRANCH  45  46
ATOM     46  C   UNL A   1      42.111  23.789  26.885  1.00  0.00     0.261 C 
BRANCH  46  47
ATOM     47  O   UNL A   1      43.552  23.536  26.857  1.00  0.00    -0.460 OA
BRANCH  47  48
ATOM     48  C   UNL A   1      44.410  24.365  27.524  1.00  0.00     0.338 C 
ATOM     49  O   UNL A   1      45.144  25.171  26.969  1.00  0.00    -0.246 OA
BRANCH  48  50
ATOM     50  C   UNL A   1      44.263  24.287  29.048  1.00  0.00     0.060 A 
ATOM     51  C   UNL A   1      44.814  25.282  29.837  1.00  0.00     0.016 A 
ATOM     52  C   UNL A   1      43.751  23.185  29.766  1.00  0.00     0.016 A 
ATOM     53  C   UNL A   1      44.790  25.185  31.275  1.00  0.00     0.010 A 
ATOM     54  C   UNL A   1      43.828  23.050  31.239  1.00  0.00     0.010 A 
ATOM     55  C   UNL A   1      44.363  24.043  32.074  1.00  0.00    -0.014 A 
BRANCH  55  56
ATOM     56  C   UNL A   1      44.931  23.933  33.658  1.00  0.00     0.031 A 
ATOM     57  C   UNL A   1      43.793  24.546  34.402  1.00  0.00     0.074 A 
ATOM     58  C   UNL A   1      46.053  23.667  34.484  1.00  0.00     0.049 A 
ATOM     59  N   UNL A   1      43.398  25.728  34.023  1.00  0.00    -0.248 NA
ATOM     60  C   UNL A   1      42.790  23.821  35.184  1.00  0.00     0.031 C 
ATOM     61  C   UNL A   1      47.434  23.349  34.069  1.00  0.00     0.029 A 
ATOM     62  N   UNL A   1      46.263  23.636  35.931  1.00  0.00    -0.354 N 
ATOM     63  C   UNL A   1      42.323  26.065  34.782  1.00  0.00     0.074 A 
ATOM     64  C   UNL A   1      41.850  24.777  35.281  1.00  0.00     0.031 C 
ATOM     65  C   UNL A   1      48.248  23.024  35.124  1.00  0.00     0.029 A 
ATOM     66  C   UNL A   1      47.556  23.130  36.414  1.00  0.00     0.049 A 
ATOM     67  H   UNL A   1      45.567  23.943  36.557  1.00  0.00     0.167 HD
ATOM     68  C   UNL A   1      42.482  27.257  35.429  1.00  0.00     0.034 A 
ATOM     69  C   UNL A   1      48.080  22.907  37.708  1.00  0.00     0.034 A 
ATOM     70  C   UNL A   1      42.848  27.053  36.802  1.00  0.00     0.049 A 
ATOM     71  C   UNL A   1      47.347  23.826  38.582  1.00  0.00     0.074 A 
ATOM     72  C   UNL A   1      42.428  26.140  37.754  1.00  0.00     0.029 A 
ATOM     73  N   UNL A   1      44.107  27.468  37.175  1.00  0.00    -0.354 N 
ATOM     74  N   UNL A   1      47.697  25.073  38.677  1.00  0.00    -0.248 NA
ATOM     75  C   UNL A   1      46.293  23.398  39.491  1.00  0.00     0.031 C 
ATOM     76  C   UNL A   1      43.624  25.640  38.306  1.00  0.00     0.029 A 
ATOM     77  C   UNL A   1      44.635  26.555  38.065  1.00  0.00     0.049 A 
ATOM     78  H   UNL A   1      44.557  28.283  36.858  1.00  0.00     0.167 HD
ATOM     79  C   UNL A   1      46.559  25.647  39.142  1.00  0.00     0.074 A 
ATOM     80  C   UNL A   1      45.875  24.603  39.885  1.00  0.00     0.031 C 
ATOM     81  C   UNL A   1      46.040  26.622  38.359  1.00  0.00     0.034 A 
BRANCH  68  82
ATOM     82  C   UNL A   1      43.018  28.362  34.525  1.00  0.00     0.023 A 
ATOM     83  C   UNL A   1      44.407  28.406  34.329  1.00  0.00     0.012 A 
ATOM     84  C   UNL A   1      42.237  29.464  34.070  1.00  0.00     0.148 A 
ATOM     85  C   UNL A   1      45.009  29.538  33.769  1.00  0.00     0.002 A 
ATOM     86  C   UNL A   1      42.853  30.634  33.639  1.00  0.00     0.091 A 
ATOM     87  F   UNL A   1      40.897  29.362  34.068  1.00  0.00    -0.205 F 
ATOM     88  C   UNL A   1      44.243  30.665  33.472  1.00  0.00     0.022 A 
BRANCH  86  89
ATOM     89  S   UNL A   1      41.962  32.200  33.504  1.00  0.00     0.127 S 
ATOM     90  O   UNL A   1      42.820  32.978  32.604  1.00  0.00    -0.237 OA
ATOM     91  O   UNL A   1      40.689  31.800  32.916  1.00  0.00    -0.237 OA
ATOM     92  O   UNL A   1      41.885  32.754  34.851  1.00  0.00    -0.744 OA
ENDBRANCH  86  89
ENDBRANCH  68  82
BRANCH  69  93
ATOM     93  C   UNL A   1      49.248  22.309  38.631  1.00  0.00     0.023 A 
ATOM     94  C   UNL A   1      50.194  23.224  39.240  1.00  0.00     0.012 A 
ATOM     95  C   UNL A   1      49.159  21.067  39.304  1.00  0.00     0.148 A 
ATOM     96  C   UNL A   1      50.888  22.986  40.450  1.00  0.00     0.002 A 
ATOM     97  C   UNL A   1      49.884  20.817  40.511  1.00  0.00     0.091 A 
ATOM     98  F   UNL A   1      48.294  20.161  38.834  1.00  0.00    -0.205 F 
ATOM     99  C   UNL A   1      50.721  21.781  41.095  1.00  0.00     0.022 A 
BRANCH  97 100
ATOM    100  S   UNL A   1      49.734  19.298  41.487  1.00  0.00     0.127 S 
ATOM    101  O   UNL A   1      49.613  18.264  40.457  1.00  0.00    -0.237 OA
ATOM    102  O   UNL A   1      51.004  19.278  42.213  1.00  0.00    -0.237 OA
ATOM    103  O   UNL A   1      48.543  19.480  42.304  1.00  0.00    -0.744 OA
ENDBRANCH  97 100
ENDBRANCH  69  93
BRANCH  81 104
ATOM    104  C   UNL A   1      47.008  27.590  37.713  1.00  0.00     0.023 A 
ATOM    105  C   UNL A   1      47.471  27.523  36.378  1.00  0.00     0.012 A 
ATOM    106  C   UNL A   1      47.511  28.613  38.526  1.00  0.00     0.148 A 
ATOM    107  C   UNL A   1      48.428  28.422  35.893  1.00  0.00     0.002 A 
ATOM    108  C   UNL A   1      48.421  29.538  38.031  1.00  0.00     0.091 A 
ATOM    109  F   UNL A   1      47.100  28.658  39.803  1.00  0.00    -0.205 F 
ATOM    110  C   UNL A   1      48.894  29.443  36.717  1.00  0.00     0.022 A 
BRANCH 108 111
ATOM    111  S   UNL A   1      48.992  30.876  39.075  1.00  0.00     0.127 S 
ATOM    112  O   UNL A   1      49.570  31.795  38.098  1.00  0.00    -0.237 OA
ATOM    113  O   UNL A   1      47.766  31.354  39.711  1.00  0.00    -0.237 OA
ATOM    114  O   UNL A   1      49.944  30.261  39.996  1.00  0.00    -0.744 OA
ENDBRANCH 108 111
ENDBRANCH  81 104
ENDBRANCH  55  56
ENDBRANCH  48  50
ENDBRANCH  47  48
ENDBRANCH  46  47
ENDBRANCH  45  46
ENDBRANCH  44  45
ENDBRANCH  43  44
ENDBRANCH  42  43
ENDBRANCH  41  42
ENDBRANCH   1  41
TORSDOF 31
ENDMDL
