MODEL 1
REMARK VINA RESULT:      -6.9      0.000      0.000
REMARK SMILES CC/C(=C/C(=O)[C@H](Cc1ccc(Cl)cc1Cl)C(=O)OCCOCCOCCOCCOC(=O)c1ccc(-c2c3nc(c(-c4cccc(S(=O)(=O)[O-])c4F)c4ccc([nH]4)c(-c4cccc(S(=O)(=O)[O-])c4F)c4nc(c(-c5cccc(S(=O)(=O)[O-])c5F)c5ccc2[nH]5)C=C4)C=C3)cc1)N(C)C
REMARK SMILES IDX 25 1 24 2 23 3 22 4 21 5 20 6 19 7 17 8 18 9 7 10 5 11 6 12
REMARK SMILES IDX 4 13 3 14 2 15 1 16 97 17 98 18 99 19 8 20 9 21 10 22 15 23
REMARK SMILES IDX 11 24 14 25 16 26 12 27 13 28 26 29 27 30 28 31 29 32 30 33
REMARK SMILES IDX 31 34 32 35 33 36 34 37 35 38 96 39 36 40 95 41 37 42 38 43
REMARK SMILES IDX 39 44 89 45 40 46 94 47 88 48 90 49 41 50 93 51 87 52 86 53
REMARK SMILES IDX 42 55 74 56 54 57 73 58 55 59 58 60 72 61 91 62 56 63 57 64
REMARK SMILES IDX 71 66 92 67 59 68 43 69 44 70 52 71 45 72 47 73 53 74 46 75
REMARK SMILES IDX 48 76 49 77 50 78 51 79 75 80 76 81 84 82 77 83 79 84 85 85
REMARK SMILES IDX 78 86 80 87 81 88 82 89 83 90 60 91 61 92 69 93 62 94 64 95
REMARK SMILES IDX 70 96 63 97 65 98 66 99 67 100 68 101
REMARK H PARENT 90 54 58 65
REMARK Flexibility Score: inf
ROOT
ATOM      1  O   UNL A   1      36.784  20.959  25.473  1.00  0.00    -0.377 OA
ENDROOT
BRANCH   1   2
ATOM      2  C   UNL A   1      37.746  20.203  24.785  1.00  0.00     0.188 C 
BRANCH   2   3
ATOM      3  C   UNL A   1      38.923  19.680  25.619  1.00  0.00     0.188 C 
BRANCH   3   4
ATOM      4  O   UNL A   1      40.250  19.770  25.125  1.00  0.00    -0.376 OA
BRANCH   4   5
ATOM      5  C   UNL A   1      41.342  19.550  26.011  1.00  0.00     0.202 C 
BRANCH   5   6
ATOM      6  C   UNL A   1      42.774  19.951  25.583  1.00  0.00     0.261 C 
BRANCH   6   7
ATOM      7  O   UNL A   1      43.392  21.048  26.313  1.00  0.00    -0.463 OA
BRANCH   7   8
ATOM      8  C   UNL A   1      43.619  22.179  25.613  1.00  0.00     0.317 C 
ATOM      9  O   UNL A   1      43.047  22.420  24.547  1.00  0.00    -0.251 OA
BRANCH   8  10
ATOM     10  C   UNL A   1      44.468  23.272  26.280  1.00  0.00     0.175 C 
BRANCH  10  11
ATOM     11  C   UNL A   1      45.033  24.070  25.149  1.00  0.00     0.171 C 
ATOM     12  O   UNL A   1      45.259  23.532  24.060  1.00  0.00    -0.294 OA
BRANCH  11  13
ATOM     13  C   UNL A   1      45.315  25.518  25.267  1.00  0.00     0.069 C 
ATOM     14  C   UNL A   1      46.397  26.324  25.265  1.00  0.00     0.016 C 
BRANCH  14  15
ATOM     15  C   UNL A   1      46.030  27.813  25.288  1.00  0.00     0.050 C 
ATOM     16  C   UNL A   1      46.497  28.541  24.040  1.00  0.00     0.010 C 
ENDBRANCH  14  15
BRANCH  14  17
ATOM     17  N   UNL A   1      47.770  26.023  25.209  1.00  0.00    -0.381 N 
ATOM     18  C   UNL A   1      48.555  25.709  26.410  1.00  0.00     0.143 C 
ATOM     19  C   UNL A   1      48.468  25.615  23.981  1.00  0.00     0.143 C 
ENDBRANCH  14  17
ENDBRANCH  11  13
ENDBRANCH  10  11
BRANCH  10  20
ATOM     20  C   UNL A   1      45.586  23.127  27.344  1.00  0.00     0.060 C 
BRANCH  20  21
ATOM     21  C   UNL A   1      45.377  24.099  28.541  1.00  0.00    -0.028 A 
ATOM     22  C   UNL A   1      46.288  25.154  28.763  1.00  0.00     0.007 A 
ATOM     23  C   UNL A   1      44.342  23.967  29.485  1.00  0.00     0.045 A 
ATOM     24  C   UNL A   1      46.181  26.036  29.845  1.00  0.00     0.021 A 
ATOM     25  C   UNL A   1      44.228  24.850  30.577  1.00  0.00     0.041 A 
ATOM     26  Cl  UNL A   1      43.165  22.708  29.393  1.00  0.00    -0.084 Cl
ATOM     27  C   UNL A   1      45.147  25.878  30.752  1.00  0.00     0.042 A 
ATOM     28  Cl  UNL A   1      45.047  26.917  32.120  1.00  0.00    -0.084 Cl
ENDBRANCH  20  21
ENDBRANCH  10  20
ENDBRANCH   8  10
ENDBRANCH   7   8
ENDBRANCH   6   7
ENDBRANCH   5   6
ENDBRANCH   4   5
ENDBRANCH   3   4
ENDBRANCH   2   3
ENDBRANCH   1   2
BRANCH   1  29
ATOM     29  C   UNL A   1      36.601  22.284  25.026  1.00  0.00     0.188 C 
BRANCH  29  30
ATOM     30  C   UNL A   1      37.072  23.390  25.986  1.00  0.00     0.188 C 
BRANCH  30  31
ATOM     31  O   UNL A   1      38.470  23.670  25.909  1.00  0.00    -0.376 OA
BRANCH  31  32
ATOM     32  C   UNL A   1      39.302  23.274  26.991  1.00  0.00     0.202 C 
BRANCH  32  33
ATOM     33  C   UNL A   1      40.718  23.876  27.085  1.00  0.00     0.261 C 
BRANCH  33  34
ATOM     34  O   UNL A   1      40.830  25.302  26.980  1.00  0.00    -0.460 OA
BRANCH  34  35
ATOM     35  C   UNL A   1      41.684  25.802  26.055  1.00  0.00     0.338 C 
ATOM     36  O   UNL A   1      41.859  25.389  24.932  1.00  0.00    -0.246 OA
BRANCH  35  37
ATOM     37  C   UNL A   1      42.199  27.094  26.574  1.00  0.00     0.060 A 
ATOM     38  C   UNL A   1      43.016  27.076  27.713  1.00  0.00     0.016 A 
ATOM     39  C   UNL A   1      41.912  28.301  25.931  1.00  0.00     0.016 A 
ATOM     40  C   UNL A   1      43.519  28.267  28.235  1.00  0.00     0.010 A 
ATOM     41  C   UNL A   1      42.386  29.498  26.476  1.00  0.00     0.010 A 
ATOM     42  C   UNL A   1      43.156  29.488  27.654  1.00  0.00    -0.014 A 
BRANCH  42  43
ATOM     43  C   UNL A   1      43.358  30.736  28.427  1.00  0.00     0.031 A 
ATOM     44  C   UNL A   1      44.549  31.589  28.079  1.00  0.00     0.074 A 
ATOM     45  C   UNL A   1      42.502  31.127  29.388  1.00  0.00     0.049 A 
ATOM     46  N   UNL A   1      44.950  32.714  28.607  1.00  0.00    -0.248 NA
ATOM     47  C   UNL A   1      45.405  31.101  26.982  1.00  0.00     0.031 C 
ATOM     48  C   UNL A   1      41.303  30.403  29.804  1.00  0.00     0.029 A 
ATOM     49  N   UNL A   1      42.531  32.232  30.204  1.00  0.00    -0.354 N 
ATOM     50  C   UNL A   1      46.117  33.051  27.933  1.00  0.00     0.074 A 
ATOM     51  C   UNL A   1      46.369  32.009  26.965  1.00  0.00     0.031 C 
ATOM     52  C   UNL A   1      40.724  31.068  30.819  1.00  0.00     0.029 A 
ATOM     53  C   UNL A   1      41.524  32.250  31.141  1.00  0.00     0.049 A 
ATOM     54  H   UNL A   1      43.207  32.943  30.125  1.00  0.00     0.167 HD
ATOM     55  C   UNL A   1      46.906  34.140  28.093  1.00  0.00     0.034 A 
ATOM     56  C   UNL A   1      41.295  33.108  32.156  1.00  0.00     0.034 A 
ATOM     57  C   UNL A   1      46.650  35.181  29.049  1.00  0.00     0.049 A 
ATOM     58  C   UNL A   1      42.212  34.293  32.342  1.00  0.00     0.074 A 
ATOM     59  C   UNL A   1      47.366  36.344  29.263  1.00  0.00     0.029 A 
ATOM     60  N   UNL A   1      45.609  35.175  29.964  1.00  0.00    -0.354 N 
ATOM     61  N   UNL A   1      43.250  34.657  31.627  1.00  0.00    -0.248 NA
ATOM     62  C   UNL A   1      41.907  35.202  33.456  1.00  0.00     0.031 C 
ATOM     63  C   UNL A   1      46.783  37.022  30.337  1.00  0.00     0.029 A 
ATOM     64  C   UNL A   1      45.674  36.307  30.758  1.00  0.00     0.049 A 
ATOM     65  H   UNL A   1      44.926  34.471  30.038  1.00  0.00     0.167 HD
ATOM     66  C   UNL A   1      43.693  35.855  32.177  1.00  0.00     0.074 A 
ATOM     67  C   UNL A   1      42.801  36.164  33.275  1.00  0.00     0.031 C 
ATOM     68  C   UNL A   1      44.747  36.627  31.814  1.00  0.00     0.034 A 
BRANCH  55  69
ATOM     69  C   UNL A   1      48.119  34.256  27.211  1.00  0.00     0.023 A 
ATOM     70  C   UNL A   1      48.033  34.937  25.979  1.00  0.00     0.012 A 
ATOM     71  C   UNL A   1      49.356  33.723  27.621  1.00  0.00     0.148 A 
ATOM     72  C   UNL A   1      49.151  35.053  25.153  1.00  0.00     0.002 A 
ATOM     73  C   UNL A   1      50.476  33.888  26.817  1.00  0.00     0.091 A 
ATOM     74  F   UNL A   1      49.411  33.058  28.784  1.00  0.00    -0.205 F 
ATOM     75  C   UNL A   1      50.373  34.540  25.578  1.00  0.00     0.022 A 
BRANCH  73  76
ATOM     76  S   UNL A   1      52.112  33.334  27.311  1.00  0.00     0.127 S 
ATOM     77  O   UNL A   1      51.858  31.935  27.653  1.00  0.00    -0.237 OA
ATOM     78  O   UNL A   1      52.884  33.532  26.084  1.00  0.00    -0.237 OA
ATOM     79  O   UNL A   1      52.507  34.184  28.425  1.00  0.00    -0.744 OA
ENDBRANCH  73  76
ENDBRANCH  55  69
BRANCH  56  80
ATOM     80  C   UNL A   1      40.139  32.896  33.073  1.00  0.00     0.023 A 
ATOM     81  C   UNL A   1      40.329  32.219  34.294  1.00  0.00     0.012 A 
ATOM     82  C   UNL A   1      38.851  33.353  32.736  1.00  0.00     0.148 A 
ATOM     83  C   UNL A   1      39.251  31.970  35.146  1.00  0.00     0.002 A 
ATOM     84  C   UNL A   1      37.792  33.151  33.613  1.00  0.00     0.091 A 
ATOM     85  F   UNL A   1      38.688  33.979  31.562  1.00  0.00    -0.205 F 
ATOM     86  C   UNL A   1      37.985  32.444  34.810  1.00  0.00     0.022 A 
BRANCH  84  87
ATOM     87  S   UNL A   1      36.154  33.826  33.321  1.00  0.00     0.127 S 
ATOM     88  O   UNL A   1      35.369  33.162  34.359  1.00  0.00    -0.237 OA
ATOM     89  O   UNL A   1      36.378  35.256  33.536  1.00  0.00    -0.237 OA
ATOM     90  O   UNL A   1      35.818  33.465  31.951  1.00  0.00    -0.744 OA
ENDBRANCH  84  87
ENDBRANCH  56  80
BRANCH  68  91
ATOM     91  C   UNL A   1      44.973  37.914  32.565  1.00  0.00     0.023 A 
ATOM     92  C   UNL A   1      45.816  37.940  33.693  1.00  0.00     0.012 A 
ATOM     93  C   UNL A   1      44.408  39.119  32.098  1.00  0.00     0.148 A 
ATOM     94  C   UNL A   1      46.065  39.137  34.365  1.00  0.00     0.002 A 
ATOM     95  C   UNL A   1      44.705  40.316  32.739  1.00  0.00     0.091 A 
ATOM     96  F   UNL A   1      43.597  39.073  31.031  1.00  0.00    -0.205 F 
ATOM     97  C   UNL A   1      45.520  40.324  33.882  1.00  0.00     0.022 A 
BRANCH  95  98
ATOM     98  S   UNL A   1      44.133  41.905  32.128  1.00  0.00     0.127 S 
ATOM     99  O   UNL A   1      44.657  41.905  30.764  1.00  0.00    -0.237 OA
ATOM    100  O   UNL A   1      42.679  41.767  32.222  1.00  0.00    -0.237 OA
ATOM    101  O   UNL A   1      44.704  42.909  33.015  1.00  0.00    -0.744 OA
ENDBRANCH  95  98
ENDBRANCH  68  91
ENDBRANCH  42  43
ENDBRANCH  35  37
ENDBRANCH  34  35
ENDBRANCH  33  34
ENDBRANCH  32  33
ENDBRANCH  31  32
ENDBRANCH  30  31
ENDBRANCH  29  30
ENDBRANCH   1  29
TORSDOF 29
ENDMDL
MODEL 2
REMARK VINA RESULT:      -6.5      3.631      6.862
REMARK SMILES CC/C(=C/C(=O)[C@H](Cc1ccc(Cl)cc1Cl)C(=O)OCCOCCOCCOCCOC(=O)c1ccc(-c2c3nc(c(-c4cccc(S(=O)(=O)[O-])c4F)c4ccc([nH]4)c(-c4cccc(S(=O)(=O)[O-])c4F)c4nc(c(-c5cccc(S(=O)(=O)[O-])c5F)c5ccc2[nH]5)C=C4)C=C3)cc1)N(C)C
REMARK SMILES IDX 25 1 24 2 23 3 22 4 21 5 20 6 19 7 17 8 18 9 7 10 5 11 6 12
REMARK SMILES IDX 4 13 3 14 2 15 1 16 97 17 98 18 99 19 8 20 9 21 10 22 15 23
REMARK SMILES IDX 11 24 14 25 16 26 12 27 13 28 26 29 27 30 28 31 29 32 30 33
REMARK SMILES IDX 31 34 32 35 33 36 34 37 35 38 96 39 36 40 95 41 37 42 38 43
REMARK SMILES IDX 39 44 89 45 40 46 94 47 88 48 90 49 41 50 93 51 87 52 86 53
REMARK SMILES IDX 42 55 74 56 54 57 73 58 55 59 58 60 72 61 91 62 56 63 57 64
REMARK SMILES IDX 71 66 92 67 59 68 43 69 44 70 52 71 45 72 47 73 53 74 46 75
REMARK SMILES IDX 48 76 49 77 50 78 51 79 75 80 76 81 84 82 77 83 79 84 85 85
REMARK SMILES IDX 78 86 80 87 81 88 82 89 83 90 60 91 61 92 69 93 62 94 64 95
REMARK SMILES IDX 70 96 63 97 65 98 66 99 67 100 68 101
REMARK H PARENT 90 54 58 65
REMARK Flexibility Score: inf
ROOT
ATOM      1  O   UNL A   1      39.657  23.890  27.492  1.00  0.00    -0.377 OA
ENDROOT
BRANCH   1   2
ATOM      2  C   UNL A   1      38.724  24.252  26.507  1.00  0.00     0.188 C 
BRANCH   2   3
ATOM      3  C   UNL A   1      37.442  23.412  26.444  1.00  0.00     0.188 C 
BRANCH   3   4
ATOM      4  O   UNL A   1      36.191  24.027  26.180  1.00  0.00    -0.376 OA
BRANCH   4   5
ATOM      5  C   UNL A   1      35.026  23.219  26.060  1.00  0.00     0.202 C 
BRANCH   5   6
ATOM      6  C   UNL A   1      33.737  23.607  26.824  1.00  0.00     0.261 C 
BRANCH   6   7
ATOM      7  O   UNL A   1      32.944  24.689  26.263  1.00  0.00    -0.463 OA
BRANCH   7   8
ATOM      8  C   UNL A   1      31.605  24.518  26.274  1.00  0.00     0.317 C 
ATOM      9  O   UNL A   1      31.026  23.907  27.176  1.00  0.00    -0.251 OA
BRANCH   8  10
ATOM     10  C   UNL A   1      30.779  25.284  25.229  1.00  0.00     0.175 C 
BRANCH  10  11
ATOM     11  C   UNL A   1      30.922  24.495  23.967  1.00  0.00     0.171 C 
ATOM     12  O   UNL A   1      29.919  24.118  23.352  1.00  0.00    -0.294 OA
BRANCH  11  13
ATOM     13  C   UNL A   1      32.243  24.162  23.391  1.00  0.00     0.069 C 
ATOM     14  C   UNL A   1      32.923  23.050  23.038  1.00  0.00     0.016 C 
BRANCH  14  15
ATOM     15  C   UNL A   1      34.251  23.362  22.339  1.00  0.00     0.050 C 
ATOM     16  C   UNL A   1      35.445  22.805  23.095  1.00  0.00     0.010 C 
ENDBRANCH  14  15
BRANCH  14  17
ATOM     17  N   UNL A   1      32.596  21.689  23.173  1.00  0.00    -0.381 N 
ATOM     18  C   UNL A   1      32.491  21.033  24.484  1.00  0.00     0.143 C 
ATOM     19  C   UNL A   1      31.962  20.890  22.113  1.00  0.00     0.143 C 
ENDBRANCH  14  17
ENDBRANCH  11  13
ENDBRANCH  10  11
BRANCH  10  20
ATOM     20  C   UNL A   1      30.842  26.784  24.844  1.00  0.00     0.060 C 
BRANCH  20  21
ATOM     21  C   UNL A   1      31.951  27.539  25.632  1.00  0.00    -0.028 A 
ATOM     22  C   UNL A   1      31.673  28.075  26.908  1.00  0.00     0.007 A 
ATOM     23  C   UNL A   1      33.241  27.784  25.127  1.00  0.00     0.045 A 
ATOM     24  C   UNL A   1      32.612  28.801  27.649  1.00  0.00     0.021 A 
ATOM     25  C   UNL A   1      34.192  28.515  25.866  1.00  0.00     0.041 A 
ATOM     26  Cl  UNL A   1      33.740  27.240  23.566  1.00  0.00    -0.084 Cl
ATOM     27  C   UNL A   1      33.873  29.020  27.121  1.00  0.00     0.042 A 
ATOM     28  Cl  UNL A   1      35.011  29.967  27.998  1.00  0.00    -0.084 Cl
ENDBRANCH  20  21
ENDBRANCH  10  20
ENDBRANCH   8  10
ENDBRANCH   7   8
ENDBRANCH   6   7
ENDBRANCH   5   6
ENDBRANCH   4   5
ENDBRANCH   3   4
ENDBRANCH   2   3
ENDBRANCH   1   2
BRANCH   1  29
ATOM     29  C   UNL A   1      40.418  22.732  27.228  1.00  0.00     0.188 C 
BRANCH  29  30
ATOM     30  C   UNL A   1      41.872  22.753  27.728  1.00  0.00     0.188 C 
BRANCH  30  31
ATOM     31  O   UNL A   1      42.830  22.368  26.743  1.00  0.00    -0.376 OA
BRANCH  31  32
ATOM     32  C   UNL A   1      42.781  22.993  25.467  1.00  0.00     0.202 C 
BRANCH  32  33
ATOM     33  C   UNL A   1      43.247  24.457  25.351  1.00  0.00     0.261 C 
BRANCH  33  34
ATOM     34  O   UNL A   1      44.331  24.867  26.194  1.00  0.00    -0.460 OA
BRANCH  34  35
ATOM     35  C   UNL A   1      45.118  25.883  25.764  1.00  0.00     0.338 C 
ATOM     36  O   UNL A   1      45.785  25.905  24.756  1.00  0.00    -0.246 OA
BRANCH  35  37
ATOM     37  C   UNL A   1      44.836  27.061  26.623  1.00  0.00     0.060 A 
ATOM     38  C   UNL A   1      43.997  28.065  26.120  1.00  0.00     0.016 A 
ATOM     39  C   UNL A   1      45.359  27.160  27.914  1.00  0.00     0.016 A 
ATOM     40  C   UNL A   1      43.709  29.190  26.893  1.00  0.00     0.010 A 
ATOM     41  C   UNL A   1      45.099  28.304  28.674  1.00  0.00     0.010 A 
ATOM     42  C   UNL A   1      44.307  29.342  28.149  1.00  0.00    -0.014 A 
BRANCH  42  43
ATOM     43  C   UNL A   1      44.319  30.684  28.779  1.00  0.00     0.031 A 
ATOM     44  C   UNL A   1      45.338  31.677  28.287  1.00  0.00     0.074 A 
ATOM     45  C   UNL A   1      43.438  31.032  29.734  1.00  0.00     0.049 A 
ATOM     46  N   UNL A   1      45.560  32.904  28.676  1.00  0.00    -0.248 NA
ATOM     47  C   UNL A   1      46.231  31.219  27.207  1.00  0.00     0.031 C 
ATOM     48  C   UNL A   1      42.392  30.172  30.278  1.00  0.00     0.029 A 
ATOM     49  N   UNL A   1      43.305  32.209  30.428  1.00  0.00    -0.354 N 
ATOM     50  C   UNL A   1      46.633  33.353  27.916  1.00  0.00     0.074 A 
ATOM     51  C   UNL A   1      47.027  32.265  27.050  1.00  0.00     0.031 C 
ATOM     52  C   UNL A   1      41.739  30.840  31.246  1.00  0.00     0.029 A 
ATOM     53  C   UNL A   1      42.338  32.164  31.406  1.00  0.00     0.049 A 
ATOM     54  H   UNL A   1      43.849  33.009  30.244  1.00  0.00     0.167 HD
ATOM     55  C   UNL A   1      47.230  34.567  27.925  1.00  0.00     0.034 A 
ATOM     56  C   UNL A   1      41.998  33.080  32.336  1.00  0.00     0.034 A 
ATOM     57  C   UNL A   1      46.832  35.650  28.779  1.00  0.00     0.049 A 
ATOM     58  C   UNL A   1      42.708  34.412  32.354  1.00  0.00     0.074 A 
ATOM     59  C   UNL A   1      47.348  36.931  28.837  1.00  0.00     0.029 A 
ATOM     60  N   UNL A   1      45.835  35.574  29.739  1.00  0.00    -0.354 N 
ATOM     61  N   UNL A   1      43.647  34.861  31.557  1.00  0.00    -0.248 NA
ATOM     62  C   UNL A   1      42.287  35.376  33.382  1.00  0.00     0.031 C 
ATOM     63  C   UNL A   1      46.691  37.619  29.862  1.00  0.00     0.029 A 
ATOM     64  C   UNL A   1      45.731  36.781  30.407  1.00  0.00     0.049 A 
ATOM     65  H   UNL A   1      45.283  34.780  29.918  1.00  0.00     0.167 HD
ATOM     66  C   UNL A   1      43.899  36.169  31.958  1.00  0.00     0.074 A 
ATOM     67  C   UNL A   1      43.001  36.446  33.060  1.00  0.00     0.031 C 
ATOM     68  C   UNL A   1      44.796  37.059  31.467  1.00  0.00     0.034 A 
BRANCH  55  69
ATOM     69  C   UNL A   1      48.380  34.783  26.978  1.00  0.00     0.023 A 
ATOM     70  C   UNL A   1      48.147  35.327  25.698  1.00  0.00     0.012 A 
ATOM     71  C   UNL A   1      49.698  34.483  27.372  1.00  0.00     0.148 A 
ATOM     72  C   UNL A   1      49.205  35.534  24.812  1.00  0.00     0.002 A 
ATOM     73  C   UNL A   1      50.751  34.740  26.504  1.00  0.00     0.091 A 
ATOM     74  F   UNL A   1      49.895  33.943  28.583  1.00  0.00    -0.205 F 
ATOM     75  C   UNL A   1      50.505  35.251  25.220  1.00  0.00     0.022 A 
BRANCH  73  76
ATOM     76  S   UNL A   1      52.469  34.486  26.964  1.00  0.00     0.127 S 
ATOM     77  O   UNL A   1      52.612  33.043  26.780  1.00  0.00    -0.237 OA
ATOM     78  O   UNL A   1      53.172  35.301  25.973  1.00  0.00    -0.237 OA
ATOM     79  O   UNL A   1      52.592  34.954  28.337  1.00  0.00    -0.744 OA
ENDBRANCH  73  76
ENDBRANCH  55  69
BRANCH  56  80
ATOM     80  C   UNL A   1      40.922  32.783  33.325  1.00  0.00     0.023 A 
ATOM     81  C   UNL A   1      41.223  32.041  34.485  1.00  0.00     0.012 A 
ATOM     82  C   UNL A   1      39.602  33.223  33.115  1.00  0.00     0.148 A 
ATOM     83  C   UNL A   1      40.220  31.713  35.399  1.00  0.00     0.002 A 
ATOM     84  C   UNL A   1      38.619  32.942  34.057  1.00  0.00     0.091 A 
ATOM     85  F   UNL A   1      39.334  33.912  31.997  1.00  0.00    -0.205 F 
ATOM     86  C   UNL A   1      38.921  32.172  35.191  1.00  0.00     0.022 A 
BRANCH  84  87
ATOM     87  S   UNL A   1      36.949  33.587  33.932  1.00  0.00     0.127 S 
ATOM     88  O   UNL A   1      36.495  32.997  32.675  1.00  0.00    -0.237 OA
ATOM     89  O   UNL A   1      36.325  33.033  35.134  1.00  0.00    -0.237 OA
ATOM     90  O   UNL A   1      37.085  35.037  33.933  1.00  0.00    -0.744 OA
ENDBRANCH  84  87
ENDBRANCH  56  80
BRANCH  68  91
ATOM     91  C   UNL A   1      44.824  38.441  32.070  1.00  0.00     0.023 A 
ATOM     92  C   UNL A   1      45.674  38.725  33.156  1.00  0.00     0.012 A 
ATOM     93  C   UNL A   1      44.062  39.481  31.499  1.00  0.00     0.148 A 
ATOM     94  C   UNL A   1      45.738  40.013  33.689  1.00  0.00     0.002 A 
ATOM     95  C   UNL A   1      44.172  40.773  32.000  1.00  0.00     0.091 A 
ATOM     96  F   UNL A   1      43.248  39.189  30.474  1.00  0.00    -0.205 F 
ATOM     97  C   UNL A   1      44.997  41.037  33.104  1.00  0.00     0.022 A 
BRANCH  95  98
ATOM     98  S   UNL A   1      43.337  42.173  31.246  1.00  0.00     0.127 S 
ATOM     99  O   UNL A   1      44.173  43.289  31.684  1.00  0.00    -0.237 OA
ATOM    100  O   UNL A   1      43.437  41.861  29.819  1.00  0.00    -0.237 OA
ATOM    101  O   UNL A   1      41.979  42.167  31.774  1.00  0.00    -0.744 OA
ENDBRANCH  95  98
ENDBRANCH  68  91
ENDBRANCH  42  43
ENDBRANCH  35  37
ENDBRANCH  34  35
ENDBRANCH  33  34
ENDBRANCH  32  33
ENDBRANCH  31  32
ENDBRANCH  30  31
ENDBRANCH  29  30
ENDBRANCH   1  29
TORSDOF 29
ENDMDL
MODEL 3
REMARK VINA RESULT:      -6.4      3.644      7.123
REMARK SMILES CC/C(=C/C(=O)[C@H](Cc1ccc(Cl)cc1Cl)C(=O)OCCOCCOCCOCCOC(=O)c1ccc(-c2c3nc(c(-c4cccc(S(=O)(=O)[O-])c4F)c4ccc([nH]4)c(-c4cccc(S(=O)(=O)[O-])c4F)c4nc(c(-c5cccc(S(=O)(=O)[O-])c5F)c5ccc2[nH]5)C=C4)C=C3)cc1)N(C)C
REMARK SMILES IDX 25 1 24 2 23 3 22 4 21 5 20 6 19 7 17 8 18 9 7 10 5 11 6 12
REMARK SMILES IDX 4 13 3 14 2 15 1 16 97 17 98 18 99 19 8 20 9 21 10 22 15 23
REMARK SMILES IDX 11 24 14 25 16 26 12 27 13 28 26 29 27 30 28 31 29 32 30 33
REMARK SMILES IDX 31 34 32 35 33 36 34 37 35 38 96 39 36 40 95 41 37 42 38 43
REMARK SMILES IDX 39 44 89 45 40 46 94 47 88 48 90 49 41 50 93 51 87 52 86 53
REMARK SMILES IDX 42 55 74 56 54 57 73 58 55 59 58 60 72 61 91 62 56 63 57 64
REMARK SMILES IDX 71 66 92 67 59 68 43 69 44 70 52 71 45 72 47 73 53 74 46 75
REMARK SMILES IDX 48 76 49 77 50 78 51 79 75 80 76 81 84 82 77 83 79 84 85 85
REMARK SMILES IDX 78 86 80 87 81 88 82 89 83 90 60 91 61 92 69 93 62 94 64 95
REMARK SMILES IDX 70 96 63 97 65 98 66 99 67 100 68 101
REMARK H PARENT 90 54 58 65
REMARK Flexibility Score: inf
ROOT
ATOM      1  O   UNL A   1      40.311  24.153  27.776  1.00  0.00    -0.377 OA
ENDROOT
BRANCH   1   2
ATOM      2  C   UNL A   1      39.368  24.264  26.743  1.00  0.00     0.188 C 
BRANCH   2   3
ATOM      3  C   UNL A   1      38.796  22.947  26.200  1.00  0.00     0.188 C 
BRANCH   3   4
ATOM      4  O   UNL A   1      37.402  22.688  26.263  1.00  0.00    -0.376 OA
BRANCH   4   5
ATOM      5  C   UNL A   1      36.490  23.632  25.713  1.00  0.00     0.202 C 
BRANCH   5   6
ATOM      6  C   UNL A   1      36.018  23.483  24.246  1.00  0.00     0.261 C 
BRANCH   6   7
ATOM      7  O   UNL A   1      34.877  22.611  24.012  1.00  0.00    -0.463 OA
BRANCH   7   8
ATOM      8  C   UNL A   1      33.968  23.044  23.114  1.00  0.00     0.317 C 
ATOM      9  O   UNL A   1      34.290  23.463  21.999  1.00  0.00    -0.251 OA
BRANCH   8  10
ATOM     10  C   UNL A   1      32.483  22.813  23.435  1.00  0.00     0.175 C 
BRANCH  10  11
ATOM     11  C   UNL A   1      31.921  24.178  23.675  1.00  0.00     0.171 C 
ATOM     12  O   UNL A   1      30.699  24.349  23.715  1.00  0.00    -0.294 OA
BRANCH  11  13
ATOM     13  C   UNL A   1      32.785  25.358  23.902  1.00  0.00     0.069 C 
ATOM     14  C   UNL A   1      32.641  26.698  23.970  1.00  0.00     0.016 C 
BRANCH  14  15
ATOM     15  C   UNL A   1      33.931  27.414  24.385  1.00  0.00     0.050 C 
ATOM     16  C   UNL A   1      34.117  27.441  25.893  1.00  0.00     0.010 C 
ENDBRANCH  14  15
BRANCH  14  17
ATOM     17  N   UNL A   1      31.514  27.515  23.765  1.00  0.00    -0.381 N 
ATOM     18  C   UNL A   1      30.400  27.572  24.721  1.00  0.00     0.143 C 
ATOM     19  C   UNL A   1      31.486  28.650  22.830  1.00  0.00     0.143 C 
ENDBRANCH  14  17
ENDBRANCH  11  13
ENDBRANCH  10  11
BRANCH  10  20
ATOM     20  C   UNL A   1      31.847  21.863  24.481  1.00  0.00     0.060 C 
BRANCH  20  21
ATOM     21  C   UNL A   1      32.299  20.388  24.276  1.00  0.00    -0.028 A 
ATOM     22  C   UNL A   1      32.814  19.649  25.363  1.00  0.00     0.007 A 
ATOM     23  C   UNL A   1      32.283  19.730  23.033  1.00  0.00     0.045 A 
ATOM     24  C   UNL A   1      33.278  18.335  25.236  1.00  0.00     0.021 A 
ATOM     25  C   UNL A   1      32.749  18.407  22.897  1.00  0.00     0.041 A 
ATOM     26  Cl  UNL A   1      31.727  20.497  21.590  1.00  0.00    -0.084 Cl
ATOM     27  C   UNL A   1      33.244  17.718  23.998  1.00  0.00     0.042 A 
ATOM     28  Cl  UNL A   1      33.873  16.125  23.822  1.00  0.00    -0.084 Cl
ENDBRANCH  20  21
ENDBRANCH  10  20
ENDBRANCH   8  10
ENDBRANCH   7   8
ENDBRANCH   6   7
ENDBRANCH   5   6
ENDBRANCH   4   5
ENDBRANCH   3   4
ENDBRANCH   2   3
ENDBRANCH   1   2
BRANCH   1  29
ATOM     29  C   UNL A   1      41.288  23.148  27.617  1.00  0.00     0.188 C 
BRANCH  29  30
ATOM     30  C   UNL A   1      42.716  23.522  28.047  1.00  0.00     0.188 C 
BRANCH  30  31
ATOM     31  O   UNL A   1      43.702  23.308  27.037  1.00  0.00    -0.376 OA
BRANCH  31  32
ATOM     32  C   UNL A   1      43.494  23.882  25.753  1.00  0.00     0.202 C 
BRANCH  32  33
ATOM     33  C   UNL A   1      43.377  25.416  25.648  1.00  0.00     0.261 C 
BRANCH  33  34
ATOM     34  O   UNL A   1      44.221  26.196  26.503  1.00  0.00    -0.460 OA
BRANCH  34  35
ATOM     35  C   UNL A   1      44.836  27.279  25.968  1.00  0.00     0.338 C 
ATOM     36  O   UNL A   1      45.289  27.375  24.851  1.00  0.00    -0.246 OA
BRANCH  35  37
ATOM     37  C   UNL A   1      44.647  28.411  26.909  1.00  0.00     0.060 A 
ATOM     38  C   UNL A   1      43.624  29.332  26.646  1.00  0.00     0.016 A 
ATOM     39  C   UNL A   1      45.440  28.545  28.052  1.00  0.00     0.016 A 
ATOM     40  C   UNL A   1      43.415  30.412  27.503  1.00  0.00     0.010 A 
ATOM     41  C   UNL A   1      45.253  29.648  28.891  1.00  0.00     0.010 A 
ATOM     42  C   UNL A   1      44.267  30.607  28.596  1.00  0.00    -0.014 A 
BRANCH  42  43
ATOM     43  C   UNL A   1      44.294  31.935  29.254  1.00  0.00     0.031 A 
ATOM     44  C   UNL A   1      45.270  32.955  28.729  1.00  0.00     0.074 A 
ATOM     45  C   UNL A   1      43.463  32.248  30.265  1.00  0.00     0.049 A 
ATOM     46  N   UNL A   1      45.494  34.176  29.133  1.00  0.00    -0.248 NA
ATOM     47  C   UNL A   1      46.107  32.535  27.591  1.00  0.00     0.031 C 
ATOM     48  C   UNL A   1      42.462  31.359  30.848  1.00  0.00     0.029 A 
ATOM     49  N   UNL A   1      43.352  33.408  30.992  1.00  0.00    -0.354 N 
ATOM     50  C   UNL A   1      46.516  34.658  28.324  1.00  0.00     0.074 A 
ATOM     51  C   UNL A   1      46.877  33.596  27.413  1.00  0.00     0.031 C 
ATOM     52  C   UNL A   1      41.855  31.996  31.865  1.00  0.00     0.029 A 
ATOM     53  C   UNL A   1      42.443  33.326  32.021  1.00  0.00     0.049 A 
ATOM     54  H   UNL A   1      43.873  34.220  30.796  1.00  0.00     0.167 HD
ATOM     55  C   UNL A   1      47.096  35.881  28.327  1.00  0.00     0.034 A 
ATOM     56  C   UNL A   1      42.142  34.215  32.989  1.00  0.00     0.034 A 
ATOM     57  C   UNL A   1      46.731  36.939  29.226  1.00  0.00     0.049 A 
ATOM     58  C   UNL A   1      42.833  35.559  32.998  1.00  0.00     0.074 A 
ATOM     59  C   UNL A   1      47.230  38.227  29.284  1.00  0.00     0.029 A 
ATOM     60  N   UNL A   1      45.790  36.827  30.238  1.00  0.00    -0.354 N 
ATOM     61  N   UNL A   1      43.719  36.039  32.160  1.00  0.00    -0.248 NA
ATOM     62  C   UNL A   1      42.456  36.493  34.069  1.00  0.00     0.031 C 
ATOM     63  C   UNL A   1      46.622  38.881  30.360  1.00  0.00     0.029 A 
ATOM     64  C   UNL A   1      45.707  38.017  30.939  1.00  0.00     0.049 A 
ATOM     65  H   UNL A   1      45.261  36.020  30.430  1.00  0.00     0.167 HD
ATOM     66  C   UNL A   1      43.973  37.342  32.576  1.00  0.00     0.074 A 
ATOM     67  C   UNL A   1      43.135  37.581  33.732  1.00  0.00     0.031 C 
ATOM     68  C   UNL A   1      44.829  38.257  32.055  1.00  0.00     0.034 A 
BRANCH  55  69
ATOM     69  C   UNL A   1      48.187  36.136  27.322  1.00  0.00     0.023 A 
ATOM     70  C   UNL A   1      47.876  36.712  26.074  1.00  0.00     0.012 A 
ATOM     71  C   UNL A   1      49.529  35.840  27.632  1.00  0.00     0.148 A 
ATOM     72  C   UNL A   1      48.879  36.955  25.135  1.00  0.00     0.002 A 
ATOM     73  C   UNL A   1      50.527  36.132  26.713  1.00  0.00     0.091 A 
ATOM     74  F   UNL A   1      49.800  35.268  28.814  1.00  0.00    -0.205 F 
ATOM     75  C   UNL A   1      50.203  36.676  25.459  1.00  0.00     0.022 A 
BRANCH  73  76
ATOM     76  S   UNL A   1      52.271  35.885  27.066  1.00  0.00     0.127 S 
ATOM     77  O   UNL A   1      52.451  34.483  26.691  1.00  0.00    -0.237 OA
ATOM     78  O   UNL A   1      52.904  36.845  26.162  1.00  0.00    -0.237 OA
ATOM     79  O   UNL A   1      52.441  36.177  28.482  1.00  0.00    -0.744 OA
ENDBRANCH  73  76
ENDBRANCH  55  69
BRANCH  56  80
ATOM     80  C   UNL A   1      41.129  33.880  34.030  1.00  0.00     0.023 A 
ATOM     81  C   UNL A   1      41.547  33.555  35.336  1.00  0.00     0.012 A 
ATOM     82  C   UNL A   1      39.753  33.872  33.728  1.00  0.00     0.148 A 
ATOM     83  C   UNL A   1      40.615  33.193  36.311  1.00  0.00     0.002 A 
ATOM     84  C   UNL A   1      38.828  33.566  34.718  1.00  0.00     0.091 A 
ATOM     85  F   UNL A   1      39.378  34.168  32.475  1.00  0.00    -0.205 F 
ATOM     86  C   UNL A   1      39.257  33.208  36.006  1.00  0.00     0.022 A 
BRANCH  84  87
ATOM     87  S   UNL A   1      37.056  33.672  34.450  1.00  0.00     0.127 S 
ATOM     88  O   UNL A   1      36.535  33.372  35.781  1.00  0.00    -0.237 OA
ATOM     89  O   UNL A   1      36.901  35.063  34.026  1.00  0.00    -0.237 OA
ATOM     90  O   UNL A   1      36.753  32.688  33.420  1.00  0.00    -0.744 OA
ENDBRANCH  84  87
ENDBRANCH  56  80
BRANCH  68  91
ATOM     91  C   UNL A   1      44.871  39.625  32.687  1.00  0.00     0.023 A 
ATOM     92  C   UNL A   1      45.721  39.878  33.780  1.00  0.00     0.012 A 
ATOM     93  C   UNL A   1      44.120  40.685  32.137  1.00  0.00     0.148 A 
ATOM     94  C   UNL A   1      45.798  41.154  34.340  1.00  0.00     0.002 A 
ATOM     95  C   UNL A   1      44.244  41.965  32.664  1.00  0.00     0.091 A 
ATOM     96  F   UNL A   1      43.306  40.424  31.104  1.00  0.00    -0.205 F 
ATOM     97  C   UNL A   1      45.070  42.198  33.775  1.00  0.00     0.022 A 
BRANCH  95  98
ATOM     98  S   UNL A   1      43.426  43.390  31.938  1.00  0.00     0.127 S 
ATOM     99  O   UNL A   1      44.066  43.464  30.626  1.00  0.00    -0.237 OA
ATOM    100  O   UNL A   1      42.026  42.962  31.910  1.00  0.00    -0.237 OA
ATOM    101  O   UNL A   1      43.698  44.510  32.828  1.00  0.00    -0.744 OA
ENDBRANCH  95  98
ENDBRANCH  68  91
ENDBRANCH  42  43
ENDBRANCH  35  37
ENDBRANCH  34  35
ENDBRANCH  33  34
ENDBRANCH  32  33
ENDBRANCH  31  32
ENDBRANCH  30  31
ENDBRANCH  29  30
ENDBRANCH   1  29
TORSDOF 29
ENDMDL
