MODEL 1
REMARK VINA RESULT:      -9.3      0.000      0.000
REMARK SMILES COc1ccc2c(c1)c(CC(=O)OCCOCCOCCOCCOC(=O)c1ccc(-c3c4nc(c(-c5cccc(S(=O)(=O)[O-])c5F)c5ccc([nH]5)c(-c5cccc(S(=O)(=O)[O-])c5F)c5nc(c(-c6cccc(S(=O)(=O)[O-])c6F)c6ccc3[nH]6)C=C5)C=C4)cc1)c(C)n2C(=O)c1ccc(Cl)cc1
REMARK SMILES IDX 19 1 18 2 17 3 16 4 15 5 14 6 13 7 11 8 12 9 10 10 9 11 3 12
REMARK SMILES IDX 4 13 8 14 5 15 7 16 6 17 93 18 91 19 92 20 2 21 1 22 94 23
REMARK SMILES IDX 95 24 96 25 97 26 102 27 98 28 101 29 99 30 100 31 20 32
REMARK SMILES IDX 21 33 22 34 23 35 24 36 25 37 26 38 27 39 28 40 29 41 90 42
REMARK SMILES IDX 30 43 89 44 31 45 32 46 33 47 83 48 34 49 88 50 82 51 84 52
REMARK SMILES IDX 35 53 87 54 81 55 80 56 36 58 68 59 48 60 67 61 49 62 52 63
REMARK SMILES IDX 66 64 85 65 50 66 51 67 65 69 86 70 53 71 37 72 38 73 46 74
REMARK SMILES IDX 39 75 41 76 47 77 40 78 42 79 43 80 44 81 45 82 69 83 70 84
REMARK SMILES IDX 78 85 71 86 73 87 79 88 72 89 74 90 75 91 76 92 77 93 54 94
REMARK SMILES IDX 55 95 63 96 56 97 58 98 64 99 57 100 59 101 60 102 61 103
REMARK SMILES IDX 62 104
REMARK H PARENT 84 57 52 68
REMARK Flexibility Score: inf
ROOT
ATOM      1  O   UNL A   1      36.450  21.871  25.964  1.00  0.00    -0.377 OA
ENDROOT
BRANCH   1   2
ATOM      2  C   UNL A   1      35.219  22.461  26.280  1.00  0.00     0.188 C 
BRANCH   2   3
ATOM      3  C   UNL A   1      34.189  21.775  27.173  1.00  0.00     0.188 C 
BRANCH   3   4
ATOM      4  O   UNL A   1      33.179  21.015  26.509  1.00  0.00    -0.376 OA
BRANCH   4   5
ATOM      5  C   UNL A   1      32.832  21.409  25.189  1.00  0.00     0.202 C 
BRANCH   5   6
ATOM      6  C   UNL A   1      31.512  22.204  25.122  1.00  0.00     0.261 C 
BRANCH   6   7
ATOM      7  O   UNL A   1      30.878  22.431  26.408  1.00  0.00    -0.463 OA
BRANCH   7   8
ATOM      8  C   UNL A   1      30.688  23.730  26.752  1.00  0.00     0.310 C 
ATOM      9  O   UNL A   1      29.600  24.181  27.110  1.00  0.00    -0.252 OA
BRANCH   8  10
ATOM     10  C   UNL A   1      31.902  24.649  26.674  1.00  0.00     0.160 C 
BRANCH  10  11
ATOM     11  C   UNL A   1      31.913  25.933  25.859  1.00  0.00    -0.008 A 
ATOM     12  C   UNL A   1      33.169  25.597  22.240  1.00  0.00     0.119 A 
ATOM     13  C   UNL A   1      32.970  26.916  21.885  1.00  0.00     0.048 A 
ATOM     14  C   UNL A   1      32.999  25.210  23.578  1.00  0.00     0.057 A 
ATOM     15  C   UNL A   1      32.529  27.842  22.830  1.00  0.00     0.031 A 
ATOM     16  C   UNL A   1      32.429  26.102  24.529  1.00  0.00     0.008 A 
ATOM     17  C   UNL A   1      32.222  27.434  24.148  1.00  0.00     0.057 A 
ATOM     18  N   UNL A   1      31.737  28.138  25.268  1.00  0.00    -0.280 N 
ATOM     19  C   UNL A   1      31.552  27.203  26.305  1.00  0.00     0.028 A 
ATOM     20  C   UNL A   1      31.036  27.532  27.672  1.00  0.00     0.065 C 
BRANCH  12  21
ATOM     21  O   UNL A   1      33.487  24.597  21.359  1.00  0.00    -0.497 OA
ATOM     22  C   UNL A   1      33.419  23.265  21.869  1.00  0.00     0.278 C 
ENDBRANCH  12  21
BRANCH  18  23
ATOM     23  C   UNL A   1      31.523  29.551  25.329  1.00  0.00     0.262 C 
ATOM     24  O   UNL A   1      30.613  30.061  24.679  1.00  0.00    -0.268 OA
BRANCH  23  25
ATOM     25  C   UNL A   1      32.279  30.494  26.173  1.00  0.00     0.040 A 
ATOM     26  C   UNL A   1      33.484  30.097  26.763  1.00  0.00     0.015 A 
ATOM     27  C   UNL A   1      31.766  31.781  26.385  1.00  0.00     0.015 A 
ATOM     28  C   UNL A   1      34.147  30.978  27.625  1.00  0.00     0.021 A 
ATOM     29  C   UNL A   1      32.435  32.655  27.244  1.00  0.00     0.021 A 
ATOM     30  C   UNL A   1      33.615  32.246  27.869  1.00  0.00     0.041 A 
ATOM     31  Cl  UNL A   1      34.409  33.309  28.966  1.00  0.00    -0.084 Cl
ENDBRANCH  23  25
ENDBRANCH  18  23
ENDBRANCH  10  11
ENDBRANCH   8  10
ENDBRANCH   7   8
ENDBRANCH   6   7
ENDBRANCH   5   6
ENDBRANCH   4   5
ENDBRANCH   3   4
ENDBRANCH   2   3
ENDBRANCH   1   2
BRANCH   1  32
ATOM     32  C   UNL A   1      36.455  20.669  25.255  1.00  0.00     0.188 C 
BRANCH  32  33
ATOM     33  C   UNL A   1      37.812  20.324  24.642  1.00  0.00     0.188 C 
BRANCH  33  34
ATOM     34  O   UNL A   1      38.742  19.454  25.295  1.00  0.00    -0.376 OA
BRANCH  34  35
ATOM     35  C   UNL A   1      39.933  19.950  25.891  1.00  0.00     0.202 C 
BRANCH  35  36
ATOM     36  C   UNL A   1      41.184  19.064  25.756  1.00  0.00     0.261 C 
BRANCH  36  37
ATOM     37  O   UNL A   1      42.294  19.534  26.524  1.00  0.00    -0.460 OA
BRANCH  37  38
ATOM     38  C   UNL A   1      43.140  20.409  25.929  1.00  0.00     0.338 C 
ATOM     39  O   UNL A   1      43.801  20.243  24.917  1.00  0.00    -0.246 OA
BRANCH  38  40
ATOM     40  C   UNL A   1      42.868  21.705  26.576  1.00  0.00     0.060 A 
ATOM     41  C   UNL A   1      43.487  22.873  26.114  1.00  0.00     0.016 A 
ATOM     42  C   UNL A   1      42.285  21.648  27.849  1.00  0.00     0.016 A 
ATOM     43  C   UNL A   1      43.640  23.941  26.993  1.00  0.00     0.010 A 
ATOM     44  C   UNL A   1      42.459  22.711  28.730  1.00  0.00     0.010 A 
ATOM     45  C   UNL A   1      43.181  23.834  28.318  1.00  0.00    -0.014 A 
BRANCH  45  46
ATOM     46  C   UNL A   1      43.259  25.025  29.165  1.00  0.00     0.031 A 
ATOM     47  C   UNL A   1      42.207  26.019  28.831  1.00  0.00     0.074 A 
ATOM     48  C   UNL A   1      44.020  25.202  30.263  1.00  0.00     0.049 A 
ATOM     49  N   UNL A   1      42.350  27.240  28.431  1.00  0.00    -0.248 NA
ATOM     50  C   UNL A   1      40.821  25.524  28.824  1.00  0.00     0.031 C 
ATOM     51  C   UNL A   1      44.857  24.214  30.941  1.00  0.00     0.029 A 
ATOM     52  N   UNL A   1      44.075  26.288  31.099  1.00  0.00    -0.354 N 
ATOM     53  C   UNL A   1      41.053  27.725  28.309  1.00  0.00     0.074 A 
ATOM     54  C   UNL A   1      40.165  26.592  28.385  1.00  0.00     0.031 C 
ATOM     55  C   UNL A   1      45.142  24.660  32.185  1.00  0.00     0.029 A 
ATOM     56  C   UNL A   1      44.568  25.984  32.365  1.00  0.00     0.049 A 
ATOM     57  H   UNL A   1      43.795  27.192  30.830  1.00  0.00     0.167 HD
ATOM     58  C   UNL A   1      40.744  29.043  28.393  1.00  0.00     0.034 A 
ATOM     59  C   UNL A   1      44.401  26.713  33.498  1.00  0.00     0.034 A 
ATOM     60  C   UNL A   1      41.872  29.909  28.246  1.00  0.00     0.049 A 
ATOM     61  C   UNL A   1      44.060  28.100  33.094  1.00  0.00     0.074 A 
ATOM     62  C   UNL A   1      42.829  30.110  27.273  1.00  0.00     0.029 A 
ATOM     63  N   UNL A   1      42.337  30.532  29.377  1.00  0.00    -0.354 N 
ATOM     64  N   UNL A   1      44.882  28.917  32.494  1.00  0.00    -0.248 NA
ATOM     65  C   UNL A   1      42.661  28.496  33.074  1.00  0.00     0.031 C 
ATOM     66  C   UNL A   1      44.012  30.463  27.982  1.00  0.00     0.029 A 
ATOM     67  C   UNL A   1      43.703  30.449  29.344  1.00  0.00     0.049 A 
ATOM     68  H   UNL A   1      41.791  30.959  30.077  1.00  0.00     0.167 HD
ATOM     69  C   UNL A   1      44.072  29.698  31.682  1.00  0.00     0.074 A 
ATOM     70  C   UNL A   1      42.717  29.484  32.177  1.00  0.00     0.031 C 
ATOM     71  C   UNL A   1      44.534  30.218  30.508  1.00  0.00     0.034 A 
BRANCH  58  72
ATOM     72  C   UNL A   1      39.432  29.514  28.937  1.00  0.00     0.023 A 
ATOM     73  C   UNL A   1      38.534  30.171  28.079  1.00  0.00     0.012 A 
ATOM     74  C   UNL A   1      39.136  29.508  30.320  1.00  0.00     0.148 A 
ATOM     75  C   UNL A   1      37.373  30.770  28.578  1.00  0.00     0.002 A 
ATOM     76  C   UNL A   1      37.936  30.012  30.794  1.00  0.00     0.091 A 
ATOM     77  F   UNL A   1      40.072  29.118  31.197  1.00  0.00    -0.205 F 
ATOM     78  C   UNL A   1      37.057  30.664  29.930  1.00  0.00     0.022 A 
BRANCH  76  79
ATOM     79  S   UNL A   1      37.475  29.778  32.511  1.00  0.00     0.127 S 
ATOM     80  O   UNL A   1      36.105  30.277  32.522  1.00  0.00    -0.237 OA
ATOM     81  O   UNL A   1      37.611  28.330  32.674  1.00  0.00    -0.237 OA
ATOM     82  O   UNL A   1      38.459  30.552  33.260  1.00  0.00    -0.744 OA
ENDBRANCH  76  79
ENDBRANCH  58  72
BRANCH  59  83
ATOM     83  C   UNL A   1      44.306  26.255  34.914  1.00  0.00     0.023 A 
ATOM     84  C   UNL A   1      43.343  25.290  35.278  1.00  0.00     0.012 A 
ATOM     85  C   UNL A   1      45.288  26.580  35.877  1.00  0.00     0.148 A 
ATOM     86  C   UNL A   1      43.366  24.671  36.539  1.00  0.00     0.002 A 
ATOM     87  C   UNL A   1      45.281  25.997  37.142  1.00  0.00     0.091 A 
ATOM     88  F   UNL A   1      46.304  27.384  35.536  1.00  0.00    -0.205 F 
ATOM     89  C   UNL A   1      44.332  25.030  37.474  1.00  0.00     0.022 A 
BRANCH  87  90
ATOM     90  S   UNL A   1      46.492  26.486  38.380  1.00  0.00     0.127 S 
ATOM     91  O   UNL A   1      46.363  27.944  38.394  1.00  0.00    -0.237 OA
ATOM     92  O   UNL A   1      45.998  25.816  39.578  1.00  0.00    -0.237 OA
ATOM     93  O   UNL A   1      47.770  26.012  37.858  1.00  0.00    -0.744 OA
ENDBRANCH  87  90
ENDBRANCH  59  83
BRANCH  71  94
ATOM     94  C   UNL A   1      46.017  30.216  30.246  1.00  0.00     0.023 A 
ATOM     95  C   UNL A   1      46.842  31.266  30.703  1.00  0.00     0.012 A 
ATOM     96  C   UNL A   1      46.612  29.033  29.772  1.00  0.00     0.148 A 
ATOM     97  C   UNL A   1      48.231  31.136  30.689  1.00  0.00     0.002 A 
ATOM     98  C   UNL A   1      47.993  28.892  29.803  1.00  0.00     0.091 A 
ATOM     99  F   UNL A   1      45.806  28.040  29.364  1.00  0.00    -0.205 F 
ATOM    100  C   UNL A   1      48.807  29.944  30.255  1.00  0.00     0.022 A 
BRANCH  98 101
ATOM    101  S   UNL A   1      48.807  27.344  29.396  1.00  0.00     0.127 S 
ATOM    102  O   UNL A   1      48.313  27.082  28.046  1.00  0.00    -0.237 OA
ATOM    103  O   UNL A   1      50.222  27.714  29.469  1.00  0.00    -0.237 OA
ATOM    104  O   UNL A   1      48.383  26.382  30.406  1.00  0.00    -0.744 OA
ENDBRANCH  98 101
ENDBRANCH  71  94
ENDBRANCH  45  46
ENDBRANCH  38  40
ENDBRANCH  37  38
ENDBRANCH  36  37
ENDBRANCH  35  36
ENDBRANCH  34  35
ENDBRANCH  33  34
ENDBRANCH  32  33
ENDBRANCH   1  32
TORSDOF 27
ENDMDL
MODEL 2
REMARK VINA RESULT:      -8.8      5.133     11.530
REMARK SMILES COc1ccc2c(c1)c(CC(=O)OCCOCCOCCOCCOC(=O)c1ccc(-c3c4nc(c(-c5cccc(S(=O)(=O)[O-])c5F)c5ccc([nH]5)c(-c5cccc(S(=O)(=O)[O-])c5F)c5nc(c(-c6cccc(S(=O)(=O)[O-])c6F)c6ccc3[nH]6)C=C5)C=C4)cc1)c(C)n2C(=O)c1ccc(Cl)cc1
REMARK SMILES IDX 19 1 18 2 17 3 16 4 15 5 14 6 13 7 11 8 12 9 10 10 9 11 3 12
REMARK SMILES IDX 4 13 8 14 5 15 7 16 6 17 93 18 91 19 92 20 2 21 1 22 94 23
REMARK SMILES IDX 95 24 96 25 97 26 102 27 98 28 101 29 99 30 100 31 20 32
REMARK SMILES IDX 21 33 22 34 23 35 24 36 25 37 26 38 27 39 28 40 29 41 90 42
REMARK SMILES IDX 30 43 89 44 31 45 32 46 33 47 83 48 34 49 88 50 82 51 84 52
REMARK SMILES IDX 35 53 87 54 81 55 80 56 36 58 68 59 48 60 67 61 49 62 52 63
REMARK SMILES IDX 66 64 85 65 50 66 51 67 65 69 86 70 53 71 37 72 38 73 46 74
REMARK SMILES IDX 39 75 41 76 47 77 40 78 42 79 43 80 44 81 45 82 69 83 70 84
REMARK SMILES IDX 78 85 71 86 73 87 79 88 72 89 74 90 75 91 76 92 77 93 54 94
REMARK SMILES IDX 55 95 63 96 56 97 58 98 64 99 57 100 59 101 60 102 61 103
REMARK SMILES IDX 62 104
REMARK H PARENT 84 57 52 68
REMARK Flexibility Score: inf
ROOT
ATOM      1  O   UNL A   1      46.075  21.678  24.301  1.00  0.00    -0.377 OA
ENDROOT
BRANCH   1   2
ATOM      2  C   UNL A   1      46.199  23.074  24.346  1.00  0.00     0.188 C 
BRANCH   2   3
ATOM      3  C   UNL A   1      45.177  23.963  25.048  1.00  0.00     0.188 C 
BRANCH   3   4
ATOM      4  O   UNL A   1      45.195  25.348  24.702  1.00  0.00    -0.376 OA
BRANCH   4   5
ATOM      5  C   UNL A   1      46.319  26.107  25.123  1.00  0.00     0.202 C 
BRANCH   5   6
ATOM      6  C   UNL A   1      45.990  27.094  26.263  1.00  0.00     0.261 C 
BRANCH   6   7
ATOM      7  O   UNL A   1      45.117  26.559  27.291  1.00  0.00    -0.463 OA
BRANCH   7   8
ATOM      8  C   UNL A   1      45.738  25.965  28.342  1.00  0.00     0.310 C 
ATOM      9  O   UNL A   1      45.999  24.763  28.381  1.00  0.00    -0.252 OA
BRANCH   8  10
ATOM     10  C   UNL A   1      46.111  26.862  29.518  1.00  0.00     0.160 C 
BRANCH  10  11
ATOM     11  C   UNL A   1      46.628  26.315  30.839  1.00  0.00    -0.008 A 
ATOM     12  C   UNL A   1      50.397  25.561  30.965  1.00  0.00     0.119 A 
ATOM     13  C   UNL A   1      50.429  25.158  32.286  1.00  0.00     0.048 A 
ATOM     14  C   UNL A   1      49.161  25.810  30.351  1.00  0.00     0.057 A 
ATOM     15  C   UNL A   1      49.250  25.075  33.027  1.00  0.00     0.031 A 
ATOM     16  C   UNL A   1      47.961  25.856  31.116  1.00  0.00     0.008 A 
ATOM     17  C   UNL A   1      48.014  25.457  32.457  1.00  0.00     0.057 A 
ATOM     18  N   UNL A   1      46.707  25.503  32.979  1.00  0.00    -0.280 N 
ATOM     19  C   UNL A   1      45.872  26.033  31.975  1.00  0.00     0.028 A 
ATOM     20  C   UNL A   1      44.399  26.263  32.120  1.00  0.00     0.065 C 
BRANCH  12  21
ATOM     21  O   UNL A   1      51.508  25.784  30.196  1.00  0.00    -0.497 OA
ATOM     22  C   UNL A   1      51.509  26.986  29.426  1.00  0.00     0.278 C 
ENDBRANCH  12  21
BRANCH  18  23
ATOM     23  C   UNL A   1      46.315  25.048  34.277  1.00  0.00     0.262 C 
ATOM     24  O   UNL A   1      46.095  25.863  35.171  1.00  0.00    -0.268 OA
BRANCH  23  25
ATOM     25  C   UNL A   1      46.084  23.643  34.656  1.00  0.00     0.040 A 
ATOM     26  C   UNL A   1      47.021  22.964  35.443  1.00  0.00     0.015 A 
ATOM     27  C   UNL A   1      44.925  22.997  34.206  1.00  0.00     0.015 A 
ATOM     28  C   UNL A   1      46.825  21.608  35.726  1.00  0.00     0.021 A 
ATOM     29  C   UNL A   1      44.734  21.644  34.496  1.00  0.00     0.021 A 
ATOM     30  C   UNL A   1      45.690  20.953  35.243  1.00  0.00     0.041 A 
ATOM     31  Cl  UNL A   1      45.475  19.273  35.555  1.00  0.00    -0.084 Cl
ENDBRANCH  23  25
ENDBRANCH  18  23
ENDBRANCH  10  11
ENDBRANCH   8  10
ENDBRANCH   7   8
ENDBRANCH   6   7
ENDBRANCH   5   6
ENDBRANCH   4   5
ENDBRANCH   3   4
ENDBRANCH   2   3
ENDBRANCH   1   2
BRANCH   1  32
ATOM     32  C   UNL A   1      45.447  21.027  25.363  1.00  0.00     0.188 C 
BRANCH  32  33
ATOM     33  C   UNL A   1      44.352  20.055  24.925  1.00  0.00     0.188 C 
BRANCH  33  34
ATOM     34  O   UNL A   1      43.003  20.168  25.392  1.00  0.00    -0.376 OA
BRANCH  34  35
ATOM     35  C   UNL A   1      42.505  21.379  25.941  1.00  0.00     0.202 C 
BRANCH  35  36
ATOM     36  C   UNL A   1      42.447  21.460  27.478  1.00  0.00     0.261 C 
BRANCH  36  37
ATOM     37  O   UNL A   1      41.242  22.053  27.967  1.00  0.00    -0.460 OA
BRANCH  37  38
ATOM     38  C   UNL A   1      40.523  22.810  27.103  1.00  0.00     0.338 C 
ATOM     39  O   UNL A   1      39.584  22.464  26.406  1.00  0.00    -0.246 OA
BRANCH  38  40
ATOM     40  C   UNL A   1      40.906  24.202  27.402  1.00  0.00     0.060 A 
ATOM     41  C   UNL A   1      42.041  24.475  28.175  1.00  0.00     0.016 A 
ATOM     42  C   UNL A   1      39.912  25.170  27.203  1.00  0.00     0.016 A 
ATOM     43  C   UNL A   1      42.105  25.683  28.863  1.00  0.00     0.010 A 
ATOM     44  C   UNL A   1      39.973  26.367  27.910  1.00  0.00     0.010 A 
ATOM     45  C   UNL A   1      41.042  26.599  28.778  1.00  0.00    -0.014 A 
BRANCH  45  46
ATOM     46  C   UNL A   1      41.213  27.902  29.424  1.00  0.00     0.031 A 
ATOM     47  C   UNL A   1      42.287  28.706  28.788  1.00  0.00     0.074 A 
ATOM     48  C   UNL A   1      40.413  28.469  30.348  1.00  0.00     0.049 A 
ATOM     49  N   UNL A   1      43.372  29.166  29.321  1.00  0.00    -0.248 NA
ATOM     50  C   UNL A   1      42.182  28.901  27.333  1.00  0.00     0.031 C 
ATOM     51  C   UNL A   1      39.126  27.981  30.841  1.00  0.00     0.029 A 
ATOM     52  N   UNL A   1      40.525  29.706  30.933  1.00  0.00    -0.354 N 
ATOM     53  C   UNL A   1      43.991  29.877  28.300  1.00  0.00     0.074 A 
ATOM     54  C   UNL A   1      43.319  29.534  27.071  1.00  0.00     0.031 C 
ATOM     55  C   UNL A   1      38.477  28.996  31.454  1.00  0.00     0.029 A 
ATOM     56  C   UNL A   1      39.323  30.178  31.455  1.00  0.00     0.049 A 
ATOM     57  H   UNL A   1      41.369  30.209  30.977  1.00  0.00     0.167 HD
ATOM     58  C   UNL A   1      44.862  30.892  28.527  1.00  0.00     0.034 A 
ATOM     59  C   UNL A   1      39.015  31.468  31.744  1.00  0.00     0.034 A 
ATOM     60  C   UNL A   1      45.369  30.927  29.863  1.00  0.00     0.049 A 
ATOM     61  C   UNL A   1      40.291  32.212  31.897  1.00  0.00     0.074 A 
ATOM     62  C   UNL A   1      46.058  30.046  30.670  1.00  0.00     0.029 A 
ATOM     63  N   UNL A   1      44.891  31.913  30.690  1.00  0.00    -0.354 N 
ATOM     64  N   UNL A   1      41.143  32.025  32.867  1.00  0.00    -0.248 NA
ATOM     65  C   UNL A   1      40.794  32.973  30.764  1.00  0.00     0.031 C 
ATOM     66  C   UNL A   1      45.590  30.308  31.989  1.00  0.00     0.029 A 
ATOM     67  C   UNL A   1      44.642  31.329  31.903  1.00  0.00     0.049 A 
ATOM     68  H   UNL A   1      44.755  32.860  30.455  1.00  0.00     0.167 HD
ATOM     69  C   UNL A   1      42.384  32.282  32.302  1.00  0.00     0.074 A 
ATOM     70  C   UNL A   1      42.096  32.982  31.055  1.00  0.00     0.031 C 
ATOM     71  C   UNL A   1      43.511  31.653  32.747  1.00  0.00     0.034 A 
BRANCH  58  72
ATOM     72  C   UNL A   1      44.990  32.049  27.585  1.00  0.00     0.023 A 
ATOM     73  C   UNL A   1      43.927  32.339  26.713  1.00  0.00     0.012 A 
ATOM     74  C   UNL A   1      46.208  32.738  27.388  1.00  0.00     0.148 A 
ATOM     75  C   UNL A   1      44.065  33.302  25.709  1.00  0.00     0.002 A 
ATOM     76  C   UNL A   1      46.307  33.761  26.461  1.00  0.00     0.091 A 
ATOM     77  F   UNL A   1      47.315  32.324  28.022  1.00  0.00    -0.205 F 
ATOM     78  C   UNL A   1      45.244  34.036  25.601  1.00  0.00     0.022 A 
BRANCH  76  79
ATOM     79  S   UNL A   1      47.780  34.782  26.395  1.00  0.00     0.127 S 
ATOM     80  O   UNL A   1      47.380  35.822  25.454  1.00  0.00    -0.237 OA
ATOM     81  O   UNL A   1      47.917  35.219  27.785  1.00  0.00    -0.237 OA
ATOM     82  O   UNL A   1      48.833  33.872  25.956  1.00  0.00    -0.744 OA
ENDBRANCH  76  79
ENDBRANCH  58  72
BRANCH  59  83
ATOM     83  C   UNL A   1      37.696  32.161  31.694  1.00  0.00     0.023 A 
ATOM     84  C   UNL A   1      37.166  32.751  32.862  1.00  0.00     0.012 A 
ATOM     85  C   UNL A   1      37.044  32.450  30.474  1.00  0.00     0.148 A 
ATOM     86  C   UNL A   1      36.047  33.598  32.812  1.00  0.00     0.002 A 
ATOM     87  C   UNL A   1      35.907  33.255  30.434  1.00  0.00     0.091 A 
ATOM     88  F   UNL A   1      37.585  32.030  29.323  1.00  0.00    -0.205 F 
ATOM     89  C   UNL A   1      35.413  33.844  31.598  1.00  0.00     0.022 A 
BRANCH  87  90
ATOM     90  S   UNL A   1      35.046  33.543  28.882  1.00  0.00     0.127 S 
ATOM     91  O   UNL A   1      35.642  32.543  27.996  1.00  0.00    -0.237 OA
ATOM     92  O   UNL A   1      33.657  33.289  29.246  1.00  0.00    -0.237 OA
ATOM     93  O   UNL A   1      35.376  34.919  28.523  1.00  0.00    -0.744 OA
ENDBRANCH  87  90
ENDBRANCH  59  83
BRANCH  71  94
ATOM     94  C   UNL A   1      43.464  30.924  34.064  1.00  0.00     0.023 A 
ATOM     95  C   UNL A   1      43.704  31.596  35.281  1.00  0.00     0.012 A 
ATOM     96  C   UNL A   1      42.920  29.626  34.091  1.00  0.00     0.148 A 
ATOM     97  C   UNL A   1      43.407  30.985  36.500  1.00  0.00     0.002 A 
ATOM     98  C   UNL A   1      42.584  29.042  35.306  1.00  0.00     0.091 A 
ATOM     99  F   UNL A   1      42.680  29.017  32.920  1.00  0.00    -0.205 F 
ATOM    100  C   UNL A   1      42.831  29.717  36.513  1.00  0.00     0.022 A 
BRANCH  98 101
ATOM    101  S   UNL A   1      41.713  27.476  35.406  1.00  0.00     0.127 S 
ATOM    102  O   UNL A   1      42.807  26.510  35.321  1.00  0.00    -0.237 OA
ATOM    103  O   UNL A   1      41.076  27.564  36.721  1.00  0.00    -0.237 OA
ATOM    104  O   UNL A   1      40.782  27.453  34.285  1.00  0.00    -0.744 OA
ENDBRANCH  98 101
ENDBRANCH  71  94
ENDBRANCH  45  46
ENDBRANCH  38  40
ENDBRANCH  37  38
ENDBRANCH  36  37
ENDBRANCH  35  36
ENDBRANCH  34  35
ENDBRANCH  33  34
ENDBRANCH  32  33
ENDBRANCH   1  32
TORSDOF 27
ENDMDL
MODEL 3
REMARK VINA RESULT:      -8.5      1.987      2.410
REMARK SMILES COc1ccc2c(c1)c(CC(=O)OCCOCCOCCOCCOC(=O)c1ccc(-c3c4nc(c(-c5cccc(S(=O)(=O)[O-])c5F)c5ccc([nH]5)c(-c5cccc(S(=O)(=O)[O-])c5F)c5nc(c(-c6cccc(S(=O)(=O)[O-])c6F)c6ccc3[nH]6)C=C5)C=C4)cc1)c(C)n2C(=O)c1ccc(Cl)cc1
REMARK SMILES IDX 19 1 18 2 17 3 16 4 15 5 14 6 13 7 11 8 12 9 10 10 9 11 3 12
REMARK SMILES IDX 4 13 8 14 5 15 7 16 6 17 93 18 91 19 92 20 2 21 1 22 94 23
REMARK SMILES IDX 95 24 96 25 97 26 102 27 98 28 101 29 99 30 100 31 20 32
REMARK SMILES IDX 21 33 22 34 23 35 24 36 25 37 26 38 27 39 28 40 29 41 90 42
REMARK SMILES IDX 30 43 89 44 31 45 32 46 33 47 83 48 34 49 88 50 82 51 84 52
REMARK SMILES IDX 35 53 87 54 81 55 80 56 36 58 68 59 48 60 67 61 49 62 52 63
REMARK SMILES IDX 66 64 85 65 50 66 51 67 65 69 86 70 53 71 37 72 38 73 46 74
REMARK SMILES IDX 39 75 41 76 47 77 40 78 42 79 43 80 44 81 45 82 69 83 70 84
REMARK SMILES IDX 78 85 71 86 73 87 79 88 72 89 74 90 75 91 76 92 77 93 54 94
REMARK SMILES IDX 55 95 63 96 56 97 58 98 64 99 57 100 59 101 60 102 61 103
REMARK SMILES IDX 62 104
REMARK H PARENT 84 57 52 68
REMARK Flexibility Score: inf
ROOT
ATOM      1  O   UNL A   1      36.240  21.932  25.745  1.00  0.00    -0.377 OA
ENDROOT
BRANCH   1   2
ATOM      2  C   UNL A   1      35.056  22.606  26.077  1.00  0.00     0.188 C 
BRANCH   2   3
ATOM      3  C   UNL A   1      34.149  22.150  27.216  1.00  0.00     0.188 C 
BRANCH   3   4
ATOM      4  O   UNL A   1      33.254  21.077  26.925  1.00  0.00    -0.376 OA
BRANCH   4   5
ATOM      5  C   UNL A   1      32.649  21.067  25.639  1.00  0.00     0.202 C 
BRANCH   5   6
ATOM      6  C   UNL A   1      31.387  21.950  25.557  1.00  0.00     0.261 C 
BRANCH   6   7
ATOM      7  O   UNL A   1      30.919  22.454  26.836  1.00  0.00    -0.463 OA
BRANCH   7   8
ATOM      8  C   UNL A   1      30.608  23.774  26.872  1.00  0.00     0.310 C 
ATOM      9  O   UNL A   1      29.452  24.194  26.924  1.00  0.00    -0.252 OA
BRANCH   8  10
ATOM     10  C   UNL A   1      31.772  24.758  26.841  1.00  0.00     0.160 C 
BRANCH  10  11
ATOM     11  C   UNL A   1      31.869  25.888  25.828  1.00  0.00    -0.008 A 
ATOM     12  C   UNL A   1      33.230  24.909  22.367  1.00  0.00     0.119 A 
ATOM     13  C   UNL A   1      33.103  26.159  21.792  1.00  0.00     0.048 A 
ATOM     14  C   UNL A   1      32.997  24.756  23.742  1.00  0.00     0.057 A 
ATOM     15  C   UNL A   1      32.673  27.245  22.555  1.00  0.00     0.031 A 
ATOM     16  C   UNL A   1      32.437  25.815  24.511  1.00  0.00     0.008 A 
ATOM     17  C   UNL A   1      32.304  27.073  23.909  1.00  0.00     0.057 A 
ATOM     18  N   UNL A   1      31.814  27.971  24.877  1.00  0.00    -0.280 N 
ATOM     19  C   UNL A   1      31.552  27.228  26.045  1.00  0.00     0.028 A 
ATOM     20  C   UNL A   1      31.006  27.799  27.318  1.00  0.00     0.065 C 
BRANCH  12  21
ATOM     21  O   UNL A   1      33.531  23.766  21.676  1.00  0.00    -0.497 OA
ATOM     22  C   UNL A   1      34.137  22.716  22.430  1.00  0.00     0.278 C 
ENDBRANCH  12  21
BRANCH  18  23
ATOM     23  C   UNL A   1      31.663  29.382  24.698  1.00  0.00     0.262 C 
ATOM     24  O   UNL A   1      32.465  30.154  25.219  1.00  0.00    -0.268 OA
BRANCH  23  25
ATOM     25  C   UNL A   1      30.631  30.033  23.871  1.00  0.00     0.040 A 
ATOM     26  C   UNL A   1      30.441  29.634  22.543  1.00  0.00     0.015 A 
ATOM     27  C   UNL A   1      29.860  31.061  24.428  1.00  0.00     0.015 A 
ATOM     28  C   UNL A   1      29.514  30.317  21.749  1.00  0.00     0.021 A 
ATOM     29  C   UNL A   1      28.933  31.736  23.630  1.00  0.00     0.021 A 
ATOM     30  C   UNL A   1      28.773  31.369  22.292  1.00  0.00     0.041 A 
ATOM     31  Cl  UNL A   1      27.666  32.237  21.299  1.00  0.00    -0.084 Cl
ENDBRANCH  23  25
ENDBRANCH  18  23
ENDBRANCH  10  11
ENDBRANCH   8  10
ENDBRANCH   7   8
ENDBRANCH   6   7
ENDBRANCH   5   6
ENDBRANCH   4   5
ENDBRANCH   3   4
ENDBRANCH   2   3
ENDBRANCH   1   2
BRANCH   1  32
ATOM     32  C   UNL A   1      36.156  20.766  24.984  1.00  0.00     0.188 C 
BRANCH  32  33
ATOM     33  C   UNL A   1      37.497  20.315  24.404  1.00  0.00     0.188 C 
BRANCH  33  34
ATOM     34  O   UNL A   1      38.351  19.394  25.089  1.00  0.00    -0.376 OA
BRANCH  34  35
ATOM     35  C   UNL A   1      39.567  19.813  25.692  1.00  0.00     0.202 C 
BRANCH  35  36
ATOM     36  C   UNL A   1      40.694  18.766  25.753  1.00  0.00     0.261 C 
BRANCH  36  37
ATOM     37  O   UNL A   1      41.810  19.184  26.543  1.00  0.00    -0.460 OA
BRANCH  37  38
ATOM     38  C   UNL A   1      42.757  19.941  25.937  1.00  0.00     0.338 C 
ATOM     39  O   UNL A   1      43.468  19.637  24.994  1.00  0.00    -0.246 OA
BRANCH  38  40
ATOM     40  C   UNL A   1      42.541  21.306  26.449  1.00  0.00     0.060 A 
ATOM     41  C   UNL A   1      43.268  22.383  25.926  1.00  0.00     0.016 A 
ATOM     42  C   UNL A   1      41.883  21.405  27.682  1.00  0.00     0.016 A 
ATOM     43  C   UNL A   1      43.446  23.515  26.716  1.00  0.00     0.010 A 
ATOM     44  C   UNL A   1      42.081  22.531  28.475  1.00  0.00     0.010 A 
ATOM     45  C   UNL A   1      42.904  23.561  28.013  1.00  0.00    -0.014 A 
BRANCH  45  46
ATOM     46  C   UNL A   1      43.019  24.818  28.755  1.00  0.00     0.031 A 
ATOM     47  C   UNL A   1      41.927  25.767  28.418  1.00  0.00     0.074 A 
ATOM     48  C   UNL A   1      43.850  25.092  29.779  1.00  0.00     0.049 A 
ATOM     49  N   UNL A   1      42.020  26.954  27.914  1.00  0.00    -0.248 NA
ATOM     50  C   UNL A   1      40.554  25.256  28.548  1.00  0.00     0.031 C 
ATOM     51  C   UNL A   1      44.751  24.173  30.473  1.00  0.00     0.029 A 
ATOM     52  N   UNL A   1      43.943  26.243  30.520  1.00  0.00    -0.354 N 
ATOM     53  C   UNL A   1      40.709  27.410  27.845  1.00  0.00     0.074 A 
ATOM     54  C   UNL A   1      39.849  26.276  28.074  1.00  0.00     0.031 C 
ATOM     55  C   UNL A   1      45.113  24.722  31.654  1.00  0.00     0.029 A 
ATOM     56  C   UNL A   1      44.528  26.048  31.769  1.00  0.00     0.049 A 
ATOM     57  H   UNL A   1      43.628  27.119  30.201  1.00  0.00     0.167 HD
ATOM     58  C   UNL A   1      40.382  28.727  27.845  1.00  0.00     0.034 A 
ATOM     59  C   UNL A   1      44.426  26.864  32.849  1.00  0.00     0.034 A 
ATOM     60  C   UNL A   1      41.481  29.592  27.551  1.00  0.00     0.049 A 
ATOM     61  C   UNL A   1      44.033  28.209  32.361  1.00  0.00     0.074 A 
ATOM     62  C   UNL A   1      42.363  29.728  26.500  1.00  0.00     0.029 A 
ATOM     63  N   UNL A   1      42.011  30.311  28.593  1.00  0.00    -0.354 N 
ATOM     64  N   UNL A   1      44.795  28.985  31.641  1.00  0.00    -0.248 NA
ATOM     65  C   UNL A   1      42.628  28.584  32.408  1.00  0.00     0.031 C 
ATOM     66  C   UNL A   1      43.586  30.151  27.094  1.00  0.00     0.029 A 
ATOM     67  C   UNL A   1      43.373  30.244  28.471  1.00  0.00     0.049 A 
ATOM     68  H   UNL A   1      41.507  30.785  29.294  1.00  0.00     0.167 HD
ATOM     69  C   UNL A   1      43.916  29.688  30.829  1.00  0.00     0.074 A 
ATOM     70  C   UNL A   1      42.604  29.497  31.434  1.00  0.00     0.031 C 
ATOM     71  C   UNL A   1      44.286  30.118  29.587  1.00  0.00     0.034 A 
BRANCH  58  72
ATOM     72  C   UNL A   1      39.102  29.223  28.442  1.00  0.00     0.023 A 
ATOM     73  C   UNL A   1      38.088  29.691  27.589  1.00  0.00     0.012 A 
ATOM     74  C   UNL A   1      38.940  29.431  29.831  1.00  0.00     0.148 A 
ATOM     75  C   UNL A   1      36.946  30.312  28.105  1.00  0.00     0.002 A 
ATOM     76  C   UNL A   1      37.764  29.952  30.342  1.00  0.00     0.091 A 
ATOM     77  F   UNL A   1      39.977  29.231  30.657  1.00  0.00    -0.205 F 
ATOM     78  C   UNL A   1      36.768  30.416  29.482  1.00  0.00     0.022 A 
BRANCH  76  79
ATOM     79  S   UNL A   1      37.484  29.983  32.113  1.00  0.00     0.127 S 
ATOM     80  O   UNL A   1      38.697  30.633  32.595  1.00  0.00    -0.237 OA
ATOM     81  O   UNL A   1      36.264  30.785  32.220  1.00  0.00    -0.237 OA
ATOM     82  O   UNL A   1      37.303  28.582  32.477  1.00  0.00    -0.744 OA
ENDBRANCH  76  79
ENDBRANCH  58  72
BRANCH  59  83
ATOM     83  C   UNL A   1      44.439  26.520  34.300  1.00  0.00     0.023 A 
ATOM     84  C   UNL A   1      43.222  26.309  34.983  1.00  0.00     0.012 A 
ATOM     85  C   UNL A   1      45.628  26.176  34.981  1.00  0.00     0.148 A 
ATOM     86  C   UNL A   1      43.194  25.769  36.280  1.00  0.00     0.002 A 
ATOM     87  C   UNL A   1      45.599  25.683  36.284  1.00  0.00     0.091 A 
ATOM     88  F   UNL A   1      46.798  26.226  34.330  1.00  0.00    -0.205 F 
ATOM     89  C   UNL A   1      44.384  25.463  36.934  1.00  0.00     0.022 A 
BRANCH  87  90
ATOM     90  S   UNL A   1      47.129  25.329  37.162  1.00  0.00     0.127 S 
ATOM     91  O   UNL A   1      48.095  26.191  36.480  1.00  0.00    -0.237 OA
ATOM     92  O   UNL A   1      46.804  25.731  38.525  1.00  0.00    -0.237 OA
ATOM     93  O   UNL A   1      47.359  23.903  36.948  1.00  0.00    -0.744 OA
ENDBRANCH  87  90
ENDBRANCH  59  83
BRANCH  71  94
ATOM     94  C   UNL A   1      45.748  30.115  29.223  1.00  0.00     0.023 A 
ATOM     95  C   UNL A   1      46.487  28.914  29.174  1.00  0.00     0.012 A 
ATOM     96  C   UNL A   1      46.303  31.286  28.677  1.00  0.00     0.148 A 
ATOM     97  C   UNL A   1      47.754  28.883  28.590  1.00  0.00     0.002 A 
ATOM     98  C   UNL A   1      47.545  31.239  28.056  1.00  0.00     0.091 A 
ATOM     99  F   UNL A   1      45.571  32.410  28.715  1.00  0.00    -0.205 F 
ATOM    100  C   UNL A   1      48.276  30.040  28.016  1.00  0.00     0.022 A 
BRANCH  98 101
ATOM    101  S   UNL A   1      48.227  32.645  27.172  1.00  0.00     0.127 S 
ATOM    102  O   UNL A   1      49.419  32.068  26.551  1.00  0.00    -0.237 OA
ATOM    103  O   UNL A   1      47.148  32.972  26.238  1.00  0.00    -0.237 OA
ATOM    104  O   UNL A   1      48.489  33.670  28.174  1.00  0.00    -0.744 OA
ENDBRANCH  98 101
ENDBRANCH  71  94
ENDBRANCH  45  46
ENDBRANCH  38  40
ENDBRANCH  37  38
ENDBRANCH  36  37
ENDBRANCH  35  36
ENDBRANCH  34  35
ENDBRANCH  33  34
ENDBRANCH  32  33
ENDBRANCH   1  32
TORSDOF 27
ENDMDL
