MODEL 1
REMARK VINA RESULT:      -9.9      0.000      0.000
REMARK SMILES [NH3+][C@H](Cc1ccc2nsnc2c1)C(=O)OCCOCCOCCOCCOC(=O)c1ccc(-c2c3nc(c(-c4cccc(S(=O)(=O)[O-])c4F)c4ccc([nH]4)c(-c4cccc(S(=O)(=O)[O-])c4F)c4nc(c(-c5cccc(S(=O)(=O)[O-])c5F)c5ccc2[nH]5)C=C4)C=C3)cc1
REMARK SMILES IDX 22 1 21 2 20 3 19 4 18 5 17 6 16 7 15 8 13 9 14 10 2 11 1 12
REMARK SMILES IDX 3 16 4 17 5 18 12 19 6 20 11 21 7 22 10 23 8 24 9 25 23 26
REMARK SMILES IDX 24 27 25 28 26 29 27 30 28 31 29 32 30 33 31 34 92 35 32 36
REMARK SMILES IDX 91 37 33 38 34 39 35 40 85 41 36 42 90 43 84 44 86 45 37 46
REMARK SMILES IDX 89 47 83 48 82 49 38 51 70 52 50 53 69 54 51 55 54 56 68 57
REMARK SMILES IDX 87 58 52 59 53 60 67 62 88 63 55 64 39 65 40 66 48 67 41 68
REMARK SMILES IDX 43 69 49 70 42 71 44 72 45 73 46 74 47 75 71 76 72 77 80 78
REMARK SMILES IDX 73 79 75 80 81 81 74 82 76 83 77 84 78 85 79 86 56 87 57 88
REMARK SMILES IDX 65 89 58 90 60 91 66 92 59 93 61 94 62 95 63 96 64 97
REMARK H PARENT 1 13 1 14 1 15 86 50 54 61
REMARK Flexibility Score: inf
ROOT
ATOM      1  C   UNL A   1      31.784  28.549  27.600  1.00  0.00     0.188 C 
ENDROOT
BRANCH   1   2
ATOM      2  O   UNL A   1      31.210  27.282  27.293  1.00  0.00    -0.377 OA
BRANCH   2   3
ATOM      3  C   UNL A   1      30.820  27.074  25.954  1.00  0.00     0.188 C 
BRANCH   3   4
ATOM      4  C   UNL A   1      30.503  25.613  25.604  1.00  0.00     0.188 C 
BRANCH   4   5
ATOM      5  O   UNL A   1      31.169  24.535  26.243  1.00  0.00    -0.376 OA
BRANCH   5   6
ATOM      6  C   UNL A   1      30.800  23.182  26.001  1.00  0.00     0.202 C 
BRANCH   6   7
ATOM      7  C   UNL A   1      31.759  22.164  25.359  1.00  0.00     0.261 C 
BRANCH   7   8
ATOM      8  O   UNL A   1      32.294  21.157  26.228  1.00  0.00    -0.459 OA
BRANCH   8   9
ATOM      9  C   UNL A   1      33.639  21.163  26.392  1.00  0.00     0.365 C 
ATOM     10  O   UNL A   1      34.195  21.283  27.481  1.00  0.00    -0.245 OA
BRANCH   9  11
ATOM     11  C   UNL A   1      34.419  20.967  25.067  1.00  0.00     0.296 C 
BRANCH  11  12
ATOM     12  N   UNL A   1      34.975  19.596  25.041  1.00  0.00    -0.346 N 
ATOM     13  H   UNL A   1      35.870  19.602  24.553  1.00  0.00     0.345 HD
ATOM     14  H   UNL A   1      34.327  18.976  24.557  1.00  0.00     0.345 HD
ATOM     15  H   UNL A   1      35.111  19.266  25.997  1.00  0.00     0.345 HD
ENDBRANCH  11  12
BRANCH  11  16
ATOM     16  C   UNL A   1      35.419  22.087  24.673  1.00  0.00     0.113 C 
BRANCH  16  17
ATOM     17  C   UNL A   1      34.856  23.467  24.411  1.00  0.00    -0.039 A 
ATOM     18  C   UNL A   1      34.800  24.386  25.496  1.00  0.00     0.006 A 
ATOM     19  C   UNL A   1      34.423  23.798  23.108  1.00  0.00     0.035 A 
ATOM     20  C   UNL A   1      34.353  25.711  25.367  1.00  0.00     0.032 A 
ATOM     21  C   UNL A   1      33.985  25.128  22.921  1.00  0.00     0.105 A 
ATOM     22  C   UNL A   1      33.956  26.105  24.069  1.00  0.00     0.104 A 
ATOM     23  N   UNL A   1      33.576  25.660  21.757  1.00  0.00    -0.173 NA
ATOM     24  N   UNL A   1      33.535  27.324  23.706  1.00  0.00    -0.173 NA
ATOM     25  S   UNL A   1      33.207  27.248  22.083  1.00  0.00     0.069 S 
ENDBRANCH  16  17
ENDBRANCH  11  16
ENDBRANCH   9  11
ENDBRANCH   8   9
ENDBRANCH   7   8
ENDBRANCH   6   7
ENDBRANCH   5   6
ENDBRANCH   4   5
ENDBRANCH   3   4
ENDBRANCH   2   3
ENDBRANCH   1   2
BRANCH   1  26
ATOM     26  C   UNL A   1      33.062  28.967  26.838  1.00  0.00     0.188 C 
BRANCH  26  27
ATOM     27  O   UNL A   1      32.994  30.253  26.232  1.00  0.00    -0.376 OA
BRANCH  27  28
ATOM     28  C   UNL A   1      31.746  30.932  26.201  1.00  0.00     0.202 C 
BRANCH  28  29
ATOM     29  C   UNL A   1      31.615  32.273  26.945  1.00  0.00     0.261 C 
BRANCH  29  30
ATOM     30  O   UNL A   1      32.724  33.179  26.853  1.00  0.00    -0.460 OA
BRANCH  30  31
ATOM     31  C   UNL A   1      33.151  33.781  27.986  1.00  0.00     0.338 C 
ATOM     32  O   UNL A   1      32.546  34.592  28.652  1.00  0.00    -0.246 OA
BRANCH  31  33
ATOM     33  C   UNL A   1      34.410  33.118  28.397  1.00  0.00     0.060 A 
ATOM     34  C   UNL A   1      34.342  31.852  28.993  1.00  0.00     0.016 A 
ATOM     35  C   UNL A   1      35.643  33.742  28.201  1.00  0.00     0.016 A 
ATOM     36  C   UNL A   1      35.504  31.228  29.447  1.00  0.00     0.010 A 
ATOM     37  C   UNL A   1      36.804  33.128  28.677  1.00  0.00     0.010 A 
ATOM     38  C   UNL A   1      36.734  31.890  29.341  1.00  0.00    -0.014 A 
BRANCH  38  39
ATOM     39  C   UNL A   1      37.897  31.411  30.126  1.00  0.00     0.031 A 
ATOM     40  C   UNL A   1      38.776  30.356  29.510  1.00  0.00     0.074 A 
ATOM     41  C   UNL A   1      38.170  31.888  31.354  1.00  0.00     0.049 A 
ATOM     42  N   UNL A   1      39.799  29.724  30.021  1.00  0.00    -0.248 NA
ATOM     43  C   UNL A   1      38.450  29.955  28.131  1.00  0.00     0.031 C 
ATOM     44  C   UNL A   1      37.411  32.925  32.047  1.00  0.00     0.029 A 
ATOM     45  N   UNL A   1      39.151  31.531  32.245  1.00  0.00    -0.354 N 
ATOM     46  C   UNL A   1      40.213  28.826  29.046  1.00  0.00     0.074 A 
ATOM     47  C   UNL A   1      39.327  28.987  27.915  1.00  0.00     0.031 C 
ATOM     48  C   UNL A   1      37.933  33.097  33.274  1.00  0.00     0.029 A 
ATOM     49  C   UNL A   1      39.039  32.160  33.463  1.00  0.00     0.049 A 
ATOM     50  H   UNL A   1      39.865  30.888  32.033  1.00  0.00     0.167 HD
ATOM     51  C   UNL A   1      41.243  27.949  29.081  1.00  0.00     0.034 A 
ATOM     52  C   UNL A   1      39.729  31.971  34.606  1.00  0.00     0.034 A 
ATOM     53  C   UNL A   1      42.129  27.797  30.203  1.00  0.00     0.049 A 
ATOM     54  C   UNL A   1      40.847  30.959  34.637  1.00  0.00     0.074 A 
ATOM     55  C   UNL A   1      43.229  26.967  30.322  1.00  0.00     0.029 A 
ATOM     56  N   UNL A   1      42.005  28.474  31.406  1.00  0.00    -0.354 N 
ATOM     57  N   UNL A   1      41.291  30.187  33.676  1.00  0.00    -0.248 NA
ATOM     58  C   UNL A   1      41.579  30.814  35.905  1.00  0.00     0.031 C 
ATOM     59  C   UNL A   1      43.744  27.110  31.614  1.00  0.00     0.029 A 
ATOM     60  C   UNL A   1      42.997  28.068  32.280  1.00  0.00     0.049 A 
ATOM     61  H   UNL A   1      41.313  29.144  31.608  1.00  0.00     0.167 HD
ATOM     62  C   UNL A   1      42.378  29.499  34.207  1.00  0.00     0.074 A 
ATOM     63  C   UNL A   1      42.534  29.956  35.572  1.00  0.00     0.031 C 
ATOM     64  C   UNL A   1      43.172  28.569  33.620  1.00  0.00     0.034 A 
BRANCH  51  65
ATOM     65  C   UNL A   1      41.464  27.083  27.869  1.00  0.00     0.023 A 
ATOM     66  C   UNL A   1      42.120  27.607  26.736  1.00  0.00     0.012 A 
ATOM     67  C   UNL A   1      41.054  25.736  27.868  1.00  0.00     0.148 A 
ATOM     68  C   UNL A   1      42.327  26.816  25.607  1.00  0.00     0.002 A 
ATOM     69  C   UNL A   1      41.311  24.939  26.759  1.00  0.00     0.091 A 
ATOM     70  F   UNL A   1      40.411  25.263  28.945  1.00  0.00    -0.205 F 
ATOM     71  C   UNL A   1      41.933  25.481  25.623  1.00  0.00     0.022 A 
BRANCH  69  72
ATOM     72  S   UNL A   1      40.916  23.188  26.714  1.00  0.00     0.127 S 
ATOM     73  O   UNL A   1      41.384  22.747  28.027  1.00  0.00    -0.237 OA
ATOM     74  O   UNL A   1      39.461  23.207  26.560  1.00  0.00    -0.237 OA
ATOM     75  O   UNL A   1      41.642  22.640  25.577  1.00  0.00    -0.744 OA
ENDBRANCH  69  72
ENDBRANCH  51  65
BRANCH  52  76
ATOM     76  C   UNL A   1      39.394  32.770  35.820  1.00  0.00     0.023 A 
ATOM     77  C   UNL A   1      39.899  34.077  35.958  1.00  0.00     0.012 A 
ATOM     78  C   UNL A   1      38.573  32.239  36.834  1.00  0.00     0.148 A 
ATOM     79  C   UNL A   1      39.619  34.830  37.100  1.00  0.00     0.002 A 
ATOM     80  C   UNL A   1      38.250  33.016  37.940  1.00  0.00     0.091 A 
ATOM     81  F   UNL A   1      38.115  30.988  36.689  1.00  0.00    -0.205 F 
ATOM     82  C   UNL A   1      38.787  34.305  38.085  1.00  0.00     0.022 A 
BRANCH  80  83
ATOM     83  S   UNL A   1      37.084  32.472  39.194  1.00  0.00     0.127 S 
ATOM     84  O   UNL A   1      37.347  33.418  40.276  1.00  0.00    -0.237 OA
ATOM     85  O   UNL A   1      35.805  32.657  38.509  1.00  0.00    -0.237 OA
ATOM     86  O   UNL A   1      37.423  31.084  39.473  1.00  0.00    -0.744 OA
ENDBRANCH  80  83
ENDBRANCH  52  76
BRANCH  64  87
ATOM     87  C   UNL A   1      44.325  28.018  34.421  1.00  0.00     0.023 A 
ATOM     88  C   UNL A   1      45.612  28.576  34.295  1.00  0.00     0.012 A 
ATOM     89  C   UNL A   1      44.107  26.993  35.366  1.00  0.00     0.148 A 
ATOM     90  C   UNL A   1      46.671  28.099  35.069  1.00  0.00     0.002 A 
ATOM     91  C   UNL A   1      45.153  26.562  36.172  1.00  0.00     0.091 A 
ATOM     92  F   UNL A   1      42.879  26.464  35.462  1.00  0.00    -0.205 F 
ATOM     93  C   UNL A   1      46.438  27.103  36.015  1.00  0.00     0.022 A 
BRANCH  91  94
ATOM     94  S   UNL A   1      44.925  25.357  37.485  1.00  0.00     0.127 S 
ATOM     95  O   UNL A   1      44.529  24.168  36.733  1.00  0.00    -0.237 OA
ATOM     96  O   UNL A   1      46.263  25.289  38.075  1.00  0.00    -0.237 OA
ATOM     97  O   UNL A   1      43.903  25.907  38.364  1.00  0.00    -0.744 OA
ENDBRANCH  91  94
ENDBRANCH  64  87
ENDBRANCH  38  39
ENDBRANCH  31  33
ENDBRANCH  30  31
ENDBRANCH  29  30
ENDBRANCH  28  29
ENDBRANCH  27  28
ENDBRANCH  26  27
ENDBRANCH   1  26
TORSDOF 26
ENDMDL
MODEL 2
REMARK VINA RESULT:      -9.2      0.735      7.436
REMARK SMILES [NH3+][C@H](Cc1ccc2nsnc2c1)C(=O)OCCOCCOCCOCCOC(=O)c1ccc(-c2c3nc(c(-c4cccc(S(=O)(=O)[O-])c4F)c4ccc([nH]4)c(-c4cccc(S(=O)(=O)[O-])c4F)c4nc(c(-c5cccc(S(=O)(=O)[O-])c5F)c5ccc2[nH]5)C=C4)C=C3)cc1
REMARK SMILES IDX 22 1 21 2 20 3 19 4 18 5 17 6 16 7 15 8 13 9 14 10 2 11 1 12
REMARK SMILES IDX 3 16 4 17 5 18 12 19 6 20 11 21 7 22 10 23 8 24 9 25 23 26
REMARK SMILES IDX 24 27 25 28 26 29 27 30 28 31 29 32 30 33 31 34 92 35 32 36
REMARK SMILES IDX 91 37 33 38 34 39 35 40 85 41 36 42 90 43 84 44 86 45 37 46
REMARK SMILES IDX 89 47 83 48 82 49 38 51 70 52 50 53 69 54 51 55 54 56 68 57
REMARK SMILES IDX 87 58 52 59 53 60 67 62 88 63 55 64 39 65 40 66 48 67 41 68
REMARK SMILES IDX 43 69 49 70 42 71 44 72 45 73 46 74 47 75 71 76 72 77 80 78
REMARK SMILES IDX 73 79 75 80 81 81 74 82 76 83 77 84 78 85 79 86 56 87 57 88
REMARK SMILES IDX 65 89 58 90 60 91 66 92 59 93 61 94 62 95 63 96 64 97
REMARK H PARENT 1 13 1 14 1 15 86 50 54 61
REMARK Flexibility Score: inf
ROOT
ATOM      1  C   UNL A   1      31.871  28.244  27.388  1.00  0.00     0.188 C 
ENDROOT
BRANCH   1   2
ATOM      2  O   UNL A   1      31.071  27.086  27.163  1.00  0.00    -0.377 OA
BRANCH   2   3
ATOM      3  C   UNL A   1      30.965  26.642  25.828  1.00  0.00     0.188 C 
BRANCH   3   4
ATOM      4  C   UNL A   1      30.120  25.374  25.647  1.00  0.00     0.188 C 
BRANCH   4   5
ATOM      5  O   UNL A   1      29.980  24.417  26.686  1.00  0.00    -0.376 OA
BRANCH   5   6
ATOM      6  C   UNL A   1      30.834  23.283  26.775  1.00  0.00     0.202 C 
BRANCH   6   7
ATOM      7  C   UNL A   1      31.426  22.592  25.535  1.00  0.00     0.261 C 
BRANCH   7   8
ATOM      8  O   UNL A   1      31.973  21.282  25.736  1.00  0.00    -0.459 OA
BRANCH   8   9
ATOM      9  C   UNL A   1      33.273  21.229  26.115  1.00  0.00     0.365 C 
ATOM     10  O   UNL A   1      33.647  21.273  27.284  1.00  0.00    -0.245 OA
BRANCH   9  11
ATOM     11  C   UNL A   1      34.253  21.069  24.924  1.00  0.00     0.296 C 
BRANCH  11  12
ATOM     12  N   UNL A   1      34.985  19.794  25.078  1.00  0.00    -0.346 N 
ATOM     13  H   UNL A   1      35.770  19.927  25.716  1.00  0.00     0.345 HD
ATOM     14  H   UNL A   1      35.333  19.489  24.170  1.00  0.00     0.345 HD
ATOM     15  H   UNL A   1      34.356  19.083  25.456  1.00  0.00     0.345 HD
ENDBRANCH  11  12
BRANCH  11  16
ATOM     16  C   UNL A   1      35.139  22.296  24.579  1.00  0.00     0.113 C 
BRANCH  16  17
ATOM     17  C   UNL A   1      34.496  23.430  23.811  1.00  0.00    -0.039 A 
ATOM     18  C   UNL A   1      33.757  23.110  22.637  1.00  0.00     0.006 A 
ATOM     19  C   UNL A   1      34.635  24.751  24.288  1.00  0.00     0.035 A 
ATOM     20  C   UNL A   1      33.067  24.065  21.871  1.00  0.00     0.032 A 
ATOM     21  C   UNL A   1      33.939  25.747  23.565  1.00  0.00     0.105 A 
ATOM     22  C   UNL A   1      33.135  25.396  22.339  1.00  0.00     0.104 A 
ATOM     23  N   UNL A   1      33.901  27.054  23.873  1.00  0.00    -0.173 NA
ATOM     24  N   UNL A   1      32.527  26.459  21.793  1.00  0.00    -0.173 NA
ATOM     25  S   UNL A   1      32.927  27.767  22.730  1.00  0.00     0.069 S 
ENDBRANCH  16  17
ENDBRANCH  11  16
ENDBRANCH   9  11
ENDBRANCH   8   9
ENDBRANCH   7   8
ENDBRANCH   6   7
ENDBRANCH   5   6
ENDBRANCH   4   5
ENDBRANCH   3   4
ENDBRANCH   2   3
ENDBRANCH   1   2
BRANCH   1  26
ATOM     26  C   UNL A   1      32.070  29.225  26.210  1.00  0.00     0.188 C 
BRANCH  26  27
ATOM     27  O   UNL A   1      31.654  30.559  26.477  1.00  0.00    -0.376 OA
BRANCH  27  28
ATOM     28  C   UNL A   1      32.535  31.425  27.180  1.00  0.00     0.202 C 
BRANCH  28  29
ATOM     29  C   UNL A   1      32.402  32.945  26.970  1.00  0.00     0.261 C 
BRANCH  29  30
ATOM     30  O   UNL A   1      32.482  33.772  28.140  1.00  0.00    -0.460 OA
BRANCH  30  31
ATOM     31  C   UNL A   1      33.637  34.435  28.373  1.00  0.00     0.338 C 
ATOM     32  O   UNL A   1      33.788  35.636  28.436  1.00  0.00    -0.246 OA
BRANCH  31  33
ATOM     33  C   UNL A   1      34.660  33.432  28.750  1.00  0.00     0.060 A 
ATOM     34  C   UNL A   1      34.390  32.561  29.814  1.00  0.00     0.016 A 
ATOM     35  C   UNL A   1      35.875  33.358  28.066  1.00  0.00     0.016 A 
ATOM     36  C   UNL A   1      35.356  31.648  30.234  1.00  0.00     0.010 A 
ATOM     37  C   UNL A   1      36.851  32.458  28.502  1.00  0.00     0.010 A 
ATOM     38  C   UNL A   1      36.612  31.633  29.615  1.00  0.00    -0.014 A 
BRANCH  38  39
ATOM     39  C   UNL A   1      37.746  30.936  30.269  1.00  0.00     0.031 A 
ATOM     40  C   UNL A   1      38.133  31.368  31.658  1.00  0.00     0.074 A 
ATOM     41  C   UNL A   1      38.422  29.949  29.654  1.00  0.00     0.049 A 
ATOM     42  N   UNL A   1      39.128  30.971  32.405  1.00  0.00    -0.248 NA
ATOM     43  C   UNL A   1      37.284  32.396  32.283  1.00  0.00     0.031 C 
ATOM     44  C   UNL A   1      38.129  29.424  28.323  1.00  0.00     0.029 A 
ATOM     45  N   UNL A   1      39.520  29.237  30.067  1.00  0.00    -0.354 N 
ATOM     46  C   UNL A   1      39.049  31.725  33.569  1.00  0.00     0.074 A 
ATOM     47  C   UNL A   1      37.915  32.610  33.428  1.00  0.00     0.031 C 
ATOM     48  C   UNL A   1      39.050  28.495  28.012  1.00  0.00     0.029 A 
ATOM     49  C   UNL A   1      40.013  28.385  29.106  1.00  0.00     0.049 A 
ATOM     50  H   UNL A   1      39.916  29.326  30.963  1.00  0.00     0.167 HD
ATOM     51  C   UNL A   1      39.844  31.682  34.664  1.00  0.00     0.034 A 
ATOM     52  C   UNL A   1      41.133  27.633  29.101  1.00  0.00     0.034 A 
ATOM     53  C   UNL A   1      40.965  30.795  34.807  1.00  0.00     0.049 A 
ATOM     54  C   UNL A   1      42.028  27.631  30.316  1.00  0.00     0.074 A 
ATOM     55  C   UNL A   1      41.808  30.644  35.893  1.00  0.00     0.029 A 
ATOM     56  N   UNL A   1      41.414  29.923  33.827  1.00  0.00    -0.354 N 
ATOM     57  N   UNL A   1      41.887  28.275  31.448  1.00  0.00    -0.248 NA
ATOM     58  C   UNL A   1      43.221  26.773  30.261  1.00  0.00     0.031 C 
ATOM     59  C   UNL A   1      42.794  29.712  35.554  1.00  0.00     0.029 A 
ATOM     60  C   UNL A   1      42.533  29.245  34.275  1.00  0.00     0.049 A 
ATOM     61  H   UNL A   1      40.999  29.806  32.942  1.00  0.00     0.167 HD
ATOM     62  C   UNL A   1      42.945  27.869  32.255  1.00  0.00     0.074 A 
ATOM     63  C   UNL A   1      43.713  26.912  31.486  1.00  0.00     0.031 C 
ATOM     64  C   UNL A   1      43.258  28.257  33.517  1.00  0.00     0.034 A 
BRANCH  51  65
ATOM     65  C   UNL A   1      39.527  32.627  35.793  1.00  0.00     0.023 A 
ATOM     66  C   UNL A   1      39.980  33.961  35.747  1.00  0.00     0.012 A 
ATOM     67  C   UNL A   1      38.746  32.200  36.885  1.00  0.00     0.148 A 
ATOM     68  C   UNL A   1      39.695  34.844  36.787  1.00  0.00     0.002 A 
ATOM     69  C   UNL A   1      38.422  33.100  37.893  1.00  0.00     0.091 A 
ATOM     70  F   UNL A   1      38.344  30.922  36.923  1.00  0.00    -0.205 F 
ATOM     71  C   UNL A   1      38.908  34.417  37.853  1.00  0.00     0.022 A 
BRANCH  69  72
ATOM     72  S   UNL A   1      37.348  32.670  39.266  1.00  0.00     0.127 S 
ATOM     73  O   UNL A   1      37.650  33.735  40.220  1.00  0.00    -0.237 OA
ATOM     74  O   UNL A   1      36.022  32.756  38.654  1.00  0.00    -0.237 OA
ATOM     75  O   UNL A   1      37.741  31.331  39.682  1.00  0.00    -0.744 OA
ENDBRANCH  69  72
ENDBRANCH  51  65
BRANCH  52  76
ATOM     76  C   UNL A   1      41.469  26.803  27.909  1.00  0.00     0.023 A 
ATOM     77  C   UNL A   1      42.159  27.382  26.827  1.00  0.00     0.012 A 
ATOM     78  C   UNL A   1      41.110  25.442  27.848  1.00  0.00     0.148 A 
ATOM     79  C   UNL A   1      42.457  26.628  25.690  1.00  0.00     0.002 A 
ATOM     80  C   UNL A   1      41.463  24.683  26.739  1.00  0.00     0.091 A 
ATOM     81  F   UNL A   1      40.442  24.915  28.883  1.00  0.00    -0.205 F 
ATOM     82  C   UNL A   1      42.119  25.278  25.650  1.00  0.00     0.022 A 
BRANCH  80  83
ATOM     83  S   UNL A   1      41.185  22.910  26.655  1.00  0.00     0.127 S 
ATOM     84  O   UNL A   1      39.848  22.845  26.071  1.00  0.00    -0.237 OA
ATOM     85  O   UNL A   1      42.268  22.482  25.771  1.00  0.00    -0.237 OA
ATOM     86  O   UNL A   1      41.298  22.427  28.024  1.00  0.00    -0.744 OA
ENDBRANCH  80  83
ENDBRANCH  52  76
BRANCH  64  87
ATOM     87  C   UNL A   1      44.447  27.608  34.181  1.00  0.00     0.023 A 
ATOM     88  C   UNL A   1      45.687  28.273  34.229  1.00  0.00     0.012 A 
ATOM     89  C   UNL A   1      44.304  26.366  34.834  1.00  0.00     0.148 A 
ATOM     90  C   UNL A   1      46.776  27.696  34.883  1.00  0.00     0.002 A 
ATOM     91  C   UNL A   1      45.377  25.823  35.530  1.00  0.00     0.091 A 
ATOM     92  F   UNL A   1      43.120  25.740  34.765  1.00  0.00    -0.205 F 
ATOM     93  C   UNL A   1      46.617  26.480  35.544  1.00  0.00     0.022 A 
BRANCH  91  94
ATOM     94  S   UNL A   1      45.237  24.314  36.494  1.00  0.00     0.127 S 
ATOM     95  O   UNL A   1      46.626  23.857  36.535  1.00  0.00    -0.237 OA
ATOM     96  O   UNL A   1      44.720  24.810  37.770  1.00  0.00    -0.237 OA
ATOM     97  O   UNL A   1      44.320  23.451  35.762  1.00  0.00    -0.744 OA
ENDBRANCH  91  94
ENDBRANCH  64  87
ENDBRANCH  38  39
ENDBRANCH  31  33
ENDBRANCH  30  31
ENDBRANCH  29  30
ENDBRANCH  28  29
ENDBRANCH  27  28
ENDBRANCH  26  27
ENDBRANCH   1  26
TORSDOF 26
ENDMDL
MODEL 3
REMARK VINA RESULT:      -9.2      2.068      7.804
REMARK SMILES [NH3+][C@H](Cc1ccc2nsnc2c1)C(=O)OCCOCCOCCOCCOC(=O)c1ccc(-c2c3nc(c(-c4cccc(S(=O)(=O)[O-])c4F)c4ccc([nH]4)c(-c4cccc(S(=O)(=O)[O-])c4F)c4nc(c(-c5cccc(S(=O)(=O)[O-])c5F)c5ccc2[nH]5)C=C4)C=C3)cc1
REMARK SMILES IDX 22 1 21 2 20 3 19 4 18 5 17 6 16 7 15 8 13 9 14 10 2 11 1 12
REMARK SMILES IDX 3 16 4 17 5 18 12 19 6 20 11 21 7 22 10 23 8 24 9 25 23 26
REMARK SMILES IDX 24 27 25 28 26 29 27 30 28 31 29 32 30 33 31 34 92 35 32 36
REMARK SMILES IDX 91 37 33 38 34 39 35 40 85 41 36 42 90 43 84 44 86 45 37 46
REMARK SMILES IDX 89 47 83 48 82 49 38 51 70 52 50 53 69 54 51 55 54 56 68 57
REMARK SMILES IDX 87 58 52 59 53 60 67 62 88 63 55 64 39 65 40 66 48 67 41 68
REMARK SMILES IDX 43 69 49 70 42 71 44 72 45 73 46 74 47 75 71 76 72 77 80 78
REMARK SMILES IDX 73 79 75 80 81 81 74 82 76 83 77 84 78 85 79 86 56 87 57 88
REMARK SMILES IDX 65 89 58 90 60 91 66 92 59 93 61 94 62 95 63 96 64 97
REMARK H PARENT 1 13 1 14 1 15 86 50 54 61
REMARK Flexibility Score: inf
ROOT
ATOM      1  C   UNL A   1      33.433  28.036  26.710  1.00  0.00     0.188 C 
ENDROOT
BRANCH   1   2
ATOM      2  O   UNL A   1      33.990  27.116  25.776  1.00  0.00    -0.377 OA
BRANCH   2   3
ATOM      3  C   UNL A   1      33.594  25.769  25.903  1.00  0.00     0.188 C 
BRANCH   3   4
ATOM      4  C   UNL A   1      32.119  25.574  26.282  1.00  0.00     0.188 C 
BRANCH   4   5
ATOM      5  O   UNL A   1      31.675  24.414  26.969  1.00  0.00    -0.376 OA
BRANCH   5   6
ATOM      6  C   UNL A   1      32.014  23.107  26.523  1.00  0.00     0.202 C 
BRANCH   6   7
ATOM      7  C   UNL A   1      31.025  22.208  25.762  1.00  0.00     0.261 C 
BRANCH   7   8
ATOM      8  O   UNL A   1      31.591  21.111  25.033  1.00  0.00    -0.459 OA
BRANCH   8   9
ATOM      9  C   UNL A   1      32.591  21.418  24.172  1.00  0.00     0.365 C 
ATOM     10  O   UNL A   1      33.770  21.132  24.362  1.00  0.00    -0.245 OA
BRANCH   9  11
ATOM     11  C   UNL A   1      32.097  22.142  22.893  1.00  0.00     0.296 C 
BRANCH  11  12
ATOM     12  N   UNL A   1      31.634  21.127  21.921  1.00  0.00    -0.346 N 
ATOM     13  H   UNL A   1      32.425  20.554  21.625  1.00  0.00     0.345 HD
ATOM     14  H   UNL A   1      31.229  21.593  21.110  1.00  0.00     0.345 HD
ATOM     15  H   UNL A   1      30.929  20.533  22.359  1.00  0.00     0.345 HD
ENDBRANCH  11  12
BRANCH  11  16
ATOM     16  C   UNL A   1      33.030  23.235  22.304  1.00  0.00     0.113 C 
BRANCH  16  17
ATOM     17  C   UNL A   1      32.613  24.679  22.481  1.00  0.00    -0.039 A 
ATOM     18  C   UNL A   1      33.580  25.692  22.229  1.00  0.00     0.006 A 
ATOM     19  C   UNL A   1      31.287  24.970  22.872  1.00  0.00     0.035 A 
ATOM     20  C   UNL A   1      33.300  27.066  22.302  1.00  0.00     0.032 A 
ATOM     21  C   UNL A   1      30.948  26.340  22.938  1.00  0.00     0.105 A 
ATOM     22  C   UNL A   1      31.971  27.408  22.641  1.00  0.00     0.104 A 
ATOM     23  N   UNL A   1      29.736  26.832  23.244  1.00  0.00    -0.173 NA
ATOM     24  N   UNL A   1      31.470  28.648  22.731  1.00  0.00    -0.173 NA
ATOM     25  S   UNL A   1      29.874  28.486  23.148  1.00  0.00     0.069 S 
ENDBRANCH  16  17
ENDBRANCH  11  16
ENDBRANCH   9  11
ENDBRANCH   8   9
ENDBRANCH   7   8
ENDBRANCH   6   7
ENDBRANCH   5   6
ENDBRANCH   4   5
ENDBRANCH   3   4
ENDBRANCH   2   3
ENDBRANCH   1   2
BRANCH   1  26
ATOM     26  C   UNL A   1      34.208  29.344  26.986  1.00  0.00     0.188 C 
BRANCH  26  27
ATOM     27  O   UNL A   1      33.548  30.525  26.545  1.00  0.00    -0.376 OA
BRANCH  27  28
ATOM     28  C   UNL A   1      32.957  31.383  27.511  1.00  0.00     0.202 C 
BRANCH  28  29
ATOM     29  C   UNL A   1      33.474  32.828  27.632  1.00  0.00     0.261 C 
BRANCH  29  30
ATOM     30  O   UNL A   1      32.549  33.812  28.115  1.00  0.00    -0.460 OA
BRANCH  30  31
ATOM     31  C   UNL A   1      33.045  34.892  28.758  1.00  0.00     0.338 C 
ATOM     32  O   UNL A   1      32.564  36.004  28.794  1.00  0.00    -0.246 OA
BRANCH  31  33
ATOM     33  C   UNL A   1      34.179  34.433  29.595  1.00  0.00     0.060 A 
ATOM     34  C   UNL A   1      35.483  34.594  29.110  1.00  0.00     0.016 A 
ATOM     35  C   UNL A   1      33.955  33.843  30.840  1.00  0.00     0.016 A 
ATOM     36  C   UNL A   1      36.567  34.116  29.845  1.00  0.00     0.010 A 
ATOM     37  C   UNL A   1      35.039  33.344  31.566  1.00  0.00     0.010 A 
ATOM     38  C   UNL A   1      36.344  33.438  31.050  1.00  0.00    -0.014 A 
BRANCH  38  39
ATOM     39  C   UNL A   1      37.431  32.626  31.649  1.00  0.00     0.031 A 
ATOM     40  C   UNL A   1      37.959  33.038  32.997  1.00  0.00     0.074 A 
ATOM     41  C   UNL A   1      37.945  31.554  31.020  1.00  0.00     0.049 A 
ATOM     42  N   UNL A   1      38.949  32.542  33.689  1.00  0.00    -0.248 NA
ATOM     43  C   UNL A   1      37.279  34.172  33.646  1.00  0.00     0.031 C 
ATOM     44  C   UNL A   1      37.503  31.040  29.726  1.00  0.00     0.029 A 
ATOM     45  N   UNL A   1      38.978  30.726  31.381  1.00  0.00    -0.354 N 
ATOM     46  C   UNL A   1      39.037  33.324  34.834  1.00  0.00     0.074 A 
ATOM     47  C   UNL A   1      38.006  34.334  34.741  1.00  0.00     0.031 C 
ATOM     48  C   UNL A   1      38.287  30.002  29.382  1.00  0.00     0.029 A 
ATOM     49  C   UNL A   1      39.303  29.802  30.415  1.00  0.00     0.049 A 
ATOM     50  H   UNL A   1      39.441  30.787  32.247  1.00  0.00     0.167 HD
ATOM     51  C   UNL A   1      39.893  33.211  35.876  1.00  0.00     0.034 A 
ATOM     52  C   UNL A   1      40.325  28.924  30.359  1.00  0.00     0.034 A 
ATOM     53  C   UNL A   1      40.912  32.200  35.971  1.00  0.00     0.049 A 
ATOM     54  C   UNL A   1      41.293  28.841  31.513  1.00  0.00     0.074 A 
ATOM     55  C   UNL A   1      41.803  31.974  37.004  1.00  0.00     0.029 A 
ATOM     56  N   UNL A   1      41.189  31.262  34.989  1.00  0.00    -0.354 N 
ATOM     57  N   UNL A   1      41.305  29.521  32.633  1.00  0.00    -0.248 NA
ATOM     58  C   UNL A   1      42.373  27.848  31.405  1.00  0.00     0.031 C 
ATOM     59  C   UNL A   1      42.648  30.926  36.628  1.00  0.00     0.029 A 
ATOM     60  C   UNL A   1      42.249  30.466  35.383  1.00  0.00     0.049 A 
ATOM     61  H   UNL A   1      40.704  31.176  34.137  1.00  0.00     0.167 HD
ATOM     62  C   UNL A   1      42.361  29.009  33.381  1.00  0.00     0.074 A 
ATOM     63  C   UNL A   1      42.958  27.954  32.591  1.00  0.00     0.031 C 
ATOM     64  C   UNL A   1      42.801  29.384  34.608  1.00  0.00     0.034 A 
BRANCH  51  65
ATOM     65  C   UNL A   1      39.766  34.209  36.996  1.00  0.00     0.023 A 
ATOM     66  C   UNL A   1      40.168  35.546  36.800  1.00  0.00     0.012 A 
ATOM     67  C   UNL A   1      39.209  33.829  38.233  1.00  0.00     0.148 A 
ATOM     68  C   UNL A   1      40.058  36.478  37.830  1.00  0.00     0.002 A 
ATOM     69  C   UNL A   1      39.054  34.776  39.237  1.00  0.00     0.091 A 
ATOM     70  F   UNL A   1      38.854  32.549  38.408  1.00  0.00    -0.205 F 
ATOM     71  C   UNL A   1      39.491  36.097  39.043  1.00  0.00     0.022 A 
BRANCH  69  72
ATOM     72  S   UNL A   1      38.261  34.403  40.805  1.00  0.00     0.127 S 
ATOM     73  O   UNL A   1      39.315  33.662  41.497  1.00  0.00    -0.237 OA
ATOM     74  O   UNL A   1      38.002  35.739  41.341  1.00  0.00    -0.237 OA
ATOM     75  O   UNL A   1      37.068  33.634  40.481  1.00  0.00    -0.744 OA
ENDBRANCH  69  72
ENDBRANCH  51  65
BRANCH  52  76
ATOM     76  C   UNL A   1      40.480  28.036  29.172  1.00  0.00     0.023 A 
ATOM     77  C   UNL A   1      39.709  26.861  29.071  1.00  0.00     0.012 A 
ATOM     78  C   UNL A   1      41.386  28.354  28.141  1.00  0.00     0.148 A 
ATOM     79  C   UNL A   1      39.862  26.003  27.981  1.00  0.00     0.002 A 
ATOM     80  C   UNL A   1      41.489  27.525  27.030  1.00  0.00     0.091 A 
ATOM     81  F   UNL A   1      42.120  29.468  28.264  1.00  0.00    -0.205 F 
ATOM     82  C   UNL A   1      40.743  26.339  26.956  1.00  0.00     0.022 A 
BRANCH  80  83
ATOM     83  S   UNL A   1      42.500  27.944  25.605  1.00  0.00     0.127 S 
ATOM     84  O   UNL A   1      43.824  28.079  26.207  1.00  0.00    -0.237 OA
ATOM     85  O   UNL A   1      42.322  26.764  24.759  1.00  0.00    -0.237 OA
ATOM     86  O   UNL A   1      41.928  29.167  25.060  1.00  0.00    -0.744 OA
ENDBRANCH  80  83
ENDBRANCH  52  76
BRANCH  64  87
ATOM     87  C   UNL A   1      43.949  28.613  35.213  1.00  0.00     0.023 A 
ATOM     88  C   UNL A   1      45.275  29.053  35.032  1.00  0.00     0.012 A 
ATOM     89  C   UNL A   1      43.698  27.494  36.033  1.00  0.00     0.148 A 
ATOM     90  C   UNL A   1      46.335  28.368  35.628  1.00  0.00     0.002 A 
ATOM     91  C   UNL A   1      44.753  26.851  36.668  1.00  0.00     0.091 A 
ATOM     92  F   UNL A   1      42.430  27.082  36.181  1.00  0.00    -0.205 F 
ATOM     93  C   UNL A   1      46.073  27.278  36.456  1.00  0.00     0.022 A 
BRANCH  91  94
ATOM     94  S   UNL A   1      44.504  25.504  37.830  1.00  0.00     0.127 S 
ATOM     95  O   UNL A   1      45.669  24.662  37.563  1.00  0.00    -0.237 OA
ATOM     96  O   UNL A   1      44.535  26.198  39.118  1.00  0.00    -0.237 OA
ATOM     97  O   UNL A   1      43.217  24.913  37.492  1.00  0.00    -0.744 OA
ENDBRANCH  91  94
ENDBRANCH  64  87
ENDBRANCH  38  39
ENDBRANCH  31  33
ENDBRANCH  30  31
ENDBRANCH  29  30
ENDBRANCH  28  29
ENDBRANCH  27  28
ENDBRANCH  26  27
ENDBRANCH   1  26
TORSDOF 26
ENDMDL
